AV-unprocessed.smi:2974|AV-procd|sdf|11353|dock2
  -GOLD-   2272016273D 1   1.00000     0.00000
 Structure written by MMmdl.
 27 28  0  0  0  0  0  0  0  0  3 V2000
  153.7137  138.6204  154.7661 O   0  0  0  0  0  0  0  0  0  0  0  0
  152.4782  138.4308  154.7280 C   0  0  0  0  0  0  0  0  0  0  0  0
  151.9625  137.4275  154.1866 O   0  5  0  0  0  0  0  0  0  0  0  0
  151.5723  139.4477  155.3575 C   0  0  0  0  0  0  0  0  0  0  0  0
  152.0491  140.4142  156.2729 C   0  0  0  0  0  0  0  0  0  0  0  0
  151.1523  141.3473  156.8354 C   0  0  0  0  0  0  0  0  0  0  0  0
  151.6359  142.3022  157.7401 N   0  0  0  0  0  0  0  0  0  0  0  0
  150.6957  143.3857  157.9977 C   0  0  0  0  0  0  0  0  0  0  0  0
  151.3506  144.4484  158.8974 C   0  0  0  0  0  0  0  0  0  0  0  0
  151.8178  143.8361  160.0962 O   0  0  0  0  0  0  0  0  0  0  0  0
  152.7953  142.8322  159.8378 C   0  0  0  0  0  0  0  0  0  0  0  0
  152.1787  141.7259  158.9640 C   0  0  0  0  0  0  0  0  0  0  0  0
  149.7874  141.2918  156.4660 C   0  0  0  0  0  0  0  0  0  0  0  0
  149.3629  140.3096  155.5495 C   0  0  0  0  0  0  0  0  0  0  0  0
  150.2578  139.4382  155.0377 N   0  3  0  0  0  0  0  0  0  0  0  0
  153.0952  140.4431  156.5443 H   0  0  0  0  0  0  0  0  0  0  0  0
  150.3821  143.8363  157.0550 H   0  0  0  0  0  0  0  0  0  0  0  0
  149.8009  142.9934  158.4827 H   0  0  0  0  0  0  0  0  0  0  0  0
  152.1767  144.9401  158.3814 H   0  0  0  0  0  0  0  0  0  0  0  0
  150.6276  145.2232  159.1525 H   0  0  0  0  0  0  0  0  0  0  0  0
  153.6660  143.2738  159.3502 H   0  0  0  0  0  0  0  0  0  0  0  0
  153.1374  142.4168  160.7857 H   0  0  0  0  0  0  0  0  0  0  0  0
  151.3886  141.2172  159.5181 H   0  0  0  0  0  0  0  0  0  0  0  0
  152.9347  140.9789  158.7181 H   0  0  0  0  0  0  0  0  0  0  0  0
  149.0734  141.9907  156.8763 H   0  0  0  0  0  0  0  0  0  0  0  0
  148.3433  140.1954  155.2121 H   0  0  0  0  0  0  0  0  0  0  0  0
  149.9355  138.7322  154.3747 H   0  0  0  0  0  0  0  0  0  0  0  0
  1  2  2  0  0  0  0
  2  3  1  0  0  0  0
  2  4  1  0  0  0  0
  4 15  1  0  0  0  0
  4  5  2  0  0  0  0
  5  6  1  0  0  0  0
  5 16  1  0  0  0  0
  6  7  1  0  0  0  0
  6 13  2  0  0  0  0
  7 12  1  0  0  0  0
  7  8  1  0  0  0  0
  8  9  1  0  0  0  0
  8 17  1  0  0  0  0
  8 18  1  0  0  0  0
  9 10  1  0  0  0  0
  9 19  1  0  0  0  0
  9 20  1  0  0  0  0
 10 11  1  0  0  0  0
 11 12  1  0  0  0  0
 11 21  1  0  0  0  0
 11 22  1  0  0  0  0
 12 23  1  0  0  0  0
 12 24  1  0  0  0  0
 13 14  1  0  0  0  0
 13 25  1  0  0  0  0
 14 15  2  0  0  0  0
 14 26  1  0  0  0  0
 15 27  1  0  0  0  0
M  CHG  1   3  -1
M  CHG  1  15   1
M  END
> <s_m_source_file>
AV-unprocessed.smi

> <i_m_source_file_index>
2974

> <i_lp_mmshare_version>
43012

> <i_f3d_flags>
0

> <s_epik_input>
Tz1DKFtPSF0pYzFbY0hdYyhbY0hdW2NIXW4xKU4yW0NIMl1bQ0gyXU9bQ0gyXVtDSDJdMg==

> <s_epik_cmdline>
J2VwaWtfcHl0aG9uJywgJy1waCcsICc3LjAnLCAnLXRuJywgJzgnLCAnLW1hJywgJzIwMCcsICctbWV0YWxfYmluZGluZycsICctaW1hZScsICc8aW5maWxlLm1hZT4nLCAnLW9tYWUnLCAnPG91dGZpbGUubWFlPic=

> <r_epik_Ionization_Penalty>
0.0248724

> <r_epik_Ionization_Penalty_Charging>
0.0248724

> <r_epik_Ionization_Penalty_Neutral>
3.18831e-12

> <r_epik_State_Penalty>
0.0202062

> <r_epik_Charging_Adjusted_Penalty>
0.0450787

> <i_epik_Tot_Q>
0

> <i_epik_Tot_abs_Q>
2

> <r_epik_Metal_State_Penalty>
2.1181

> <b_epik_Metal_Only>
0

> <s_lp_Force_Field>
OPLS_2005

> <r_lp_Energy>
18.0137

> <b_lp_Chiralities_Consistent>
1

> <s_lp_Variant>
AV-unprocessed.smi:2974-1

> <Gold.Version>
5.8.1

> <Gold.Id.Protein>
6NUR|6NUR_protein|mol2

> <Gold.PLP.Fitness>
39.1941

> <Gold.PLP.PLP>
-28.3890

> <Gold.PLP.part.hbond>
-2.0000

> <Gold.PLP.part.metal>
0.0000

> <Gold.PLP.part.buried>
-4.1502

> <Gold.PLP.part.nonpolar>
-22.0878

> <Gold.PLP.part.repulsive>
0.3486

> <Gold.PLP.ligand.clash>
0.0459

> <Gold.PLP.ligand.torsion>
0.2945

> <Gold.PLP.Chemscore.Hbond>
3.7760

> <Gold.PLP.Chemscore.CHOScore>
0.0000

> <Gold.PLP.Chemscore.Metal>
0.0000

> <Gold.Chemscore.Hbonds>
donor molecule, donor type, donor heavy atom, donor atom, acceptor molecule, acceptor atom, score
      P1  H  7997  8009       L1     1  1.75
      P1  H 10752 10765       L1     3  1.92

> <Gold.PLP.Chemscore.Internal.Correction>
0.1121

> <Gold.Rescore>
     Score         DG    S(hbond)    S(metal)    S(lipo)     H(rot)  DE(clash)    DE(int)     intcor
     16.80     -17.23       1.75        0.00      72.46       1.00       0.21       0.22       ----

> <Gold.Chemscore.Fitness>
16.7994

> <Gold.Chemscore.DG>
-17.2289

> <Gold.Chemscore.ZeroCoef>
-5.4800

> <Gold.Chemscore.Hbond>
1.7458

> <Gold.Chemscore.Metal>
0.0000

> <Gold.Chemscore.Lipo>
72.4604

> <Gold.Chemscore.Internal_Hbond>
0.0000

> <Gold.Chemscore.DEClash>
0.2069

> <Gold.Chemscore.DEInternal>
0.2226

> <Gold.Chemscore.Rot>
1.0000

> <Gold.Chemscore.Internal.Correction>
   9.000000E+99

> <Gold.Chemscore.Hbonds>
donor molecule, donor type, donor heavy atom, donor atom, acceptor molecule, acceptor atom, score
      P1  H  7997  8009       L1     1  0.80
      P1  H 10752 10765       L1     3  0.86

> <Gold.Chemscore.Hbond.Weighted>
-5.8310

> <Gold.Chemscore.Metal.Weighted>
-0.0000

> <Gold.Chemscore.Lipo.Weighted>
-8.4779

> <Gold.Chemscore.Internal_Hbond.Weighted>
0.0000

> <Gold.Chemscore.DEClash.Weighted>
0.2069

> <Gold.Chemscore.DEInternal.Weighted>
0.2226

> <Gold.Chemscore.Rot.Weighted>
2.5600

> <Gold.Chemscore.Internal.Correction.Weighted>
   9.000000E+99

> <Gold.Protein.RotatedTorsions>
[ 6907 6896 6895 6894 ] final   20.84 input  -60.11 | X-H torsion
[ 7974 7965 7964 7962 ] final -148.57 input  175.53 | X-H torsion
[ 8008 7997 7996 7995 ] final -122.24 input   59.86 | X-H torsion
[ 10167 10162 10161 10158 ] final  -40.35 input  -65.29 | X-H torsion
[ 10718 10713 10712 10709 ] final  133.00 input   66.30 | X-H torsion
[ 10763 10752 10751 10750 ] final  156.54 input  -60.55 | X-H torsion
[ 11005 11000 10999 10996 ] final -179.64 input  -57.11 | X-H torsion

> <Gold.Protein.ActiveResidues>
 VAL166  LYS551  ARG553  GLY616  TRP617  ASP618  TYR619  PRO620  LYS621  CYS622 
 ASP623  PHE694  ASN695  SER759  ASP760  ASP761  ALA762  ILE779  LEU786  VAL792 
 PHE793  MET794  SER795  GLU796  ALA797  LYS798  CYS799  TRP800  GLU811  SER814 

> <Gold.Protein.RotatedAtoms>
  151.9026  135.0372  160.0507 H   0  0  0  0  0  0  0  0  0  0  0  0  # atno 6907 bound_to 6896
  152.2345  133.5081  159.5243 H   0  0  0  0  0  0  0  0  0  0  0  0  # atno 6908 bound_to 6896
  150.7035  134.1088  159.4035 H   0  0  0  0  0  0  0  0  0  0  0  0  # atno 6909 bound_to 6896
  144.8021  140.5180  143.5700 H   0  0  0  0  0  0  0  0  0  0  0  0  # atno 7974 bound_to 7965
  155.1610  140.0406  157.2842 H   0  0  0  0  0  0  0  0  0  0  0  0  # atno 8008 bound_to 7997
  154.6336  140.2530  155.7377 H   0  0  0  0  0  0  0  0  0  0  0  0  # atno 8009 bound_to 7997
  156.2497  140.2870  156.0699 H   0  0  0  0  0  0  0  0  0  0  0  0  # atno 8010 bound_to 7997
  140.7037  143.3158  151.2912 H   0  0  0  0  0  0  0  0  0  0  0  0  # atno 10167 bound_to 10162
  157.4816  131.1086  150.9674 H   0  0  0  0  0  0  0  0  0  0  0  0  # atno 10718 bound_to 10713
  154.1859  135.2797  155.3037 H   0  0  0  0  0  0  0  0  0  0  0  0  # atno 10763 bound_to 10752
  154.5967  135.5543  153.7336 H   0  0  0  0  0  0  0  0  0  0  0  0  # atno 10764 bound_to 10752
  153.0125  135.6381  154.1998 H   0  0  0  0  0  0  0  0  0  0  0  0  # atno 10765 bound_to 10752
  140.4164  134.6645  157.4641 H   0  0  0  0  0  0  0  0  0  0  0  0  # atno 11005 bound_to 11000
  145.5527  139.1477  143.3385 LP  0  0  0  0  0  0  0  0  0  0  0  0  # atno 17320 bound_to 7965
  146.2305  140.5664  142.8977 LP  0  0  0  0  0  0  0  0  0  0  0  0  # atno 17321 bound_to 7965
  139.6597  144.0212  152.2684 LP  0  0  0  0  0  0  0  0  0  0  0  0  # atno 17342 bound_to 10162
  139.9775  144.6451  150.7931 LP  0  0  0  0  0  0  0  0  0  0  0  0  # atno 17343 bound_to 10162
  157.0405  130.5747  149.5355 LP  0  0  0  0  0  0  0  0  0  0  0  0  # atno 17370 bound_to 10713
  156.0125  130.5217  150.8032 LP  0  0  0  0  0  0  0  0  0  0  0  0  # atno 17371 bound_to 10713
  140.0231  134.6518  155.9212 LP  0  0  0  0  0  0  0  0  0  0  0  0  # atno 17394 bound_to 11000
  141.1801  133.6545  156.4985 LP  0  0  0  0  0  0  0  0  0  0  0  0  # atno 17395 bound_to 11000

$$$$
