AV-unprocessed.smi:264|AV-procd|sdf|2009|dock6
  -GOLD-   2262021203D 1   1.00000     0.00000
 Structure written by MMmdl.
 52 56  0  0  0  0  0  0  0  0  1 V2000
  143.9790  136.1134  163.0193 C   0  0  0  0  0  0  0  0  0  0  0  0
  145.0041  135.3057  162.2062 C   0  0  2  0  0  0  0  0  0  0  0  0
  145.8423  134.5401  163.0715 O   0  0  0  0  0  0  0  0  0  0  0  0
  147.2064  134.8651  162.8436 C   0  0  0  0  0  0  0  0  0  0  0  0
  147.2429  135.3420  161.3980 C   0  0  0  0  0  0  0  0  0  0  0  0
  145.9358  136.1116  161.2715 C   0  0  2  0  0  0  0  0  0  0  0  0
  146.1408  137.4252  161.7696 O   0  0  0  0  0  0  0  0  0  0  0  0
  145.3984  136.2100  159.8235 C   0  0  0  0  0  0  0  0  0  0  0  0
  146.2869  136.9296  158.9239 N   0  0  0  0  0  0  0  0  0  0  0  0
  147.4291  136.4378  158.3332 C   0  0  0  0  0  0  0  0  0  0  0  0
  148.0546  137.2731  157.5499 N   0  0  0  0  0  0  0  0  0  0  0  0
  147.2938  138.4345  157.6153 C   0  0  0  0  0  0  0  0  0  0  0  0
  147.3911  139.7175  157.0074 C   0  0  0  0  0  0  0  0  0  0  0  0
  148.3969  140.0483  156.1597 N   0  0  0  0  0  0  0  0  0  0  0  0
  147.9966  140.8558  155.0149 C   0  0  0  0  0  0  0  0  0  0  0  0
  149.2382  141.4637  154.3471 C   0  0  0  0  0  0  0  0  0  0  0  0
  150.1708  140.4369  154.0103 O   0  0  0  0  0  0  0  0  0  0  0  0
  150.6052  139.6446  155.1201 C   0  0  1  0  0  0  0  0  0  0  0  0
  151.5396  138.5637  154.5866 C   0  0  0  0  0  0  0  0  0  0  0  0
  152.5583  138.4029  155.7048 C   0  0  0  0  0  0  0  0  0  0  0  0
  152.7742  139.7408  156.1126 O   0  0  0  0  0  0  0  0  0  0  0  0
  151.5242  140.4209  156.0931 C   0  0  0  0  0  0  0  0  0  0  0  0
  149.3742  139.0197  155.8171 C   0  0  0  0  0  0  0  0  0  0  0  0
  146.4216  140.6248  157.3020 N   0  0  0  0  0  0  0  0  0  0  0  0
  145.4317  140.3061  158.1410 C   0  0  0  0  0  0  0  0  0  0  0  0
  145.2187  139.1549  158.7811 N   0  0  0  0  0  0  0  0  0  0  0  0
  146.1802  138.2363  158.4799 C   0  0  0  0  0  0  0  0  0  0  0  0
  143.3459  136.7146  162.3665 H   0  0  0  0  0  0  0  0  0  0  0  0
  144.4659  136.7825  163.7293 H   0  0  0  0  0  0  0  0  0  0  0  0
  143.3302  135.4488  163.5900 H   0  0  0  0  0  0  0  0  0  0  0  0
  144.4597  134.5729  161.6089 H   0  0  0  0  0  0  0  0  0  0  0  0
  147.5013  135.6669  163.5221 H   0  0  0  0  0  0  0  0  0  0  0  0
  147.8578  134.0096  163.0229 H   0  0  0  0  0  0  0  0  0  0  0  0
  148.1288  135.9330  161.1609 H   0  0  0  0  0  0  0  0  0  0  0  0
  147.2341  134.4724  160.7399 H   0  0  0  0  0  0  0  0  0  0  0  0
  146.0652  137.4031  162.7113 H   0  0  0  0  0  0  0  0  0  0  0  0
  145.2270  135.2144  159.4118 H   0  0  0  0  0  0  0  0  0  0  0  0
  144.4299  136.7122  159.8191 H   0  0  0  0  0  0  0  0  0  0  0  0
  147.7801  135.4286  158.4945 H   0  0  0  0  0  0  0  0  0  0  0  0
  147.4632  140.2221  154.3050 H   0  0  0  0  0  0  0  0  0  0  0  0
  147.3118  141.6520  155.3050 H   0  0  0  0  0  0  0  0  0  0  0  0
  148.9516  141.9885  153.4357 H   0  0  0  0  0  0  0  0  0  0  0  0
  149.6982  142.2046  155.0013 H   0  0  0  0  0  0  0  0  0  0  0  0
  151.0343  137.6314  154.3325 H   0  0  0  0  0  0  0  0  0  0  0  0
  152.0512  138.9172  153.6899 H   0  0  0  0  0  0  0  0  0  0  0  0
  152.1476  137.8239  156.5335 H   0  0  0  0  0  0  0  0  0  0  0  0
  153.4818  137.9287  155.3723 H   0  0  0  0  0  0  0  0  0  0  0  0
  151.6956  141.4515  155.7832 H   0  0  0  0  0  0  0  0  0  0  0  0
  151.1105  140.4439  157.1020 H   0  0  0  0  0  0  0  0  0  0  0  0
  149.6841  138.4778  156.7121 H   0  0  0  0  0  0  0  0  0  0  0  0
  148.8993  138.2968  155.1520 H   0  0  0  0  0  0  0  0  0  0  0  0
  144.7060  141.0846  158.3250 H   0  0  0  0  0  0  0  0  0  0  0  0
  1  2  1  0  0  0  0
  1 28  1  0  0  0  0
  1 29  1  0  0  0  0
  1 30  1  0  0  0  0
  2  6  1  0  0  0  0
  2  3  1  0  0  0  0
  2 31  1  0  0  0  0
  3  4  1  0  0  0  0
  4  5  1  0  0  0  0
  4 32  1  0  0  0  0
  4 33  1  0  0  0  0
  5  6  1  0  0  0  0
  5 34  1  0  0  0  0
  5 35  1  0  0  0  0
  6  7  1  0  0  0  0
  6  8  1  0  0  0  0
  7 36  1  0  0  0  0
  8  9  1  0  0  0  0
  8 37  1  0  0  0  0
  8 38  1  0  0  0  0
  9 27  1  0  0  0  0
  9 10  1  0  0  0  0
 10 11  2  0  0  0  0
 10 39  1  0  0  0  0
 11 12  1  0  0  0  0
 12 27  2  0  0  0  0
 12 13  1  0  0  0  0
 13 14  1  0  0  0  0
 13 24  2  0  0  0  0
 14 23  1  0  0  0  0
 14 15  1  0  0  0  0
 15 16  1  0  0  0  0
 15 40  1  0  0  0  0
 15 41  1  0  0  0  0
 16 17  1  0  0  0  0
 16 42  1  0  0  0  0
 16 43  1  0  0  0  0
 17 18  1  0  0  0  0
 18 22  1  0  0  0  0
 18 19  1  0  0  0  0
 18 23  1  0  0  0  0
 19 20  1  0  0  0  0
 19 44  1  0  0  0  0
 19 45  1  0  0  0  0
 20 21  1  0  0  0  0
 20 46  1  0  0  0  0
 20 47  1  0  0  0  0
 21 22  1  0  0  0  0
 22 48  1  0  0  0  0
 22 49  1  0  0  0  0
 23 50  1  0  0  0  0
 23 51  1  0  0  0  0
 24 25  1  0  0  0  0
 25 26  2  0  0  0  0
 25 52  1  0  0  0  0
 26 27  1  0  0  0  0
M  END
> <s_m_source_file>
AV-unprocessed.smi

> <i_m_source_file_index>
264

> <i_lp_mmshare_version>
43012

> <i_f3d_flags>
0

> <s_epik_input>
W0NIMl0xW0NIMl1PW0NAQEhdKFtDSDNdKVtDQEBdMShbT0hdKVtDSDJdbihbY0hdbjIpYyhjMjMpbltjSF1uYzNOKFtDSDJdNClbQ0gyXVtDSDJdT1tDQF00NVtDSDJdW0NIMl1PW0NIMl01

> <s_epik_cmdline>
J2VwaWtfcHl0aG9uJywgJy1waCcsICc3LjAnLCAnLXRuJywgJzgnLCAnLW1hJywgJzIwMCcsICctbWV0YWxfYmluZGluZycsICctaW1hZScsICc8aW5maWxlLm1hZT4nLCAnLW9tYWUnLCAnPG91dGZpbGUubWFlPic=

> <r_lp_tautomer_probability>
1

> <r_epik_Ionization_Penalty>
0.00539389

> <r_epik_Ionization_Penalty_Charging>
0

> <r_epik_Ionization_Penalty_Neutral>
0.00539389

> <r_epik_State_Penalty>
0.00375441

> <r_epik_Charging_Adjusted_Penalty>
0.00375441

> <i_epik_Tot_Q>
0

> <i_epik_Tot_abs_Q>
0

> <r_epik_Metal_State_Penalty>
-0

> <b_epik_Metal_Only>
0

> <s_lp_Force_Field>
OPLS_2005

> <r_lp_Energy>
53.6529

> <b_lp_Chiralities_Consistent>
1

> <s_lp_Variant>
AV-unprocessed.smi:264-3

> <Gold.Version>
5.8.1

> <Gold.Id.Protein>
6NUR|6NUR_protein|mol2

> <Gold.PLP.Fitness>
39.6753

> <Gold.PLP.PLP>
-32.5493

> <Gold.PLP.part.hbond>
-4.1950

> <Gold.PLP.part.metal>
0.0000

> <Gold.PLP.part.buried>
-3.7038

> <Gold.PLP.part.nonpolar>
-25.1863

> <Gold.PLP.part.repulsive>
1.3615

> <Gold.PLP.ligand.clash>
0.0000

> <Gold.PLP.ligand.torsion>
0.5611

> <Gold.PLP.Chemscore.Hbond>
2.6492

> <Gold.PLP.Chemscore.CHOScore>
0.0000

> <Gold.PLP.Chemscore.Metal>
0.0000

> <Gold.Chemscore.Hbonds>
donor molecule, donor type, donor heavy atom, donor atom, acceptor molecule, acceptor atom, score
      P1  H  6934  6947       L1     7  0.84
      P1  H  7989  7998       L1    17  0.72
      P1  H  7997  8008       L1    21  1.00

> <Gold.PLP.Chemscore.Internal.Correction>
0.3006

> <Gold.Rescore>
     Score         DG    S(hbond)    S(metal)    S(lipo)     H(rot)  DE(clash)    DE(int)     intcor
     14.41     -16.50       2.22        0.00      76.98       2.11       0.14       1.95       ----

> <Gold.Chemscore.Fitness>
14.4099

> <Gold.Chemscore.DG>
-16.4966

> <Gold.Chemscore.ZeroCoef>
-5.4800

> <Gold.Chemscore.Hbond>
2.2160

> <Gold.Chemscore.Metal>
0.0000

> <Gold.Chemscore.Lipo>
76.9847

> <Gold.Chemscore.Internal_Hbond>
0.0000

> <Gold.Chemscore.DEClash>
0.1386

> <Gold.Chemscore.DEInternal>
1.9481

> <Gold.Chemscore.Rot>
2.1063

> <Gold.Chemscore.Internal.Correction>
   9.000000E+99

> <Gold.Chemscore.Hbonds>
donor molecule, donor type, donor heavy atom, donor atom, acceptor molecule, acceptor atom, score
      P1  H  6934  6947       L1     7  0.76
      P1  H  7989  7998       L1    17  0.13
      P1  H  7997  8008       L1    21  0.85

> <Gold.Chemscore.Hbond.Weighted>
-7.4015

> <Gold.Chemscore.Metal.Weighted>
-0.0000

> <Gold.Chemscore.Lipo.Weighted>
-9.0072

> <Gold.Chemscore.Internal_Hbond.Weighted>
0.0000

> <Gold.Chemscore.DEClash.Weighted>
0.1386

> <Gold.Chemscore.DEInternal.Weighted>
1.9481

> <Gold.Chemscore.Rot.Weighted>
5.3921

> <Gold.Chemscore.Internal.Correction.Weighted>
   9.000000E+99

> <Gold.Protein.RotatedTorsions>
[ 6907 6896 6895 6894 ] final  -86.44 input  -60.11 | X-H torsion
[ 7974 7965 7964 7962 ] final  117.59 input  175.53 | X-H torsion
[ 8008 7997 7996 7995 ] final  -30.28 input   59.86 | X-H torsion
[ 10167 10162 10161 10158 ] final  125.41 input  -65.29 | X-H torsion
[ 10718 10713 10712 10709 ] final  -63.89 input   66.30 | X-H torsion
[ 10763 10752 10751 10750 ] final  146.06 input  -60.55 | X-H torsion
[ 11005 11000 10999 10996 ] final  100.56 input  -57.11 | X-H torsion

> <Gold.Protein.ActiveResidues>
 VAL166  LYS551  ARG553  GLY616  TRP617  ASP618  TYR619  PRO620  LYS621  CYS622 
 ASP623  PHE694  ASN695  SER759  ASP760  ASP761  ALA762  ILE779  LEU786  VAL792 
 PHE793  MET794  SER795  GLU796  ALA797  LYS798  CYS799  TRP800  GLU811  SER814 

> <Gold.Protein.RotatedAtoms>
  150.6867  134.3050  159.4722 H   0  0  0  0  0  0  0  0  0  0  0  0  # atno 6907 bound_to 6896
  152.0942  134.9384  160.0580 H   0  0  0  0  0  0  0  0  0  0  0  0  # atno 6908 bound_to 6896
  152.0688  133.4062  159.4487 H   0  0  0  0  0  0  0  0  0  0  0  0  # atno 6909 bound_to 6896
  145.1655  139.3131  143.4495 H   0  0  0  0  0  0  0  0  0  0  0  0  # atno 7974 bound_to 7965
  154.4257  140.1795  156.1381 H   0  0  0  0  0  0  0  0  0  0  0  0  # atno 8008 bound_to 7997
  156.0013  140.3359  155.6824 H   0  0  0  0  0  0  0  0  0  0  0  0  # atno 8009 bound_to 7997
  155.6238  140.0662  157.2661 H   0  0  0  0  0  0  0  0  0  0  0  0  # atno 8010 bound_to 7997
  139.5687  144.6926  151.3838 H   0  0  0  0  0  0  0  0  0  0  0  0  # atno 10167 bound_to 10162
  156.0763  130.4226  150.1341 H   0  0  0  0  0  0  0  0  0  0  0  0  # atno 10718 bound_to 10713
  154.0157  135.2910  155.3387 H   0  0  0  0  0  0  0  0  0  0  0  0  # atno 10763 bound_to 10752
  154.7076  135.5162  153.8622 H   0  0  0  0  0  0  0  0  0  0  0  0  # atno 10764 bound_to 10752
  153.0703  135.6645  154.0384 H   0  0  0  0  0  0  0  0  0  0  0  0  # atno 10765 bound_to 10752
  139.8771  134.9145  156.4774 H   0  0  0  0  0  0  0  0  0  0  0  0  # atno 11005 bound_to 11000
  146.3476  140.1781  142.8589 LP  0  0  0  0  0  0  0  0  0  0  0  0  # atno 17320 bound_to 7965
  145.0287  140.8853  143.5123 LP  0  0  0  0  0  0  0  0  0  0  0  0  # atno 17321 bound_to 7965
  140.6971  143.7722  150.7344 LP  0  0  0  0  0  0  0  0  0  0  0  0  # atno 17342 bound_to 10162
  140.1222  143.4602  152.2306 LP  0  0  0  0  0  0  0  0  0  0  0  0  # atno 17343 bound_to 10162
  156.9382  130.9736  151.3521 LP  0  0  0  0  0  0  0  0  0  0  0  0  # atno 17370 bound_to 10713
  157.5859  130.8409  149.8589 LP  0  0  0  0  0  0  0  0  0  0  0  0  # atno 17371 bound_to 10713
  140.8752  133.7959  155.9407 LP  0  0  0  0  0  0  0  0  0  0  0  0  # atno 17394 bound_to 11000
  140.8912  134.2493  157.5093 LP  0  0  0  0  0  0  0  0  0  0  0  0  # atno 17395 bound_to 11000

$$$$
