AV-unprocessed.smi:2297|AV-procd|sdf|9222|dock4
  -GOLD-   2272012443D 1   1.00000     0.00000
 Structure written by MMmdl.
 44 45  0  0  0  0  0  0  0  0  1 V2000
  153.8425  141.4481  161.6598 C   0  0  0  0  0  0  0  0  0  0  0  0
  152.9606  141.7881  160.4760 C   0  0  0  0  0  0  0  0  0  0  0  0
  152.8117  143.1261  160.0597 C   0  0  0  0  0  0  0  0  0  0  0  0
  151.9896  143.4356  158.9588 C   0  0  0  0  0  0  0  0  0  0  0  0
  151.8329  144.8764  158.5179 C   0  0  0  0  0  0  0  0  0  0  0  0
  151.3176  142.4020  158.2751 C   0  0  0  0  0  0  0  0  0  0  0  0
  151.4555  141.0583  158.6787 C   0  0  0  0  0  0  0  0  0  0  0  0
  150.7621  140.1145  157.9523 O   0  0  0  0  0  0  0  0  0  0  0  0
  150.9942  138.7397  158.2362 C   0  0  0  0  0  0  0  0  0  0  0  0
  149.8016  137.8930  157.7597 C   0  0  2  0  0  0  0  0  0  0  0  0
  149.3895  138.3943  156.5039 O   0  0  0  0  0  0  0  0  0  0  0  0
  148.6209  137.8957  158.7568 C   0  0  0  0  0  0  0  0  0  0  0  0
  148.2397  136.5357  159.1722 N   0  0  0  0  0  0  0  0  0  0  0  0
  148.3562  135.5314  158.1974 C   0  0  0  0  0  0  0  0  0  0  0  0
  148.0513  134.3007  158.4508 N   0  0  0  0  0  0  0  0  0  0  0  0
  147.5890  133.9440  159.7210 C   0  0  0  0  0  0  0  0  0  0  0  0
  147.2506  132.4758  159.9078 C   0  0  0  0  0  0  0  0  0  0  0  0
  147.4569  134.8691  160.7106 C   0  0  0  0  0  0  0  0  0  0  0  0
  146.9521  134.5412  162.1105 C   0  0  0  0  0  0  0  0  0  0  0  0
  147.8101  136.2719  160.4400 C   0  0  0  0  0  0  0  0  0  0  0  0
  147.7309  137.1577  161.2935 O   0  0  0  0  0  0  0  0  0  0  0  0
  152.2846  140.7593  159.7892 C   0  0  0  0  0  0  0  0  0  0  0  0
  154.3788  142.3255  162.0227 H   0  0  0  0  0  0  0  0  0  0  0  0
  154.5776  140.6930  161.3802 H   0  0  0  0  0  0  0  0  0  0  0  0
  153.2392  141.0542  162.4779 H   0  0  0  0  0  0  0  0  0  0  0  0
  153.3272  143.9180  160.5837 H   0  0  0  0  0  0  0  0  0  0  0  0
  151.1815  144.9585  157.6473 H   0  0  0  0  0  0  0  0  0  0  0  0
  152.8031  145.3002  158.2580 H   0  0  0  0  0  0  0  0  0  0  0  0
  151.4020  145.4724  159.3227 H   0  0  0  0  0  0  0  0  0  0  0  0
  150.6871  142.6370  157.4300 H   0  0  0  0  0  0  0  0  0  0  0  0
  151.9188  138.3915  157.7719 H   0  0  0  0  0  0  0  0  0  0  0  0
  151.0984  138.6142  159.3151 H   0  0  0  0  0  0  0  0  0  0  0  0
  150.1624  136.8763  157.5991 H   0  0  0  0  0  0  0  0  0  0  0  0
  148.8273  139.1402  156.6468 H   0  0  0  0  0  0  0  0  0  0  0  0
  148.9036  138.4587  159.6483 H   0  0  0  0  0  0  0  0  0  0  0  0
  147.7757  138.4534  158.3473 H   0  0  0  0  0  0  0  0  0  0  0  0
  148.7217  135.8614  157.2235 H   0  0  0  0  0  0  0  0  0  0  0  0
  146.1951  132.3562  160.1531 H   0  0  0  0  0  0  0  0  0  0  0  0
  147.8471  132.0453  160.7125 H   0  0  0  0  0  0  0  0  0  0  0  0
  147.4508  131.9028  159.0017 H   0  0  0  0  0  0  0  0  0  0  0  0
  147.7029  134.8096  162.8546 H   0  0  0  0  0  0  0  0  0  0  0  0
  146.7179  133.4870  162.2472 H   0  0  0  0  0  0  0  0  0  0  0  0
  146.0458  135.1088  162.3248 H   0  0  0  0  0  0  0  0  0  0  0  0
  152.4181  139.7449  160.1334 H   0  0  0  0  0  0  0  0  0  0  0  0
  1  2  1  0  0  0  0
  1 23  1  0  0  0  0
  1 24  1  0  0  0  0
  1 25  1  0  0  0  0
  2 22  1  0  0  0  0
  2  3  2  0  0  0  0
  3  4  1  0  0  0  0
  3 26  1  0  0  0  0
  4  5  1  0  0  0  0
  4  6  2  0  0  0  0
  5 27  1  0  0  0  0
  5 28  1  0  0  0  0
  5 29  1  0  0  0  0
  6  7  1  0  0  0  0
  6 30  1  0  0  0  0
  7  8  1  0  0  0  0
  7 22  2  0  0  0  0
  8  9  1  0  0  0  0
  9 10  1  0  0  0  0
  9 31  1  0  0  0  0
  9 32  1  0  0  0  0
 10 11  1  0  0  0  0
 10 12  1  0  0  0  0
 10 33  1  0  0  0  0
 11 34  1  0  0  0  0
 12 13  1  0  0  0  0
 12 35  1  0  0  0  0
 12 36  1  0  0  0  0
 13 20  1  0  0  0  0
 13 14  1  0  0  0  0
 14 15  2  0  0  0  0
 14 37  1  0  0  0  0
 15 16  1  0  0  0  0
 16 17  1  0  0  0  0
 16 18  2  0  0  0  0
 17 38  1  0  0  0  0
 17 39  1  0  0  0  0
 17 40  1  0  0  0  0
 18 19  1  0  0  0  0
 18 20  1  0  0  0  0
 19 41  1  0  0  0  0
 19 42  1  0  0  0  0
 19 43  1  0  0  0  0
 20 21  2  0  0  0  0
 22 44  1  0  0  0  0
M  END
> <s_m_source_file>
AV-unprocessed.smi

> <i_m_source_file_index>
2297

> <i_lp_mmshare_version>
43012

> <i_f3d_flags>
0

> <s_epik_input>
W0NIM11jMVtjSF1jKFtDSDNdKVtjSF1jKFtjSF0xKU9bQ0gyXVtDQEhdKFtPSF0pW0NIMl1uMltjSF1uYyhbQ0gzXSljKFtDSDNdKWMyPU8=

> <s_epik_cmdline>
J2VwaWtfcHl0aG9uJywgJy1waCcsICc3LjAnLCAnLXRuJywgJzgnLCAnLW1hJywgJzIwMCcsICctbWV0YWxfYmluZGluZycsICctaW1hZScsICc8aW5maWxlLm1hZT4nLCAnLW9tYWUnLCAnPG91dGZpbGUubWFlPic=

> <r_lp_tautomer_probability>
1

> <r_epik_Ionization_Penalty>
3.72236e-05

> <r_epik_Ionization_Penalty_Charging>
8.38864e-08

> <r_epik_Ionization_Penalty_Neutral>
3.71397e-05

> <r_epik_State_Penalty>
-0

> <r_epik_Charging_Adjusted_Penalty>
8.38864e-08

> <i_epik_Tot_Q>
0

> <i_epik_Tot_abs_Q>
0

> <r_epik_Metal_State_Penalty>
-0

> <b_epik_Metal_Only>
0

> <s_lp_Force_Field>
OPLS_2005

> <r_lp_Energy>
24.6499

> <b_lp_Chiralities_Consistent>
1

> <s_lp_Variant>
AV-unprocessed.smi:2297-1

> <Gold.Version>
5.8.1

> <Gold.Id.Protein>
6NUR|6NUR_protein|mol2

> <Gold.PLP.Fitness>
47.6974

> <Gold.PLP.PLP>
-44.7239

> <Gold.PLP.part.hbond>
-2.7571

> <Gold.PLP.part.metal>
0.0000

> <Gold.PLP.part.buried>
-3.9860

> <Gold.PLP.part.nonpolar>
-37.0026

> <Gold.PLP.part.repulsive>
0.0000

> <Gold.PLP.ligand.clash>
0.0000

> <Gold.PLP.ligand.torsion>
1.4296

> <Gold.PLP.Chemscore.Hbond>
1.9152

> <Gold.PLP.Chemscore.CHOScore>
0.0000

> <Gold.PLP.Chemscore.Metal>
0.0000

> <Gold.Chemscore.Hbonds>
donor molecule, donor type, donor heavy atom, donor atom, acceptor molecule, acceptor atom, score
      P1  H  6931  6943       L1    21  0.99
      P1  H  6934  6947       L1    21  0.82

> <Gold.PLP.Chemscore.Internal.Correction>
0.0874

> <Gold.Rescore>
     Score         DG    S(hbond)    S(metal)    S(lipo)     H(rot)  DE(clash)    DE(int)     intcor
     17.14     -18.69       1.72        0.00     114.52       2.32       0.17       1.38       ----

> <Gold.Chemscore.Fitness>
17.1449

> <Gold.Chemscore.DG>
-18.6908

> <Gold.Chemscore.ZeroCoef>
-5.4800

> <Gold.Chemscore.Hbond>
1.7247

> <Gold.Chemscore.Metal>
0.0000

> <Gold.Chemscore.Lipo>
114.5204

> <Gold.Chemscore.Internal_Hbond>
0.0000

> <Gold.Chemscore.DEClash>
0.1661

> <Gold.Chemscore.DEInternal>
1.3798

> <Gold.Chemscore.Rot>
2.3236

> <Gold.Chemscore.Internal.Correction>
   9.000000E+99

> <Gold.Chemscore.Hbonds>
donor molecule, donor type, donor heavy atom, donor atom, acceptor molecule, acceptor atom, score
      P1  H  6931  6943       L1    21  0.94
      P1  H  6934  6947       L1    21  0.79

> <Gold.Chemscore.Hbond.Weighted>
-5.7603

> <Gold.Chemscore.Metal.Weighted>
-0.0000

> <Gold.Chemscore.Lipo.Weighted>
-13.3989

> <Gold.Chemscore.Internal_Hbond.Weighted>
0.0000

> <Gold.Chemscore.DEClash.Weighted>
0.1661

> <Gold.Chemscore.DEInternal.Weighted>
1.3798

> <Gold.Chemscore.Rot.Weighted>
5.9484

> <Gold.Chemscore.Internal.Correction.Weighted>
   9.000000E+99

> <Gold.Protein.RotatedTorsions>
[ 6907 6896 6895 6894 ] final    0.13 input  -60.11 | X-H torsion
[ 7974 7965 7964 7962 ] final -177.08 input  175.53 | X-H torsion
[ 8008 7997 7996 7995 ] final  109.84 input   59.86 | X-H torsion
[ 10167 10162 10161 10158 ] final    9.17 input  -65.29 | X-H torsion
[ 10718 10713 10712 10709 ] final   99.38 input   66.30 | X-H torsion
[ 10763 10752 10751 10750 ] final -126.43 input  -60.55 | X-H torsion
[ 11005 11000 10999 10996 ] final  -43.54 input  -57.11 | X-H torsion

> <Gold.Protein.ActiveResidues>
 VAL166  LYS551  ARG553  GLY616  TRP617  ASP618  TYR619  PRO620  LYS621  CYS622 
 ASP623  PHE694  ASN695  SER759  ASP760  ASP761  ALA762  ILE779  LEU786  VAL792 
 PHE793  MET794  SER795  GLU796  ALA797  LYS798  CYS799  TRP800  GLU811  SER814 

> <Gold.Protein.RotatedAtoms>
  151.5715  135.1062  159.9995 H   0  0  0  0  0  0  0  0  0  0  0  0  # atno 6907 bound_to 6896
  152.4398  133.7423  159.6659 H   0  0  0  0  0  0  0  0  0  0  0  0  # atno 6908 bound_to 6896
  150.8302  133.8035  159.3125 H   0  0  0  0  0  0  0  0  0  0  0  0  # atno 6909 bound_to 6896
  144.7127  140.1073  143.6413 H   0  0  0  0  0  0  0  0  0  0  0  0  # atno 7974 bound_to 7965
  156.2009  140.3050  155.9525 H   0  0  0  0  0  0  0  0  0  0  0  0  # atno 8008 bound_to 7997
  155.2956  140.0444  157.3043 H   0  0  0  0  0  0  0  0  0  0  0  0  # atno 8009 bound_to 7997
  154.5570  140.2308  155.8404 H   0  0  0  0  0  0  0  0  0  0  0  0  # atno 8010 bound_to 7997
  140.6271  143.8077  150.7247 H   0  0  0  0  0  0  0  0  0  0  0  0  # atno 10167 bound_to 10162
  157.6877  131.0668  150.4940 H   0  0  0  0  0  0  0  0  0  0  0  0  # atno 10718 bound_to 10713
  154.8745  135.3996  154.3430 H   0  0  0  0  0  0  0  0  0  0  0  0  # atno 10763 bound_to 10752
  153.4226  135.7023  153.6289 H   0  0  0  0  0  0  0  0  0  0  0  0  # atno 10764 bound_to 10752
  153.4944  135.3741  155.2478 H   0  0  0  0  0  0  0  0  0  0  0  0  # atno 10765 bound_to 10752
  141.0391  133.6787  156.2748 H   0  0  0  0  0  0  0  0  0  0  0  0  # atno 11005 bound_to 11000
  145.9486  139.2718  143.1226 LP  0  0  0  0  0  0  0  0  0  0  0  0  # atno 17320 bound_to 7965
  145.9348  140.9023  143.0338 LP  0  0  0  0  0  0  0  0  0  0  0  0  # atno 17321 bound_to 7965
  140.1680  143.4218  152.2020 LP  0  0  0  0  0  0  0  0  0  0  0  0  # atno 17342 bound_to 10162
  139.5489  144.7322  151.4495 LP  0  0  0  0  0  0  0  0  0  0  0  0  # atno 17343 bound_to 10162
  156.5265  130.4174  149.6223 LP  0  0  0  0  0  0  0  0  0  0  0  0  # atno 17370 bound_to 10713
  156.3107  130.7227  151.2119 LP  0  0  0  0  0  0  0  0  0  0  0  0  # atno 17371 bound_to 10713
  140.6268  134.5305  157.5554 LP  0  0  0  0  0  0  0  0  0  0  0  0  # atno 17394 bound_to 11000
  139.9262  134.8051  156.1062 LP  0  0  0  0  0  0  0  0  0  0  0  0  # atno 17395 bound_to 11000

$$$$
