#       Name:                AV-unprocessed.smi:814
#       Creating user name   scv26
#       Creation time:       Fri Mar 27 01:26:31 2020


#       File generated by GOLD software.
#

@<TRIPOS>MOLECULE
AV-unprocessed.smi:814
    39    40     1
SMALL
NO_CHARGES


@<TRIPOS>ATOM
      1 ****        -1.7168   3.2063  -1.8223 C.3            1 S1                 0.0000
      2 ****        -2.2768   3.5190  -0.5213 N.pl3          1 S1                 0.0000
      3 ****        -2.9104   4.7031  -0.1683 C.2            1 S1                 0.0000
      4 ****        -3.2737   4.5772   1.1509 C.2            1 S1                 0.0000
      5 ****        -2.8746   3.3312   1.6229 N.2            1 S1                 0.0000
      6 ****        -2.2958   2.7434   0.5800 C.2            1 S1                 0.0000
      7 ****        -1.6929   1.3743   0.6250 C.3            1 S1                 0.0000
      8 ****        -0.2260   1.3926   1.0851 C.3            1 S1                 0.0000
      9 ****         0.3463   0.0516   1.0988 N.am           1 S1                 0.0000
     10 ****         0.7992  -0.5996   0.0161 C.2            1 S1                 0.0000
     11 ****         0.7883  -0.1131  -1.1154 O.2            1 S1                 0.0000
     12 ****         1.3443  -2.0159   0.2432 C.3            1 S1                 0.0000
     13 ****         0.4815  -3.0681  -0.4913 C.3            1 S1                 0.0000
     14 ****         1.1368  -4.4376  -0.5101 C.2            1 S1                 0.0000
     15 ****         2.4362  -4.6392  -0.2322 C.2            1 S1                 0.0000
     16 ****         3.3973  -3.5204   0.1283 C.3            1 S1                 0.0000
     17 ****         2.8194  -2.1286  -0.1915 C.3            1 S1                 0.0000
     18 ****        -1.7186   4.0937  -2.4554 H              1 S1                 0.0000
     19 ****        -2.3117   2.4286  -2.3013 H              1 S1                 0.0000
     20 ****        -0.6901   2.8564  -1.7123 H              1 S1                 0.0000
     21 ****        -3.0448   5.5171  -0.8653 H              1 S1                 0.0000
     22 ****        -3.7857   5.2805   1.7909 H              1 S1                 0.0000
     23 ****        -2.2842   0.7599   1.3050 H              1 S1                 0.0000
     24 ****        -1.7835   0.9086  -0.3568 H              1 S1                 0.0000
     25 ****         0.3694   2.0436   0.4427 H              1 S1                 0.0000
     26 ****        -0.1570   1.8049   2.0921 H              1 S1                 0.0000
     27 ****         0.3948  -0.4169   1.9920 H              1 S1                 0.0000
     28 ****         1.3001  -2.2308   1.3128 H              1 S1                 0.0000
     29 ****        -0.4891  -3.1545  -0.0013 H              1 S1                 0.0000
     30 ****         0.2904  -2.7752  -1.5247 H              1 S1                 0.0000
     31 ****         0.5085  -5.2748  -0.7765 H              1 S1                 0.0000
     32 ****         2.8397  -5.6411  -0.2505 H              1 S1                 0.0000
     33 ****         3.6227  -3.6000   1.1921 H              1 S1                 0.0000
     34 ****         4.3357  -3.6646  -0.4075 H              1 S1                 0.0000
     35 ****         2.8970  -1.9494  -1.2653 H              1 S1                 0.0000
     36 ****         3.4252  -1.3611   0.2923 H              1 S1                 0.0000
     37 ****        -2.9961   2.9595   2.5432 LP             1 S1                 0.0000
     38 ****         0.4299   0.8092  -1.2597 LP             1 S1                 0.0000
     39 ****         1.1378  -0.6405  -1.8898 LP             1 S1                 0.0000
@<TRIPOS>BOND
    1    1    2 1     
    2    1   18 1     
    3    1   19 1     
    4    1   20 1     
    5    2    6 1     
    6    2    3 1     
    7    3    4 2     
    8    3   21 1     
    9    4    5 1     
   10    4   22 1     
   11    5    6 2     
   12    6    7 1     
   13    7    8 1     
   14    7   23 1     
   15    7   24 1     
   16    8    9 1     
   17    8   25 1     
   18    8   26 1     
   19    9   10 am    
   20    9   27 1     
   21   10   11 2     
   22   10   12 1     
   23   12   17 1     
   24   12   13 1     
   25   12   28 1     
   26   13   14 1     
   27   13   29 1     
   28   13   30 1     
   29   14   15 2     
   30   14   31 1     
   31   15   16 1     
   32   15   32 1     
   33   16   17 1     
   34   16   33 1     
   35   16   34 1     
   36   17   35 1     
   37   17   36 1     
   38    5   37 1     
   39   11   38 1     
   40   11   39 1     
@<TRIPOS>SUBSTRUCTURE
      1 S1             1
@<TRIPOS>SET
LONE_PAIRS      STATIC     ATOMS    <user>   **** ""
3 37 38 39
DONOR_HYDROGENS      STATIC     ATOMS    <user>   **** ""
1 27
ATOM$BLUE        STATIC     ATOMS    COLORGROUP SYSTEM
3 37 38 39
ATOM$RED        STATIC     ATOMS    COLORGROUP SYSTEM
1 27
