AV-unprocessed.smi:485|AV-procd|sdf|2691|dock1
  -GOLD-   2262023123D 1   1.00000     0.00000
 Structure written by MMmdl.
 36 38  0  0  0  0  0  0  0  0  1 V2000
  153.6937  139.0331  158.2303 O   0  0  0  0  0  0  0  0  0  0  0  0
  152.3332  139.3904  158.3414 C   0  0  0  0  0  0  0  0  0  0  0  0
  152.1308  140.8389  158.6703 C   0  0  0  0  0  0  0  0  0  0  0  0
  152.6494  141.3834  159.7719 N   0  0  0  0  0  0  0  0  0  0  0  0
  152.2542  142.7028  159.6752 C   0  0  0  0  0  0  0  0  0  0  0  0
  152.4927  143.7979  160.5363 C   0  0  0  0  0  0  0  0  0  0  0  0
  151.9870  145.0765  160.2222 C   0  0  0  0  0  0  0  0  0  0  0  0
  151.2393  145.2785  159.0441 C   0  0  0  0  0  0  0  0  0  0  0  0
  150.9898  144.2007  158.1730 C   0  0  0  0  0  0  0  0  0  0  0  0
  151.4929  142.9251  158.4932 C   0  0  0  0  0  0  0  0  0  0  0  0
  151.4242  141.6813  157.8722 N   0  0  0  0  0  0  0  0  0  0  0  0
  150.7402  141.3912  156.6170 C   0  0  0  0  0  0  0  0  0  0  0  0
  149.2112  141.5759  156.7097 C   0  0  2  0  0  0  0  0  0  0  0  0
  148.7152  140.9641  157.8840 O   0  0  0  0  0  0  0  0  0  0  0  0
  148.5165  141.0637  155.4578 C   0  0  0  0  0  0  0  0  0  0  0  0
  147.6990  141.9298  154.7001 C   0  0  0  0  0  0  0  0  0  0  0  0
  147.0572  141.4632  153.5362 C   0  0  0  0  0  0  0  0  0  0  0  0
  147.2316  140.1286  153.1221 C   0  0  0  0  0  0  0  0  0  0  0  0
  148.0497  139.2614  153.8710 C   0  0  0  0  0  0  0  0  0  0  0  0
  148.6916  139.7274  155.0349 C   0  0  0  0  0  0  0  0  0  0  0  0
  153.8303  138.2232  158.6972 H   0  0  0  0  0  0  0  0  0  0  0  0
  151.8409  139.1644  157.3949 H   0  0  0  0  0  0  0  0  0  0  0  0
  151.8498  138.7705  159.0964 H   0  0  0  0  0  0  0  0  0  0  0  0
  153.0668  143.6538  161.4397 H   0  0  0  0  0  0  0  0  0  0  0  0
  152.1753  145.9062  160.8876 H   0  0  0  0  0  0  0  0  0  0  0  0
  150.8572  146.2612  158.8095 H   0  0  0  0  0  0  0  0  0  0  0  0
  150.4185  144.3536  157.2697 H   0  0  0  0  0  0  0  0  0  0  0  0
  151.1467  142.0570  155.8549 H   0  0  0  0  0  0  0  0  0  0  0  0
  150.9764  140.3793  156.2907 H   0  0  0  0  0  0  0  0  0  0  0  0
  148.9886  142.6388  156.8054 H   0  0  0  0  0  0  0  0  0  0  0  0
  149.1085  141.3878  158.6311 H   0  0  0  0  0  0  0  0  0  0  0  0
  147.5606  142.9561  155.0080 H   0  0  0  0  0  0  0  0  0  0  0  0
  146.4316  142.1293  152.9606 H   0  0  0  0  0  0  0  0  0  0  0  0
  146.7392  139.7713  152.2296 H   0  0  0  0  0  0  0  0  0  0  0  0
  148.1856  138.2382  153.5530 H   0  0  0  0  0  0  0  0  0  0  0  0
  149.3203  139.0561  155.6018 H   0  0  0  0  0  0  0  0  0  0  0  0
  1  2  1  0  0  0  0
  1 21  1  0  0  0  0
  2  3  1  0  0  0  0
  2 22  1  0  0  0  0
  2 23  1  0  0  0  0
  3 11  1  0  0  0  0
  3  4  2  0  0  0  0
  4  5  1  0  0  0  0
  5 10  2  0  0  0  0
  5  6  1  0  0  0  0
  6  7  2  0  0  0  0
  6 24  1  0  0  0  0
  7  8  1  0  0  0  0
  7 25  1  0  0  0  0
  8  9  2  0  0  0  0
  8 26  1  0  0  0  0
  9 10  1  0  0  0  0
  9 27  1  0  0  0  0
 10 11  1  0  0  0  0
 11 12  1  0  0  0  0
 12 13  1  0  0  0  0
 12 28  1  0  0  0  0
 12 29  1  0  0  0  0
 13 14  1  0  0  0  0
 13 15  1  0  0  0  0
 13 30  1  0  0  0  0
 14 31  1  0  0  0  0
 15 20  1  0  0  0  0
 15 16  2  0  0  0  0
 16 17  1  0  0  0  0
 16 32  1  0  0  0  0
 17 18  2  0  0  0  0
 17 33  1  0  0  0  0
 18 19  1  0  0  0  0
 18 34  1  0  0  0  0
 19 20  2  0  0  0  0
 19 35  1  0  0  0  0
 20 36  1  0  0  0  0
M  END
> <s_m_source_file>
AV-unprocessed.smi

> <i_m_source_file_index>
485

> <i_lp_mmshare_version>
43012

> <i_f3d_flags>
0

> <s_epik_input>
W2NIXTFbY0hdW2NIXVtjSF1jKGMxMiluKGMobjIpW0NIMl1bT0hdKVtDSDJdW0NASF0oW09IXSljM1tjSF1bY0hdW2NIXVtjSF1bY0hdMw==

> <s_epik_cmdline>
J2VwaWtfcHl0aG9uJywgJy1waCcsICc3LjAnLCAnLXRuJywgJzgnLCAnLW1hJywgJzIwMCcsICctbWV0YWxfYmluZGluZycsICctaW1hZScsICc8aW5maWxlLm1hZT4nLCAnLW9tYWUnLCAnPG91dGZpbGUubWFlPic=

> <r_epik_Ionization_Penalty>
0.0634722

> <r_epik_Ionization_Penalty_Charging>
0

> <r_epik_Ionization_Penalty_Neutral>
0.0634722

> <r_epik_State_Penalty>
0.0551572

> <r_epik_Charging_Adjusted_Penalty>
0.0551572

> <i_epik_Tot_Q>
0

> <i_epik_Tot_abs_Q>
0

> <r_epik_Metal_State_Penalty>
5.78034e-05

> <b_epik_Metal_Only>
0

> <s_lp_Force_Field>
OPLS_2005

> <r_lp_Energy>
12.7627

> <b_lp_Chiralities_Consistent>
1

> <s_lp_Variant>
AV-unprocessed.smi:485-1

> <Gold.Version>
5.8.1

> <Gold.Id.Protein>
6NUR|6NUR_protein|mol2

> <Gold.PLP.Fitness>
44.8842

> <Gold.PLP.PLP>
-42.0966

> <Gold.PLP.part.hbond>
-1.0000

> <Gold.PLP.part.metal>
0.0000

> <Gold.PLP.part.buried>
-4.0535

> <Gold.PLP.part.nonpolar>
-36.8939

> <Gold.PLP.part.repulsive>
0.0000

> <Gold.PLP.ligand.clash>
0.0000

> <Gold.PLP.ligand.torsion>
0.1465

> <Gold.PLP.Chemscore.Hbond>
1.0000

> <Gold.PLP.Chemscore.CHOScore>
0.0000

> <Gold.PLP.Chemscore.Metal>
0.0000

> <Gold.Chemscore.Hbonds>
donor molecule, donor type, donor heavy atom, donor atom, acceptor molecule, acceptor atom, score
      P1  H  7997  8009       L1     1  1.00

> <Gold.PLP.Chemscore.Internal.Correction>
0.0807

> <Gold.Rescore>
     Score         DG    S(hbond)    S(metal)    S(lipo)     H(rot)  DE(clash)    DE(int)     intcor
     16.09     -16.30       0.98        0.00     121.80       2.62       0.12       0.09       ----

> <Gold.Chemscore.Fitness>
16.0923

> <Gold.Chemscore.DG>
-16.3011

> <Gold.Chemscore.ZeroCoef>
-5.4800

> <Gold.Chemscore.Hbond>
0.9837

> <Gold.Chemscore.Metal>
0.0000

> <Gold.Chemscore.Lipo>
121.8020

> <Gold.Chemscore.Internal_Hbond>
0.0000

> <Gold.Chemscore.DEClash>
0.1200

> <Gold.Chemscore.DEInternal>
0.0887

> <Gold.Chemscore.Rot>
2.6232

> <Gold.Chemscore.Internal.Correction>
   9.000000E+99

> <Gold.Chemscore.Hbonds>
donor molecule, donor type, donor heavy atom, donor atom, acceptor molecule, acceptor atom, score
      P1  H  7997  8009       L1     1  0.96

> <Gold.Chemscore.Hbond.Weighted>
-3.2857

> <Gold.Chemscore.Metal.Weighted>
-0.0000

> <Gold.Chemscore.Lipo.Weighted>
-14.2508

> <Gold.Chemscore.Internal_Hbond.Weighted>
0.0000

> <Gold.Chemscore.DEClash.Weighted>
0.1200

> <Gold.Chemscore.DEInternal.Weighted>
0.0887

> <Gold.Chemscore.Rot.Weighted>
6.7154

> <Gold.Chemscore.Internal.Correction.Weighted>
   9.000000E+99

> <Gold.Protein.RotatedTorsions>
[ 6907 6896 6895 6894 ] final  145.45 input  -60.11 | X-H torsion
[ 7974 7965 7964 7962 ] final   18.10 input  175.53 | X-H torsion
[ 8008 7997 7996 7995 ] final  126.83 input   59.86 | X-H torsion
[ 10167 10162 10161 10158 ] final   -2.39 input  -65.29 | X-H torsion
[ 10718 10713 10712 10709 ] final   76.87 input   66.30 | X-H torsion
[ 10763 10752 10751 10750 ] final   -5.25 input  -60.55 | X-H torsion
[ 11005 11000 10999 10996 ] final  -93.14 input  -57.11 | X-H torsion

> <Gold.Protein.ActiveResidues>
 VAL166  LYS551  ARG553  GLY616  TRP617  ASP618  TYR619  PRO620  LYS621  CYS622 
 ASP623  PHE694  ASN695  SER759  ASP760  ASP761  ALA762  ILE779  LEU786  VAL792 
 PHE793  MET794  SER795  GLU796  ALA797  LYS798  CYS799  TRP800  GLU811  SER814 

> <Gold.Protein.RotatedAtoms>
  152.1807  133.4705  159.4956 H   0  0  0  0  0  0  0  0  0  0  0  0  # atno 6907 bound_to 6896
  150.6934  134.1837  159.4267 H   0  0  0  0  0  0  0  0  0  0  0  0  # atno 6908 bound_to 6896
  151.9748  135.0058  160.0605 H   0  0  0  0  0  0  0  0  0  0  0  0  # atno 6909 bound_to 6896
  146.2196  139.8507  142.8623 H   0  0  0  0  0  0  0  0  0  0  0  0  # atno 7974 bound_to 7965
  156.2875  140.2683  156.2175 H   0  0  0  0  0  0  0  0  0  0  0  0  # atno 8008 bound_to 7997
  155.0201  140.0386  157.2452 H   0  0  0  0  0  0  0  0  0  0  0  0  # atno 8009 bound_to 7997
  154.7443  140.2731  155.6352 H   0  0  0  0  0  0  0  0  0  0  0  0  # atno 8010 bound_to 7997
  140.6849  143.6663  150.8223 H   0  0  0  0  0  0  0  0  0  0  0  0  # atno 10167 bound_to 10162
  157.6690  130.9795  150.1559 H   0  0  0  0  0  0  0  0  0  0  0  0  # atno 10718 bound_to 10713
  153.3959  135.7003  153.6461 H   0  0  0  0  0  0  0  0  0  0  0  0  # atno 10763 bound_to 10752
  153.5014  135.3651  155.2542 H   0  0  0  0  0  0  0  0  0  0  0  0  # atno 10764 bound_to 10752
  154.8706  135.4113  154.3285 H   0  0  0  0  0  0  0  0  0  0  0  0  # atno 10765 bound_to 10752
  141.1505  133.7867  157.0118 H   0  0  0  0  0  0  0  0  0  0  0  0  # atno 11005 bound_to 11000
  145.2805  141.0137  143.3720 LP  0  0  0  0  0  0  0  0  0  0  0  0  # atno 17320 bound_to 7965
  144.9154  139.4477  143.6567 LP  0  0  0  0  0  0  0  0  0  0  0  0  # atno 17321 bound_to 7965
  140.0368  143.5387  152.2735 LP  0  0  0  0  0  0  0  0  0  0  0  0  # atno 17342 bound_to 10162
  139.6199  144.7627  151.2763 LP  0  0  0  0  0  0  0  0  0  0  0  0  # atno 17343 bound_to 10162
  156.2347  130.3685  149.8405 LP  0  0  0  0  0  0  0  0  0  0  0  0  # atno 17370 bound_to 10713
  156.6221  130.8631  151.3477 LP  0  0  0  0  0  0  0  0  0  0  0  0  # atno 17371 bound_to 10713
  140.0873  134.9613  157.1720 LP  0  0  0  0  0  0  0  0  0  0  0  0  # atno 17394 bound_to 11000
  140.3494  134.2615  155.7200 LP  0  0  0  0  0  0  0  0  0  0  0  0  # atno 17395 bound_to 11000

$$$$
