AV-unprocessed.smi:1428|AV-procd|sdf|5815|dock2
  -GOLD-   22720 5473D 1   1.00000     0.00000
 Structure written by MMmdl.
 44 45  0  0  0  0  0  0  0  0  2 V2000
  154.3365  140.6900  160.6771 C   0  0  0  0  0  0  0  0  0  0  0  0
  153.4310  140.7575  159.5809 O   0  0  0  0  0  0  0  0  0  0  0  0
  152.8224  141.9665  159.3015 C   0  0  0  0  0  0  0  0  0  0  0  0
  153.0286  143.0047  160.1502 N   0  0  0  0  0  0  0  0  0  0  0  0
  152.4383  144.1860  159.8756 C   0  0  0  0  0  0  0  0  0  0  0  0
  151.6250  144.3970  158.7473 C   0  0  0  0  0  0  0  0  0  0  0  0
  151.4093  143.3218  157.8657 C   0  0  0  0  0  0  0  0  0  0  0  0
  152.0084  142.0705  158.1494 C   0  0  0  0  0  0  0  0  0  0  0  0
  151.8693  140.9232  157.3212 N   0  0  0  0  0  0  0  0  0  0  0  0
  151.3764  140.8465  156.0739 C   0  0  0  0  0  0  0  0  0  0  0  0
  150.9774  141.7982  155.4037 O   0  0  0  0  0  0  0  0  0  0  0  0
  151.3482  139.5768  155.6441 N   0  0  0  0  0  0  0  0  0  0  0  0
  150.8477  139.1346  154.3430 C   0  0  2  0  0  0  0  0  0  0  0  0
  149.3107  139.0117  154.3312 C   0  0  0  0  0  0  0  0  0  0  0  0
  148.8228  137.8291  155.1857 C   0  0  0  0  0  0  0  0  0  0  0  0
  149.4502  136.5551  154.7436 N   0  3  2  0  0  0  0  0  0  0  0  0
  148.9072  135.3639  155.4459 C   0  0  0  0  0  0  0  0  0  0  0  0
  149.3769  134.0411  154.8318 C   0  0  0  0  0  0  0  0  0  0  0  0
  149.1619  133.8734  153.5251 N   0  0  0  0  0  0  0  0  0  0  0  0
  149.9104  133.1767  155.5251 O   0  0  0  0  0  0  0  0  0  0  0  0
  150.9325  136.6247  154.8091 C   0  0  0  0  0  0  0  0  0  0  0  0
  151.4767  137.7851  153.9551 C   0  0  0  0  0  0  0  0  0  0  0  0
  154.7334  139.6779  160.7547 H   0  0  0  0  0  0  0  0  0  0  0  0
  153.8395  140.9233  161.6197 H   0  0  0  0  0  0  0  0  0  0  0  0
  155.1813  141.3665  160.5398 H   0  0  0  0  0  0  0  0  0  0  0  0
  152.6256  144.9892  160.5729 H   0  0  0  0  0  0  0  0  0  0  0  0
  151.1804  145.3630  158.5598 H   0  0  0  0  0  0  0  0  0  0  0  0
  150.8033  143.4822  156.9875 H   0  0  0  0  0  0  0  0  0  0  0  0
  152.0870  140.0443  157.7679 H   0  0  0  0  0  0  0  0  0  0  0  0
  151.7020  138.8627  156.2639 H   0  0  0  0  0  0  0  0  0  0  0  0
  151.1484  139.8752  153.5993 H   0  0  0  0  0  0  0  0  0  0  0  0
  148.8463  139.9369  154.6738 H   0  0  0  0  0  0  0  0  0  0  0  0
  148.9723  138.8706  153.3038 H   0  0  0  0  0  0  0  0  0  0  0  0
  149.0499  138.0038  156.2384 H   0  0  0  0  0  0  0  0  0  0  0  0
  147.7375  137.7604  155.1082 H   0  0  0  0  0  0  0  0  0  0  0  0
  149.2474  135.3625  156.4825 H   0  0  0  0  0  0  0  0  0  0  0  0
  147.8169  135.4099  155.4739 H   0  0  0  0  0  0  0  0  0  0  0  0
  149.4540  133.0220  153.0668 H   0  0  0  0  0  0  0  0  0  0  0  0
  148.7083  134.6035  152.9942 H   0  0  0  0  0  0  0  0  0  0  0  0
  151.2472  136.7353  155.8480 H   0  0  0  0  0  0  0  0  0  0  0  0
  151.3605  135.6886  154.4485 H   0  0  0  0  0  0  0  0  0  0  0  0
  151.2641  137.5818  152.9045 H   0  0  0  0  0  0  0  0  0  0  0  0
  152.5631  137.8355  154.0386 H   0  0  0  0  0  0  0  0  0  0  0  0
  149.2146  136.4346  153.7684 H   0  0  0  0  0  0  0  0  0  0  0  0
  1  2  1  0  0  0  0
  1 23  1  0  0  0  0
  1 24  1  0  0  0  0
  1 25  1  0  0  0  0
  2  3  1  0  0  0  0
  3  8  1  0  0  0  0
  3  4  2  0  0  0  0
  4  5  1  0  0  0  0
  5  6  2  0  0  0  0
  5 26  1  0  0  0  0
  6  7  1  0  0  0  0
  6 27  1  0  0  0  0
  7  8  2  0  0  0  0
  7 28  1  0  0  0  0
  8  9  1  0  0  0  0
  9 10  1  0  0  0  0
  9 29  1  0  0  0  0
 10 11  2  0  0  0  0
 10 12  1  0  0  0  0
 12 13  1  0  0  0  0
 12 30  1  0  0  0  0
 13 22  1  0  0  0  0
 13 14  1  0  0  0  0
 13 31  1  0  0  0  0
 14 15  1  0  0  0  0
 14 32  1  0  0  0  0
 14 33  1  0  0  0  0
 15 16  1  0  0  0  0
 15 34  1  0  0  0  0
 15 35  1  0  0  0  0
 16 17  1  0  0  0  0
 16 21  1  0  0  0  0
 16 44  1  0  0  0  0
 17 18  1  0  0  0  0
 17 36  1  0  0  0  0
 17 37  1  0  0  0  0
 18 19  1  0  0  0  0
 18 20  2  0  0  0  0
 19 38  1  0  0  0  0
 19 39  1  0  0  0  0
 21 22  1  0  0  0  0
 21 40  1  0  0  0  0
 21 41  1  0  0  0  0
 22 42  1  0  0  0  0
 22 43  1  0  0  0  0
M  CHG  1  16   1
M  END
> <s_m_source_file>
AV-unprocessed.smi

> <i_m_source_file_index>
1428

> <i_lp_mmshare_version>
43012

> <i_f3d_flags>
0

> <s_epik_input>
W0NIM11PYzFuW2NIXVtjSF1bY0hdYzFbTkhdQyg9TylbTkhdW0NIXTJbQ0gyXVtDSDJdTihbQ0gyXVtDSDJdMilbQ0gyXUMoPU8pW05IMl0=

> <s_epik_cmdline>
J2VwaWtfcHl0aG9uJywgJy1waCcsICc3LjAnLCAnLXRuJywgJzgnLCAnLW1hJywgJzIwMCcsICctbWV0YWxfYmluZGluZycsICctaW1hZScsICc8aW5maWxlLm1hZT4nLCAnLW9tYWUnLCAnPG91dGZpbGUubWFlPic=

> <r_lp_tautomer_probability>
1

> <r_epik_Ionization_Penalty>
0.838963

> <r_epik_Ionization_Penalty_Charging>
0.838844

> <r_epik_Ionization_Penalty_Neutral>
0.000119189

> <r_epik_State_Penalty>
0.8734

> <r_epik_Charging_Adjusted_Penalty>
1.71224

> <i_epik_Tot_Q>
1

> <i_epik_Tot_abs_Q>
1

> <r_epik_Metal_State_Penalty>
0.890706

> <b_epik_Metal_Only>
0

> <s_lp_Force_Field>
OPLS_2005

> <r_lp_Energy>
14.3057

> <b_lp_Chiralities_Consistent>
1

> <s_lp_Variant>
AV-unprocessed.smi:1428-3

> <Gold.Version>
5.8.1

> <Gold.Id.Protein>
6NUR|6NUR_protein|mol2

> <Gold.PLP.Fitness>
44.9750

> <Gold.PLP.PLP>
-36.5640

> <Gold.PLP.part.hbond>
-3.0000

> <Gold.PLP.part.metal>
0.0000

> <Gold.PLP.part.buried>
-1.5508

> <Gold.PLP.part.nonpolar>
-31.6504

> <Gold.PLP.part.repulsive>
0.3165

> <Gold.PLP.ligand.clash>
0.0000

> <Gold.PLP.ligand.torsion>
0.4451

> <Gold.PLP.Chemscore.Hbond>
3.0824

> <Gold.PLP.Chemscore.CHOScore>
0.0000

> <Gold.PLP.Chemscore.Metal>
0.0000

> <Gold.Chemscore.Hbonds>
donor molecule, donor type, donor heavy atom, donor atom, acceptor molecule, acceptor atom, score
      L1  H    16    44       P1  7948  2.00
      L1  H    19    39       P1  7948  0.76
      P1  H  7989  7998       L1    11  0.12

> <Gold.PLP.Chemscore.Internal.Correction>
0.0539

> <Gold.Rescore>
     Score         DG    S(hbond)    S(metal)    S(lipo)     H(rot)  DE(clash)    DE(int)     intcor
     12.20     -15.60       1.76        0.00      87.02       2.33       1.72       1.67       ----

> <Gold.Chemscore.Fitness>
12.2037

> <Gold.Chemscore.DG>
-15.5967

> <Gold.Chemscore.ZeroCoef>
-5.4800

> <Gold.Chemscore.Hbond>
1.7641

> <Gold.Chemscore.Metal>
0.0000

> <Gold.Chemscore.Lipo>
87.0240

> <Gold.Chemscore.Internal_Hbond>
0.0000

> <Gold.Chemscore.DEClash>
1.7220

> <Gold.Chemscore.DEInternal>
1.6710

> <Gold.Chemscore.Rot>
2.3271

> <Gold.Chemscore.Internal.Correction>
   9.000000E+99

> <Gold.Chemscore.Hbonds>
donor molecule, donor type, donor heavy atom, donor atom, acceptor molecule, acceptor atom, score
      L1  H    16    44       P1  7948  0.95
      L1  H    19    39       P1  7948  0.13
      P1  H  7989  7998       L1    11  0.01

> <Gold.Chemscore.Hbond.Weighted>
-5.8923

> <Gold.Chemscore.Metal.Weighted>
-0.0000

> <Gold.Chemscore.Lipo.Weighted>
-10.1818

> <Gold.Chemscore.Internal_Hbond.Weighted>
0.0000

> <Gold.Chemscore.DEClash.Weighted>
1.7220

> <Gold.Chemscore.DEInternal.Weighted>
1.6710

> <Gold.Chemscore.Rot.Weighted>
5.9573

> <Gold.Chemscore.Internal.Correction.Weighted>
   9.000000E+99

> <Gold.Protein.RotatedTorsions>
[ 6907 6896 6895 6894 ] final -117.93 input  -60.11 | X-H torsion
[ 7974 7965 7964 7962 ] final -109.94 input  175.53 | X-H torsion
[ 8008 7997 7996 7995 ] final   35.76 input   59.86 | X-H torsion
[ 10167 10162 10161 10158 ] final  -72.32 input  -65.29 | X-H torsion
[ 10718 10713 10712 10709 ] final  -28.68 input   66.30 | X-H torsion
[ 10763 10752 10751 10750 ] final  -87.54 input  -60.55 | X-H torsion
[ 11005 11000 10999 10996 ] final   -0.75 input  -57.11 | X-H torsion

> <Gold.Protein.ActiveResidues>
 VAL166  LYS551  ARG553  GLY616  TRP617  ASP618  TYR619  PRO620  LYS621  CYS622 
 ASP623  PHE694  ASN695  SER759  ASP760  ASP761  ALA762  ILE779  LEU786  VAL792 
 PHE793  MET794  SER795  GLU796  ALA797  LYS798  CYS799  TRP800  GLU811  SER814 

> <Gold.Protein.RotatedAtoms>
  150.8177  133.8307  159.3152 H   0  0  0  0  0  0  0  0  0  0  0  0  # atno 6907 bound_to 6896
  151.6074  135.1041  160.0083 H   0  0  0  0  0  0  0  0  0  0  0  0  # atno 6908 bound_to 6896
  152.4268  133.7168  159.6567 H   0  0  0  0  0  0  0  0  0  0  0  0  # atno 6909 bound_to 6896
  145.1744  140.8941  143.3516 H   0  0  0  0  0  0  0  0  0  0  0  0  # atno 7974 bound_to 7965
  155.1764  140.3296  155.4383 H   0  0  0  0  0  0  0  0  0  0  0  0  # atno 8008 bound_to 7997
  156.2492  140.1934  156.6815 H   0  0  0  0  0  0  0  0  0  0  0  0  # atno 8009 bound_to 7997
  154.6302  140.0583  156.9708 H   0  0  0  0  0  0  0  0  0  0  0  0  # atno 8010 bound_to 7997
  140.5202  143.2333  151.7444 H   0  0  0  0  0  0  0  0  0  0  0  0  # atno 10167 bound_to 10162
  156.4221  130.4428  149.7177 H   0  0  0  0  0  0  0  0  0  0  0  0  # atno 10718 bound_to 10713
  154.6348  135.5409  153.7721 H   0  0  0  0  0  0  0  0  0  0  0  0  # atno 10763 bound_to 10752
  153.0303  135.6444  154.1248 H   0  0  0  0  0  0  0  0  0  0  0  0  # atno 10764 bound_to 10752
  154.1176  135.2922  155.3196 H   0  0  0  0  0  0  0  0  0  0  0  0  # atno 10765 bound_to 10752
  140.6397  133.9500  155.8319 H   0  0  0  0  0  0  0  0  0  0  0  0  # atno 11005 bound_to 11000
  145.0200  139.3433  143.6077 LP  0  0  0  0  0  0  0  0  0  0  0  0  # atno 17320 bound_to 7965
  146.3463  139.9496  142.8730 LP  0  0  0  0  0  0  0  0  0  0  0  0  # atno 17321 bound_to 7965
  139.4921  144.4266  151.9919 LP  0  0  0  0  0  0  0  0  0  0  0  0  # atno 17342 bound_to 10162
  140.3362  144.3257  150.5976 LP  0  0  0  0  0  0  0  0  0  0  0  0  # atno 17343 bound_to 10162
  156.4113  130.7723  151.2737 LP  0  0  0  0  0  0  0  0  0  0  0  0  # atno 17370 bound_to 10713
  157.7508  131.0210  150.3734 LP  0  0  0  0  0  0  0  0  0  0  0  0  # atno 17371 bound_to 10713
  141.0615  134.0339  157.3651 LP  0  0  0  0  0  0  0  0  0  0  0  0  # atno 17394 bound_to 11000
  139.9085  135.0185  156.7589 LP  0  0  0  0  0  0  0  0  0  0  0  0  # atno 17395 bound_to 11000

$$$$
