AV-unprocessed.smi:1015|AV-procd|sdf|4436|dock8
  -GOLD-   22720 2393D 1   1.00000     0.00000
 Structure written by MMmdl.
 42 43  0  0  0  0  0  0  0  0  1 V2000
  152.7203  143.6596  160.7733 C   0  0  0  0  0  0  0  0  0  0  0  0
  151.6152  143.3214  159.9540 O   0  0  0  0  0  0  0  0  0  0  0  0
  151.9650  143.2155  158.5833 C   0  0  0  0  0  0  0  0  0  0  0  0
  150.7353  142.8225  157.7471 C   0  0  0  0  0  0  0  0  0  0  0  0
  150.9919  141.9055  156.6345 N   0  0  0  0  0  0  0  0  0  0  0  0
  149.7328  141.4058  156.0818 C   0  0  0  0  0  0  0  0  0  0  0  0
  149.9401  140.5038  154.8539 C   0  0  0  0  0  0  0  0  0  0  0  0
  150.8473  139.3095  155.1992 C   0  0  0  0  0  0  0  0  0  0  0  0
  151.1052  138.4222  153.9628 C   0  0  0  0  0  0  0  0  0  0  0  0
  150.4496  137.1252  154.0777 N   0  0  0  0  0  0  0  0  0  0  0  0
  150.8972  136.0966  154.8139 C   0  0  0  0  0  0  0  0  0  0  0  0
  151.8650  136.1704  155.5703 O   0  0  0  0  0  0  0  0  0  0  0  0
  150.1588  134.7702  154.6425 C   0  0  0  0  0  0  0  0  0  0  0  0
  150.7104  133.7663  155.5336 N   0  0  0  0  0  0  0  0  0  0  0  0
  151.1379  132.5241  155.2975 C   0  0  0  0  0  0  0  0  0  0  0  0
  151.5440  131.9275  156.4078 N   0  0  0  0  0  0  0  0  0  0  0  0
  151.3408  132.8953  157.3776 N   0  0  0  0  0  0  0  0  0  0  0  0
  150.8462  133.9884  156.8649 N   0  0  0  0  0  0  0  0  0  0  0  0
  152.1479  139.8351  155.8423 C   0  0  0  0  0  0  0  0  0  0  0  0
  151.8424  140.7765  157.0190 C   0  0  0  0  0  0  0  0  0  0  0  0
  152.3965  143.7355  161.8113 H   0  0  0  0  0  0  0  0  0  0  0  0
  153.1489  144.6196  160.4829 H   0  0  0  0  0  0  0  0  0  0  0  0
  153.4984  142.8971  160.7184 H   0  0  0  0  0  0  0  0  0  0  0  0
  152.3348  144.1838  158.2430 H   0  0  0  0  0  0  0  0  0  0  0  0
  152.7705  142.4936  158.4381 H   0  0  0  0  0  0  0  0  0  0  0  0
  149.9561  142.4227  158.3977 H   0  0  0  0  0  0  0  0  0  0  0  0
  150.3291  143.7468  157.3343 H   0  0  0  0  0  0  0  0  0  0  0  0
  149.1846  140.8559  156.8487 H   0  0  0  0  0  0  0  0  0  0  0  0
  149.0990  142.2455  155.7941 H   0  0  0  0  0  0  0  0  0  0  0  0
  148.9750  140.1493  154.4904 H   0  0  0  0  0  0  0  0  0  0  0  0
  150.3822  141.0872  154.0450 H   0  0  0  0  0  0  0  0  0  0  0  0
  150.3265  138.7077  155.9458 H   0  0  0  0  0  0  0  0  0  0  0  0
  150.7729  138.9267  153.0539 H   0  0  0  0  0  0  0  0  0  0  0  0
  152.1751  138.2485  153.8449 H   0  0  0  0  0  0  0  0  0  0  0  0
  149.6426  136.9710  153.4903 H   0  0  0  0  0  0  0  0  0  0  0  0
  149.0991  134.8962  154.8680 H   0  0  0  0  0  0  0  0  0  0  0  0
  150.2343  134.4259  153.6096 H   0  0  0  0  0  0  0  0  0  0  0  0
  151.1424  132.0588  154.3228 H   0  0  0  0  0  0  0  0  0  0  0  0
  152.7633  139.0078  156.1977 H   0  0  0  0  0  0  0  0  0  0  0  0
  152.7419  140.3658  155.0969 H   0  0  0  0  0  0  0  0  0  0  0  0
  152.7933  141.1384  157.4071 H   0  0  0  0  0  0  0  0  0  0  0  0
  151.3704  140.2135  157.8259 H   0  0  0  0  0  0  0  0  0  0  0  0
  1  2  1  0  0  0  0
  1 21  1  0  0  0  0
  1 22  1  0  0  0  0
  1 23  1  0  0  0  0
  2  3  1  0  0  0  0
  3  4  1  0  0  0  0
  3 24  1  0  0  0  0
  3 25  1  0  0  0  0
  4  5  1  0  0  0  0
  4 26  1  0  0  0  0
  4 27  1  0  0  0  0
  5 20  1  0  0  0  0
  5  6  1  0  0  0  0
  6  7  1  0  0  0  0
  6 28  1  0  0  0  0
  6 29  1  0  0  0  0
  7  8  1  0  0  0  0
  7 30  1  0  0  0  0
  7 31  1  0  0  0  0
  8  9  1  0  0  0  0
  8 19  1  0  0  0  0
  8 32  1  0  0  0  0
  9 10  1  0  0  0  0
  9 33  1  0  0  0  0
  9 34  1  0  0  0  0
 10 11  1  0  0  0  0
 10 35  1  0  0  0  0
 11 12  2  0  0  0  0
 11 13  1  0  0  0  0
 13 14  1  0  0  0  0
 13 36  1  0  0  0  0
 13 37  1  0  0  0  0
 14 18  1  0  0  0  0
 14 15  1  0  0  0  0
 15 16  2  0  0  0  0
 15 38  1  0  0  0  0
 16 17  1  0  0  0  0
 17 18  2  0  0  0  0
 19 20  1  0  0  0  0
 19 39  1  0  0  0  0
 19 40  1  0  0  0  0
 20 41  1  0  0  0  0
 20 42  1  0  0  0  0
M  END
> <s_m_source_file>
AV-unprocessed.smi

> <i_m_source_file_index>
1015

> <i_lp_mmshare_version>
43012

> <i_f3d_flags>
0

> <s_epik_input>
W0NIM11PW0NIMl1bQ0gyXU4xW0NIMl1bQ0gyXVtDSF0oW0NIMl1bQ0gyXTEpW0NIMl1bTkhdQyg9TylbQ0gyXW4yW2NIXW5ubjI=

> <s_epik_cmdline>
J2VwaWtfcHl0aG9uJywgJy1waCcsICc3LjAnLCAnLXRuJywgJzgnLCAnLW1hJywgJzIwMCcsICctbWV0YWxfYmluZGluZycsICctaW1hZScsICc8aW5maWxlLm1hZT4nLCAnLW9tYWUnLCAnPG91dGZpbGUubWFlPic=

> <r_lp_tautomer_probability>
1

> <r_epik_Ionization_Penalty>
2.39972

> <r_epik_Ionization_Penalty_Charging>
0

> <r_epik_Ionization_Penalty_Neutral>
2.39972

> <r_epik_State_Penalty>
2.55755

> <r_epik_Charging_Adjusted_Penalty>
2.55755

> <i_epik_Tot_Q>
0

> <i_epik_Tot_abs_Q>
0

> <r_epik_Metal_State_Penalty>
2.55755

> <b_epik_Metal_Only>
0

> <s_lp_Force_Field>
OPLS_2005

> <r_lp_Energy>
27.1713

> <b_lp_Chiralities_Consistent>
1

> <s_lp_Variant>
AV-unprocessed.smi:1015-3

> <Gold.Version>
5.8.1

> <Gold.Id.Protein>
6NUR|6NUR_protein|mol2

> <Gold.PLP.Fitness>
43.3267

> <Gold.PLP.PLP>
-36.7484

> <Gold.PLP.part.hbond>
-5.0674

> <Gold.PLP.part.metal>
0.0000

> <Gold.PLP.part.buried>
-4.0032

> <Gold.PLP.part.nonpolar>
-27.8158

> <Gold.PLP.part.repulsive>
0.2022

> <Gold.PLP.ligand.clash>
0.0000

> <Gold.PLP.ligand.torsion>
1.2524

> <Gold.PLP.Chemscore.Hbond>
3.0000

> <Gold.PLP.Chemscore.CHOScore>
0.0000

> <Gold.PLP.Chemscore.Metal>
0.0000

> <Gold.Chemscore.Hbonds>
donor molecule, donor type, donor heavy atom, donor atom, acceptor molecule, acceptor atom, score
      L1  H    10    35       P1  7948  0.91
      P1  H  6896  6909       L1    17  0.94
      P1  H 10752 10765       L1    12  0.93

> <Gold.PLP.Chemscore.Internal.Correction>
0.0831

> <Gold.Rescore>
     Score         DG    S(hbond)    S(metal)    S(lipo)     H(rot)  DE(clash)    DE(int)     intcor
      9.75     -12.13       1.68        0.00      77.09       3.12       0.04       2.33       ----

> <Gold.Chemscore.Fitness>
9.7499

> <Gold.Chemscore.DG>
-12.1256

> <Gold.Chemscore.ZeroCoef>
-5.4800

> <Gold.Chemscore.Hbond>
1.6807

> <Gold.Chemscore.Metal>
0.0000

> <Gold.Chemscore.Lipo>
77.0900

> <Gold.Chemscore.Internal_Hbond>
0.0000

> <Gold.Chemscore.DEClash>
0.0417

> <Gold.Chemscore.DEInternal>
2.3340

> <Gold.Chemscore.Rot>
3.1201

> <Gold.Chemscore.Internal.Correction>
   9.000000E+99

> <Gold.Chemscore.Hbonds>
donor molecule, donor type, donor heavy atom, donor atom, acceptor molecule, acceptor atom, score
      L1  H    10    35       P1  7948  0.63
      P1  H  6896  6909       L1    17  0.27
      P1  H 10752 10765       L1    12  0.44

> <Gold.Chemscore.Hbond.Weighted>
-5.6135

> <Gold.Chemscore.Metal.Weighted>
-0.0000

> <Gold.Chemscore.Lipo.Weighted>
-9.0195

> <Gold.Chemscore.Internal_Hbond.Weighted>
0.0000

> <Gold.Chemscore.DEClash.Weighted>
0.0417

> <Gold.Chemscore.DEInternal.Weighted>
2.3340

> <Gold.Chemscore.Rot.Weighted>
7.9874

> <Gold.Chemscore.Internal.Correction.Weighted>
   9.000000E+99

> <Gold.Protein.RotatedTorsions>
[ 6907 6896 6895 6894 ] final  -45.01 input  -60.11 | X-H torsion
[ 7974 7965 7964 7962 ] final -170.75 input  175.53 | X-H torsion
[ 8008 7997 7996 7995 ] final  -55.26 input   59.86 | X-H torsion
[ 10167 10162 10161 10158 ] final  116.86 input  -65.29 | X-H torsion
[ 10718 10713 10712 10709 ] final -145.24 input   66.30 | X-H torsion
[ 10763 10752 10751 10750 ] final -167.34 input  -60.55 | X-H torsion
[ 11005 11000 10999 10996 ] final -179.90 input  -57.11 | X-H torsion

> <Gold.Protein.ActiveResidues>
 VAL166  LYS551  ARG553  GLY616  TRP617  ASP618  TYR619  PRO620  LYS621  CYS622 
 ASP623  PHE694  ASN695  SER759  ASP760  ASP761  ALA762  ILE779  LEU786  VAL792 
 PHE793  MET794  SER795  GLU796  ALA797  LYS798  CYS799  TRP800  GLU811  SER814 

> <Gold.Protein.RotatedAtoms>
  150.9266  134.8682  159.7523 H   0  0  0  0  0  0  0  0  0  0  0  0  # atno 6907 bound_to 6896
  152.5018  134.4141  159.9468 H   0  0  0  0  0  0  0  0  0  0  0  0  # atno 6908 bound_to 6896
  151.4171  133.3670  159.2786 H   0  0  0  0  0  0  0  0  0  0  0  0  # atno 6909 bound_to 6896
  144.7166  140.2024  143.6336 H   0  0  0  0  0  0  0  0  0  0  0  0  # atno 7974 bound_to 7965
  154.4189  140.1157  156.5449 H   0  0  0  0  0  0  0  0  0  0  0  0  # atno 8008 bound_to 7997
  155.6470  140.3496  155.4715 H   0  0  0  0  0  0  0  0  0  0  0  0  # atno 8009 bound_to 7997
  155.9824  140.1163  157.0704 H   0  0  0  0  0  0  0  0  0  0  0  0  # atno 8010 bound_to 7997
  139.6218  144.7102  151.2618 H   0  0  0  0  0  0  0  0  0  0  0  0  # atno 10167 bound_to 10162
  156.3800  130.7832  151.2023 H   0  0  0  0  0  0  0  0  0  0  0  0  # atno 10718 bound_to 10713
  154.6742  135.2944  154.9701 H   0  0  0  0  0  0  0  0  0  0  0  0  # atno 10763 bound_to 10752
  154.0718  135.6617  153.4829 H   0  0  0  0  0  0  0  0  0  0  0  0  # atno 10764 bound_to 10752
  153.0505  135.5176  154.7752 H   0  0  0  0  0  0  0  0  0  0  0  0  # atno 10765 bound_to 10752
  140.4135  134.6670  157.4626 H   0  0  0  0  0  0  0  0  0  0  0  0  # atno 11005 bound_to 11000
  145.8667  139.2250  143.1685 LP  0  0  0  0  0  0  0  0  0  0  0  0  # atno 17320 bound_to 7965
  146.0123  140.8424  142.9965 LP  0  0  0  0  0  0  0  0  0  0  0  0  # atno 17321 bound_to 7965
  140.7386  143.6642  150.8138 LP  0  0  0  0  0  0  0  0  0  0  0  0  # atno 17342 bound_to 10162
  140.0254  143.5499  152.2783 LP  0  0  0  0  0  0  0  0  0  0  0  0  # atno 17343 bound_to 10162
  157.7491  131.0347  150.4329 LP  0  0  0  0  0  0  0  0  0  0  0  0  # atno 17370 bound_to 10713
  156.4571  130.4024  149.6599 LP  0  0  0  0  0  0  0  0  0  0  0  0  # atno 17371 bound_to 10713
  140.0251  134.6490  155.9185 LP  0  0  0  0  0  0  0  0  0  0  0  0  # atno 17394 bound_to 11000
  141.1812  133.6547  156.5028 LP  0  0  0  0  0  0  0  0  0  0  0  0  # atno 17395 bound_to 11000

$$$$
