AV-unprocessed.smi:2742|AV-procd|sdf|10565|dock6
  -GOLD-   2272015 13D 1   1.00000     0.00000
 Structure written by MMmdl.
 37 38  0  0  0  0  0  0  0  0  1 V2000
  147.7866  131.7499  152.7114 C   0  0  0  0  0  0  0  0  0  0  0  0
  146.3161  131.8666  151.6574 S   0  0  0  0  0  0  0  0  0  0  0  0
  146.0400  133.6622  151.6521 C   0  0  1  0  0  0  0  0  0  0  0  0
  145.1408  134.0601  150.4683 C   0  0  0  0  0  0  0  0  0  0  0  0
  144.8722  135.5729  150.4482 C   0  0  0  0  0  0  0  0  0  0  0  0
  144.2561  136.0456  151.7754 C   0  0  0  0  0  0  0  0  0  0  0  0
  145.1233  135.6521  152.9897 C   0  0  2  0  0  0  0  0  0  0  0  0
  146.3676  136.4196  153.0258 N   0  0  0  0  0  0  0  0  0  0  0  0
  146.5663  137.5484  153.7216 C   0  0  0  0  0  0  0  0  0  0  0  0
  145.7050  138.0658  154.4321 O   0  0  0  0  0  0  0  0  0  0  0  0
  147.8147  138.0125  153.5397 N   0  0  0  0  0  0  0  0  0  0  0  0
  148.4349  139.1710  154.0849 C   0  0  0  0  0  0  0  0  0  0  0  0
  147.7950  140.4246  154.2456 C   0  0  0  0  0  0  0  0  0  0  0  0
  148.5330  141.4948  154.7899 C   0  0  0  0  0  0  0  0  0  0  0  0
  149.8261  141.3940  155.1631 N   0  0  0  0  0  0  0  0  0  0  0  0
  150.4364  140.2017  154.9984 C   0  0  0  0  0  0  0  0  0  0  0  0
  149.7902  139.0686  154.4647 C   0  0  0  0  0  0  0  0  0  0  0  0
  150.4642  137.9014  154.3229 F   0  0  0  0  0  0  0  0  0  0  0  0
  145.4277  134.1406  152.9857 C   0  0  0  0  0  0  0  0  0  0  0  0
  148.1189  130.7136  152.7714 H   0  0  0  0  0  0  0  0  0  0  0  0
  147.5708  132.0978  153.7210 H   0  0  0  0  0  0  0  0  0  0  0  0
  148.5992  132.3487  152.3008 H   0  0  0  0  0  0  0  0  0  0  0  0
  147.0123  134.1362  151.5128 H   0  0  0  0  0  0  0  0  0  0  0  0
  145.6061  133.7588  149.5292 H   0  0  0  0  0  0  0  0  0  0  0  0
  144.1925  133.5242  150.5290 H   0  0  0  0  0  0  0  0  0  0  0  0
  145.8035  136.1085  150.2612 H   0  0  0  0  0  0  0  0  0  0  0  0
  144.2046  135.8200  149.6224 H   0  0  0  0  0  0  0  0  0  0  0  0
  144.0965  137.1242  151.7514 H   0  0  0  0  0  0  0  0  0  0  0  0
  143.2672  135.5986  151.8852 H   0  0  0  0  0  0  0  0  0  0  0  0
  144.5635  135.8722  153.9005 H   0  0  0  0  0  0  0  0  0  0  0  0
  147.1329  136.0644  152.4716 H   0  0  0  0  0  0  0  0  0  0  0  0
  148.4169  137.4396  152.9669 H   0  0  0  0  0  0  0  0  0  0  0  0
  146.7693  140.5946  153.9590 H   0  0  0  0  0  0  0  0  0  0  0  0
  148.0713  142.4619  154.9246 H   0  0  0  0  0  0  0  0  0  0  0  0
  151.4721  140.1487  155.2993 H   0  0  0  0  0  0  0  0  0  0  0  0
  144.5013  133.5943  153.1678 H   0  0  0  0  0  0  0  0  0  0  0  0
  146.0879  133.8990  153.8187 H   0  0  0  0  0  0  0  0  0  0  0  0
  1  2  1  0  0  0  0
  1 20  1  0  0  0  0
  1 21  1  0  0  0  0
  1 22  1  0  0  0  0
  2  3  1  0  0  0  0
  3 19  1  0  0  0  0
  3  4  1  0  0  0  0
  3 23  1  0  0  0  0
  4  5  1  0  0  0  0
  4 24  1  0  0  0  0
  4 25  1  0  0  0  0
  5  6  1  0  0  0  0
  5 26  1  0  0  0  0
  5 27  1  0  0  0  0
  6  7  1  0  0  0  0
  6 28  1  0  0  0  0
  6 29  1  0  0  0  0
  7  8  1  0  0  0  0
  7 19  1  0  0  0  0
  7 30  1  0  0  0  0
  8  9  1  0  0  0  0
  8 31  1  0  0  0  0
  9 10  2  0  0  0  0
  9 11  1  0  0  0  0
 11 12  1  0  0  0  0
 11 32  1  0  0  0  0
 12 17  1  0  0  0  0
 12 13  2  0  0  0  0
 13 14  1  0  0  0  0
 13 33  1  0  0  0  0
 14 15  2  0  0  0  0
 14 34  1  0  0  0  0
 15 16  1  0  0  0  0
 16 17  2  0  0  0  0
 16 35  1  0  0  0  0
 17 18  1  0  0  0  0
 19 36  1  0  0  0  0
 19 37  1  0  0  0  0
M  END
> <s_m_source_file>
AV-unprocessed.smi

> <i_m_source_file_index>
2742

> <i_lp_mmshare_version>
43012

> <i_f3d_flags>
0

> <s_epik_input>
W0NIM11TW0NAQEhdMVtDSDJdW0NIMl1bQ0gyXVtDQEhdKFtDSDJdMSlbTkhdQyg9TylbTkhdYzJbY0hdW2NIXW5bY0hdYzJG

> <s_epik_cmdline>
J2VwaWtfcHl0aG9uJywgJy1waCcsICc3LjAnLCAnLXRuJywgJzgnLCAnLW1hJywgJzIwMCcsICctbWV0YWxfYmluZGluZycsICctaW1hZScsICc8aW5maWxlLm1hZT4nLCAnLW9tYWUnLCAnPG91dGZpbGUubWFlPic=

> <r_epik_Ionization_Penalty>
0.00344009

> <r_epik_Ionization_Penalty_Charging>
0

> <r_epik_Ionization_Penalty_Neutral>
0.00344009

> <r_epik_State_Penalty>
0.0024078

> <r_epik_Charging_Adjusted_Penalty>
0.0024078

> <i_epik_Tot_Q>
0

> <i_epik_Tot_abs_Q>
0

> <r_epik_Metal_State_Penalty>
-0

> <b_epik_Metal_Only>
0

> <s_lp_Force_Field>
OPLS_2005

> <r_lp_Energy>
13.9364

> <b_lp_Chiralities_Consistent>
1

> <s_lp_Variant>
AV-unprocessed.smi:2742-4

> <Gold.Version>
5.8.1

> <Gold.Id.Protein>
6NUR|6NUR_protein|mol2

> <Gold.PLP.Fitness>
37.8749

> <Gold.PLP.PLP>
-30.4147

> <Gold.PLP.part.hbond>
-2.9087

> <Gold.PLP.part.metal>
0.0000

> <Gold.PLP.part.buried>
0.0728

> <Gold.PLP.part.nonpolar>
-27.3422

> <Gold.PLP.part.repulsive>
0.2829

> <Gold.PLP.ligand.clash>
0.0000

> <Gold.PLP.ligand.torsion>
0.7670

> <Gold.PLP.Chemscore.Hbond>
2.0000

> <Gold.PLP.Chemscore.CHOScore>
0.9945

> <Gold.PLP.Chemscore.Metal>
0.0000

> <Gold.Chemscore.Hbonds>
donor molecule, donor type, donor heavy atom, donor atom, acceptor molecule, acceptor atom, score
      L1  H     8    31       P1  7948  1.00
      L1  H    11    32       P1  7948  1.00
      L1  C    14    34       P1  8028  1.00

> <Gold.PLP.Chemscore.Internal.Correction>
0.0108

> <Gold.Rescore>
     Score         DG    S(hbond)    S(metal)    S(lipo)     H(rot)  DE(clash)    DE(int)     intcor
     16.81     -17.41       1.98        0.00      71.57       1.19       0.05       0.55       ----

> <Gold.Chemscore.Fitness>
16.8138

> <Gold.Chemscore.DG>
-17.4102

> <Gold.Chemscore.ZeroCoef>
-5.4800

> <Gold.Chemscore.Hbond>
1.9751

> <Gold.Chemscore.Metal>
0.0000

> <Gold.Chemscore.Lipo>
71.5683

> <Gold.Chemscore.Internal_Hbond>
0.0000

> <Gold.Chemscore.DEClash>
0.0471

> <Gold.Chemscore.DEInternal>
0.5493

> <Gold.Chemscore.Rot>
1.1875

> <Gold.Chemscore.Internal.Correction>
   9.000000E+99

> <Gold.Chemscore.Hbonds>
donor molecule, donor type, donor heavy atom, donor atom, acceptor molecule, acceptor atom, score
      L1  H     8    31       P1  7948  0.94
      L1  H    11    32       P1  7948  1.00

> <Gold.Chemscore.Hbond.Weighted>
-6.5967

> <Gold.Chemscore.Metal.Weighted>
-0.0000

> <Gold.Chemscore.Lipo.Weighted>
-8.3735

> <Gold.Chemscore.Internal_Hbond.Weighted>
0.0000

> <Gold.Chemscore.DEClash.Weighted>
0.0471

> <Gold.Chemscore.DEInternal.Weighted>
0.5493

> <Gold.Chemscore.Rot.Weighted>
3.0400

> <Gold.Chemscore.Internal.Correction.Weighted>
   9.000000E+99

> <Gold.Protein.RotatedTorsions>
[ 6907 6896 6895 6894 ] final  -55.23 input  -60.11 | X-H torsion
[ 7974 7965 7964 7962 ] final  111.96 input  175.53 | X-H torsion
[ 8008 7997 7996 7995 ] final   44.83 input   59.86 | X-H torsion
[ 10167 10162 10161 10158 ] final  -99.72 input  -65.29 | X-H torsion
[ 10718 10713 10712 10709 ] final -127.16 input   66.30 | X-H torsion
[ 10763 10752 10751 10750 ] final   58.44 input  -60.55 | X-H torsion
[ 11005 11000 10999 10996 ] final -127.54 input  -57.11 | X-H torsion

> <Gold.Protein.ActiveResidues>
 VAL166  LYS551  ARG553  GLY616  TRP617  ASP618  TYR619  PRO620  LYS621  CYS622 
 ASP623  PHE694  ASN695  SER759  ASP760  ASP761  ALA762  ILE779  LEU786  VAL792 
 PHE793  MET794  SER795  GLU796  ALA797  LYS798  CYS799  TRP800  GLU811  SER814 

> <Gold.Protein.RotatedAtoms>
  150.8269  134.7504  159.6820 H   0  0  0  0  0  0  0  0  0  0  0  0  # atno 6907 bound_to 6896
  152.4379  134.5647  159.9914 H   0  0  0  0  0  0  0  0  0  0  0  0  # atno 6908 bound_to 6896
  151.5817  133.3339  159.3045 H   0  0  0  0  0  0  0  0  0  0  0  0  # atno 6909 bound_to 6896
  145.2356  139.2800  143.4145 H   0  0  0  0  0  0  0  0  0  0  0  0  # atno 7974 bound_to 7965
  155.3258  140.3399  155.4240 H   0  0  0  0  0  0  0  0  0  0  0  0  # atno 8008 bound_to 7997
  156.1886  140.1689  156.8173 H   0  0  0  0  0  0  0  0  0  0  0  0  # atno 8009 bound_to 7997
  154.5416  140.0724  156.8502 H   0  0  0  0  0  0  0  0  0  0  0  0  # atno 8010 bound_to 7997
  140.2595  143.3417  152.0639 H   0  0  0  0  0  0  0  0  0  0  0  0  # atno 10167 bound_to 10162
  156.1831  130.6745  151.0330 H   0  0  0  0  0  0  0  0  0  0  0  0  # atno 10718 bound_to 10713
  152.9871  135.5606  154.5553 H   0  0  0  0  0  0  0  0  0  0  0  0  # atno 10763 bound_to 10752
  154.4982  135.2796  155.1444 H   0  0  0  0  0  0  0  0  0  0  0  0  # atno 10764 bound_to 10752
  154.2885  135.6331  153.5429 H   0  0  0  0  0  0  0  0  0  0  0  0  # atno 10765 bound_to 10752
  140.9591  134.0961  157.3986 H   0  0  0  0  0  0  0  0  0  0  0  0  # atno 11005 bound_to 11000
  146.3342  140.2704  142.8605 LP  0  0  0  0  0  0  0  0  0  0  0  0  # atno 17320 bound_to 7965
  144.9636  140.8299  143.5498 LP  0  0  0  0  0  0  0  0  0  0  0  0  # atno 17321 bound_to 7965
  139.5021  144.6728  151.6202 LP  0  0  0  0  0  0  0  0  0  0  0  0  # atno 17342 bound_to 10162
  140.5977  143.9666  150.6365 LP  0  0  0  0  0  0  0  0  0  0  0  0  # atno 17343 bound_to 10162
  157.6881  131.0818  150.7185 LP  0  0  0  0  0  0  0  0  0  0  0  0  # atno 17370 bound_to 10713
  156.7242  130.4690  149.5515 LP  0  0  0  0  0  0  0  0  0  0  0  0  # atno 17371 bound_to 10713
  139.8872  135.0088  156.6545 LP  0  0  0  0  0  0  0  0  0  0  0  0  # atno 17394 bound_to 11000
  140.7493  133.8911  155.8335 LP  0  0  0  0  0  0  0  0  0  0  0  0  # atno 17395 bound_to 11000

$$$$
