#       Name:                AV-unprocessed.smi:1670
#       Creating user name   scv26
#       Creation time:       Fri Mar 27 07:42:57 2020


#       File generated by GOLD software.
#

@<TRIPOS>MOLECULE
AV-unprocessed.smi:1670
    46    47     1
SMALL
NO_CHARGES


@<TRIPOS>ATOM
      1 ****        -3.6068  -2.1071   2.0784 C.3            1 S1                 0.0000
      2 ****        -3.0151  -1.2478   0.9527 C.3            1 S1                 0.0000
      3 ****        -3.3269  -1.8463  -0.4363 C.3            1 S1                 0.0000
      4 ****        -2.8823  -0.9934  -1.5257 N.pl3          1 S1                 0.0000
      5 ****        -3.4561   0.1714  -1.9899 C.2            1 S1                 0.0000
      6 ****        -2.6726   0.6319  -3.0091 C.2            1 S1                 0.0000
      7 ****        -1.6308  -0.3333  -3.0974 C.2            1 S1                 0.0000
      8 ****        -1.7616  -1.3077  -2.2121 N.2            1 S1                 0.0000
      9 ****        -1.5714  -1.1264   1.1537 N.am           1 S1                 0.0000
     10 ****        -0.8521  -0.0096   0.9693 C.2            1 S1                 0.0000
     11 ****        -1.3343   1.0828   0.6686 O.2            1 S1                 0.0000
     12 ****         0.4604  -0.2345   1.1183 N.am           1 S1                 0.0000
     13 ****         1.5101   0.7567   0.9041 C.3            1 S1                 0.0000
     14 ****         1.7852   0.9405  -0.6033 C.3            1 S1                 0.0000
     15 ****         2.9353   1.9322  -0.8506 C.3            1 S1                 0.0000
     16 ****         4.2183   1.5404  -0.0936 C.3            1 S1                 0.0000
     17 ****         4.7845   0.3781  -0.6663 O.3            1 S1                 0.0000
     18 ****         3.9438   1.3104   1.4047 C.3            1 S1                 0.0000
     19 ****         2.7895   0.3205   1.6409 C.3            1 S1                 0.0000
     20 ****        -4.6887  -2.1962   1.9758 H              1 S1                 0.0000
     21 ****        -3.4053  -1.6676   3.0559 H              1 S1                 0.0000
     22 ****        -3.1884  -3.1142   2.0724 H              1 S1                 0.0000
     23 ****        -3.4823  -0.2636   1.0197 H              1 S1                 0.0000
     24 ****        -2.8689  -2.8316  -0.5414 H              1 S1                 0.0000
     25 ****        -4.4022  -1.9917  -0.5469 H              1 S1                 0.0000
     26 ****        -4.3586   0.5749  -1.5550 H              1 S1                 0.0000
     27 ****        -2.8190   1.5243  -3.5991 H              1 S1                 0.0000
     28 ****        -0.7895  -0.3549  -3.7743 H              1 S1                 0.0000
     29 ****        -1.0765  -1.9715   1.3985 H              1 S1                 0.0000
     30 ****         0.7591  -1.1676   1.3613 H              1 S1                 0.0000
     31 ****         1.1840   1.7105   1.3236 H              1 S1                 0.0000
     32 ****         2.0288  -0.0221  -1.0550 H              1 S1                 0.0000
     33 ****         0.8879   1.2960  -1.1116 H              1 S1                 0.0000
     34 ****         3.1354   2.0156  -1.9195 H              1 S1                 0.0000
     35 ****         2.6200   2.9238  -0.5236 H              1 S1                 0.0000
     36 ****         4.9539   2.3380  -0.2019 H              1 S1                 0.0000
     37 ****         4.9733   0.5530  -1.5756 H              1 S1                 0.0000
     38 ****         4.8468   0.9596   1.9056 H              1 S1                 0.0000
     39 ****         3.6905   2.2642   1.8691 H              1 S1                 0.0000
     40 ****         2.5944   0.2371   2.7107 H              1 S1                 0.0000
     41 ****         3.0892  -0.6734   1.3054 H              1 S1                 0.0000
     42 ****        -1.1649  -2.0993  -2.0804 LP             1 S1                 0.0000
     43 ****        -2.3224   1.1767   0.5467 LP             1 S1                 0.0000
     44 ****        -0.7378   1.8760   0.5463 LP             1 S1                 0.0000
     45 ****         4.1381  -0.3817  -0.5962 LP             1 S1                 0.0000
     46 ****         5.6292   0.1425  -0.1857 LP             1 S1                 0.0000
@<TRIPOS>BOND
    1    1    2 1     
    2    1   20 1     
    3    1   21 1     
    4    1   22 1     
    5    2    3 1     
    6    2    9 1     
    7    2   23 1     
    8    3    4 1     
    9    3   24 1     
   10    3   25 1     
   11    4    8 1     
   12    4    5 1     
   13    5    6 2     
   14    5   26 1     
   15    6    7 1     
   16    6   27 1     
   17    7    8 2     
   18    7   28 1     
   19    9   10 am    
   20    9   29 1     
   21   10   11 2     
   22   10   12 am    
   23   12   13 1     
   24   12   30 1     
   25   13   19 1     
   26   13   14 1     
   27   13   31 1     
   28   14   15 1     
   29   14   32 1     
   30   14   33 1     
   31   15   16 1     
   32   15   34 1     
   33   15   35 1     
   34   16   17 1     
   35   16   18 1     
   36   16   36 1     
   37   17   37 1     
   38   18   19 1     
   39   18   38 1     
   40   18   39 1     
   41   19   40 1     
   42   19   41 1     
   43    8   42 1     
   44   11   43 1     
   45   11   44 1     
   46   17   45 1     
   47   17   46 1     
@<TRIPOS>SUBSTRUCTURE
      1 S1             1
@<TRIPOS>SET
LONE_PAIRS      STATIC     ATOMS    <user>   **** ""
5 42 43 44 45 46
DONOR_HYDROGENS      STATIC     ATOMS    <user>   **** ""
3 29 30 37
ATOM$BLUE        STATIC     ATOMS    COLORGROUP SYSTEM
5 42 43 44 45 46
ATOM$RED        STATIC     ATOMS    COLORGROUP SYSTEM
3 29 30 37
