AV-unprocessed.smi:149|AV-procd|sdf|1234|dock7
  -GOLD-   2262018443D 1   1.00000     0.00000
 Structure written by MMmdl.
 60 64  0  0  0  0  0  0  0  0  2 V2000
  144.9898  129.8983  152.6704 C   0  0  0  0  0  0  0  0  0  0  0  0
  146.3828  130.5575  152.6915 C   0  0  2  0  0  0  0  0  0  0  0  0
  146.9221  130.6019  154.1340 C   0  0  0  0  0  0  0  0  0  0  0  0
  147.4713  131.9306  154.3401 N   0  0  0  0  0  0  0  0  0  0  0  0
  148.3884  132.1652  155.3164 C   0  0  0  0  0  0  0  0  0  0  0  0
  148.2778  133.3043  156.0505 N   0  0  0  0  0  0  0  0  0  0  0  0
  149.1542  133.5759  157.0208 C   0  0  0  0  0  0  0  0  0  0  0  0
  150.2003  132.8547  157.4222 N   0  0  0  0  0  0  0  0  0  0  0  0
  150.3174  131.7026  156.7025 C   0  0  0  0  0  0  0  0  0  0  0  0
  149.4613  131.2822  155.6426 C   0  0  0  0  0  0  0  0  0  0  0  0
  149.8897  130.0502  155.1604 N   0  0  0  0  0  0  0  0  0  0  0  0
  150.9373  129.7649  155.8832 C   0  0  0  0  0  0  0  0  0  0  0  0
  151.2685  130.7027  156.8343 N   0  0  0  0  0  0  0  0  0  0  0  0
  152.3697  130.6309  157.7545 C   0  0  0  0  0  0  0  0  0  0  0  0
  153.5077  131.6546  157.7193 C   0  0  0  0  0  0  0  0  0  0  0  0
  154.4989  130.5511  158.1601 C   0  0  0  0  0  0  0  0  0  0  0  0
  155.8792  130.5280  157.4735 C   0  0  0  0  0  0  0  0  0  0  0  0
  156.7201  131.5776  157.9101 O   0  0  0  0  0  0  0  0  0  0  0  0
  154.7427  130.4513  159.6777 C   0  0  0  0  0  0  0  0  0  0  0  0
  155.4889  131.5504  160.1606 O   0  0  0  0  0  0  0  0  0  0  0  0
  153.4469  129.5501  157.6266 C   0  0  0  0  0  0  0  0  0  0  0  0
  147.5376  132.6296  153.0713 C   0  0  0  0  0  0  0  0  0  0  0  0
  146.4211  132.0285  152.2075 C   0  0  1  0  0  0  0  0  0  0  0  0
  146.7128  132.2337  150.7532 N   0  3  0  0  0  0  0  0  0  0  0  0
  145.7085  131.7056  149.7958 C   0  0  0  0  0  0  0  0  0  0  0  0
  144.4567  132.6016  149.7562 C   0  0  0  0  0  0  0  0  0  0  0  0
  144.8389  133.9208  149.3850 O   0  0  0  0  0  0  0  0  0  0  0  0
  145.7504  134.5014  150.3107 C   0  0  0  0  0  0  0  0  0  0  0  0
  147.0288  133.6428  150.3964 C   0  0  0  0  0  0  0  0  0  0  0  0
  144.2752  130.4715  153.2621 H   0  0  0  0  0  0  0  0  0  0  0  0
  145.0338  128.8945  153.0939 H   0  0  0  0  0  0  0  0  0  0  0  0
  144.5770  129.8018  151.6693 H   0  0  0  0  0  0  0  0  0  0  0  0
  147.0795  129.9659  152.0958 H   0  0  0  0  0  0  0  0  0  0  0  0
  146.1242  130.4406  154.8599 H   0  0  0  0  0  0  0  0  0  0  0  0
  147.6775  129.8301  154.2878 H   0  0  0  0  0  0  0  0  0  0  0  0
  148.9945  134.5026  157.5522 H   0  0  0  0  0  0  0  0  0  0  0  0
  151.4996  128.8534  155.7394 H   0  0  0  0  0  0  0  0  0  0  0  0
  151.9343  130.6010  158.7551 H   0  0  0  0  0  0  0  0  0  0  0  0
  153.7016  132.0385  156.7172 H   0  0  0  0  0  0  0  0  0  0  0  0
  153.3889  132.4762  158.4263 H   0  0  0  0  0  0  0  0  0  0  0  0
  156.3996  129.5902  157.6687 H   0  0  0  0  0  0  0  0  0  0  0  0
  155.7755  130.6106  156.3911 H   0  0  0  0  0  0  0  0  0  0  0  0
  157.6191  131.3075  157.8033 H   0  0  0  0  0  0  0  0  0  0  0  0
  153.8018  130.4219  160.2277 H   0  0  0  0  0  0  0  0  0  0  0  0
  155.2713  129.5315  159.9299 H   0  0  0  0  0  0  0  0  0  0  0  0
  155.3167  131.6480  161.0848 H   0  0  0  0  0  0  0  0  0  0  0  0
  153.2828  128.6796  158.2624 H   0  0  0  0  0  0  0  0  0  0  0  0
  153.6151  129.2418  156.5944 H   0  0  0  0  0  0  0  0  0  0  0  0
  147.4038  133.7027  153.2120 H   0  0  0  0  0  0  0  0  0  0  0  0
  148.5164  132.4587  152.6197 H   0  0  0  0  0  0  0  0  0  0  0  0
  145.4777  132.5049  152.4761 H   0  0  0  0  0  0  0  0  0  0  0  0
  146.1617  131.6976  148.8035 H   0  0  0  0  0  0  0  0  0  0  0  0
  145.4624  130.6657  149.9976 H   0  0  0  0  0  0  0  0  0  0  0  0
  143.7476  132.2220  149.0206 H   0  0  0  0  0  0  0  0  0  0  0  0
  143.9409  132.6146  150.7171 H   0  0  0  0  0  0  0  0  0  0  0  0
  145.9997  135.5068  149.9707 H   0  0  0  0  0  0  0  0  0  0  0  0
  145.2756  134.6107  151.2863 H   0  0  0  0  0  0  0  0  0  0  0  0
  147.7415  134.0843  151.0917 H   0  0  0  0  0  0  0  0  0  0  0  0
  147.5243  133.6451  149.4245 H   0  0  0  0  0  0  0  0  0  0  0  0
  147.5555  131.7033  150.5830 H   0  0  0  0  0  0  0  0  0  0  0  0
  1  2  1  0  0  0  0
  1 30  1  0  0  0  0
  1 31  1  0  0  0  0
  1 32  1  0  0  0  0
  2 23  1  0  0  0  0
  2  3  1  0  0  0  0
  2 33  1  0  0  0  0
  3  4  1  0  0  0  0
  3 34  1  0  0  0  0
  3 35  1  0  0  0  0
  4  5  1  0  0  0  0
  4 22  1  0  0  0  0
  5 10  1  0  0  0  0
  5  6  2  0  0  0  0
  6  7  1  0  0  0  0
  7  8  2  0  0  0  0
  7 36  1  0  0  0  0
  8  9  1  0  0  0  0
  9 13  1  0  0  0  0
  9 10  2  0  0  0  0
 10 11  1  0  0  0  0
 11 12  2  0  0  0  0
 12 13  1  0  0  0  0
 12 37  1  0  0  0  0
 13 14  1  0  0  0  0
 14 21  1  0  0  0  0
 14 15  1  0  0  0  0
 14 38  1  0  0  0  0
 15 16  1  0  0  0  0
 15 39  1  0  0  0  0
 15 40  1  0  0  0  0
 16 17  1  0  0  0  0
 16 19  1  0  0  0  0
 16 21  1  0  0  0  0
 17 18  1  0  0  0  0
 17 41  1  0  0  0  0
 17 42  1  0  0  0  0
 18 43  1  0  0  0  0
 19 20  1  0  0  0  0
 19 44  1  0  0  0  0
 19 45  1  0  0  0  0
 20 46  1  0  0  0  0
 21 47  1  0  0  0  0
 21 48  1  0  0  0  0
 22 23  1  0  0  0  0
 22 49  1  0  0  0  0
 22 50  1  0  0  0  0
 23 24  1  0  0  0  0
 23 51  1  0  0  0  0
 24 29  1  0  0  0  0
 24 25  1  0  0  0  0
 24 60  1  0  0  0  0
 25 26  1  0  0  0  0
 25 52  1  0  0  0  0
 25 53  1  0  0  0  0
 26 27  1  0  0  0  0
 26 54  1  0  0  0  0
 26 55  1  0  0  0  0
 27 28  1  0  0  0  0
 28 29  1  0  0  0  0
 28 56  1  0  0  0  0
 28 57  1  0  0  0  0
 29 58  1  0  0  0  0
 29 59  1  0  0  0  0
M  CHG  1  24   1
M  END
> <s_m_source_file>
AV-unprocessed.smi

> <i_m_source_file_index>
149

> <i_lp_mmshare_version>
43012

> <i_f3d_flags>
0

> <s_epik_input>
W0NIMl0xW0NIMl1PW0NIMl1bQ0gyXU4xW0NAQEhdMltDSDJdTihbQ0gyXVtDQEhdMltDSDNdKWMobltjSF1uMyljKGMzNCluW2NIXW40W0NIXShbQ0gyXTUpW0NIMl1DNShbQ0gyXVtPSF0pW0NIMl1bT0hd

> <s_epik_cmdline>
J2VwaWtfcHl0aG9uJywgJy1waCcsICc3LjAnLCAnLXRuJywgJzgnLCAnLW1hJywgJzIwMCcsICctbWV0YWxfYmluZGluZycsICctaW1hZScsICc8aW5maWxlLm1hZT4nLCAnLW9tYWUnLCAnPG91dGZpbGUubWFlPic=

> <r_lp_tautomer_probability>
1

> <r_epik_Ionization_Penalty>
0.404847

> <r_epik_Ionization_Penalty_Charging>
0.404623

> <r_epik_Ionization_Penalty_Neutral>
0.000224096

> <r_epik_State_Penalty>
0.238803

> <r_epik_Charging_Adjusted_Penalty>
0.643425

> <i_epik_Tot_Q>
1

> <i_epik_Tot_abs_Q>
1

> <r_epik_Metal_State_Penalty>
0.239083

> <b_epik_Metal_Only>
0

> <s_lp_Force_Field>
OPLS_2005

> <r_lp_Energy>
72.409

> <b_lp_Chiralities_Consistent>
1

> <s_lp_Variant>
AV-unprocessed.smi:149-1

> <Gold.Version>
5.8.1

> <Gold.Id.Protein>
6NUR|6NUR_protein|mol2

> <Gold.PLP.Fitness>
40.8138

> <Gold.PLP.PLP>
-36.7019

> <Gold.PLP.part.hbond>
-2.0000

> <Gold.PLP.part.metal>
0.0000

> <Gold.PLP.part.buried>
-4.4734

> <Gold.PLP.part.nonpolar>
-29.8610

> <Gold.PLP.part.repulsive>
0.2968

> <Gold.PLP.ligand.clash>
0.0000

> <Gold.PLP.ligand.torsion>
1.3056

> <Gold.PLP.Chemscore.Hbond>
2.0000

> <Gold.PLP.Chemscore.CHOScore>
0.0000

> <Gold.PLP.Chemscore.Metal>
0.0000

> <Gold.Chemscore.Hbonds>
donor molecule, donor type, donor heavy atom, donor atom, acceptor molecule, acceptor atom, score
      L1  H    24    60       P1 10747  1.00
      P1  H  6896  6907       L1     8  0.86

> <Gold.PLP.Chemscore.Internal.Correction>
0.7231

> <Gold.Rescore>
     Score         DG    S(hbond)    S(metal)    S(lipo)     H(rot)  DE(clash)    DE(int)     intcor
     12.90     -14.36       1.92        0.00      88.63       3.09       0.04       1.42       ----

> <Gold.Chemscore.Fitness>
12.8975

> <Gold.Chemscore.DG>
-14.3578

> <Gold.Chemscore.ZeroCoef>
-5.4800

> <Gold.Chemscore.Hbond>
1.9225

> <Gold.Chemscore.Metal>
0.0000

> <Gold.Chemscore.Lipo>
88.6348

> <Gold.Chemscore.Internal_Hbond>
0.0000

> <Gold.Chemscore.DEClash>
0.0436

> <Gold.Chemscore.DEInternal>
1.4167

> <Gold.Chemscore.Rot>
3.0912

> <Gold.Chemscore.Internal.Correction>
   9.000000E+99

> <Gold.Chemscore.Hbonds>
donor molecule, donor type, donor heavy atom, donor atom, acceptor molecule, acceptor atom, score
      L1  H    24    60       P1 10747  1.00
      P1  H  6896  6907       L1     8  0.76

> <Gold.Chemscore.Hbond.Weighted>
-6.4210

> <Gold.Chemscore.Metal.Weighted>
-0.0000

> <Gold.Chemscore.Lipo.Weighted>
-10.3703

> <Gold.Chemscore.Internal_Hbond.Weighted>
0.0000

> <Gold.Chemscore.DEClash.Weighted>
0.0436

> <Gold.Chemscore.DEInternal.Weighted>
1.4167

> <Gold.Chemscore.Rot.Weighted>
7.9135

> <Gold.Chemscore.Internal.Correction.Weighted>
   9.000000E+99

> <Gold.Protein.RotatedTorsions>
[ 6907 6896 6895 6894 ] final -144.01 input  -60.11 | X-H torsion
[ 7974 7965 7964 7962 ] final   22.52 input  175.53 | X-H torsion
[ 8008 7997 7996 7995 ] final  176.72 input   59.86 | X-H torsion
[ 10167 10162 10161 10158 ] final   25.74 input  -65.29 | X-H torsion
[ 10718 10713 10712 10709 ] final  151.59 input   66.30 | X-H torsion
[ 10763 10752 10751 10750 ] final   58.46 input  -60.55 | X-H torsion
[ 11005 11000 10999 10996 ] final   72.22 input  -57.11 | X-H torsion

> <Gold.Protein.ActiveResidues>
 VAL166  LYS551  ARG553  GLY616  TRP617  ASP618  TYR619  PRO620  LYS621  CYS622 
 ASP623  PHE694  ASN695  SER759  ASP760  ASP761  ALA762  ILE779  LEU786  VAL792 
 PHE793  MET794  SER795  GLU796  ALA797  LYS798  CYS799  TRP800  GLU811  SER814 

> <Gold.Protein.RotatedAtoms>
  151.1082  133.5193  159.2606 H   0  0  0  0  0  0  0  0  0  0  0  0  # atno 6907 bound_to 6896
  151.1997  135.0437  159.8877 H   0  0  0  0  0  0  0  0  0  0  0  0  # atno 6908 bound_to 6896
  152.5448  134.0912  159.8331 H   0  0  0  0  0  0  0  0  0  0  0  0  # atno 6909 bound_to 6896
  146.2025  139.7874  142.8750 H   0  0  0  0  0  0  0  0  0  0  0  0  # atno 7974 bound_to 7965
  156.0734  140.1376  156.9801 H   0  0  0  0  0  0  0  0  0  0  0  0  # atno 8008 bound_to 7997
  154.4544  140.0967  156.6765 H   0  0  0  0  0  0  0  0  0  0  0  0  # atno 8009 bound_to 7997
  155.5192  140.3456  155.4405 H   0  0  0  0  0  0  0  0  0  0  0  0  # atno 8010 bound_to 7997
  140.5081  144.0205  150.6361 H   0  0  0  0  0  0  0  0  0  0  0  0  # atno 10167 bound_to 10162
  157.2687  131.0813  151.1614 H   0  0  0  0  0  0  0  0  0  0  0  0  # atno 10718 bound_to 10713
  152.9871  135.5606  154.5556 H   0  0  0  0  0  0  0  0  0  0  0  0  # atno 10763 bound_to 10752
  154.4985  135.2796  155.1442 H   0  0  0  0  0  0  0  0  0  0  0  0  # atno 10764 bound_to 10752
  154.2882  135.6331  153.5427 H   0  0  0  0  0  0  0  0  0  0  0  0  # atno 10765 bound_to 10752
  139.9502  134.7241  156.0881 H   0  0  0  0  0  0  0  0  0  0  0  0  # atno 11005 bound_to 11000
  145.3434  141.0292  143.3379 LP  0  0  0  0  0  0  0  0  0  0  0  0  # atno 17320 bound_to 7965
  144.8716  139.5030  143.6765 LP  0  0  0  0  0  0  0  0  0  0  0  0  # atno 17321 bound_to 7965
  140.3520  143.2957  152.0477 LP  0  0  0  0  0  0  0  0  0  0  0  0  # atno 17342 bound_to 10162
  139.4889  144.6367  151.6962 LP  0  0  0  0  0  0  0  0  0  0  0  0  # atno 17343 bound_to 10162
  157.3095  130.6882  149.6208 LP  0  0  0  0  0  0  0  0  0  0  0  0  # atno 17370 bound_to 10713
  155.9663  130.4368  150.5148 LP  0  0  0  0  0  0  0  0  0  0  0  0  # atno 17371 bound_to 10713
  141.1163  133.6627  156.3102 LP  0  0  0  0  0  0  0  0  0  0  0  0  # atno 17394 bound_to 11000
  140.5737  134.5814  157.5463 LP  0  0  0  0  0  0  0  0  0  0  0  0  # atno 17395 bound_to 11000

$$$$
