#       Name:                AV-unprocessed.smi:1417
#       Creating user name   scv26
#       Creation time:       Fri Mar 27 05:40:55 2020


#       File generated by GOLD software.
#

@<TRIPOS>MOLECULE
AV-unprocessed.smi:1417
    47    48     1
SMALL
NO_CHARGES


@<TRIPOS>ATOM
      1 ****        -5.0027   5.1722   1.3185 C.3            1 S1                 0.0000
      2 ****        -4.3490   3.8329   1.3334 C.2            1 S1                 0.0000
      3 ****        -3.0459   3.4326   1.2410 C.2            1 S1                 0.0000
      4 ****        -3.1414   2.0131   1.3282 C.2            1 S1                 0.0000
      5 ****        -2.0631   1.0923   1.2825 N.am           1 S1                 0.0000
      6 ****        -0.7483   1.3497   1.1831 C.2            1 S1                 0.0000
      7 ****        -0.2424   2.4696   1.1176 O.2            1 S1                 0.0000
      8 ****        -0.0334   0.2151   1.1611 N.am           1 S1                 0.0000
      9 ****         1.4243   0.1336   1.0704 C.3            1 S1                 0.0000
     10 ****         1.9249   0.3738  -0.3681 C.3            1 S1                 0.0000
     11 ****         1.5716  -0.7957  -1.3035 C.3            1 S1                 0.0000
     12 ****         2.0993  -2.0816  -0.7743 N.4            1 S1                 1.0000
     13 ****         1.9071  -3.2197  -1.7101 C.3            1 S1                 0.0000
     14 ****         2.9129  -3.2230  -2.8662 C.2            1 S1                 0.0000
     15 ****         2.5990  -3.9575  -3.9359 N.am           1 S1                 0.0000
     16 ****         3.9634  -2.5879  -2.7932 O.2            1 S1                 0.0000
     17 ****         1.5737  -2.3696   0.5847 C.3            1 S1                 0.0000
     18 ****         1.9181  -1.2359   1.5683 C.3            1 S1                 0.0000
     19 ****        -4.3864   1.5937   1.4574 N.2            1 S1                 0.0000
     20 ****        -5.1681   2.7549   1.4630 O.3            1 S1                 0.0000
     21 ****        -4.2782   5.9568   1.0998 H              1 S1                 0.0000
     22 ****        -5.4567   5.3907   2.2852 H              1 S1                 0.0000
     23 ****        -5.7842   5.2130   0.5597 H              1 S1                 0.0000
     24 ****        -2.1795   4.0670   1.1300 H              1 S1                 0.0000
     25 ****        -2.3278   0.1199   1.3361 H              1 S1                 0.0000
     26 ****        -0.5348  -0.6586   1.2273 H              1 S1                 0.0000
     27 ****         1.8440   0.9019   1.7227 H              1 S1                 0.0000
     28 ****         1.5227   1.3059  -0.7664 H              1 S1                 0.0000
     29 ****         3.0085   0.4990  -0.3522 H              1 S1                 0.0000
     30 ****         0.4901  -0.8664  -1.4280 H              1 S1                 0.0000
     31 ****         1.9871  -0.5972  -2.2916 H              1 S1                 0.0000
     32 ****         2.0452  -4.1609  -1.1763 H              1 S1                 0.0000
     33 ****         0.8844  -3.2227  -2.0910 H              1 S1                 0.0000
     34 ****         3.2222  -3.9940  -4.7297 H              1 S1                 0.0000
     35 ****         1.7312  -4.4748  -3.9501 H              1 S1                 0.0000
     36 ****         0.4939  -2.5175   0.5350 H              1 S1                 0.0000
     37 ****         2.0028  -3.3014   0.9548 H              1 S1                 0.0000
     38 ****         3.0006  -1.1983   1.6996 H              1 S1                 0.0000
     39 ****         1.5023  -1.4539   2.5529 H              1 S1                 0.0000
     40 ****         3.0986  -1.9696  -0.6738 H              1 S1                 0.0000
     41 ****        -0.8240   3.2829   1.1368 LP             1 S1                 0.0000
     42 ****         0.7503   2.5664   1.0452 LP             1 S1                 0.0000
     43 ****         4.1717  -2.0589  -1.9705 LP             1 S1                 0.0000
     44 ****         4.6093  -2.6004  -3.5565 LP             1 S1                 0.0000
     45 ****        -4.7034   0.6485   1.5347 LP             1 S1                 0.0000
     46 ****        -5.8140   2.7295   0.7000 LP             1 S1                 0.0000
     47 ****        -5.6722   2.8170   2.3244 LP             1 S1                 0.0000
@<TRIPOS>BOND
    1    1    2 1     
    2    1   21 1     
    3    1   22 1     
    4    1   23 1     
    5    2   20 1     
    6    2    3 2     
    7    3    4 1     
    8    3   24 1     
    9    4    5 1     
   10    4   19 2     
   11    5    6 am    
   12    5   25 1     
   13    6    7 2     
   14    6    8 am    
   15    8    9 1     
   16    8   26 1     
   17    9   18 1     
   18    9   10 1     
   19    9   27 1     
   20   10   11 1     
   21   10   28 1     
   22   10   29 1     
   23   11   12 1     
   24   11   30 1     
   25   11   31 1     
   26   12   13 1     
   27   12   17 1     
   28   12   40 1     
   29   13   14 1     
   30   13   32 1     
   31   13   33 1     
   32   14   15 am    
   33   14   16 2     
   34   15   34 1     
   35   15   35 1     
   36   17   18 1     
   37   17   36 1     
   38   17   37 1     
   39   18   38 1     
   40   18   39 1     
   41   19   20 1     
   42    7   41 1     
   43    7   42 1     
   44   16   43 1     
   45   16   44 1     
   46   19   45 1     
   47   20   46 1     
   48   20   47 1     
@<TRIPOS>SUBSTRUCTURE
      1 S1             1
@<TRIPOS>SET
LONE_PAIRS      STATIC     ATOMS    <user>   **** ""
7 41 42 43 44 45 46 47
DONOR_HYDROGENS      STATIC     ATOMS    <user>   **** ""
5 25 26 40 34 35
ATOM$BLUE        STATIC     ATOMS    COLORGROUP SYSTEM
7 41 42 43 44 45 46 47
ATOM$RED        STATIC     ATOMS    COLORGROUP SYSTEM
5 25 26 40 34 35
