AV-unprocessed.smi:1859|AV-procd|sdf|7543|dock3
  -GOLD-   22720 9253D 1   1.00000     0.00000
 Structure written by MMmdl.
 45 47  0  0  0  0  0  0  0  0  1 V2000
  148.8773  138.4072  158.7567 O   0  0  0  0  0  0  0  0  0  0  0  0
  149.3780  138.6678  157.6626 C   0  0  0  0  0  0  0  0  0  0  0  0
  149.8977  139.8699  157.3655 N   0  0  0  0  0  0  0  0  0  0  0  0
  149.9265  141.0271  158.2570 C   0  0  0  0  0  0  0  0  0  0  0  0
  151.3562  141.5355  158.5211 C   0  0  0  0  0  0  0  0  0  0  0  0
  151.4175  142.9446  159.0862 C   0  0  0  0  0  0  0  0  0  0  0  0
  152.1544  143.2213  160.2577 C   0  0  0  0  0  0  0  0  0  0  0  0
  152.1874  144.5469  160.7313 C   0  0  0  0  0  0  0  0  0  0  0  0
  151.4812  145.5384  160.0232 C   0  0  0  0  0  0  0  0  0  0  0  0
  150.7704  145.1583  158.8678 C   0  0  0  0  0  0  0  0  0  0  0  0
  150.7407  143.8923  158.3989 N   0  0  0  0  0  0  0  0  0  0  0  0
  149.4280  137.6071  156.5456 C   0  0  2  0  0  0  0  0  0  0  0  0
  150.8835  137.2048  156.1948 C   0  0  0  0  0  0  0  0  0  0  0  0
  151.5942  138.2132  155.2677 C   0  0  0  0  0  0  0  0  0  0  0  0
  150.7079  138.5531  154.0594 C   0  0  0  0  0  0  0  0  0  0  0  0
  149.4211  139.0743  154.5397 N   0  0  0  0  0  0  0  0  0  0  0  0
  148.9540  140.3345  154.3586 C   0  0  0  0  0  0  0  0  0  0  0  0
  149.6918  141.2523  153.9987 O   0  0  0  0  0  0  0  0  0  0  0  0
  147.4841  140.5662  154.5611 C   0  0  0  0  0  0  0  0  0  0  0  0
  146.9145  141.9162  154.1647 C   0  0  0  0  0  0  0  0  0  0  0  0
  147.0822  141.5692  155.6218 C   0  0  0  0  0  0  0  0  0  0  0  0
  148.6625  138.0460  155.2695 C   0  0  0  0  0  0  0  0  0  0  0  0
  150.2907  139.9977  156.4443 H   0  0  0  0  0  0  0  0  0  0  0  0
  149.3423  141.8210  157.7915 H   0  0  0  0  0  0  0  0  0  0  0  0
  149.4281  140.8029  159.2015 H   0  0  0  0  0  0  0  0  0  0  0  0
  151.8643  140.8544  159.2051 H   0  0  0  0  0  0  0  0  0  0  0  0
  151.9285  141.5092  157.5931 H   0  0  0  0  0  0  0  0  0  0  0  0
  152.6818  142.4387  160.7829 H   0  0  0  0  0  0  0  0  0  0  0  0
  152.7382  144.7978  161.6256 H   0  0  0  0  0  0  0  0  0  0  0  0
  151.4771  146.5635  160.3627 H   0  0  0  0  0  0  0  0  0  0  0  0
  150.2140  145.8917  158.3033 H   0  0  0  0  0  0  0  0  0  0  0  0
  148.9305  136.7158  156.9321 H   0  0  0  0  0  0  0  0  0  0  0  0
  151.4720  137.0584  157.1018 H   0  0  0  0  0  0  0  0  0  0  0  0
  150.8616  136.2342  155.6978 H   0  0  0  0  0  0  0  0  0  0  0  0
  151.8385  139.1248  155.8133 H   0  0  0  0  0  0  0  0  0  0  0  0
  152.5435  137.7974  154.9290 H   0  0  0  0  0  0  0  0  0  0  0  0
  151.2248  139.2227  153.3736 H   0  0  0  0  0  0  0  0  0  0  0  0
  150.5240  137.6489  153.4771 H   0  0  0  0  0  0  0  0  0  0  0  0
  146.8150  139.7277  154.3811 H   0  0  0  0  0  0  0  0  0  0  0  0
  147.5794  142.6721  153.7505 H   0  0  0  0  0  0  0  0  0  0  0  0
  145.9063  141.9230  153.7553 H   0  0  0  0  0  0  0  0  0  0  0  0
  146.1898  141.3428  156.2015 H   0  0  0  0  0  0  0  0  0  0  0  0
  147.8697  142.0835  156.1703 H   0  0  0  0  0  0  0  0  0  0  0  0
  148.5135  137.1862  154.6148 H   0  0  0  0  0  0  0  0  0  0  0  0
  147.6590  138.3766  155.5433 H   0  0  0  0  0  0  0  0  0  0  0  0
  1  2  2  0  0  0  0
  2  3  1  0  0  0  0
  2 12  1  0  0  0  0
  3  4  1  0  0  0  0
  3 23  1  0  0  0  0
  4  5  1  0  0  0  0
  4 24  1  0  0  0  0
  4 25  1  0  0  0  0
  5  6  1  0  0  0  0
  5 26  1  0  0  0  0
  5 27  1  0  0  0  0
  6 11  1  0  0  0  0
  6  7  2  0  0  0  0
  7  8  1  0  0  0  0
  7 28  1  0  0  0  0
  8  9  2  0  0  0  0
  8 29  1  0  0  0  0
  9 10  1  0  0  0  0
  9 30  1  0  0  0  0
 10 11  2  0  0  0  0
 10 31  1  0  0  0  0
 12 22  1  0  0  0  0
 12 13  1  0  0  0  0
 12 32  1  0  0  0  0
 13 14  1  0  0  0  0
 13 33  1  0  0  0  0
 13 34  1  0  0  0  0
 14 15  1  0  0  0  0
 14 35  1  0  0  0  0
 14 36  1  0  0  0  0
 15 16  1  0  0  0  0
 15 37  1  0  0  0  0
 15 38  1  0  0  0  0
 16 17  1  0  0  0  0
 16 22  1  0  0  0  0
 17 18  2  0  0  0  0
 17 19  1  0  0  0  0
 19 21  1  0  0  0  0
 19 20  1  0  0  0  0
 19 39  1  0  0  0  0
 20 21  1  0  0  0  0
 20 40  1  0  0  0  0
 20 41  1  0  0  0  0
 21 42  1  0  0  0  0
 21 43  1  0  0  0  0
 22 44  1  0  0  0  0
 22 45  1  0  0  0  0
M  END
> <s_m_source_file>
AV-unprocessed.smi

> <i_m_source_file_index>
1859

> <i_lp_mmshare_version>
43012

> <i_f3d_flags>
0

> <s_epik_input>
W0NIMl0xW0NIMl1bQ0hdMUMoPU8pTihbQ0gyXTIpW0NIMl1bQ0gyXVtDSDJdW0NASF0yQyg9TylbTkhdW0NIMl1bQ0gyXWMzW2NIXVtjSF1bY0hdW2NIXW4z

> <s_epik_cmdline>
J2VwaWtfcHl0aG9uJywgJy1waCcsICc3LjAnLCAnLXRuJywgJzgnLCAnLW1hJywgJzIwMCcsICctbWV0YWxfYmluZGluZycsICctaW1hZScsICc8aW5maWxlLm1hZT4nLCAnLW9tYWUnLCAnPG91dGZpbGUubWFlPic=

> <r_epik_Ionization_Penalty>
0.0268048

> <r_epik_Ionization_Penalty_Charging>
0

> <r_epik_Ionization_Penalty_Neutral>
0.0268048

> <r_epik_State_Penalty>
0.0219025

> <r_epik_Charging_Adjusted_Penalty>
0.0219025

> <i_epik_Tot_Q>
0

> <i_epik_Tot_abs_Q>
0

> <r_epik_Metal_State_Penalty>
0.020951

> <b_epik_Metal_Only>
0

> <s_lp_Force_Field>
OPLS_2005

> <r_lp_Energy>
24.9831

> <b_lp_Chiralities_Consistent>
1

> <s_lp_Variant>
AV-unprocessed.smi:1859-1

> <Gold.Version>
5.8.1

> <Gold.Id.Protein>
6NUR|6NUR_protein|mol2

> <Gold.PLP.Fitness>
44.9311

> <Gold.PLP.PLP>
-38.9347

> <Gold.PLP.part.hbond>
-2.8462

> <Gold.PLP.part.metal>
0.0000

> <Gold.PLP.part.buried>
-6.6810

> <Gold.PLP.part.nonpolar>
-31.3167

> <Gold.PLP.part.repulsive>
0.6602

> <Gold.PLP.ligand.clash>
0.0000

> <Gold.PLP.ligand.torsion>
0.3364

> <Gold.PLP.Chemscore.Hbond>
1.0973

> <Gold.PLP.Chemscore.CHOScore>
1.0000

> <Gold.PLP.Chemscore.Metal>
0.0000

> <Gold.Chemscore.Hbonds>
donor molecule, donor type, donor heavy atom, donor atom, acceptor molecule, acceptor atom, score
      P1  H  7989  7998       L1    18  0.34
      P1  H  8011  8017       L1    18  0.77
      L1  C    10    31       P1  8029  1.00

> <Gold.PLP.Chemscore.Internal.Correction>
0.3774

> <Gold.Rescore>
     Score         DG    S(hbond)    S(metal)    S(lipo)     H(rot)  DE(clash)    DE(int)     intcor
     15.86     -17.58       1.09        0.00     107.29       1.59       0.47       1.25       ----

> <Gold.Chemscore.Fitness>
15.8569

> <Gold.Chemscore.DG>
-17.5774

> <Gold.Chemscore.ZeroCoef>
-5.4800

> <Gold.Chemscore.Hbond>
1.0855

> <Gold.Chemscore.Metal>
0.0000

> <Gold.Chemscore.Lipo>
107.2940

> <Gold.Chemscore.Internal_Hbond>
0.0000

> <Gold.Chemscore.DEClash>
0.4703

> <Gold.Chemscore.DEInternal>
1.2502

> <Gold.Chemscore.Rot>
1.5943

> <Gold.Chemscore.Internal.Correction>
   9.000000E+99

> <Gold.Chemscore.Hbonds>
donor molecule, donor type, donor heavy atom, donor atom, acceptor molecule, acceptor atom, score
      P1  H  7989  7998       L1    18  0.30
      P1  H  8011  8017       L1    18  0.71

> <Gold.Chemscore.Hbond.Weighted>
-3.6254

> <Gold.Chemscore.Metal.Weighted>
-0.0000

> <Gold.Chemscore.Lipo.Weighted>
-12.5534

> <Gold.Chemscore.Internal_Hbond.Weighted>
0.0000

> <Gold.Chemscore.DEClash.Weighted>
0.4703

> <Gold.Chemscore.DEInternal.Weighted>
1.2502

> <Gold.Chemscore.Rot.Weighted>
4.0814

> <Gold.Chemscore.Internal.Correction.Weighted>
   9.000000E+99

> <Gold.Protein.RotatedTorsions>
[ 6907 6896 6895 6894 ] final  -99.25 input  -60.11 | X-H torsion
[ 7974 7965 7964 7962 ] final   95.64 input  175.53 | X-H torsion
[ 8008 7997 7996 7995 ] final  151.65 input   59.86 | X-H torsion
[ 10167 10162 10161 10158 ] final -133.58 input  -65.29 | X-H torsion
[ 10718 10713 10712 10709 ] final  -14.09 input   66.30 | X-H torsion
[ 10763 10752 10751 10750 ] final -120.19 input  -60.55 | X-H torsion
[ 11005 11000 10999 10996 ] final  -42.24 input  -57.11 | X-H torsion

> <Gold.Protein.ActiveResidues>
 VAL166  LYS551  ARG553  GLY616  TRP617  ASP618  TYR619  PRO620  LYS621  CYS622 
 ASP623  PHE694  ASN695  SER759  ASP760  ASP761  ALA762  ILE779  LEU786  VAL792 
 PHE793  MET794  SER795  GLU796  ALA797  LYS798  CYS799  TRP800  GLU811  SER814 

> <Gold.Protein.RotatedAtoms>
  150.7074  134.1069  159.3985 H   0  0  0  0  0  0  0  0  0  0  0  0  # atno 6907 bound_to 6896
  151.9056  135.0358  160.0519 H   0  0  0  0  0  0  0  0  0  0  0  0  # atno 6908 bound_to 6896
  152.2378  133.5075  159.5289 H   0  0  0  0  0  0  0  0  0  0  0  0  # atno 6909 bound_to 6896
  145.4495  139.2294  143.3047 H   0  0  0  0  0  0  0  0  0  0  0  0  # atno 7974 bound_to 7965
  156.2664  140.2042  156.6209 H   0  0  0  0  0  0  0  0  0  0  0  0  # atno 8008 bound_to 7997
  154.6757  140.0545  157.0237 H   0  0  0  0  0  0  0  0  0  0  0  0  # atno 8009 bound_to 7997
  155.1072  140.3212  155.4534 H   0  0  0  0  0  0  0  0  0  0  0  0  # atno 8010 bound_to 7997
  139.8968  143.6655  152.2602 H   0  0  0  0  0  0  0  0  0  0  0  0  # atno 10167 bound_to 10162
  156.6209  130.4875  149.6165 H   0  0  0  0  0  0  0  0  0  0  0  0  # atno 10718 bound_to 10713
  154.8637  135.4212  154.2419 H   0  0  0  0  0  0  0  0  0  0  0  0  # atno 10763 bound_to 10752
  153.3383  135.6992  153.6894 H   0  0  0  0  0  0  0  0  0  0  0  0  # atno 10764 bound_to 10752
  153.5883  135.3559  155.2874 H   0  0  0  0  0  0  0  0  0  0  0  0  # atno 10765 bound_to 10752
  141.0302  133.6823  156.2567 H   0  0  0  0  0  0  0  0  0  0  0  0  # atno 11005 bound_to 11000
  146.2512  140.5252  142.8892 LP  0  0  0  0  0  0  0  0  0  0  0  0  # atno 17320 bound_to 7965
  144.8070  140.6318  143.6440 LP  0  0  0  0  0  0  0  0  0  0  0  0  # atno 17321 bound_to 7965
  139.7060  144.7628  151.1192 LP  0  0  0  0  0  0  0  0  0  0  0  0  # atno 17342 bound_to 10162
  140.7715  143.5393  150.9331 LP  0  0  0  0  0  0  0  0  0  0  0  0  # atno 17343 bound_to 10162
  156.2312  130.6795  151.1465 LP  0  0  0  0  0  0  0  0  0  0  0  0  # atno 17370 bound_to 10713
  157.7228  131.0670  150.6064 LP  0  0  0  0  0  0  0  0  0  0  0  0  # atno 17371 bound_to 10713
  140.6421  134.5155  157.5570 LP  0  0  0  0  0  0  0  0  0  0  0  0  # atno 17394 bound_to 11000
  139.9202  134.8163  156.1235 LP  0  0  0  0  0  0  0  0  0  0  0  0  # atno 17395 bound_to 11000

$$$$
