#       Name:                AV-unprocessed.smi:1639
#       Creating user name   scv26
#       Creation time:       Fri Mar 27 07:23:43 2020


#       File generated by GOLD software.
#

@<TRIPOS>MOLECULE
AV-unprocessed.smi:1639
    42    43     1
SMALL
NO_CHARGES


@<TRIPOS>ATOM
      1 ****        -4.8297   2.8833   0.4585 C.3            1 S1                 0.0000
      2 ****        -3.4019   2.9275  -0.0910 C.3            1 S1                 0.0000
      3 ****        -2.6643   1.8522   0.4707 O.3            1 S1                 0.0000
      4 ****        -1.3226   1.7532   0.0121 C.3            1 S1                 0.0000
      5 ****        -0.4103   2.7642   0.7339 C.3            1 S1                 0.0000
      6 ****         1.0537   2.5339   0.3319 C.3            1 S1                 0.0000
      7 ****         1.4797   1.0799   0.5942 C.3            1 S1                 0.0000
      8 ****         0.5627   0.1373  -0.0492 N.3            1 S1                 0.0000
      9 ****         1.0452  -1.1824  -0.1857 C.ar           1 S1                 0.0000
     10 ****         2.2969  -1.4394  -0.7836 C.ar           1 S1                 0.0000
     11 ****         2.7072  -2.7833  -0.8823 C.ar           1 S1                 0.0000
     12 ****         4.0298  -3.1753  -1.5062 C.3            1 S1                 0.0000
     13 ****         1.9106  -3.7734  -0.4108 N.pl3          1 S1                 1.0000
     14 ****         0.7297  -3.4653   0.1420 C.ar           1 S1                 0.0000
     15 ****        -0.0652  -4.4854   0.6073 N.pl3          1 S1                 0.0000
     16 ****         0.2857  -2.2101   0.2623 N.ar           1 S1                 0.0000
     17 ****        -0.8519   0.3145   0.2899 C.3            1 S1                 0.0000
     18 ****        -5.4314   3.6926   0.0448 H              1 S1                 0.0000
     19 ****        -4.8345   2.9842   1.5441 H              1 S1                 0.0000
     20 ****        -5.3174   1.9413   0.2064 H              1 S1                 0.0000
     21 ****        -3.4233   2.8423  -1.1784 H              1 S1                 0.0000
     22 ****        -2.9442   3.8851   0.1565 H              1 S1                 0.0000
     23 ****        -1.2833   1.9234  -1.0656 H              1 S1                 0.0000
     24 ****        -0.6952   3.7883   0.4946 H              1 S1                 0.0000
     25 ****        -0.5170   2.6531   1.8137 H              1 S1                 0.0000
     26 ****         1.1819   2.7666  -0.7260 H              1 S1                 0.0000
     27 ****         1.7033   3.2168   0.8799 H              1 S1                 0.0000
     28 ****         2.5046   0.9464   0.2510 H              1 S1                 0.0000
     29 ****         1.4827   0.8826   1.6670 H              1 S1                 0.0000
     30 ****         2.9183  -0.6442  -1.1690 H              1 S1                 0.0000
     31 ****         4.4428  -2.3556  -2.0949 H              1 S1                 0.0000
     32 ****         3.9053  -4.0353  -2.1651 H              1 S1                 0.0000
     33 ****         4.7499  -3.4370  -0.7307 H              1 S1                 0.0000
     34 ****         0.2399  -5.4452   0.5313 H              1 S1                 0.0000
     35 ****        -0.9332  -4.2848   1.0824 H              1 S1                 0.0000
     36 ****        -0.9981   0.0702   1.3432 H              1 S1                 0.0000
     37 ****        -1.4678  -0.3746  -0.2896 H              1 S1                 0.0000
     38 ****         2.2171  -4.7435  -0.4857 H              1 S1                 0.0000
     39 ****        -3.1350   0.9993   0.2450 LP             1 S1                 0.0000
     40 ****        -2.6468   1.9706   1.4635 LP             1 S1                 0.0000
     41 ****         0.5580   0.4212  -1.0080 LP             1 S1                 0.0000
     42 ****        -0.6042  -2.0307   0.6817 LP             1 S1                 0.0000
@<TRIPOS>BOND
    1    1    2 1     
    2    1   18 1     
    3    1   19 1     
    4    1   20 1     
    5    2    3 1     
    6    2   21 1     
    7    2   22 1     
    8    3    4 1     
    9    4   17 1     
   10    4    5 1     
   11    4   23 1     
   12    5    6 1     
   13    5   24 1     
   14    5   25 1     
   15    6    7 1     
   16    6   26 1     
   17    6   27 1     
   18    7    8 1     
   19    7   28 1     
   20    7   29 1     
   21    8    9 1     
   22    8   17 1     
   23    9   16 ar    
   24    9   10 ar    
   25   10   11 ar    
   26   10   30 1     
   27   11   12 1     
   28   11   13 ar    
   29   12   31 1     
   30   12   32 1     
   31   12   33 1     
   32   13   14 ar    
   33   13   38 1     
   34   14   15 1     
   35   14   16 ar    
   36   15   34 1     
   37   15   35 1     
   38   17   36 1     
   39   17   37 1     
   40    3   39 1     
   41    3   40 1     
   42    8   41 1     
   43   16   42 1     
@<TRIPOS>SUBSTRUCTURE
      1 S1             1
@<TRIPOS>SET
LONE_PAIRS      STATIC     ATOMS    <user>   **** ""
4 39 40 41 42
DONOR_HYDROGENS      STATIC     ATOMS    <user>   **** ""
3 38 34 35
ATOM$BLUE        STATIC     ATOMS    COLORGROUP SYSTEM
4 39 40 41 42
ATOM$RED        STATIC     ATOMS    COLORGROUP SYSTEM
3 38 34 35
