AV-unprocessed.smi:235|AV-procd|sdf|1802|dock8
  -GOLD-   2262020373D 1   1.00000     0.00000
 Structure written by MMmdl.
 54 58  0  0  0  0  0  0  0  0  1 V2000
  148.9065  133.3026  159.4402 O   0  0  0  0  0  0  0  0  0  0  0  0
  148.2184  133.2636  160.4602 C   0  0  0  0  0  0  0  0  0  0  0  0
  148.2553  132.2341  161.3224 N   0  0  0  0  0  0  0  0  0  0  0  0
  149.0642  131.0665  161.2035 C   0  0  0  0  0  0  0  0  0  0  0  0
  148.7274  129.8938  162.0989 C   0  0  0  0  0  0  0  0  0  0  0  0
  149.9595  130.7116  162.3712 C   0  0  0  0  0  0  0  0  0  0  0  0
  147.2904  134.4509  160.7916 C   0  0  1  0  0  0  0  0  0  0  0  0
  146.5582  134.2778  162.1406 C   0  0  0  0  0  0  0  0  0  0  0  0
  147.2524  135.2463  163.0951 C   0  0  0  0  0  0  0  0  0  0  0  0
  147.6565  136.3836  162.1659 C   0  0  0  0  0  0  0  0  0  0  0  0
  148.0134  135.7222  160.9223 N   0  0  0  0  0  0  0  0  0  0  0  0
  148.1098  136.5147  159.8332 C   0  0  0  0  0  0  0  0  0  0  0  0
  147.0193  136.7468  159.0573 N   0  0  0  0  0  0  0  0  0  0  0  0
  147.1282  137.5244  157.9749 C   0  0  0  0  0  0  0  0  0  0  0  0
  148.2081  138.1515  157.5007 N   0  0  0  0  0  0  0  0  0  0  0  0
  149.3002  137.9191  158.2848 C   0  0  0  0  0  0  0  0  0  0  0  0
  149.3359  137.1235  159.4626 C   0  0  0  0  0  0  0  0  0  0  0  0
  150.6174  137.1163  159.9985 N   0  0  0  0  0  0  0  0  0  0  0  0
  151.3056  137.8616  159.1770 C   0  0  0  0  0  0  0  0  0  0  0  0
  150.5928  138.3822  158.1196 N   0  0  0  0  0  0  0  0  0  0  0  0
  151.1007  139.2336  157.0586 C   0  0  0  0  0  0  0  0  0  0  0  0
  150.7307  140.7181  157.2668 C   0  0  2  0  0  0  0  0  0  0  0  0
  150.5900  141.3194  155.9936 O   0  0  0  0  0  0  0  0  0  0  0  0
  151.8046  141.5052  158.0445 C   0  0  2  0  0  0  0  0  0  0  0  0
  151.9485  141.1114  159.5162 C   0  0  0  0  0  0  0  0  0  0  0  0
  152.5399  142.3523  160.1639 C   0  0  0  0  0  0  0  0  0  0  0  0
  152.2428  143.4671  159.1587 C   0  0  0  0  0  0  0  0  0  0  0  0
  151.4178  142.8658  158.1704 O   0  0  0  0  0  0  0  0  0  0  0  0
  147.6619  132.2892  162.1382 H   0  0  0  0  0  0  0  0  0  0  0  0
  149.4419  130.8169  160.2129 H   0  0  0  0  0  0  0  0  0  0  0  0
  147.8922  130.0026  162.7886 H   0  0  0  0  0  0  0  0  0  0  0  0
  148.8674  128.8948  161.6909 H   0  0  0  0  0  0  0  0  0  0  0  0
  150.9230  130.2601  162.1441 H   0  0  0  0  0  0  0  0  0  0  0  0
  149.9463  131.3665  163.2407 H   0  0  0  0  0  0  0  0  0  0  0  0
  146.5475  134.5002  159.9936 H   0  0  0  0  0  0  0  0  0  0  0  0
  145.5144  134.5721  162.0235 H   0  0  0  0  0  0  0  0  0  0  0  0
  146.5612  133.2563  162.5233 H   0  0  0  0  0  0  0  0  0  0  0  0
  146.6133  135.5721  163.9161 H   0  0  0  0  0  0  0  0  0  0  0  0
  148.1407  134.7762  163.5195 H   0  0  0  0  0  0  0  0  0  0  0  0
  146.8206  137.0687  162.0126 H   0  0  0  0  0  0  0  0  0  0  0  0
  148.4962  136.9524  162.5669 H   0  0  0  0  0  0  0  0  0  0  0  0
  146.2205  137.6615  157.4059 H   0  0  0  0  0  0  0  0  0  0  0  0
  152.3603  138.0484  159.3175 H   0  0  0  0  0  0  0  0  0  0  0  0
  152.1828  139.1068  157.0236 H   0  0  0  0  0  0  0  0  0  0  0  0
  150.7138  138.8723  156.1046 H   0  0  0  0  0  0  0  0  0  0  0  0
  149.7768  140.7811  157.7923 H   0  0  0  0  0  0  0  0  0  0  0  0
  149.9817  140.8062  155.4843 H   0  0  0  0  0  0  0  0  0  0  0  0
  152.7756  141.4405  157.5491 H   0  0  0  0  0  0  0  0  0  0  0  0
  150.9668  140.9095  159.9477 H   0  0  0  0  0  0  0  0  0  0  0  0
  152.5682  140.2257  159.6598 H   0  0  0  0  0  0  0  0  0  0  0  0
  152.0854  142.5448  161.1362 H   0  0  0  0  0  0  0  0  0  0  0  0
  153.6158  142.2480  160.3094 H   0  0  0  0  0  0  0  0  0  0  0  0
  151.7428  144.3213  159.6154 H   0  0  0  0  0  0  0  0  0  0  0  0
  153.1640  143.8199  158.6932 H   0  0  0  0  0  0  0  0  0  0  0  0
  1  2  2  0  0  0  0
  2  3  1  0  0  0  0
  2  7  1  0  0  0  0
  3  4  1  0  0  0  0
  3 29  1  0  0  0  0
  4  6  1  0  0  0  0
  4  5  1  0  0  0  0
  4 30  1  0  0  0  0
  5  6  1  0  0  0  0
  5 31  1  0  0  0  0
  5 32  1  0  0  0  0
  6 33  1  0  0  0  0
  6 34  1  0  0  0  0
  7 11  1  0  0  0  0
  7  8  1  0  0  0  0
  7 35  1  0  0  0  0
  8  9  1  0  0  0  0
  8 36  1  0  0  0  0
  8 37  1  0  0  0  0
  9 10  1  0  0  0  0
  9 38  1  0  0  0  0
  9 39  1  0  0  0  0
 10 11  1  0  0  0  0
 10 40  1  0  0  0  0
 10 41  1  0  0  0  0
 11 12  1  0  0  0  0
 12 17  1  0  0  0  0
 12 13  2  0  0  0  0
 13 14  1  0  0  0  0
 14 15  2  0  0  0  0
 14 42  1  0  0  0  0
 15 16  1  0  0  0  0
 16 20  1  0  0  0  0
 16 17  2  0  0  0  0
 17 18  1  0  0  0  0
 18 19  2  0  0  0  0
 19 20  1  0  0  0  0
 19 43  1  0  0  0  0
 20 21  1  0  0  0  0
 21 22  1  0  0  0  0
 21 44  1  0  0  0  0
 21 45  1  0  0  0  0
 22 23  1  0  0  0  0
 22 24  1  0  0  0  0
 22 46  1  0  0  0  0
 23 47  1  0  0  0  0
 24 28  1  0  0  0  0
 24 25  1  0  0  0  0
 24 48  1  0  0  0  0
 25 26  1  0  0  0  0
 25 49  1  0  0  0  0
 25 50  1  0  0  0  0
 26 27  1  0  0  0  0
 26 51  1  0  0  0  0
 26 52  1  0  0  0  0
 27 28  1  0  0  0  0
 27 53  1  0  0  0  0
 27 54  1  0  0  0  0
M  END
> <s_m_source_file>
AV-unprocessed.smi

> <i_m_source_file_index>
235

> <i_lp_mmshare_version>
43012

> <i_f3d_flags>
0

> <s_epik_input>
W0NIMl0xW0NIMl1bQ0hdMVtOSF1DKD1PKVtDQEBIXTJbQ0gyXVtDSDJdW0NIMl1OMmMobltjSF1uMyljKGMzNCluW2NIXW40W0NIMl1bQ0BIXShbT0hdKVtDQEBIXTVbQ0gyXVtDSDJdW0NIMl1PNQ==

> <s_epik_cmdline>
J2VwaWtfcHl0aG9uJywgJy1waCcsICc3LjAnLCAnLXRuJywgJzgnLCAnLW1hJywgJzIwMCcsICctbWV0YWxfYmluZGluZycsICctaW1hZScsICc8aW5maWxlLm1hZT4nLCAnLW9tYWUnLCAnPG91dGZpbGUubWFlPic=

> <r_lp_tautomer_probability>
1

> <r_epik_Ionization_Penalty>
0.000526714

> <r_epik_Ionization_Penalty_Charging>
0

> <r_epik_Ionization_Penalty_Neutral>
0.000526714

> <r_epik_State_Penalty>
0.000272704

> <r_epik_Charging_Adjusted_Penalty>
0.000272704

> <i_epik_Tot_Q>
0

> <i_epik_Tot_abs_Q>
0

> <r_epik_Metal_State_Penalty>
-0

> <b_epik_Metal_Only>
0

> <s_lp_Force_Field>
OPLS_2005

> <r_lp_Energy>
60.5906

> <b_lp_Chiralities_Consistent>
1

> <s_lp_Variant>
AV-unprocessed.smi:235-2

> <Gold.Version>
5.8.1

> <Gold.Id.Protein>
6NUR|6NUR_protein|mol2

> <Gold.PLP.Fitness>
46.3531

> <Gold.PLP.PLP>
-44.2133

> <Gold.PLP.part.hbond>
-2.1435

> <Gold.PLP.part.metal>
0.0000

> <Gold.PLP.part.buried>
-6.9723

> <Gold.PLP.part.nonpolar>
-36.0449

> <Gold.PLP.part.repulsive>
0.0854

> <Gold.PLP.ligand.clash>
0.0000

> <Gold.PLP.ligand.torsion>
1.3410

> <Gold.PLP.Chemscore.Hbond>
1.4680

> <Gold.PLP.Chemscore.CHOScore>
0.0000

> <Gold.PLP.Chemscore.Metal>
0.0000

> <Gold.Chemscore.Hbonds>
donor molecule, donor type, donor heavy atom, donor atom, acceptor molecule, acceptor atom, score
      P1  H  6896  6908       L1     1  0.69
      P1  H  6896  6909       L1    18  0.73

> <Gold.PLP.Chemscore.Internal.Correction>
0.4179

> <Gold.Rescore>
     Score         DG    S(hbond)    S(metal)    S(lipo)     H(rot)  DE(clash)    DE(int)     intcor
     12.69     -13.97       1.42        0.00      97.74       3.00       0.06       1.22       ----

> <Gold.Chemscore.Fitness>
12.6887

> <Gold.Chemscore.DG>
-13.9663

> <Gold.Chemscore.ZeroCoef>
-5.4800

> <Gold.Chemscore.Hbond>
1.4156

> <Gold.Chemscore.Metal>
0.0000

> <Gold.Chemscore.Lipo>
97.7391

> <Gold.Chemscore.Internal_Hbond>
0.0000

> <Gold.Chemscore.DEClash>
0.0580

> <Gold.Chemscore.DEInternal>
1.2196

> <Gold.Chemscore.Rot>
2.9989

> <Gold.Chemscore.Internal.Correction>
   9.000000E+99

> <Gold.Chemscore.Hbonds>
donor molecule, donor type, donor heavy atom, donor atom, acceptor molecule, acceptor atom, score
      P1  H  6896  6908       L1     1  0.67
      P1  H  6896  6909       L1    18  0.37

> <Gold.Chemscore.Hbond.Weighted>
-4.7281

> <Gold.Chemscore.Metal.Weighted>
-0.0000

> <Gold.Chemscore.Lipo.Weighted>
-11.4355

> <Gold.Chemscore.Internal_Hbond.Weighted>
0.0000

> <Gold.Chemscore.DEClash.Weighted>
0.0580

> <Gold.Chemscore.DEInternal.Weighted>
1.2196

> <Gold.Chemscore.Rot.Weighted>
7.6772

> <Gold.Chemscore.Internal.Correction.Weighted>
   9.000000E+99

> <Gold.Protein.RotatedTorsions>
[ 6907 6896 6895 6894 ] final  118.08 input  -60.11 | X-H torsion
[ 7974 7965 7964 7962 ] final  141.19 input  175.53 | X-H torsion
[ 8008 7997 7996 7995 ] final  -31.15 input   59.86 | X-H torsion
[ 10167 10162 10161 10158 ] final   85.78 input  -65.29 | X-H torsion
[ 10718 10713 10712 10709 ] final  144.12 input   66.30 | X-H torsion
[ 10763 10752 10751 10750 ] final  173.04 input  -60.55 | X-H torsion
[ 11005 11000 10999 10996 ] final -171.92 input  -57.11 | X-H torsion

> <Gold.Protein.ActiveResidues>
 VAL166  LYS551  ARG553  GLY616  TRP617  ASP618  TYR619  PRO620  LYS621  CYS622 
 ASP623  PHE694  ASN695  SER759  ASP760  ASP761  ALA762  ILE779  LEU786  VAL792 
 PHE793  MET794  SER795  GLU796  ALA797  LYS798  CYS799  TRP800  GLU811  SER814 

> <Gold.Protein.RotatedAtoms>
  152.4568  133.7740  159.6813 H   0  0  0  0  0  0  0  0  0  0  0  0  # atno 6907 bound_to 6896
  150.8497  133.7796  159.3036 H   0  0  0  0  0  0  0  0  0  0  0  0  # atno 6908 bound_to 6896
  151.5395  135.1071  159.9974 H   0  0  0  0  0  0  0  0  0  0  0  0  # atno 6909 bound_to 6896
  144.9118  139.5282  143.5705 H   0  0  0  0  0  0  0  0  0  0  0  0  # atno 7974 bound_to 7965
  154.4224  140.1772  156.1521 H   0  0  0  0  0  0  0  0  0  0  0  0  # atno 8008 bound_to 7997
  155.9907  140.3369  155.6725 H   0  0  0  0  0  0  0  0  0  0  0  0  # atno 8009 bound_to 7997
  155.6377  140.0676  157.2619 H   0  0  0  0  0  0  0  0  0  0  0  0  # atno 8010 bound_to 7997
  139.8943  144.6367  150.8705 H   0  0  0  0  0  0  0  0  0  0  0  0  # atno 10167 bound_to 10162
  157.3609  131.0965  151.0916 H   0  0  0  0  0  0  0  0  0  0  0  0  # atno 10718 bound_to 10713
  154.4345  135.2760  155.1890 H   0  0  0  0  0  0  0  0  0  0  0  0  # atno 10763 bound_to 10752
  154.3782  135.6093  153.5780 H   0  0  0  0  0  0  0  0  0  0  0  0  # atno 10764 bound_to 10752
  152.9837  135.5874  154.4662 H   0  0  0  0  0  0  0  0  0  0  0  0  # atno 10765 bound_to 10752
  140.5029  134.5876  157.4993 H   0  0  0  0  0  0  0  0  0  0  0  0  # atno 11005 bound_to 11000
  146.3162  139.7931  142.8981 LP  0  0  0  0  0  0  0  0  0  0  0  0  # atno 17320 bound_to 7965
  145.3441  141.0294  143.3376 LP  0  0  0  0  0  0  0  0  0  0  0  0  # atno 17321 bound_to 7965
  140.7720  143.3486  151.2060 LP  0  0  0  0  0  0  0  0  0  0  0  0  # atno 17342 bound_to 10162
  139.7082  143.9420  152.2936 LP  0  0  0  0  0  0  0  0  0  0  0  0  # atno 17343 bound_to 10162
  157.2056  130.6414  149.5755 LP  0  0  0  0  0  0  0  0  0  0  0  0  # atno 17370 bound_to 10713
  155.9737  130.4676  150.6332 LP  0  0  0  0  0  0  0  0  0  0  0  0  # atno 17371 bound_to 10713
  139.9703  134.7304  156.0055 LP  0  0  0  0  0  0  0  0  0  0  0  0  # atno 17394 bound_to 11000
  141.1426  133.6562  156.3774 LP  0  0  0  0  0  0  0  0  0  0  0  0  # atno 17395 bound_to 11000

$$$$
