AV-unprocessed.smi:2509|AV-procd|sdf|9866|dock2
  -GOLD-   2272013493D 1   1.00000     0.00000
 Structure written by MMmdl.
 45 46  0  0  0  0  0  0  0  0  1 V2000
  149.5933  142.0325  158.2687 C   0  0  0  0  0  0  0  0  0  0  0  0
  150.5048  141.6128  157.0917 C   0  0  0  0  0  0  0  0  0  0  0  0
  151.0253  142.8677  156.3674 C   0  0  0  0  0  0  0  0  0  0  0  0
  151.6946  140.8511  157.7227 C   0  0  0  0  0  0  0  0  0  0  0  0
  149.7428  140.7242  156.0929 C   0  0  0  0  0  0  0  0  0  0  0  0
  150.4279  140.2757  155.0326 N   0  0  0  0  0  0  0  0  0  0  0  0
  149.8133  139.3933  154.2172 C   0  0  0  0  0  0  0  0  0  0  0  0
  148.5070  138.9295  154.4691 C   0  0  0  0  0  0  0  0  0  0  0  0
  147.9246  137.9856  153.5823 N   0  0  0  0  0  0  0  0  0  0  0  0
  146.6230  137.6942  153.4199 C   0  0  0  0  0  0  0  0  0  0  0  0
  145.6937  138.2484  154.0063 O   0  0  0  0  0  0  0  0  0  0  0  0
  146.4544  136.7270  152.5071 N   0  0  0  0  0  0  0  0  0  0  0  0
  145.1698  136.1909  152.0667 C   0  0  0  0  0  0  0  0  0  0  0  0
  145.3425  134.8879  151.2624 C   0  0  2  0  0  0  0  0  0  0  0  0
  144.0431  134.3388  150.6518 C   0  0  0  0  0  0  0  0  0  0  0  0
  144.2253  132.8169  150.5382 C   0  0  0  0  0  0  0  0  0  0  0  0
  145.5502  132.4871  151.2364 C   0  0  0  0  0  0  0  0  0  0  0  0
  145.8624  133.7129  152.0965 C   0  0  1  0  0  0  0  0  0  0  0  0
  147.2448  133.8161  152.3684 O   0  0  0  0  0  0  0  0  0  0  0  0
  147.8931  139.4271  155.6428 C   0  0  0  0  0  0  0  0  0  0  0  0
  148.5215  140.3066  156.4516 N   0  0  0  0  0  0  0  0  0  0  0  0
  150.1409  142.6224  159.0044 H   0  0  0  0  0  0  0  0  0  0  0  0
  149.1852  141.1624  158.7846 H   0  0  0  0  0  0  0  0  0  0  0  0
  148.7540  142.6450  157.9374 H   0  0  0  0  0  0  0  0  0  0  0  0
  150.2054  143.4481  155.9430 H   0  0  0  0  0  0  0  0  0  0  0  0
  151.6973  142.6028  155.5504 H   0  0  0  0  0  0  0  0  0  0  0  0
  151.5736  143.5208  157.0469 H   0  0  0  0  0  0  0  0  0  0  0  0
  152.2081  141.4621  158.4659 H   0  0  0  0  0  0  0  0  0  0  0  0
  152.4405  140.5697  156.9784 H   0  0  0  0  0  0  0  0  0  0  0  0
  151.3638  139.9390  158.2209 H   0  0  0  0  0  0  0  0  0  0  0  0
  150.3733  139.0530  153.3585 H   0  0  0  0  0  0  0  0  0  0  0  0
  148.5694  137.5102  152.9680 H   0  0  0  0  0  0  0  0  0  0  0  0
  147.2787  136.3354  152.0753 H   0  0  0  0  0  0  0  0  0  0  0  0
  144.5728  135.9936  152.9573 H   0  0  0  0  0  0  0  0  0  0  0  0
  144.6116  136.9276  151.4863 H   0  0  0  0  0  0  0  0  0  0  0  0
  146.0455  135.0660  150.4463 H   0  0  0  0  0  0  0  0  0  0  0  0
  143.2000  134.5480  151.3114 H   0  0  0  0  0  0  0  0  0  0  0  0
  143.8220  134.7987  149.6882 H   0  0  0  0  0  0  0  0  0  0  0  0
  143.3955  132.3043  151.0259 H   0  0  0  0  0  0  0  0  0  0  0  0
  144.2431  132.4904  149.4978 H   0  0  0  0  0  0  0  0  0  0  0  0
  145.5004  131.5680  151.8209 H   0  0  0  0  0  0  0  0  0  0  0  0
  146.3260  132.3540  150.4806 H   0  0  0  0  0  0  0  0  0  0  0  0
  145.3130  133.6496  153.0370 H   0  0  0  0  0  0  0  0  0  0  0  0
  147.5225  134.7009  152.1866 H   0  0  0  0  0  0  0  0  0  0  0  0
  146.9135  139.1120  155.9675 H   0  0  0  0  0  0  0  0  0  0  0  0
  1  2  1  0  0  0  0
  1 22  1  0  0  0  0
  1 23  1  0  0  0  0
  1 24  1  0  0  0  0
  2  3  1  0  0  0  0
  2  4  1  0  0  0  0
  2  5  1  0  0  0  0
  3 25  1  0  0  0  0
  3 26  1  0  0  0  0
  3 27  1  0  0  0  0
  4 28  1  0  0  0  0
  4 29  1  0  0  0  0
  4 30  1  0  0  0  0
  5 21  1  0  0  0  0
  5  6  2  0  0  0  0
  6  7  1  0  0  0  0
  7  8  2  0  0  0  0
  7 31  1  0  0  0  0
  8  9  1  0  0  0  0
  8 20  1  0  0  0  0
  9 10  1  0  0  0  0
  9 32  1  0  0  0  0
 10 11  2  0  0  0  0
 10 12  1  0  0  0  0
 12 13  1  0  0  0  0
 12 33  1  0  0  0  0
 13 14  1  0  0  0  0
 13 34  1  0  0  0  0
 13 35  1  0  0  0  0
 14 18  1  0  0  0  0
 14 15  1  0  0  0  0
 14 36  1  0  0  0  0
 15 16  1  0  0  0  0
 15 37  1  0  0  0  0
 15 38  1  0  0  0  0
 16 17  1  0  0  0  0
 16 39  1  0  0  0  0
 16 40  1  0  0  0  0
 17 18  1  0  0  0  0
 17 41  1  0  0  0  0
 17 42  1  0  0  0  0
 18 19  1  0  0  0  0
 18 43  1  0  0  0  0
 19 44  1  0  0  0  0
 20 21  2  0  0  0  0
 20 45  1  0  0  0  0
M  END
> <s_m_source_file>
AV-unprocessed.smi

> <i_m_source_file_index>
2509

> <i_lp_mmshare_version>
43012

> <i_f3d_flags>
0

> <s_epik_input>
W0NIM11DKFtDSDNdKShbQ0gzXSljMW5bY0hdYyhbY0hdbjEpW05IXUMoPU8pW05IXVtDSDJdW0NAQEhdMltDSDJdW0NIMl1bQ0gyXVtDQEhdMltPSF0=

> <s_epik_cmdline>
J2VwaWtfcHl0aG9uJywgJy1waCcsICc3LjAnLCAnLXRuJywgJzgnLCAnLW1hJywgJzIwMCcsICctbWV0YWxfYmluZGluZycsICctaW1hZScsICc8aW5maWxlLm1hZT4nLCAnLW9tYWUnLCAnPG91dGZpbGUubWFlPic=

> <r_lp_tautomer_probability>
1

> <r_epik_Ionization_Penalty>
2.77586e-05

> <r_epik_Ionization_Penalty_Charging>
0

> <r_epik_Ionization_Penalty_Neutral>
2.77586e-05

> <r_epik_State_Penalty>
-0

> <r_epik_Charging_Adjusted_Penalty>
0

> <i_epik_Tot_Q>
0

> <i_epik_Tot_abs_Q>
0

> <r_epik_Metal_State_Penalty>
-0

> <b_epik_Metal_Only>
0

> <s_lp_Force_Field>
OPLS_2005

> <r_lp_Energy>
20.4584

> <b_lp_Chiralities_Consistent>
1

> <s_lp_Variant>
AV-unprocessed.smi:2509-1

> <Gold.Version>
5.8.1

> <Gold.Id.Protein>
6NUR|6NUR_protein|mol2

> <Gold.PLP.Fitness>
41.6815

> <Gold.PLP.PLP>
-29.9464

> <Gold.PLP.part.hbond>
-3.9893

> <Gold.PLP.part.metal>
0.0000

> <Gold.PLP.part.buried>
-0.8240

> <Gold.PLP.part.nonpolar>
-25.2271

> <Gold.PLP.part.repulsive>
0.3243

> <Gold.PLP.ligand.clash>
0.0000

> <Gold.PLP.ligand.torsion>
0.3244

> <Gold.PLP.Chemscore.Hbond>
3.4001

> <Gold.PLP.Chemscore.CHOScore>
0.6762

> <Gold.PLP.Chemscore.Metal>
0.0000

> <Gold.Chemscore.Hbonds>
donor molecule, donor type, donor heavy atom, donor atom, acceptor molecule, acceptor atom, score
      L1  H     9    32       P1  7948  1.00
      L1  H    12    33       P1  7948  1.00
      L1  H    19    44       P1  7948  0.88
      P1  H  7989  7998       L1     6  0.50
      L1  C     7    31       P1  7957  0.70

> <Gold.PLP.Chemscore.Internal.Correction>
0.1547

> <Gold.Rescore>
     Score         DG    S(hbond)    S(metal)    S(lipo)     H(rot)  DE(clash)    DE(int)     intcor
     15.27     -18.08       2.70        0.00      72.44       1.91       0.10       2.71       ----

> <Gold.Chemscore.Fitness>
15.2658

> <Gold.Chemscore.DG>
-18.0793

> <Gold.Chemscore.ZeroCoef>
-5.4800

> <Gold.Chemscore.Hbond>
2.6997

> <Gold.Chemscore.Metal>
0.0000

> <Gold.Chemscore.Lipo>
72.4428

> <Gold.Chemscore.Internal_Hbond>
0.0000

> <Gold.Chemscore.DEClash>
0.0990

> <Gold.Chemscore.DEInternal>
2.7145

> <Gold.Chemscore.Rot>
1.9116

> <Gold.Chemscore.Internal.Correction>
   9.000000E+99

> <Gold.Chemscore.Hbonds>
donor molecule, donor type, donor heavy atom, donor atom, acceptor molecule, acceptor atom, score
      L1  H     9    32       P1  7948  0.97
      L1  H    12    33       P1  7948  0.97
      L1  H    19    44       P1  7948  0.65
      P1  H  7989  7998       L1     6  0.02

> <Gold.Chemscore.Hbond.Weighted>
-9.0171

> <Gold.Chemscore.Metal.Weighted>
-0.0000

> <Gold.Chemscore.Lipo.Weighted>
-8.4758

> <Gold.Chemscore.Internal_Hbond.Weighted>
0.0000

> <Gold.Chemscore.DEClash.Weighted>
0.0990

> <Gold.Chemscore.DEInternal.Weighted>
2.7145

> <Gold.Chemscore.Rot.Weighted>
4.8936

> <Gold.Chemscore.Internal.Correction.Weighted>
   9.000000E+99

> <Gold.Protein.RotatedTorsions>
[ 6907 6896 6895 6894 ] final   67.36 input  -60.11 | X-H torsion
[ 7974 7965 7964 7962 ] final  -62.20 input  175.53 | X-H torsion
[ 8008 7997 7996 7995 ] final   -0.51 input   59.86 | X-H torsion
[ 10167 10162 10161 10158 ] final   68.06 input  -65.29 | X-H torsion
[ 10718 10713 10712 10709 ] final  -53.49 input   66.30 | X-H torsion
[ 10763 10752 10751 10750 ] final  159.34 input  -60.55 | X-H torsion
[ 11005 11000 10999 10996 ] final   31.82 input  -57.11 | X-H torsion

> <Gold.Protein.ActiveResidues>
 VAL166  LYS551  ARG553  GLY616  TRP617  ASP618  TYR619  PRO620  LYS621  CYS622 
 ASP623  PHE694  ASN695  SER759  ASP760  ASP761  ALA762  ILE779  LEU786  VAL792 
 PHE793  MET794  SER795  GLU796  ALA797  LYS798  CYS799  TRP800  GLU811  SER814 

> <Gold.Protein.RotatedAtoms>
  152.4546  134.5319  159.9813 H   0  0  0  0  0  0  0  0  0  0  0  0  # atno 6907 bound_to 6896
  151.5383  133.3431  159.2938 H   0  0  0  0  0  0  0  0  0  0  0  0  # atno 6908 bound_to 6896
  150.8486  134.7834  159.7053 H   0  0  0  0  0  0  0  0  0  0  0  0  # atno 6909 bound_to 6896
  145.7942  140.8692  143.0265 H   0  0  0  0  0  0  0  0  0  0  0  0  # atno 7974 bound_to 7965
  154.6573  140.2582  155.7147 H   0  0  0  0  0  0  0  0  0  0  0  0  # atno 8008 bound_to 7997
  156.2602  140.2856  156.0952 H   0  0  0  0  0  0  0  0  0  0  0  0  # atno 8009 bound_to 7997
  155.1361  140.0379  157.2777 H   0  0  0  0  0  0  0  0  0  0  0  0  # atno 8010 bound_to 7997
  140.0828  144.5056  150.7150 H   0  0  0  0  0  0  0  0  0  0  0  0  # atno 10167 bound_to 10162
  156.1531  130.4151  149.9913 H   0  0  0  0  0  0  0  0  0  0  0  0  # atno 10718 bound_to 10713
  154.2302  135.2778  155.2892 H   0  0  0  0  0  0  0  0  0  0  0  0  # atno 10763 bound_to 10752
  154.5630  135.5641  153.7028 H   0  0  0  0  0  0  0  0  0  0  0  0  # atno 10764 bound_to 10752
  153.0022  135.6302  154.2444 H   0  0  0  0  0  0  0  0  0  0  0  0  # atno 10765 bound_to 10752
  140.2799  134.2984  155.7803 H   0  0  0  0  0  0  0  0  0  0  0  0  # atno 11005 bound_to 11000
  144.6777  140.0167  143.7484 LP  0  0  0  0  0  0  0  0  0  0  0  0  # atno 17320 bound_to 7965
  145.9945  139.3041  143.0965 LP  0  0  0  0  0  0  0  0  0  0  0  0  # atno 17321 bound_to 7965
  140.7069  143.2475  151.4700 LP  0  0  0  0  0  0  0  0  0  0  0  0  # atno 17342 bound_to 10162
  139.5769  144.1797  152.1916 LP  0  0  0  0  0  0  0  0  0  0  0  0  # atno 17343 bound_to 10162
  156.7765  130.9205  151.3645 LP  0  0  0  0  0  0  0  0  0  0  0  0  # atno 17370 bound_to 10713
  157.6673  130.9019  149.9960 LP  0  0  0  0  0  0  0  0  0  0  0  0  # atno 17371 bound_to 10713
  141.2164  133.7519  156.9465 LP  0  0  0  0  0  0  0  0  0  0  0  0  # atno 17394 bound_to 11000
  140.1293  134.9366  157.2314 LP  0  0  0  0  0  0  0  0  0  0  0  0  # atno 17395 bound_to 11000

$$$$
