#       Name:                AV-unprocessed.smi:2344
#       Creating user name   scv26
#       Creation time:       Fri Mar 27 12:58:14 2020


#       File generated by GOLD software.
#

@<TRIPOS>MOLECULE
AV-unprocessed.smi:2344
    40    41     1
SMALL
NO_CHARGES


@<TRIPOS>ATOM
      1 ****        -6.0533   3.0619  -0.4252 C.3            1 S1                 0.0000
      2 ****        -4.8200   2.1836  -0.4027 C.ar           1 S1                 0.0000
      3 ****        -4.9063   0.8259  -0.0422 C.ar           1 S1                 0.0000
      4 ****        -3.7312   0.0501  -0.0331 C.ar           1 S1                 0.0000
      5 ****        -2.4996   0.6481  -0.3829 C.ar           1 S1                 0.0000
      6 ****        -1.3773  -0.2215  -0.3430 N.am           1 S1                 0.0000
      7 ****        -0.0944   0.0618  -0.6294 C.2            1 S1                 0.0000
      8 ****         0.3327   1.1628  -0.9782 O.2            1 S1                 0.0000
      9 ****         0.6845  -1.0201  -0.4864 N.am           1 S1                 0.0000
     10 ****         2.1251  -1.0451  -0.7131 C.3            1 S1                 0.0000
     11 ****         2.6258  -2.4617  -0.7781 C.2            1 S1                 0.0000
     12 ****         3.5404  -2.7270   0.1518 C.2            1 S1                 0.0000
     13 ****         3.8228  -1.5509   1.0492 C.3            1 S1                 0.0000
     14 ****         5.3194  -1.2010   1.0890 C.3            1 S1                 0.0000
     15 ****         5.5524  -0.1606   2.0145 O.3            1 S1                 0.0000
     16 ****         2.9289  -0.4276   0.4612 C.3            1 S1                 0.0000
     17 ****        -2.4265   1.9578  -0.7277 N.ar           1 S1                 0.0000
     18 ****        -3.5530   2.7010  -0.7359 C.ar           1 S1                 0.0000
     19 ****         2.3680  -0.5483  -1.6542 H              1 S1                 0.0000
     20 ****         3.4790  -1.8151   2.0502 H              1 S1                 0.0000
     21 ****        -6.9103   2.5118  -0.8149 H              1 S1                 0.0000
     22 ****        -5.8977   3.9377  -1.0559 H              1 S1                 0.0000
     23 ****        -6.2910   3.4017   0.5830 H              1 S1                 0.0000
     24 ****        -5.8552   0.3837   0.2237 H              1 S1                 0.0000
     25 ****        -3.7804  -0.9940   0.2405 H              1 S1                 0.0000
     26 ****        -1.5750  -1.1716  -0.0667 H              1 S1                 0.0000
     27 ****         0.2538  -1.8854  -0.1955 H              1 S1                 0.0000
     28 ****         2.2726  -3.1633  -1.5195 H              1 S1                 0.0000
     29 ****         4.0314  -3.6800   0.2832 H              1 S1                 0.0000
     30 ****         5.9050  -2.0692   1.3928 H              1 S1                 0.0000
     31 ****         5.6768  -0.8974   0.1042 H              1 S1                 0.0000
     32 ****         6.4784   0.0272   2.0289 H              1 S1                 0.0000
     33 ****         3.5322   0.4030   0.0925 H              1 S1                 0.0000
     34 ****         2.2781  -0.0166   1.2343 H              1 S1                 0.0000
     35 ****        -3.4366   3.7376  -1.0161 H              1 S1                 0.0000
     36 ****        -0.2941   1.9368  -1.0679 LP             1 S1                 0.0000
     37 ****         1.3064   1.2830  -1.1716 LP             1 S1                 0.0000
     38 ****         5.2520  -0.4456   2.9248 LP             1 S1                 0.0000
     39 ****         5.0470   0.6566   1.7374 LP             1 S1                 0.0000
     40 ****        -1.5481   2.3680  -0.9729 LP             1 S1                 0.0000
@<TRIPOS>BOND
    1    1    2 1     
    2    1   21 1     
    3    1   22 1     
    4    1   23 1     
    5    2   18 ar    
    6    2    3 ar    
    7    3    4 ar    
    8    3   24 1     
    9    4    5 ar    
   10    4   25 1     
   11    5    6 1     
   12    5   17 ar    
   13    6    7 am    
   14    6   26 1     
   15    7    8 2     
   16    7    9 am    
   17    9   10 1     
   18    9   27 1     
   19   10   19 1     
   20   10   16 1     
   21   10   11 1     
   22   11   12 2     
   23   11   28 1     
   24   12   13 1     
   25   12   29 1     
   26   13   20 1     
   27   13   14 1     
   28   13   16 1     
   29   14   15 1     
   30   14   30 1     
   31   14   31 1     
   32   15   32 1     
   33   16   33 1     
   34   16   34 1     
   35   17   18 ar    
   36   18   35 1     
   37    8   36 1     
   38    8   37 1     
   39   15   38 1     
   40   15   39 1     
   41   17   40 1     
@<TRIPOS>SUBSTRUCTURE
      1 S1             1
@<TRIPOS>SET
LONE_PAIRS      STATIC     ATOMS    <user>   **** ""
5 36 37 38 39 40
DONOR_HYDROGENS      STATIC     ATOMS    <user>   **** ""
3 26 27 32
ATOM$BLUE        STATIC     ATOMS    COLORGROUP SYSTEM
5 36 37 38 39 40
ATOM$RED        STATIC     ATOMS    COLORGROUP SYSTEM
3 26 27 32
