#       Name:                AV-unprocessed.smi:3181
#       Creating user name   scv26
#       Creation time:       Fri Mar 27 17:57:50 2020


#       File generated by GOLD software.
#

@<TRIPOS>MOLECULE
AV-unprocessed.smi:3181
    44    45     1
SMALL
NO_CHARGES


@<TRIPOS>ATOM
      1 ****        -2.0548  -1.1163   2.6634 C.3            1 S1                 0.0000
      2 ****        -1.6112  -0.4826   1.3341 C.3            1 S1                 0.0000
      3 ****        -2.2088  -1.1990   0.1012 C.3            1 S1                 0.0000
      4 ****        -3.6588  -1.2567   0.1316 N.pl3          1 S1                 0.0000
      5 ****        -4.5696  -0.3156  -0.1223 C.2            1 S1                 0.0000
      6 ****        -5.8207  -0.7328   0.0092 N.2            1 S1                 0.0000
      7 ****        -5.5926  -2.0323   0.3652 C.2            1 S1                 0.0000
      8 ****        -4.3133  -2.3976   0.4518 N.2            1 S1                 0.0000
      9 ****        -0.1324  -0.4681   1.2718 N.4            1 S1                 1.0000
     10 ****         0.4650   0.4333   0.2609 C.3            1 S1                 0.0000
     11 ****         1.3397   1.4944   0.9499 C.3            1 S1                 0.0000
     12 ****         2.0243   2.4096  -0.0795 C.3            1 S1                 0.0000
     13 ****         2.8580   1.6157  -1.1067 C.3            1 S1                 0.0000
     14 ****         4.1535   1.0627  -0.4788 C.3            1 S1                 0.0000
     15 ****         1.9745   0.5411  -1.7921 C.3            1 S1                 0.0000
     16 ****         2.7215  -0.2673  -2.8659 C.3            1 S1                 0.0000
     17 ****         1.2878  -0.3761  -0.7591 C.3            1 S1                 0.0000
     18 ****        -3.1344  -1.0503   2.8005 H              1 S1                 0.0000
     19 ****        -1.5933  -0.6107   3.5122 H              1 S1                 0.0000
     20 ****        -1.7769  -2.1697   2.7129 H              1 S1                 0.0000
     21 ****        -1.9538   0.5534   1.3424 H              1 S1                 0.0000
     22 ****        -1.9190  -0.6938  -0.8205 H              1 S1                 0.0000
     23 ****        -1.8190  -2.2160   0.0306 H              1 S1                 0.0000
     24 ****        -4.3132   0.6951  -0.4048 H              1 S1                 0.0000
     25 ****        -6.3931  -2.7291   0.5662 H              1 S1                 0.0000
     26 ****         0.2075  -0.1678   2.1743 H              1 S1                 0.0000
     27 ****        -0.3266   0.9560  -0.2785 H              1 S1                 0.0000
     28 ****         0.7292   2.0984   1.6224 H              1 S1                 0.0000
     29 ****         2.0926   1.0115   1.5740 H              1 S1                 0.0000
     30 ****         1.2607   2.9841  -0.6055 H              1 S1                 0.0000
     31 ****         2.6507   3.1416   0.4315 H              1 S1                 0.0000
     32 ****         3.1699   2.3231  -1.8766 H              1 S1                 0.0000
     33 ****         3.9548   0.2974   0.2708 H              1 S1                 0.0000
     34 ****         4.7187   1.8581   0.0079 H              1 S1                 0.0000
     35 ****         4.8087   0.6259  -1.2321 H              1 S1                 0.0000
     36 ****         1.1810   1.0771  -2.3153 H              1 S1                 0.0000
     37 ****         3.4897  -0.9067  -2.4306 H              1 S1                 0.0000
     38 ****         3.2022   0.3904  -3.5907 H              1 S1                 0.0000
     39 ****         2.0350  -0.9123  -3.4148 H              1 S1                 0.0000
     40 ****         2.0349  -0.9801  -0.2424 H              1 S1                 0.0000
     41 ****         0.6344  -1.0803  -1.2758 H              1 S1                 0.0000
     42 ****         0.1961  -1.4093   1.1091 H              1 S1                 0.0000
     43 ****        -6.6817  -0.2397  -0.1159 LP             1 S1                 0.0000
     44 ****        -3.9327  -3.2904   0.6928 LP             1 S1                 0.0000
@<TRIPOS>BOND
    1    1    2 1     
    2    1   18 1     
    3    1   19 1     
    4    1   20 1     
    5    2    3 1     
    6    2    9 1     
    7    2   21 1     
    8    3    4 1     
    9    3   22 1     
   10    3   23 1     
   11    4    8 1     
   12    4    5 1     
   13    5    6 2     
   14    5   24 1     
   15    6    7 1     
   16    7    8 2     
   17    7   25 1     
   18    9   10 1     
   19    9   26 1     
   20    9   42 1     
   21   10   17 1     
   22   10   11 1     
   23   10   27 1     
   24   11   12 1     
   25   11   28 1     
   26   11   29 1     
   27   12   13 1     
   28   12   30 1     
   29   12   31 1     
   30   13   14 1     
   31   13   15 1     
   32   13   32 1     
   33   14   33 1     
   34   14   34 1     
   35   14   35 1     
   36   15   16 1     
   37   15   17 1     
   38   15   36 1     
   39   16   37 1     
   40   16   38 1     
   41   16   39 1     
   42   17   40 1     
   43   17   41 1     
   44    6   43 1     
   45    8   44 1     
@<TRIPOS>SUBSTRUCTURE
      1 S1             1
@<TRIPOS>SET
LONE_PAIRS      STATIC     ATOMS    <user>   **** ""
2 43 44
DONOR_HYDROGENS      STATIC     ATOMS    <user>   **** ""
2 26 42
ATOM$BLUE        STATIC     ATOMS    COLORGROUP SYSTEM
2 43 44
ATOM$RED        STATIC     ATOMS    COLORGROUP SYSTEM
2 26 42
