#       Name:                AV-unprocessed.smi:3085
#       Creating user name   scv26
#       Creation time:       Fri Mar 27 17:14:51 2020


#       File generated by GOLD software.
#

@<TRIPOS>MOLECULE
AV-unprocessed.smi:3085
    32    33     1
SMALL
NO_CHARGES


@<TRIPOS>ATOM
      1 ****        -3.9494   1.5342   1.5967 C.3            1 S1                 0.0000
      2 ****        -3.3894   0.1088   1.6352 C.3            1 S1                 0.0000
      3 ****        -1.8779   0.0908   1.5774 C.2            1 S1                 0.0000
      4 ****        -1.1426   0.0604   0.4707 N.2            1 S1                 0.0000
      5 ****         0.1343   0.1096   0.8788 C.2            1 S1                 0.0000
      6 ****         1.3404   0.0633  -0.0383 C.3            1 S1                 0.0000
      7 ****         1.7941  -1.3894  -0.2885 C.3            1 S1                 0.0000
      8 ****         2.9542  -1.4218  -1.1793 N.3            1 S1                 0.0000
      9 ****         2.6828  -0.7109  -2.4267 C.3            1 S1                 0.0000
     10 ****         2.2115   0.7229  -2.1306 C.3            1 S1                 0.0000
     11 ****         1.0618   0.6808  -1.2936 O.3            1 S1                 0.0000
     12 ****         0.2017   0.1568   2.2183 N.2            1 S1                 0.0000
     13 ****        -1.0485   0.1569   2.6337 N.pl3          1 S1                -1.0000
     14 ****        -5.0383   1.5261   1.6400 H              1 S1                 0.0000
     15 ****        -3.6538   2.0462   0.6805 H              1 S1                 0.0000
     16 ****        -3.5853   2.1207   2.4408 H              1 S1                 0.0000
     17 ****        -3.7131  -0.3950   2.5462 H              1 S1                 0.0000
     18 ****        -3.7819  -0.4696   0.7984 H              1 S1                 0.0000
     19 ****         2.1409   0.6181   0.4550 H              1 S1                 0.0000
     20 ****         2.0392  -1.8732   0.6573 H              1 S1                 0.0000
     21 ****         0.9740  -1.9595  -0.7271 H              1 S1                 0.0000
     22 ****         3.1970  -2.3857  -1.3830 H              1 S1                 0.0000
     23 ****         3.5773  -0.6910  -3.0493 H              1 S1                 0.0000
     24 ****         1.9153  -1.2382  -2.9946 H              1 S1                 0.0000
     25 ****         3.0026   1.3073  -1.6580 H              1 S1                 0.0000
     26 ****         1.9519   1.2313  -3.0593 H              1 S1                 0.0000
     27 ****        -1.4730   0.0110  -0.4718 LP             1 S1                 0.0000
     28 ****         3.7169  -0.9666  -0.7198 LP             1 S1                 0.0000
     29 ****         0.7458   1.6155  -1.1311 LP             1 S1                 0.0000
     30 ****         0.3435   0.1619  -1.7569 LP             1 S1                 0.0000
     31 ****         1.0270   0.1858   2.7822 LP             1 S1                 0.0000
     32 ****        -1.3371   0.1997   3.5902 LP             1 S1                 0.0000
@<TRIPOS>BOND
    1    1    2 1     
    2    1   14 1     
    3    1   15 1     
    4    1   16 1     
    5    2    3 1     
    6    2   17 1     
    7    2   18 1     
    8    3   13 1     
    9    3    4 2     
   10    4    5 1     
   11    5    6 1     
   12    5   12 2     
   13    6   11 1     
   14    6    7 1     
   15    6   19 1     
   16    7    8 1     
   17    7   20 1     
   18    7   21 1     
   19    8    9 1     
   20    8   22 1     
   21    9   10 1     
   22    9   23 1     
   23    9   24 1     
   24   10   11 1     
   25   10   25 1     
   26   10   26 1     
   27   12   13 1     
   28    4   27 1     
   29    8   28 1     
   30   11   29 1     
   31   11   30 1     
   32   12   31 1     
   33   13   32 1     
@<TRIPOS>SUBSTRUCTURE
      1 S1             1
@<TRIPOS>SET
LONE_PAIRS      STATIC     ATOMS    <user>   **** ""
6 27 28 29 30 31 32
DONOR_HYDROGENS      STATIC     ATOMS    <user>   **** ""
1 22
ATOM$BLUE        STATIC     ATOMS    COLORGROUP SYSTEM
6 27 28 29 30 31 32
ATOM$RED        STATIC     ATOMS    COLORGROUP SYSTEM
1 22
