#       Name:                AV-unprocessed.smi:2302
#       Creating user name   scv26
#       Creation time:       Fri Mar 27 12:45:38 2020


#       File generated by GOLD software.
#

@<TRIPOS>MOLECULE
AV-unprocessed.smi:2302
    45    46     1
SMALL
NO_CHARGES


@<TRIPOS>ATOM
      1 ****        -3.4555   4.3396   1.3007 C.3            1 S1                 0.0000
      2 ****        -3.8308   2.8734   1.3500 C.ar           1 S1                 0.0000
      3 ****        -5.1784   2.4743   1.4424 C.ar           1 S1                 0.0000
      4 ****        -5.4603   1.0973   1.4876 C.ar           1 S1                 0.0000
      5 ****        -4.3905   0.1826   1.4415 C.ar           1 S1                 0.0000
      6 ****        -3.0659   0.6661   1.3513 C.ar           1 S1                 0.0000
      7 ****        -2.0594  -0.3356   1.3127 N.am           1 S1                 0.0000
      8 ****        -0.7264  -0.1704   1.2513 C.2            1 S1                 0.0000
      9 ****        -0.1420   0.9131   1.2143 O.2            1 S1                 0.0000
     10 ****        -0.0880  -1.3494   1.2330 N.am           1 S1                 0.0000
     11 ****         1.3615  -1.5109   1.1855 C.3            1 S1                 0.0000
     12 ****         1.9261  -1.2492  -0.2224 C.3            1 S1                 0.0000
     13 ****         3.4685  -1.3104  -0.2395 C.3            1 S1                 0.0000
     14 ****         4.0048  -1.1603  -1.6137 N.4            1 S1                 1.0000
     15 ****         4.0125   0.2381  -2.1029 C.3            1 S1                 0.0000
     16 ****         3.3602  -2.1150  -2.5462 C.3            1 S1                 0.0000
     17 ****         1.8249  -2.0423  -2.4504 C.3            1 S1                 0.0000
     18 ****         1.4200  -2.2489  -1.1025 O.3            1 S1                 0.0000
     19 ****        -2.8047   1.9964   1.3061 N.ar           1 S1                 0.0000
     20 ****        -4.3163   4.9570   1.0419 H              1 S1                 0.0000
     21 ****        -2.6789   4.5139   0.5552 H              1 S1                 0.0000
     22 ****        -3.0799   4.6645   2.2713 H              1 S1                 0.0000
     23 ****        -5.9762   3.2018   1.4786 H              1 S1                 0.0000
     24 ****        -6.4797   0.7477   1.5577 H              1 S1                 0.0000
     25 ****        -4.5899  -0.8786   1.4772 H              1 S1                 0.0000
     26 ****        -2.3941  -1.2873   1.3417 H              1 S1                 0.0000
     27 ****        -0.6406  -2.1939   1.2630 H              1 S1                 0.0000
     28 ****         1.8231  -0.8372   1.9095 H              1 S1                 0.0000
     29 ****         1.6070  -2.5236   1.5066 H              1 S1                 0.0000
     30 ****         1.5963  -0.2663  -0.5623 H              1 S1                 0.0000
     31 ****         3.8951  -0.5485   0.4143 H              1 S1                 0.0000
     32 ****         3.7993  -2.2737   0.1513 H              1 S1                 0.0000
     33 ****         3.0046   0.6395  -2.2079 H              1 S1                 0.0000
     34 ****         4.5035   0.2990  -3.0744 H              1 S1                 0.0000
     35 ****         4.5635   0.8806  -1.4154 H              1 S1                 0.0000
     36 ****         3.6954  -1.9351  -3.5684 H              1 S1                 0.0000
     37 ****         3.6893  -3.1217  -2.2850 H              1 S1                 0.0000
     38 ****         1.4476  -1.0861  -2.8154 H              1 S1                 0.0000
     39 ****         1.3754  -2.8156  -3.0736 H              1 S1                 0.0000
     40 ****         4.9785  -1.4258  -1.5664 H              1 S1                 0.0000
     41 ****        -0.6661   1.7647   1.2293 LP             1 S1                 0.0000
     42 ****         0.8566   0.9413   1.1693 LP             1 S1                 0.0000
     43 ****         0.4209  -2.2360  -1.0620 LP             1 S1                 0.0000
     44 ****         1.7544  -3.1415  -0.8002 LP             1 S1                 0.0000
     45 ****        -1.8622   2.3243   1.2410 LP             1 S1                 0.0000
@<TRIPOS>BOND
    1    1    2 1     
    2    1   20 1     
    3    1   21 1     
    4    1   22 1     
    5    2   19 ar    
    6    2    3 ar    
    7    3    4 ar    
    8    3   23 1     
    9    4    5 ar    
   10    4   24 1     
   11    5    6 ar    
   12    5   25 1     
   13    6    7 1     
   14    6   19 ar    
   15    7    8 am    
   16    7   26 1     
   17    8    9 2     
   18    8   10 am    
   19   10   11 1     
   20   10   27 1     
   21   11   12 1     
   22   11   28 1     
   23   11   29 1     
   24   12   18 1     
   25   12   13 1     
   26   12   30 1     
   27   13   14 1     
   28   13   31 1     
   29   13   32 1     
   30   14   15 1     
   31   14   16 1     
   32   14   40 1     
   33   15   33 1     
   34   15   34 1     
   35   15   35 1     
   36   16   17 1     
   37   16   36 1     
   38   16   37 1     
   39   17   18 1     
   40   17   38 1     
   41   17   39 1     
   42    9   41 1     
   43    9   42 1     
   44   18   43 1     
   45   18   44 1     
   46   19   45 1     
@<TRIPOS>SUBSTRUCTURE
      1 S1             1
@<TRIPOS>SET
LONE_PAIRS      STATIC     ATOMS    <user>   **** ""
5 41 42 43 44 45
DONOR_HYDROGENS      STATIC     ATOMS    <user>   **** ""
3 26 27 40
ATOM$BLUE        STATIC     ATOMS    COLORGROUP SYSTEM
5 41 42 43 44 45
ATOM$RED        STATIC     ATOMS    COLORGROUP SYSTEM
3 26 27 40
