#       Name:                AV-unprocessed.smi:2204
#       Creating user name   scv26
#       Creation time:       Fri Mar 27 12:15:30 2020


#       File generated by GOLD software.
#

@<TRIPOS>MOLECULE
AV-unprocessed.smi:2204
    44    45     1
SMALL
NO_CHARGES


@<TRIPOS>ATOM
      1 ****        -2.7971   4.6865  -1.8024 C.3            1 S1                 0.0000
      2 ****        -2.6867   3.5423  -0.8387 C.2            1 S1                 0.0000
      3 ****        -3.0196   3.5200   0.5445 C.2            1 S1                 0.0000
      4 ****        -2.7228   2.2471   0.9429 C.2            1 S1                 0.0000
      5 ****        -2.8480   1.6048   2.2854 C.3            1 S1                 0.0000
      6 ****        -2.2469   1.5786  -0.1718 N.pl3          1 S1                 0.0000
      7 ****        -1.7908   0.2021  -0.2942 C.3            1 S1                 0.0000
      8 ****        -0.2796   0.0766  -0.0757 C.2            1 S1                 0.0000
      9 ****         0.2674   0.6711   0.8537 O.2            1 S1                 0.0000
     10 ****         0.3791  -0.7166  -0.9358 N.am           1 S1                 0.0000
     11 ****         1.8148  -0.9937  -0.9232 C.3            1 S1                 0.0000
     12 ****         2.3395  -0.9346  -2.3655 C.3            1 S1                 0.0000
     13 ****         2.1007  -2.3613  -0.2665 C.3            1 S1                 0.0000
     14 ****         1.6075  -2.5088   1.1751 C.3            1 S1                 0.0000
     15 ****         2.5076  -3.6037   1.6974 C.3            1 S1                 0.0000
     16 ****         3.8357  -3.2532   1.0345 C.3            1 S1                 0.0000
     17 ****         3.5056  -2.5948  -0.1862 O.3            1 S1                 0.0000
     18 ****        -2.2269   2.3763  -1.2621 N.2            1 S1                 0.0000
     19 ****        -3.2583   5.5549  -1.3316 H              1 S1                 0.0000
     20 ****        -3.4047   4.4164  -2.6666 H              1 S1                 0.0000
     21 ****        -1.8146   4.9887  -2.1654 H              1 S1                 0.0000
     22 ****        -3.4141   4.3196   1.1537 H              1 S1                 0.0000
     23 ****        -3.1554   2.3316   3.0375 H              1 S1                 0.0000
     24 ****        -1.8974   1.1770   2.6037 H              1 S1                 0.0000
     25 ****        -3.5909   0.8074   2.2662 H              1 S1                 0.0000
     26 ****        -2.3116  -0.4152   0.4377 H              1 S1                 0.0000
     27 ****        -2.0688  -0.1752  -1.2798 H              1 S1                 0.0000
     28 ****        -0.1581  -1.1633  -1.6647 H              1 S1                 0.0000
     29 ****         2.3335  -0.2204  -0.3537 H              1 S1                 0.0000
     30 ****         3.4158  -1.1043  -2.4015 H              1 S1                 0.0000
     31 ****         2.1483   0.0411  -2.8135 H              1 S1                 0.0000
     32 ****         1.8636  -1.6888  -2.9934 H              1 S1                 0.0000
     33 ****         1.6685  -3.1626  -0.8685 H              1 S1                 0.0000
     34 ****         1.7781  -1.5896   1.7376 H              1 S1                 0.0000
     35 ****         0.5484  -2.7596   1.2405 H              1 S1                 0.0000
     36 ****         2.5673  -3.6296   2.7859 H              1 S1                 0.0000
     37 ****         2.1561  -4.5757   1.3487 H              1 S1                 0.0000
     38 ****         4.4012  -2.5597   1.6578 H              1 S1                 0.0000
     39 ****         4.4553  -4.1328   0.8580 H              1 S1                 0.0000
     40 ****        -0.2753   1.2402   1.4715 LP             1 S1                 0.0000
     41 ****         1.2542   0.5848   0.9906 LP             1 S1                 0.0000
     42 ****         3.9872  -1.7194  -0.2282 LP             1 S1                 0.0000
     43 ****         3.7880  -3.1678  -0.9555 LP             1 S1                 0.0000
     44 ****        -1.9297   2.1377  -2.1866 LP             1 S1                 0.0000
@<TRIPOS>BOND
    1    1    2 1     
    2    1   19 1     
    3    1   20 1     
    4    1   21 1     
    5    2   18 2     
    6    2    3 1     
    7    3    4 2     
    8    3   22 1     
    9    4    5 1     
   10    4    6 1     
   11    5   23 1     
   12    5   24 1     
   13    5   25 1     
   14    6    7 1     
   15    6   18 1     
   16    7    8 1     
   17    7   26 1     
   18    7   27 1     
   19    8    9 2     
   20    8   10 am    
   21   10   11 1     
   22   10   28 1     
   23   11   12 1     
   24   11   13 1     
   25   11   29 1     
   26   12   30 1     
   27   12   31 1     
   28   12   32 1     
   29   13   17 1     
   30   13   14 1     
   31   13   33 1     
   32   14   15 1     
   33   14   34 1     
   34   14   35 1     
   35   15   16 1     
   36   15   36 1     
   37   15   37 1     
   38   16   17 1     
   39   16   38 1     
   40   16   39 1     
   41    9   40 1     
   42    9   41 1     
   43   17   42 1     
   44   17   43 1     
   45   18   44 1     
@<TRIPOS>SUBSTRUCTURE
      1 S1             1
@<TRIPOS>SET
LONE_PAIRS      STATIC     ATOMS    <user>   **** ""
5 40 41 42 43 44
DONOR_HYDROGENS      STATIC     ATOMS    <user>   **** ""
1 28
ATOM$BLUE        STATIC     ATOMS    COLORGROUP SYSTEM
5 40 41 42 43 44
ATOM$RED        STATIC     ATOMS    COLORGROUP SYSTEM
1 28
