AV-unprocessed.smi:3330|AV-procd|sdf|12811|dock2
  -GOLD-   2272019183D 1   1.00000     0.00000
 Structure written by MMmdl.
 38 39  0  0  0  0  0  0  0  0  3 V2000
  146.1192  134.3138  151.1787 C   0  0  0  0  0  0  0  0  0  0  0  0
  146.4415  132.9258  151.7623 C   0  0  2  0  0  0  0  0  0  0  0  0
  147.8860  132.8693  152.0811 N   0  3  0  0  0  0  0  0  0  0  0  0
  148.2018  132.5103  153.4778 C   0  0  0  0  0  0  0  0  0  0  0  0
  149.7064  132.6463  153.7496 C   0  0  0  0  0  0  0  0  0  0  0  0
  149.9523  133.2435  155.0646 N   0  0  0  0  0  0  0  0  0  0  0  0
  149.4720  134.4268  155.4576 C   0  0  0  0  0  0  0  0  0  0  0  0
  148.7715  135.2084  154.8143 O   0  0  0  0  0  0  0  0  0  0  0  0
  149.9321  134.6551  156.8786 C   0  0  0  0  0  0  0  0  0  0  0  0
  150.6817  133.4506  157.1568 N   0  5  0  0  0  0  0  0  0  0  0  0
  150.6526  132.6627  156.0572 C   0  0  0  0  0  0  0  0  0  0  0  0
  151.1708  131.5536  155.9305 O   0  0  0  0  0  0  0  0  0  0  0  0
  146.0454  131.7614  150.8132 C   0  0  1  0  0  0  0  0  0  0  0  0
  145.8973  130.4113  151.5408 C   0  0  0  0  0  0  0  0  0  0  0  0
  144.8320  132.0560  150.0611 N   0  0  0  0  0  0  0  0  0  0  0  0
  143.5780  132.3614  150.5495 C   0  0  0  0  0  0  0  0  0  0  0  0
  142.7586  132.5607  149.4757 C   0  0  0  0  0  0  0  0  0  0  0  0
  143.6123  132.3569  148.3562 C   0  0  0  0  0  0  0  0  0  0  0  0
  144.8516  132.0564  148.7088 N   0  0  0  0  0  0  0  0  0  0  0  0
  145.0481  134.4544  151.0327 H   0  0  0  0  0  0  0  0  0  0  0  0
  146.6091  134.4632  150.2160 H   0  0  0  0  0  0  0  0  0  0  0  0
  146.4543  135.1063  151.8486 H   0  0  0  0  0  0  0  0  0  0  0  0
  145.8708  132.8318  152.6882 H   0  0  0  0  0  0  0  0  0  0  0  0
  148.3249  132.2000  151.4654 H   0  0  0  0  0  0  0  0  0  0  0  0
  147.6387  133.1604  154.1491 H   0  0  0  0  0  0  0  0  0  0  0  0
  147.8776  131.4880  153.6747 H   0  0  0  0  0  0  0  0  0  0  0  0
  150.1882  131.6684  153.6926 H   0  0  0  0  0  0  0  0  0  0  0  0
  150.1730  133.2518  152.9706 H   0  0  0  0  0  0  0  0  0  0  0  0
  150.5365  135.5612  156.9323 H   0  0  0  0  0  0  0  0  0  0  0  0
  149.0691  134.7860  157.5323 H   0  0  0  0  0  0  0  0  0  0  0  0
  146.8431  131.6471  150.0776 H   0  0  0  0  0  0  0  0  0  0  0  0
  146.8436  130.0820  151.9696 H   0  0  0  0  0  0  0  0  0  0  0  0
  145.5693  129.6305  150.8538 H   0  0  0  0  0  0  0  0  0  0  0  0
  145.1677  130.4696  152.3492 H   0  0  0  0  0  0  0  0  0  0  0  0
  143.3741  132.4097  151.6092 H   0  0  0  0  0  0  0  0  0  0  0  0
  141.7090  132.8153  149.4882 H   0  0  0  0  0  0  0  0  0  0  0  0
  143.3702  132.4183  147.3053 H   0  0  0  0  0  0  0  0  0  0  0  0
  148.2850  133.7796  151.9018 H   0  0  0  0  0  0  0  0  0  0  0  0
  1  2  1  0  0  0  0
  1 20  1  0  0  0  0
  1 21  1  0  0  0  0
  1 22  1  0  0  0  0
  2  3  1  0  0  0  0
  2 13  1  0  0  0  0
  2 23  1  0  0  0  0
  3  4  1  0  0  0  0
  3 24  1  0  0  0  0
  3 38  1  0  0  0  0
  4  5  1  0  0  0  0
  4 25  1  0  0  0  0
  4 26  1  0  0  0  0
  5  6  1  0  0  0  0
  5 27  1  0  0  0  0
  5 28  1  0  0  0  0
  6 11  1  0  0  0  0
  6  7  1  0  0  0  0
  7  8  2  0  0  0  0
  7  9  1  0  0  0  0
  9 10  1  0  0  0  0
  9 29  1  0  0  0  0
  9 30  1  0  0  0  0
 10 11  1  0  0  0  0
 11 12  2  0  0  0  0
 13 14  1  0  0  0  0
 13 15  1  0  0  0  0
 13 31  1  0  0  0  0
 14 32  1  0  0  0  0
 14 33  1  0  0  0  0
 14 34  1  0  0  0  0
 15 19  1  0  0  0  0
 15 16  1  0  0  0  0
 16 17  2  0  0  0  0
 16 35  1  0  0  0  0
 17 18  1  0  0  0  0
 17 36  1  0  0  0  0
 18 19  2  0  0  0  0
 18 37  1  0  0  0  0
M  CHG  1   3   1
M  CHG  1  10  -1
M  END
> <s_m_source_file>
AV-unprocessed.smi

> <i_m_source_file_index>
3330

> <i_lp_mmshare_version>
43012

> <i_f3d_flags>
0

> <s_epik_input>
bjFbY0hdW2NIXVtjSF1uMVtDQEBIXShbQ0gzXSlbQ0BIXShbQ0gzXSlbTkhdW0NIMl1bQ0gyXU4yQyg9TylbQ0gyXVtOSF1DMj1P

> <s_epik_cmdline>
J2VwaWtfcHl0aG9uJywgJy1waCcsICc3LjAnLCAnLXRuJywgJzgnLCAnLW1hJywgJzIwMCcsICctbWV0YWxfYmluZGluZycsICctaW1hZScsICc8aW5maWxlLm1hZT4nLCAnLW9tYWUnLCAnPG91dGZpbGUubWFlPic=

> <r_lp_tautomer_probability>
1

> <r_epik_Ionization_Penalty>
5.18149

> <r_epik_Ionization_Penalty_Charging>
5.18148

> <r_epik_Ionization_Penalty_Neutral>
9.83265e-06

> <r_epik_State_Penalty>
5.18201

> <r_epik_Charging_Adjusted_Penalty>
10.3635

> <i_epik_Tot_Q>
0

> <i_epik_Tot_abs_Q>
2

> <r_epik_Metal_State_Penalty>
1.25422

> <b_epik_Metal_Only>
1

> <s_lp_Force_Field>
OPLS_2005

> <r_lp_Energy>
16.3237

> <b_lp_Chiralities_Consistent>
1

> <s_lp_Variant>
AV-unprocessed.smi:3330-11

> <Gold.Version>
5.8.1

> <Gold.Id.Protein>
6NUR|6NUR_protein|mol2

> <Gold.PLP.Fitness>
42.8773

> <Gold.PLP.PLP>
-33.7787

> <Gold.PLP.part.hbond>
-3.6091

> <Gold.PLP.part.metal>
0.0000

> <Gold.PLP.part.buried>
1.3410

> <Gold.PLP.part.nonpolar>
-32.7382

> <Gold.PLP.part.repulsive>
1.0069

> <Gold.PLP.ligand.clash>
0.0000

> <Gold.PLP.ligand.torsion>
1.5289

> <Gold.PLP.Chemscore.Hbond>
3.0000

> <Gold.PLP.Chemscore.CHOScore>
1.0000

> <Gold.PLP.Chemscore.Metal>
0.0000

> <Gold.Chemscore.Hbonds>
donor molecule, donor type, donor heavy atom, donor atom, acceptor molecule, acceptor atom, score
      L1  H     3    24       P1 10747  1.00
      P1  H  6896  6907       L1    10  1.27
      L1  C    18    37       P1 10195  1.00

> <Gold.PLP.Chemscore.Internal.Correction>
0.1564

> <Gold.Rescore>
     Score         DG    S(hbond)    S(metal)    S(lipo)     H(rot)  DE(clash)    DE(int)     intcor
     10.39     -14.68       1.86        0.00      82.13       2.59       3.03       1.27       ----

> <Gold.Chemscore.Fitness>
10.3854

> <Gold.Chemscore.DG>
-14.6828

> <Gold.Chemscore.ZeroCoef>
-5.4800

> <Gold.Chemscore.Hbond>
1.8638

> <Gold.Chemscore.Metal>
0.0000

> <Gold.Chemscore.Lipo>
82.1251

> <Gold.Chemscore.Internal_Hbond>
0.0000

> <Gold.Chemscore.DEClash>
3.0279

> <Gold.Chemscore.DEInternal>
1.2695

> <Gold.Chemscore.Rot>
2.5903

> <Gold.Chemscore.Internal.Correction>
   9.000000E+99

> <Gold.Chemscore.Hbonds>
donor molecule, donor type, donor heavy atom, donor atom, acceptor molecule, acceptor atom, score
      L1  H     3    24       P1 10747  1.00
      P1  H  6896  6907       L1    10  0.12

> <Gold.Chemscore.Hbond.Weighted>
-6.2252

> <Gold.Chemscore.Metal.Weighted>
-0.0000

> <Gold.Chemscore.Lipo.Weighted>
-9.6086

> <Gold.Chemscore.Internal_Hbond.Weighted>
0.0000

> <Gold.Chemscore.DEClash.Weighted>
3.0279

> <Gold.Chemscore.DEInternal.Weighted>
1.2695

> <Gold.Chemscore.Rot.Weighted>
6.6311

> <Gold.Chemscore.Internal.Correction.Weighted>
   9.000000E+99

> <Gold.Protein.RotatedTorsions>
[ 6907 6896 6895 6894 ] final -127.60 input  -60.11 | X-H torsion
[ 7974 7965 7964 7962 ] final -124.14 input  175.53 | X-H torsion
[ 8008 7997 7996 7995 ] final  126.99 input   59.86 | X-H torsion
[ 10167 10162 10161 10158 ] final   63.15 input  -65.29 | X-H torsion
[ 10718 10713 10712 10709 ] final -108.98 input   66.30 | X-H torsion
[ 10763 10752 10751 10750 ] final  163.09 input  -60.55 | X-H torsion
[ 11005 11000 10999 10996 ] final    3.66 input  -57.11 | X-H torsion

> <Gold.Protein.ActiveResidues>
 VAL166  LYS551  ARG553  GLY616  TRP617  ASP618  TYR619  PRO620  LYS621  CYS622 
 ASP623  PHE694  ASN695  SER759  ASP760  ASP761  ALA762  ILE779  LEU786  VAL792 
 PHE793  MET794  SER795  GLU796  ALA797  LYS798  CYS799  TRP800  GLU811  SER814 

> <Gold.Protein.RotatedAtoms>
  150.9090  133.7021  159.2859 H   0  0  0  0  0  0  0  0  0  0  0  0  # atno 6907 bound_to 6896
  151.4514  135.1029  159.9708 H   0  0  0  0  0  0  0  0  0  0  0  0  # atno 6908 bound_to 6896
  152.4919  133.8475  159.7240 H   0  0  0  0  0  0  0  0  0  0  0  0  # atno 6909 bound_to 6896
  145.0112  140.7907  143.4437 H   0  0  0  0  0  0  0  0  0  0  0  0  # atno 7974 bound_to 7965
  156.2879  140.2679  156.2200 H   0  0  0  0  0  0  0  0  0  0  0  0  # atno 8008 bound_to 7997
  155.0178  140.0387  157.2443 H   0  0  0  0  0  0  0  0  0  0  0  0  # atno 8009 bound_to 7997
  154.7462  140.2734  155.6336 H   0  0  0  0  0  0  0  0  0  0  0  0  # atno 8010 bound_to 7997
  140.1361  144.4597  150.6837 H   0  0  0  0  0  0  0  0  0  0  0  0  # atno 10167 bound_to 10162
  156.0513  130.5741  150.8037 H   0  0  0  0  0  0  0  0  0  0  0  0  # atno 10718 bound_to 10713
  154.2883  135.2761  155.2666 H   0  0  0  0  0  0  0  0  0  0  0  0  # atno 10763 bound_to 10752
  154.5156  135.5770  153.6643 H   0  0  0  0  0  0  0  0  0  0  0  0  # atno 10764 bound_to 10752
  152.9918  135.6192  154.3046 H   0  0  0  0  0  0  0  0  0  0  0  0  # atno 10765 bound_to 10752
  140.5906  133.9928  155.8087 H   0  0  0  0  0  0  0  0  0  0  0  0  # atno 11005 bound_to 11000
  145.2021  139.2247  143.5187 LP  0  0  0  0  0  0  0  0  0  0  0  0  # atno 17320 bound_to 7965
  146.3470  140.1840  142.8589 LP  0  0  0  0  0  0  0  0  0  0  0  0  # atno 17321 bound_to 7965
  140.6788  143.2317  151.5438 LP  0  0  0  0  0  0  0  0  0  0  0  0  # atno 17342 bound_to 10162
  139.5495  144.2433  152.1504 LP  0  0  0  0  0  0  0  0  0  0  0  0  # atno 17343 bound_to 10162
  157.5442  131.0942  150.9785 LP  0  0  0  0  0  0  0  0  0  0  0  0  # atno 17370 bound_to 10713
  157.0060  130.5618  149.5316 LP  0  0  0  0  0  0  0  0  0  0  0  0  # atno 17371 bound_to 10713
  141.0937  133.9876  157.3195 LP  0  0  0  0  0  0  0  0  0  0  0  0  # atno 17394 bound_to 11000
  139.9276  135.0201  156.8288 LP  0  0  0  0  0  0  0  0  0  0  0  0  # atno 17395 bound_to 11000

$$$$
