AV-unprocessed.smi:3313|AV-procd|sdf|12730|dock7
  -GOLD-   2272019 73D 1   1.00000     0.00000
 Structure written by MMmdl.
 43 43  0  0  0  0  0  0  0  0  2 V2000
  145.8866  136.9915  151.4991 C   0  0  0  0  0  0  0  0  0  0  0  0
  145.8079  135.8416  152.5170 C   0  0  1  0  0  0  0  0  0  0  0  0
  144.4016  135.2110  152.5192 C   0  0  0  0  0  0  0  0  0  0  0  0
  144.2496  134.1942  151.4934 N   0  0  0  0  0  0  0  0  0  0  0  0
  143.6026  132.9796  151.5818 C   0  0  0  0  0  0  0  0  0  0  0  0
  143.7264  132.3645  150.3691 C   0  0  0  0  0  0  0  0  0  0  0  0
  144.4743  133.2934  149.5928 C   0  0  0  0  0  0  0  0  0  0  0  0
  144.7884  134.3866  150.2695 N   0  0  0  0  0  0  0  0  0  0  0  0
  146.8294  134.8103  152.2257 N   0  3  0  0  0  0  0  0  0  0  0  0
  146.9631  133.7430  153.2416 C   0  0  0  0  0  0  0  0  0  0  0  0
  148.1536  132.8106  152.9420 C   0  0  0  0  0  0  0  0  0  0  0  0
  147.9827  131.3789  153.4657 C   0  0  0  0  0  0  0  0  0  0  0  0
  147.8285  131.1687  154.6691 O   0  0  0  0  0  0  0  0  0  0  0  0
  148.0188  130.4094  152.5343 N   0  0  0  0  0  0  0  0  0  0  0  0
  147.8988  128.9582  152.7215 C   0  0  0  0  0  0  0  0  0  0  0  0
  149.1536  128.5016  153.4865 C   0  0  0  0  0  0  0  0  0  0  0  0
  147.8507  128.2338  151.3595 C   0  0  0  0  0  0  0  0  0  0  0  0
  146.6490  128.6196  153.5614 C   0  0  0  0  0  0  0  0  0  0  0  0
  145.1189  137.7403  151.6962 H   0  0  0  0  0  0  0  0  0  0  0  0
  145.7414  136.6296  150.4804 H   0  0  0  0  0  0  0  0  0  0  0  0
  146.8482  137.5027  151.5373 H   0  0  0  0  0  0  0  0  0  0  0  0
  145.9961  136.2456  153.5131 H   0  0  0  0  0  0  0  0  0  0  0  0
  144.2031  134.7418  153.4840 H   0  0  0  0  0  0  0  0  0  0  0  0
  143.6329  135.9737  152.3826 H   0  0  0  0  0  0  0  0  0  0  0  0
  143.1137  132.6574  152.4897 H   0  0  0  0  0  0  0  0  0  0  0  0
  143.3396  131.3988  150.0791 H   0  0  0  0  0  0  0  0  0  0  0  0
  144.7966  133.2060  148.5656 H   0  0  0  0  0  0  0  0  0  0  0  0
  146.5724  134.3676  151.3543 H   0  0  0  0  0  0  0  0  0  0  0  0
  147.0739  134.1800  154.2341 H   0  0  0  0  0  0  0  0  0  0  0  0
  146.0439  133.1563  153.2592 H   0  0  0  0  0  0  0  0  0  0  0  0
  148.3082  132.7576  151.8639 H   0  0  0  0  0  0  0  0  0  0  0  0
  149.0646  133.2380  153.3641 H   0  0  0  0  0  0  0  0  0  0  0  0
  148.1462  130.7094  151.5784 H   0  0  0  0  0  0  0  0  0  0  0  0
  149.1381  127.4266  153.6694 H   0  0  0  0  0  0  0  0  0  0  0  0
  149.2321  128.9963  154.4555 H   0  0  0  0  0  0  0  0  0  0  0  0
  150.0640  128.7249  152.9285 H   0  0  0  0  0  0  0  0  0  0  0  0
  148.7123  128.4910  150.7421 H   0  0  0  0  0  0  0  0  0  0  0  0
  146.9528  128.4810  150.7929 H   0  0  0  0  0  0  0  0  0  0  0  0
  147.8551  127.1514  151.4915 H   0  0  0  0  0  0  0  0  0  0  0  0
  146.6042  127.5531  153.7840 H   0  0  0  0  0  0  0  0  0  0  0  0
  145.7241  128.8752  153.0448 H   0  0  0  0  0  0  0  0  0  0  0  0
  146.6537  129.1518  154.5133 H   0  0  0  0  0  0  0  0  0  0  0  0
  147.7239  135.2630  152.1004 H   0  0  0  0  0  0  0  0  0  0  0  0
  1  2  1  0  0  0  0
  1 19  1  0  0  0  0
  1 20  1  0  0  0  0
  1 21  1  0  0  0  0
  2  3  1  0  0  0  0
  2  9  1  0  0  0  0
  2 22  1  0  0  0  0
  3  4  1  0  0  0  0
  3 23  1  0  0  0  0
  3 24  1  0  0  0  0
  4  8  1  0  0  0  0
  4  5  1  0  0  0  0
  5  6  2  0  0  0  0
  5 25  1  0  0  0  0
  6  7  1  0  0  0  0
  6 26  1  0  0  0  0
  7  8  2  0  0  0  0
  7 27  1  0  0  0  0
  9 10  1  0  0  0  0
  9 28  1  0  0  0  0
  9 43  1  0  0  0  0
 10 11  1  0  0  0  0
 10 29  1  0  0  0  0
 10 30  1  0  0  0  0
 11 12  1  0  0  0  0
 11 31  1  0  0  0  0
 11 32  1  0  0  0  0
 12 13  2  0  0  0  0
 12 14  1  0  0  0  0
 14 15  1  0  0  0  0
 14 33  1  0  0  0  0
 15 16  1  0  0  0  0
 15 17  1  0  0  0  0
 15 18  1  0  0  0  0
 16 34  1  0  0  0  0
 16 35  1  0  0  0  0
 16 36  1  0  0  0  0
 17 37  1  0  0  0  0
 17 38  1  0  0  0  0
 17 39  1  0  0  0  0
 18 40  1  0  0  0  0
 18 41  1  0  0  0  0
 18 42  1  0  0  0  0
M  CHG  1   9   1
M  END
> <s_m_source_file>
AV-unprocessed.smi

> <i_m_source_file_index>
3313

> <i_lp_mmshare_version>
43012

> <i_f3d_flags>
0

> <s_epik_input>
bjFbY0hdW2NIXVtjSF1uMVtDSDJdW0NAQEhdKFtDSDNdKVtOSF1bQ0gyXVtDSDJdQyg9TylbTkhdQyhbQ0gzXSkoW0NIM10pW0NIM10=

> <s_epik_cmdline>
J2VwaWtfcHl0aG9uJywgJy1waCcsICc3LjAnLCAnLXRuJywgJzgnLCAnLW1hJywgJzIwMCcsICctbWV0YWxfYmluZGluZycsICctaW1hZScsICc8aW5maWxlLm1hZT4nLCAnLW9tYWUnLCAnPG91dGZpbGUubWFlPic=

> <r_lp_tautomer_probability>
1

> <r_epik_Ionization_Penalty>
0.0056766

> <r_epik_Ionization_Penalty_Charging>
0.00567288

> <r_epik_Ionization_Penalty_Neutral>
3.71277e-06

> <r_epik_State_Penalty>
0.0041598

> <r_epik_Charging_Adjusted_Penalty>
0.00983268

> <i_epik_Tot_Q>
1

> <i_epik_Tot_abs_Q>
1

> <r_epik_Metal_State_Penalty>
-0

> <b_epik_Metal_Only>
0

> <s_lp_Force_Field>
OPLS_2005

> <r_lp_Energy>
4.0528

> <b_lp_Chiralities_Consistent>
1

> <s_lp_Variant>
AV-unprocessed.smi:3313-2

> <Gold.Version>
5.8.1

> <Gold.Id.Protein>
6NUR|6NUR_protein|mol2

> <Gold.PLP.Fitness>
43.6468

> <Gold.PLP.PLP>
-31.4421

> <Gold.PLP.part.hbond>
-2.0000

> <Gold.PLP.part.metal>
0.0000

> <Gold.PLP.part.buried>
-0.9381

> <Gold.PLP.part.nonpolar>
-28.2431

> <Gold.PLP.part.repulsive>
0.5599

> <Gold.PLP.ligand.clash>
0.0000

> <Gold.PLP.ligand.torsion>
0.8123

> <Gold.PLP.Chemscore.Hbond>
2.9760

> <Gold.PLP.Chemscore.CHOScore>
1.6044

> <Gold.PLP.Chemscore.Metal>
0.0000

> <Gold.Chemscore.Hbonds>
donor molecule, donor type, donor heavy atom, donor atom, acceptor molecule, acceptor atom, score
      L1  H     9    43       P1  7948  2.00
      L1  H    14    33       P1 10747  1.00
      L1  C     5    25       P1 10957  0.63
      L1  C     7    27       P1  7921  0.83

> <Gold.PLP.Chemscore.Internal.Correction>
0.0879

> <Gold.Rescore>
     Score         DG    S(hbond)    S(metal)    S(lipo)     H(rot)  DE(clash)    DE(int)     intcor
     14.78     -15.25       1.92        0.00      76.94       2.20       0.03       0.43       ----

> <Gold.Chemscore.Fitness>
14.7849

> <Gold.Chemscore.DG>
-15.2466

> <Gold.Chemscore.ZeroCoef>
-5.4800

> <Gold.Chemscore.Hbond>
1.9173

> <Gold.Chemscore.Metal>
0.0000

> <Gold.Chemscore.Lipo>
76.9385

> <Gold.Chemscore.Internal_Hbond>
0.0000

> <Gold.Chemscore.DEClash>
0.0344

> <Gold.Chemscore.DEInternal>
0.4273

> <Gold.Chemscore.Rot>
2.2027

> <Gold.Chemscore.Internal.Correction>
   9.000000E+99

> <Gold.Chemscore.Hbonds>
donor molecule, donor type, donor heavy atom, donor atom, acceptor molecule, acceptor atom, score
      L1  H     9    43       P1  7948  0.91
      L1  H    14    33       P1 10747  0.91

> <Gold.Chemscore.Hbond.Weighted>
-6.4037

> <Gold.Chemscore.Metal.Weighted>
-0.0000

> <Gold.Chemscore.Lipo.Weighted>
-9.0018

> <Gold.Chemscore.Internal_Hbond.Weighted>
0.0000

> <Gold.Chemscore.DEClash.Weighted>
0.0344

> <Gold.Chemscore.DEInternal.Weighted>
0.4273

> <Gold.Chemscore.Rot.Weighted>
5.6390

> <Gold.Chemscore.Internal.Correction.Weighted>
   9.000000E+99

> <Gold.Protein.RotatedTorsions>
[ 6907 6896 6895 6894 ] final -136.29 input  -60.11 | X-H torsion
[ 7974 7965 7964 7962 ] final  153.32 input  175.53 | X-H torsion
[ 8008 7997 7996 7995 ] final   53.40 input   59.86 | X-H torsion
[ 10167 10162 10161 10158 ] final   98.88 input  -65.29 | X-H torsion
[ 10718 10713 10712 10709 ] final   58.77 input   66.30 | X-H torsion
[ 10763 10752 10751 10750 ] final  -54.87 input  -60.55 | X-H torsion
[ 11005 11000 10999 10996 ] final   70.80 input  -57.11 | X-H torsion

> <Gold.Protein.ActiveResidues>
 VAL166  LYS551  ARG553  GLY616  TRP617  ASP618  TYR619  PRO620  LYS621  CYS622 
 ASP623  PHE694  ASN695  SER759  ASP760  ASP761  ALA762  ILE779  LEU786  VAL792 
 PHE793  MET794  SER795  GLU796  ALA797  LYS798  CYS799  TRP800  GLU811  SER814 

> <Gold.Protein.RotatedAtoms>
  151.0083  133.5990  159.2685 H   0  0  0  0  0  0  0  0  0  0  0  0  # atno 6907 bound_to 6896
  151.3151  135.0803  159.9295 H   0  0  0  0  0  0  0  0  0  0  0  0  # atno 6908 bound_to 6896
  152.5293  133.9741  159.7830 H   0  0  0  0  0  0  0  0  0  0  0  0  # atno 6909 bound_to 6896
  144.8163  139.6785  143.6120 H   0  0  0  0  0  0  0  0  0  0  0  0  # atno 7974 bound_to 7965
  155.4676  140.3464  155.4321 H   0  0  0  0  0  0  0  0  0  0  0  0  # atno 8008 bound_to 7997
  156.1121  140.1464  156.9353 H   0  0  0  0  0  0  0  0  0  0  0  0  # atno 8009 bound_to 7997
  154.4763  140.0884  156.7250 H   0  0  0  0  0  0  0  0  0  0  0  0  # atno 8010 bound_to 7997
  139.7668  144.6936  151.0213 H   0  0  0  0  0  0  0  0  0  0  0  0  # atno 10167 bound_to 10162
  157.5623  130.8845  149.9131 H   0  0  0  0  0  0  0  0  0  0  0  0  # atno 10718 bound_to 10713
  154.1817  135.6442  153.5036 H   0  0  0  0  0  0  0  0  0  0  0  0  # atno 10763 bound_to 10752
  153.0057  135.5407  154.6507 H   0  0  0  0  0  0  0  0  0  0  0  0  # atno 10764 bound_to 10752
  154.5873  135.2931  155.0644 H   0  0  0  0  0  0  0  0  0  0  0  0  # atno 10765 bound_to 10752
  139.9578  134.7114  156.0714 H   0  0  0  0  0  0  0  0  0  0  0  0  # atno 11005 bound_to 11000
  146.2466  139.6110  142.9456 LP  0  0  0  0  0  0  0  0  0  0  0  0  # atno 17320 bound_to 7965
  145.5208  141.0432  143.2436 LP  0  0  0  0  0  0  0  0  0  0  0  0  # atno 17321 bound_to 7965
  140.7811  143.4634  151.0246 LP  0  0  0  0  0  0  0  0  0  0  0  0  # atno 17342 bound_to 10162
  139.8318  143.7680  152.3180 LP  0  0  0  0  0  0  0  0  0  0  0  0  # atno 17343 bound_to 10162
  156.0674  130.3690  150.0848 LP  0  0  0  0  0  0  0  0  0  0  0  0  # atno 17370 bound_to 10713
  156.9011  130.9620  151.3576 LP  0  0  0  0  0  0  0  0  0  0  0  0  # atno 17371 bound_to 10713
  141.1251  133.6601  156.3317 LP  0  0  0  0  0  0  0  0  0  0  0  0  # atno 17394 bound_to 11000
  140.5569  134.5972  157.5423 LP  0  0  0  0  0  0  0  0  0  0  0  0  # atno 17395 bound_to 11000

$$$$
