AV-unprocessed.smi:130|AV-procd|sdf|1159|dock4
  -GOLD-   2262018293D 1   1.00000     0.00000
 Structure written by MMmdl.
 44 47  0  0  0  0  0  0  0  0  1 V2000
  153.1915  138.8945  158.0735 O   0  0  0  0  0  0  0  0  0  0  0  0
  152.0325  139.1398  157.7368 C   0  0  0  0  0  0  0  0  0  0  0  0
  151.2509  138.0797  156.9297 C   0  0  0  0  0  0  0  0  0  0  0  0
  149.9359  137.7357  157.5158 N   0  0  0  0  0  0  0  0  0  0  0  0
  148.7685  137.9505  156.7413 C   0  0  0  0  0  0  0  0  0  0  0  0
  148.8330  138.4271  155.6072 O   0  0  0  0  0  0  0  0  0  0  0  0
  147.5125  137.5613  157.3727 C   0  0  0  0  0  0  0  0  0  0  0  0
  146.3555  137.7232  156.7090 F   0  0  0  0  0  0  0  0  0  0  0  0
  147.4936  137.0345  158.6141 C   0  0  0  0  0  0  0  0  0  0  0  0
  148.6407  136.8327  159.3594 N   0  0  0  0  0  0  0  0  0  0  0  0
  148.5805  136.2157  160.7382 C   0  0  2  0  0  0  0  0  0  0  0  0
  147.8990  134.8437  160.6743 C   0  0  0  0  0  0  0  0  0  0  0  0
  146.4721  135.1841  161.0470 C   0  0  0  0  0  0  0  0  0  0  0  0
  146.6787  136.3132  162.0496 C   0  0  0  0  0  0  0  0  0  0  0  0
  147.8098  137.0349  161.5702 O   0  0  0  0  0  0  0  0  0  0  0  0
  149.8979  137.1694  158.8127 C   0  0  0  0  0  0  0  0  0  0  0  0
  150.9361  136.9623  159.4447 O   0  0  0  0  0  0  0  0  0  0  0  0
  151.3996  140.3009  158.0387 N   0  0  0  0  0  0  0  0  0  0  0  0
  150.0176  140.6040  157.6268 C   0  0  0  0  0  0  0  0  0  0  0  0
  149.7089  142.0232  158.1522 C   0  0  0  0  0  0  0  0  0  0  0  0
  150.9756  142.4063  158.8585 C   0  0  0  0  0  0  0  0  0  0  0  0
  151.2289  143.6120  159.5353 C   0  0  0  0  0  0  0  0  0  0  0  0
  152.4901  143.7844  160.1432 C   0  0  0  0  0  0  0  0  0  0  0  0
  153.4655  142.7638  160.0659 C   0  0  0  0  0  0  0  0  0  0  0  0
  153.1944  141.5587  159.3811 C   0  0  0  0  0  0  0  0  0  0  0  0
  151.9280  141.3948  158.7747 C   0  0  0  0  0  0  0  0  0  0  0  0
  151.1259  138.4358  155.9061 H   0  0  0  0  0  0  0  0  0  0  0  0
  151.8673  137.1854  156.8293 H   0  0  0  0  0  0  0  0  0  0  0  0
  146.5359  136.7571  159.0287 H   0  0  0  0  0  0  0  0  0  0  0  0
  149.6066  136.1840  161.1078 H   0  0  0  0  0  0  0  0  0  0  0  0
  148.0038  134.3709  159.6969 H   0  0  0  0  0  0  0  0  0  0  0  0
  148.3471  134.1969  161.4297 H   0  0  0  0  0  0  0  0  0  0  0  0
  145.9292  135.5466  160.1735 H   0  0  0  0  0  0  0  0  0  0  0  0
  145.9244  134.3382  161.4635 H   0  0  0  0  0  0  0  0  0  0  0  0
  145.8042  136.9570  162.1455 H   0  0  0  0  0  0  0  0  0  0  0  0
  146.9136  135.9076  163.0344 H   0  0  0  0  0  0  0  0  0  0  0  0
  149.9166  140.5719  156.5413 H   0  0  0  0  0  0  0  0  0  0  0  0
  149.3221  139.8823  158.0573 H   0  0  0  0  0  0  0  0  0  0  0  0
  149.5010  142.7206  157.3401 H   0  0  0  0  0  0  0  0  0  0  0  0
  148.8673  142.0270  158.8455 H   0  0  0  0  0  0  0  0  0  0  0  0
  150.4776  144.3861  159.5892 H   0  0  0  0  0  0  0  0  0  0  0  0
  152.7119  144.7001  160.6707 H   0  0  0  0  0  0  0  0  0  0  0  0
  154.4273  142.9064  160.5356 H   0  0  0  0  0  0  0  0  0  0  0  0
  153.9586  140.7989  159.3408 H   0  0  0  0  0  0  0  0  0  0  0  0
  1  2  2  0  0  0  0
  2  3  1  0  0  0  0
  2 18  1  0  0  0  0
  3  4  1  0  0  0  0
  3 27  1  0  0  0  0
  3 28  1  0  0  0  0
  4 16  1  0  0  0  0
  4  5  1  0  0  0  0
  5  6  2  0  0  0  0
  5  7  1  0  0  0  0
  7  8  1  0  0  0  0
  7  9  2  0  0  0  0
  9 10  1  0  0  0  0
  9 29  1  0  0  0  0
 10 11  1  0  0  0  0
 10 16  1  0  0  0  0
 11 15  1  0  0  0  0
 11 12  1  0  0  0  0
 11 30  1  0  0  0  0
 12 13  1  0  0  0  0
 12 31  1  0  0  0  0
 12 32  1  0  0  0  0
 13 14  1  0  0  0  0
 13 33  1  0  0  0  0
 13 34  1  0  0  0  0
 14 15  1  0  0  0  0
 14 35  1  0  0  0  0
 14 36  1  0  0  0  0
 16 17  2  0  0  0  0
 18 26  1  0  0  0  0
 18 19  1  0  0  0  0
 19 20  1  0  0  0  0
 19 37  1  0  0  0  0
 19 38  1  0  0  0  0
 20 21  1  0  0  0  0
 20 39  1  0  0  0  0
 20 40  1  0  0  0  0
 21 26  2  0  0  0  0
 21 22  1  0  0  0  0
 22 23  2  0  0  0  0
 22 41  1  0  0  0  0
 23 24  1  0  0  0  0
 23 42  1  0  0  0  0
 24 25  2  0  0  0  0
 24 43  1  0  0  0  0
 25 26  1  0  0  0  0
 25 44  1  0  0  0  0
M  END
> <s_m_source_file>
AV-unprocessed.smi

> <i_m_source_file_index>
130

> <i_lp_mmshare_version>
43012

> <i_f3d_flags>
0

> <s_epik_input>
W2NIXTFbY0hdW2NIXVtjSF1jKGMxMilOKFtDSDJdW0NIMl0yKUMoPU8pW0NIMl1uM2MoPU8pYyhGKVtjSF1uKGMzPU8pW0NAQEhdNFtDSDJdW0NIMl1bQ0gyXU80

> <s_epik_cmdline>
J2VwaWtfcHl0aG9uJywgJy1waCcsICc3LjAnLCAnLXRuJywgJzgnLCAnLW1hJywgJzIwMCcsICctbWV0YWxfYmluZGluZycsICctaW1hZScsICc8aW5maWxlLm1hZT4nLCAnLW9tYWUnLCAnPG91dGZpbGUubWFlPic=

> <r_lp_tautomer_probability>
1

> <r_epik_Ionization_Penalty>
1.67926e-06

> <r_epik_Ionization_Penalty_Charging>
3.62822e-09

> <r_epik_Ionization_Penalty_Neutral>
1.67563e-06

> <r_epik_State_Penalty>
-0

> <r_epik_Charging_Adjusted_Penalty>
3.62822e-09

> <i_epik_Tot_Q>
0

> <i_epik_Tot_abs_Q>
0

> <r_epik_Metal_State_Penalty>
-0

> <b_epik_Metal_Only>
0

> <s_epik_Chemistry_Notes>
This compound contains an acetal/aminal-like group ( X-CH(R)-Y where X, Y are N, S, or O) that may be acid/base labile, releasing an aldehyde.

> <s_lp_Force_Field>
OPLS_2005

> <r_lp_Energy>
53.4857

> <b_lp_Chiralities_Consistent>
1

> <s_lp_Variant>
AV-unprocessed.smi:130-1

> <Gold.Version>
5.8.1

> <Gold.Id.Protein>
6NUR|6NUR_protein|mol2

> <Gold.PLP.Fitness>
48.8479

> <Gold.PLP.PLP>
-38.2065

> <Gold.PLP.part.hbond>
-4.0000

> <Gold.PLP.part.metal>
0.0000

> <Gold.PLP.part.buried>
-5.4463

> <Gold.PLP.part.nonpolar>
-28.5718

> <Gold.PLP.part.repulsive>
0.0541

> <Gold.PLP.ligand.clash>
0.0000

> <Gold.PLP.ligand.torsion>
0.0635

> <Gold.PLP.Chemscore.Hbond>
3.5860

> <Gold.PLP.Chemscore.CHOScore>
0.0000

> <Gold.PLP.Chemscore.Metal>
0.0000

> <Gold.Chemscore.Hbonds>
donor molecule, donor type, donor heavy atom, donor atom, acceptor molecule, acceptor atom, score
      P1  H  6896  6909       L1    17  1.00
      P1  H  6931  6943       L1    15  0.90
      P1  H  6934  6947       L1    15  0.48
      P1  H  7997  8010       L1     1  0.86

> <Gold.PLP.Chemscore.Internal.Correction>
0.0103

> <Gold.Rescore>
     Score         DG    S(hbond)    S(metal)    S(lipo)     H(rot)  DE(clash)    DE(int)     intcor
     17.01     -20.56       2.50        0.00      91.89       1.57       0.00       3.55       ----

> <Gold.Chemscore.Fitness>
17.0055

> <Gold.Chemscore.DG>
-20.5580

> <Gold.Chemscore.ZeroCoef>
-5.4800

> <Gold.Chemscore.Hbond>
2.4990

> <Gold.Chemscore.Metal>
0.0000

> <Gold.Chemscore.Lipo>
91.8935

> <Gold.Chemscore.Internal_Hbond>
0.0000

> <Gold.Chemscore.DEClash>
0.0021

> <Gold.Chemscore.DEInternal>
3.5503

> <Gold.Chemscore.Rot>
1.5704

> <Gold.Chemscore.Internal.Correction>
   9.000000E+99

> <Gold.Chemscore.Hbonds>
donor molecule, donor type, donor heavy atom, donor atom, acceptor molecule, acceptor atom, score
      P1  H  6896  6909       L1    17  0.85
      P1  H  6931  6943       L1    15  0.18
      P1  H  6934  6947       L1    15  0.35
      P1  H  7997  8010       L1     1  0.72

> <Gold.Chemscore.Hbond.Weighted>
-8.3467

> <Gold.Chemscore.Metal.Weighted>
-0.0000

> <Gold.Chemscore.Lipo.Weighted>
-10.7515

> <Gold.Chemscore.Internal_Hbond.Weighted>
0.0000

> <Gold.Chemscore.DEClash.Weighted>
0.0021

> <Gold.Chemscore.DEInternal.Weighted>
3.5503

> <Gold.Chemscore.Rot.Weighted>
4.0203

> <Gold.Chemscore.Internal.Correction.Weighted>
   9.000000E+99

> <Gold.Protein.RotatedTorsions>
[ 6907 6896 6895 6894 ] final   96.20 input  -60.11 | X-H torsion
[ 7974 7965 7964 7962 ] final  176.46 input  175.53 | X-H torsion
[ 8008 7997 7996 7995 ] final   34.16 input   59.86 | X-H torsion
[ 10167 10162 10161 10158 ] final  -56.33 input  -65.29 | X-H torsion
[ 10718 10713 10712 10709 ] final  -71.88 input   66.30 | X-H torsion
[ 10763 10752 10751 10750 ] final -169.68 input  -60.55 | X-H torsion
[ 11005 11000 10999 10996 ] final  -18.07 input  -57.11 | X-H torsion

> <Gold.Protein.ActiveResidues>
 VAL166  LYS551  ARG553  GLY616  TRP617  ASP618  TYR619  PRO620  LYS621  CYS622 
 ASP623  PHE694  ASN695  SER759  ASP760  ASP761  ALA762  ILE779  LEU786  VAL792 
 PHE793  MET794  SER795  GLU796  ALA797  LYS798  CYS799  TRP800  GLU811  SER814 

> <Gold.Protein.RotatedAtoms>
  152.5437  134.0923  159.8281 H   0  0  0  0  0  0  0  0  0  0  0  0  # atno 6907 bound_to 6896
  151.1011  133.5236  159.2617 H   0  0  0  0  0  0  0  0  0  0  0  0  # atno 6908 bound_to 6896
  151.1990  135.0444  159.8919 H   0  0  0  0  0  0  0  0  0  0  0  0  # atno 6909 bound_to 6896
  144.7184  140.0100  143.6440 H   0  0  0  0  0  0  0  0  0  0  0  0  # atno 7974 bound_to 7965
  155.1503  140.3274  155.4433 H   0  0  0  0  0  0  0  0  0  0  0  0  # atno 8008 bound_to 7997
  156.2576  140.1978  156.6565 H   0  0  0  0  0  0  0  0  0  0  0  0  # atno 8009 bound_to 7997
  154.6478  140.0562  156.9907 H   0  0  0  0  0  0  0  0  0  0  0  0  # atno 8010 bound_to 7997
  140.6323  143.2465  151.5209 H   0  0  0  0  0  0  0  0  0  0  0  0  # atno 10167 bound_to 10162
  156.0343  130.4360  150.2510 H   0  0  0  0  0  0  0  0  0  0  0  0  # atno 10718 bound_to 10713
  154.6497  135.2909  155.0002 H   0  0  0  0  0  0  0  0  0  0  0  0  # atno 10763 bound_to 10752
  154.1100  135.6564  153.4887 H   0  0  0  0  0  0  0  0  0  0  0  0  # atno 10764 bound_to 10752
  153.0370  135.5263  154.7399 H   0  0  0  0  0  0  0  0  0  0  0  0  # atno 10765 bound_to 10752
  140.8231  133.8053  155.9680 H   0  0  0  0  0  0  0  0  0  0  0  0  # atno 11005 bound_to 11000
  146.0266  139.3298  143.0780 LP  0  0  0  0  0  0  0  0  0  0  0  0  # atno 17320 bound_to 7965
  145.8503  140.9532  143.0753 LP  0  0  0  0  0  0  0  0  0  0  0  0  # atno 17321 bound_to 7965
  139.5536  144.2332  152.1574 LP  0  0  0  0  0  0  0  0  0  0  0  0  # atno 17342 bound_to 10162
  140.1579  144.5053  150.6649 LP  0  0  0  0  0  0  0  0  0  0  0  0  # atno 17343 bound_to 10162
  157.0611  131.0090  151.3222 LP  0  0  0  0  0  0  0  0  0  0  0  0  # atno 17370 bound_to 10713
  157.5070  130.7915  149.7664 LP  0  0  0  0  0  0  0  0  0  0  0  0  # atno 17371 bound_to 10713
  140.9077  134.2299  157.5004 LP  0  0  0  0  0  0  0  0  0  0  0  0  # atno 17394 bound_to 11000
  139.8707  134.9736  156.4815 LP  0  0  0  0  0  0  0  0  0  0  0  0  # atno 17395 bound_to 11000

$$$$
