AV-unprocessed.smi:1555|AV-procd|sdf|6267|dock2
  -GOLD-   22720 6453D 1   1.00000     0.00000
 Structure written by MMmdl.
 41 42  0  0  0  0  0  0  0  0  1 V2000
  147.2439  137.6829  154.3542 C   0  0  0  0  0  0  0  0  0  0  0  0
  146.2836  137.9147  153.1771 C   0  0  1  0  0  0  0  0  0  0  0  0
  146.7393  139.0990  152.3034 C   0  0  0  0  0  0  0  0  0  0  0  0
  147.2754  140.1927  153.0927 N   0  0  0  0  0  0  0  0  0  0  0  0
  146.5691  141.2540  153.6442 C   0  0  0  0  0  0  0  0  0  0  0  0
  147.4886  142.0355  154.3065 C   0  0  0  0  0  0  0  0  0  0  0  0
  148.7586  141.4789  154.1749 N   0  0  0  0  0  0  0  0  0  0  0  0
  148.5533  140.3913  153.4431 C   0  0  0  0  0  0  0  0  0  0  0  0
  146.1860  136.7061  152.3621 N   0  0  0  0  0  0  0  0  0  0  0  0
  145.0490  136.0797  152.0155 C   0  0  0  0  0  0  0  0  0  0  0  0
  143.9459  136.4602  152.4101 O   0  0  0  0  0  0  0  0  0  0  0  0
  145.2203  135.0040  151.2060 N   0  0  0  0  0  0  0  0  0  0  0  0
  146.5042  134.3968  150.8158 C   0  0  0  0  0  0  0  0  0  0  0  0
  146.6480  133.0434  151.5339 C   0  0  0  0  0  0  0  0  0  0  0  0
  145.4636  132.1064  151.2082 C   0  0  0  0  0  0  0  0  0  0  0  0
  145.5600  130.7917  152.0034 C   0  0  0  0  0  0  0  0  0  0  0  0
  146.6172  129.9900  151.5194 O   0  0  0  0  0  0  0  0  0  0  0  0
  144.1175  132.8335  151.4370 C   0  0  0  0  0  0  0  0  0  0  0  0
  144.0893  134.2000  150.7279 C   0  0  0  0  0  0  0  0  0  0  0  0
  147.3176  138.5730  154.9796 H   0  0  0  0  0  0  0  0  0  0  0  0
  148.2474  137.4368  154.0058 H   0  0  0  0  0  0  0  0  0  0  0  0
  146.9020  136.8649  154.9893 H   0  0  0  0  0  0  0  0  0  0  0  0
  145.2980  138.1522  153.5824 H   0  0  0  0  0  0  0  0  0  0  0  0
  147.5130  138.7766  151.6054 H   0  0  0  0  0  0  0  0  0  0  0  0
  145.9107  139.4741  151.7007 H   0  0  0  0  0  0  0  0  0  0  0  0
  145.5009  141.3609  153.5253 H   0  0  0  0  0  0  0  0  0  0  0  0
  147.3351  142.9482  154.8628 H   0  0  0  0  0  0  0  0  0  0  0  0
  149.3507  139.7209  153.1581 H   0  0  0  0  0  0  0  0  0  0  0  0
  147.0524  136.3314  152.0041 H   0  0  0  0  0  0  0  0  0  0  0  0
  146.5141  134.2461  149.7352 H   0  0  0  0  0  0  0  0  0  0  0  0
  147.3731  135.0212  151.0235 H   0  0  0  0  0  0  0  0  0  0  0  0
  147.5874  132.5716  151.2437 H   0  0  0  0  0  0  0  0  0  0  0  0
  146.7047  133.2104  152.6106 H   0  0  0  0  0  0  0  0  0  0  0  0
  145.5326  131.8615  150.1468 H   0  0  0  0  0  0  0  0  0  0  0  0
  145.7480  130.9986  153.0573 H   0  0  0  0  0  0  0  0  0  0  0  0
  144.6258  130.2321  151.9464 H   0  0  0  0  0  0  0  0  0  0  0  0
  147.3353  130.5541  151.2759 H   0  0  0  0  0  0  0  0  0  0  0  0
  143.2913  132.2197  151.0776 H   0  0  0  0  0  0  0  0  0  0  0  0
  143.9522  132.9781  152.5055 H   0  0  0  0  0  0  0  0  0  0  0  0
  143.1254  134.6829  150.8950 H   0  0  0  0  0  0  0  0  0  0  0  0
  144.1687  134.0655  149.6484 H   0  0  0  0  0  0  0  0  0  0  0  0
  1  2  1  0  0  0  0
  1 20  1  0  0  0  0
  1 21  1  0  0  0  0
  1 22  1  0  0  0  0
  2  3  1  0  0  0  0
  2  9  1  0  0  0  0
  2 23  1  0  0  0  0
  3  4  1  0  0  0  0
  3 24  1  0  0  0  0
  3 25  1  0  0  0  0
  4  8  1  0  0  0  0
  4  5  1  0  0  0  0
  5  6  2  0  0  0  0
  5 26  1  0  0  0  0
  6  7  1  0  0  0  0
  6 27  1  0  0  0  0
  7  8  2  0  0  0  0
  8 28  1  0  0  0  0
  9 10  1  0  0  0  0
  9 29  1  0  0  0  0
 10 11  2  0  0  0  0
 10 12  1  0  0  0  0
 12 19  1  0  0  0  0
 12 13  1  0  0  0  0
 13 14  1  0  0  0  0
 13 30  1  0  0  0  0
 13 31  1  0  0  0  0
 14 15  1  0  0  0  0
 14 32  1  0  0  0  0
 14 33  1  0  0  0  0
 15 16  1  0  0  0  0
 15 18  1  0  0  0  0
 15 34  1  0  0  0  0
 16 17  1  0  0  0  0
 16 35  1  0  0  0  0
 16 36  1  0  0  0  0
 17 37  1  0  0  0  0
 18 19  1  0  0  0  0
 18 38  1  0  0  0  0
 18 39  1  0  0  0  0
 19 40  1  0  0  0  0
 19 41  1  0  0  0  0
M  END
> <s_m_source_file>
AV-unprocessed.smi

> <i_m_source_file_index>
1555

> <i_lp_mmshare_version>
43012

> <i_f3d_flags>
0

> <s_epik_input>
W2NIXTFuW2NIXVtjSF1uMVtDSDJdW0NAQEhdKFtDSDNdKVtOSF1DKD1PKU4yW0NIMl1bQ0gyXVtDSF0oW0NIMl1bT0hdKVtDSDJdW0NIMl0y

> <s_epik_cmdline>
J2VwaWtfcHl0aG9uJywgJy1waCcsICc3LjAnLCAnLXRuJywgJzgnLCAnLW1hJywgJzIwMCcsICctbWV0YWxfYmluZGluZycsICctaW1hZScsICc8aW5maWxlLm1hZT4nLCAnLW9tYWUnLCAnPG91dGZpbGUubWFlPic=

> <r_lp_tautomer_probability>
1

> <r_epik_Ionization_Penalty>
0.625883

> <r_epik_Ionization_Penalty_Charging>
0.625812

> <r_epik_Ionization_Penalty_Neutral>
7.07114e-05

> <r_epik_State_Penalty>
0.642234

> <r_epik_Charging_Adjusted_Penalty>
1.26805

> <i_epik_Tot_Q>
0

> <i_epik_Tot_abs_Q>
0

> <r_epik_Metal_State_Penalty>
0.307949

> <b_epik_Metal_Only>
0

> <s_lp_Force_Field>
OPLS_2005

> <r_lp_Energy>
32.573

> <b_lp_Chiralities_Consistent>
1

> <s_lp_Variant>
AV-unprocessed.smi:1555-4

> <Gold.Version>
5.8.1

> <Gold.Id.Protein>
6NUR|6NUR_protein|mol2

> <Gold.PLP.Fitness>
43.8852

> <Gold.PLP.PLP>
-31.5996

> <Gold.PLP.part.hbond>
-2.8864

> <Gold.PLP.part.metal>
0.0000

> <Gold.PLP.part.buried>
1.8465

> <Gold.PLP.part.nonpolar>
-29.8521

> <Gold.PLP.part.repulsive>
0.3572

> <Gold.PLP.ligand.clash>
0.0000

> <Gold.PLP.ligand.torsion>
0.7317

> <Gold.PLP.Chemscore.Hbond>
2.1130

> <Gold.PLP.Chemscore.CHOScore>
2.4556

> <Gold.PLP.Chemscore.Metal>
0.0000

> <Gold.Chemscore.Hbonds>
donor molecule, donor type, donor heavy atom, donor atom, acceptor molecule, acceptor atom, score
      L1  H     9    29       P1  7948  1.00
      L1  H    17    37       P1 10747  0.98
      P1  H  8011  8017       L1     7  0.08
      L1  C     5    26       P1 10175  1.00
      L1  C     6    27       P1  8028  1.00
      L1  C     8    28       P1  7957  0.50

> <Gold.PLP.Chemscore.Internal.Correction>
0.0432

> <Gold.Rescore>
     Score         DG    S(hbond)    S(metal)    S(lipo)     H(rot)  DE(clash)    DE(int)     intcor
     12.45     -13.37       1.94        0.00      66.33       2.49       0.29       0.63       ----

> <Gold.Chemscore.Fitness>
12.4516

> <Gold.Chemscore.DG>
-13.3673

> <Gold.Chemscore.ZeroCoef>
-5.4800

> <Gold.Chemscore.Hbond>
1.9438

> <Gold.Chemscore.Metal>
0.0000

> <Gold.Chemscore.Lipo>
66.3329

> <Gold.Chemscore.Internal_Hbond>
0.0000

> <Gold.Chemscore.DEClash>
0.2897

> <Gold.Chemscore.DEInternal>
0.6260

> <Gold.Chemscore.Rot>
2.4867

> <Gold.Chemscore.Internal.Correction>
   9.000000E+99

> <Gold.Chemscore.Hbonds>
donor molecule, donor type, donor heavy atom, donor atom, acceptor molecule, acceptor atom, score
      L1  H     9    29       P1  7948  0.98
      L1  H    17    37       P1 10747  0.93

> <Gold.Chemscore.Hbond.Weighted>
-6.4924

> <Gold.Chemscore.Metal.Weighted>
-0.0000

> <Gold.Chemscore.Lipo.Weighted>
-7.7609

> <Gold.Chemscore.Internal_Hbond.Weighted>
0.0000

> <Gold.Chemscore.DEClash.Weighted>
0.2897

> <Gold.Chemscore.DEInternal.Weighted>
0.6260

> <Gold.Chemscore.Rot.Weighted>
6.3660

> <Gold.Chemscore.Internal.Correction.Weighted>
   9.000000E+99

> <Gold.Protein.RotatedTorsions>
[ 6907 6896 6895 6894 ] final  142.50 input  -60.11 | X-H torsion
[ 7974 7965 7964 7962 ] final   -7.30 input  175.53 | X-H torsion
[ 8008 7997 7996 7995 ] final -168.38 input   59.86 | X-H torsion
[ 10167 10162 10161 10158 ] final  -39.01 input  -65.29 | X-H torsion
[ 10718 10713 10712 10709 ] final  112.53 input   66.30 | X-H torsion
[ 10763 10752 10751 10750 ] final  -90.63 input  -60.55 | X-H torsion
[ 11005 11000 10999 10996 ] final  130.98 input  -57.11 | X-H torsion

> <Gold.Protein.ActiveResidues>
 VAL166  LYS551  ARG553  GLY616  TRP617  ASP618  TYR619  PRO620  LYS621  CYS622 
 ASP623  PHE694  ASN695  SER759  ASP760  ASP761  ALA762  ILE779  LEU786  VAL792 
 PHE793  MET794  SER795  GLU796  ALA797  LYS798  CYS799  TRP800  GLU811  SER814 

> <Gold.Protein.RotatedAtoms>
  152.2179  133.4961  159.5146 H   0  0  0  0  0  0  0  0  0  0  0  0  # atno 6907 bound_to 6896
  150.7006  134.1380  159.4103 H   0  0  0  0  0  0  0  0  0  0  0  0  # atno 6908 bound_to 6896
  151.9301  135.0260  160.0579 H   0  0  0  0  0  0  0  0  0  0  0  0  # atno 6909 bound_to 6896
  146.2310  140.2299  142.8340 H   0  0  0  0  0  0  0  0  0  0  0  0  # atno 7974 bound_to 7965
  155.8907  140.1024  157.1421 H   0  0  0  0  0  0  0  0  0  0  0  0  # atno 8008 bound_to 7997
  154.4014  140.1311  156.4375 H   0  0  0  0  0  0  0  0  0  0  0  0  # atno 8009 bound_to 7997
  155.7537  140.3464  155.5165 H   0  0  0  0  0  0  0  0  0  0  0  0  # atno 8010 bound_to 7997
  140.7076  143.3241  151.2722 H   0  0  0  0  0  0  0  0  0  0  0  0  # atno 10167 bound_to 10162
  157.6387  131.0969  150.6908 H   0  0  0  0  0  0  0  0  0  0  0  0  # atno 10718 bound_to 10713
  154.6678  135.5297  153.8099 H   0  0  0  0  0  0  0  0  0  0  0  0  # atno 10763 bound_to 10752
  153.0482  135.6521  154.0772 H   0  0  0  0  0  0  0  0  0  0  0  0  # atno 10764 bound_to 10752
  154.0674  135.2957  155.3294 H   0  0  0  0  0  0  0  0  0  0  0  0  # atno 10765 bound_to 10752
  139.9703  134.9579  156.9372 H   0  0  0  0  0  0  0  0  0  0  0  0  # atno 11005 bound_to 11000
  144.9566  140.8233  143.5539 LP  0  0  0  0  0  0  0  0  0  0  0  0  # atno 17320 bound_to 7965
  145.2265  139.2135  143.5065 LP  0  0  0  0  0  0  0  0  0  0  0  0  # atno 17321 bound_to 7965
  139.6703  144.0031  152.2749 LP  0  0  0  0  0  0  0  0  0  0  0  0  # atno 17342 bound_to 10162
  139.9628  144.6546  150.8063 LP  0  0  0  0  0  0  0  0  0  0  0  0  # atno 17343 bound_to 10162
  156.7236  130.4688  149.5517 LP  0  0  0  0  0  0  0  0  0  0  0  0  # atno 17370 bound_to 10713
  156.1649  130.6399  151.0765 LP  0  0  0  0  0  0  0  0  0  0  0  0  # atno 17371 bound_to 10713
  140.5307  134.0816  155.7315 LP  0  0  0  0  0  0  0  0  0  0  0  0  # atno 17394 bound_to 11000
  141.1383  133.9183  157.2384 LP  0  0  0  0  0  0  0  0  0  0  0  0  # atno 17395 bound_to 11000

$$$$
