#       Name:                AV-unprocessed.smi:95
#       Creating user name   scv26
#       Creation time:       Thu Mar 26 17:30:24 2020


#       File generated by GOLD software.
#

@<TRIPOS>MOLECULE
AV-unprocessed.smi:95
    48    51     1
SMALL
NO_CHARGES


@<TRIPOS>ATOM
      1 ****        -0.6217   3.2121   1.4659 O.2            1 S1                 0.0000
      2 ****        -1.0694   2.0673   1.5503 C.2            1 S1                 0.0000
      3 ****        -2.4937   1.7684   1.6532 C.2            1 S1                 0.0000
      4 ****        -3.3835   2.7747   1.6803 F              1 S1                 0.0000
      5 ****        -2.9354   0.4937   1.7150 C.2            1 S1                 0.0000
      6 ****        -2.0895  -0.6015   1.6854 N.am           1 S1                 0.0000
      7 ****        -2.6476  -2.0038   1.7438 C.3            1 S1                 0.0000
      8 ****        -3.1172  -2.4531   0.3540 C.3            1 S1                 0.0000
      9 ****        -4.6208  -2.2995   0.4552 C.3            1 S1                 0.0000
     10 ****        -4.8641  -2.5963   1.9296 C.3            1 S1                 0.0000
     11 ****        -3.7550  -2.0064   2.5969 O.3            1 S1                 0.0000
     12 ****        -0.6954  -0.4089   1.5738 C.2            1 S1                 0.0000
     13 ****         0.0775  -1.3667   1.4954 O.2            1 S1                 0.0000
     14 ****        -0.2292   0.9262   1.5325 N.am           1 S1                 0.0000
     15 ****         1.2055   1.1336   1.4177 C.3            1 S1                 0.0000
     16 ****         1.7783   1.0873   0.0060 C.ar           1 S1                 0.0000
     17 ****         0.9897   1.1089  -1.1683 C.ar           1 S1                 0.0000
     18 ****         1.6221   1.0630  -2.4275 C.ar           1 S1                 0.0000
     19 ****         3.0299   0.9976  -2.4907 C.ar           1 S1                 0.0000
     20 ****         3.7008   0.9499  -3.7300 C.2            1 S1                 0.0000
     21 ****         5.1083   0.8864  -3.7651 C.2            1 S1                 0.0000
     22 ****         5.8481   0.8705  -2.5655 C.2            1 S1                 0.0000
     23 ****         5.1837   0.9175  -1.3238 C.2            1 S1                 0.0000
     24 ****         3.7768   0.9803  -1.2864 C.ar           1 S1                 0.0000
     25 ****         3.1247   1.0256  -0.1037 N.pl3          1 S1                 1.0000
     26 ****        -4.0006   0.3312   1.7857 H              1 S1                 0.0000
     27 ****        -1.8718  -2.6426   2.1674 H              1 S1                 0.0000
     28 ****        -2.6651  -1.8674  -0.4475 H              1 S1                 0.0000
     29 ****        -2.8485  -3.5016   0.2195 H              1 S1                 0.0000
     30 ****        -4.9136  -1.2753   0.2218 H              1 S1                 0.0000
     31 ****        -5.1653  -2.9702  -0.2100 H              1 S1                 0.0000
     32 ****        -5.8104  -2.1942   2.2916 H              1 S1                 0.0000
     33 ****        -4.8570  -3.6723   2.1096 H              1 S1                 0.0000
     34 ****         1.4521   2.0854   1.8899 H              1 S1                 0.0000
     35 ****         1.6888   0.3856   2.0494 H              1 S1                 0.0000
     36 ****        -0.0878   1.1603  -1.1173 H              1 S1                 0.0000
     37 ****         1.0295   1.0793  -3.3307 H              1 S1                 0.0000
     38 ****         3.1430   0.9619  -4.6552 H              1 S1                 0.0000
     39 ****         5.6225   0.8504  -4.7146 H              1 S1                 0.0000
     40 ****         6.9267   0.8228  -2.5985 H              1 S1                 0.0000
     41 ****         5.7576   0.9057  -0.4084 H              1 S1                 0.0000
     42 ****         3.6780   1.0125   0.7529 H              1 S1                 0.0000
     43 ****         0.3639   3.3586   1.3816 LP             1 S1                 0.0000
     44 ****        -1.2440   3.9948   1.4818 LP             1 S1                 0.0000
     45 ****        -3.9811  -1.0665   2.8530 LP             1 S1                 0.0000
     46 ****        -3.5414  -2.5337   3.4193 LP             1 S1                 0.0000
     47 ****        -0.2803  -2.3004   1.5103 LP             1 S1                 0.0000
     48 ****         1.0619  -1.2096   1.4169 LP             1 S1                 0.0000
@<TRIPOS>BOND
    1    1    2 2     
    2    2   14 am    
    3    2    3 1     
    4    3    4 1     
    5    3    5 2     
    6    5    6 1     
    7    5   26 1     
    8    6    7 1     
    9    6   12 am    
   10    7   11 1     
   11    7    8 1     
   12    7   27 1     
   13    8    9 1     
   14    8   28 1     
   15    8   29 1     
   16    9   10 1     
   17    9   30 1     
   18    9   31 1     
   19   10   11 1     
   20   10   32 1     
   21   10   33 1     
   22   12   13 2     
   23   12   14 am    
   24   14   15 1     
   25   15   16 1     
   26   15   34 1     
   27   15   35 1     
   28   16   25 ar    
   29   16   17 ar    
   30   17   18 ar    
   31   17   36 1     
   32   18   19 ar    
   33   18   37 1     
   34   19   24 ar    
   35   19   20 1     
   36   20   21 2     
   37   20   38 1     
   38   21   22 1     
   39   21   39 1     
   40   22   23 2     
   41   22   40 1     
   42   23   24 1     
   43   23   41 1     
   44   24   25 ar    
   45   25   42 1     
   46    1   43 1     
   47    1   44 1     
   48   11   45 1     
   49   11   46 1     
   50   13   47 1     
   51   13   48 1     
@<TRIPOS>SUBSTRUCTURE
      1 S1             1
@<TRIPOS>SET
LONE_PAIRS      STATIC     ATOMS    <user>   **** ""
6 43 44 45 46 47 48
DONOR_HYDROGENS      STATIC     ATOMS    <user>   **** ""
1 42
ATOM$BLUE        STATIC     ATOMS    COLORGROUP SYSTEM
6 43 44 45 46 47 48
ATOM$RED        STATIC     ATOMS    COLORGROUP SYSTEM
1 42
