AV-unprocessed.smi:2856|AV-procd|sdf|10996|dock1
  -GOLD-   2272015453D 1   1.00000     0.00000
 Structure written by MMmdl.
 37 38  0  0  0  0  0  0  0  0  1 V2000
  154.0974  141.0972  161.4971 C   0  0  0  0  0  0  0  0  0  0  0  0
  153.5412  140.6466  159.8305 S   0  0  0  0  0  0  0  0  0  0  0  0
  152.3782  142.0015  159.4701 C   0  0  1  0  0  0  0  0  0  0  0  0
  153.0351  143.3494  159.8220 C   0  0  0  0  0  0  0  0  0  0  0  0
  152.1106  144.5352  159.5110 C   0  0  0  0  0  0  0  0  0  0  0  0
  151.6798  144.5209  158.0381 C   0  0  0  0  0  0  0  0  0  0  0  0
  151.0053  143.1899  157.6755 C   0  0  0  0  0  0  0  0  0  0  0  0
  151.9105  141.9813  157.9938 C   0  0  2  0  0  0  0  0  0  0  0  0
  151.1848  140.7457  157.7098 N   0  0  0  0  0  0  0  0  0  0  0  0
  151.5639  139.8016  156.8370 C   0  0  0  0  0  0  0  0  0  0  0  0
  152.5649  139.8921  156.1259 O   0  0  0  0  0  0  0  0  0  0  0  0
  150.7150  138.7603  156.8520 N   0  0  0  0  0  0  0  0  0  0  0  0
  150.8036  137.5608  156.1014 C   0  0  0  0  0  0  0  0  0  0  0  0
  150.0005  136.4362  156.4296 C   0  0  0  0  0  0  0  0  0  0  0  0
  150.3765  135.5078  155.5000 C   0  0  0  0  0  0  0  0  0  0  0  0
  149.9546  134.1017  155.2432 C   0  0  0  0  0  0  0  0  0  0  0  0
  151.3275  136.0226  154.6740 O   0  0  0  0  0  0  0  0  0  0  0  0
  151.5967  137.3399  155.0641 N   0  0  0  0  0  0  0  0  0  0  0  0
  154.8271  140.3713  161.8550 H   0  0  0  0  0  0  0  0  0  0  0  0
  153.2626  141.1145  162.1967 H   0  0  0  0  0  0  0  0  0  0  0  0
  154.5664  142.0811  161.4892 H   0  0  0  0  0  0  0  0  0  0  0  0
  151.5108  141.8787  160.1201 H   0  0  0  0  0  0  0  0  0  0  0  0
  153.3068  143.3650  160.8782 H   0  0  0  0  0  0  0  0  0  0  0  0
  153.9657  143.4615  159.2637 H   0  0  0  0  0  0  0  0  0  0  0  0
  151.2297  144.4926  160.1530 H   0  0  0  0  0  0  0  0  0  0  0  0
  152.6175  145.4727  159.7410 H   0  0  0  0  0  0  0  0  0  0  0  0
  150.9987  145.3492  157.8410 H   0  0  0  0  0  0  0  0  0  0  0  0
  152.5503  144.6767  157.3995 H   0  0  0  0  0  0  0  0  0  0  0  0
  150.0671  143.1025  158.2254 H   0  0  0  0  0  0  0  0  0  0  0  0
  150.7423  143.1921  156.6170 H   0  0  0  0  0  0  0  0  0  0  0  0
  152.7980  142.0371  157.3598 H   0  0  0  0  0  0  0  0  0  0  0  0
  150.3446  140.5850  158.2452 H   0  0  0  0  0  0  0  0  0  0  0  0
  149.9312  138.8234  157.4843 H   0  0  0  0  0  0  0  0  0  0  0  0
  149.2700  136.3248  157.2172 H   0  0  0  0  0  0  0  0  0  0  0  0
  149.0151  133.8788  155.7494 H   0  0  0  0  0  0  0  0  0  0  0  0
  150.7080  133.4009  155.6032 H   0  0  0  0  0  0  0  0  0  0  0  0
  149.8122  133.9282  154.1764 H   0  0  0  0  0  0  0  0  0  0  0  0
  1  2  1  0  0  0  0
  1 19  1  0  0  0  0
  1 20  1  0  0  0  0
  1 21  1  0  0  0  0
  2  3  1  0  0  0  0
  3  8  1  0  0  0  0
  3  4  1  0  0  0  0
  3 22  1  0  0  0  0
  4  5  1  0  0  0  0
  4 23  1  0  0  0  0
  4 24  1  0  0  0  0
  5  6  1  0  0  0  0
  5 25  1  0  0  0  0
  5 26  1  0  0  0  0
  6  7  1  0  0  0  0
  6 27  1  0  0  0  0
  6 28  1  0  0  0  0
  7  8  1  0  0  0  0
  7 29  1  0  0  0  0
  7 30  1  0  0  0  0
  8  9  1  0  0  0  0
  8 31  1  0  0  0  0
  9 10  1  0  0  0  0
  9 32  1  0  0  0  0
 10 11  2  0  0  0  0
 10 12  1  0  0  0  0
 12 13  1  0  0  0  0
 12 33  1  0  0  0  0
 13 18  2  0  0  0  0
 13 14  1  0  0  0  0
 14 15  2  0  0  0  0
 14 34  1  0  0  0  0
 15 16  1  0  0  0  0
 15 17  1  0  0  0  0
 16 35  1  0  0  0  0
 16 36  1  0  0  0  0
 16 37  1  0  0  0  0
 17 18  1  0  0  0  0
M  END
> <s_m_source_file>
AV-unprocessed.smi

> <i_m_source_file_index>
2856

> <i_lp_mmshare_version>
43012

> <i_f3d_flags>
0

> <s_epik_input>
W0NIM11TW0NAQEhdMVtDSDJdW0NIMl1bQ0gyXVtDSDJdW0NASF0xW05IXUMoPU8pW05IXWMyW2NIXWMoW0NIM10pb24y

> <s_epik_cmdline>
J2VwaWtfcHl0aG9uJywgJy1waCcsICc3LjAnLCAnLXRuJywgJzgnLCAnLW1hJywgJzIwMCcsICctbWV0YWxfYmluZGluZycsICctaW1hZScsICc8aW5maWxlLm1hZT4nLCAnLW9tYWUnLCAnPG91dGZpbGUubWFlPic=

> <r_lp_tautomer_probability>
1

> <r_epik_Ionization_Penalty>
2.20874e-05

> <r_epik_Ionization_Penalty_Charging>
0

> <r_epik_Ionization_Penalty_Neutral>
2.20874e-05

> <r_epik_State_Penalty>
-0

> <r_epik_Charging_Adjusted_Penalty>
0

> <i_epik_Tot_Q>
0

> <i_epik_Tot_abs_Q>
0

> <r_epik_Metal_State_Penalty>
-0

> <b_epik_Metal_Only>
0

> <s_lp_Force_Field>
OPLS_2005

> <r_lp_Energy>
6.82526

> <b_lp_Chiralities_Consistent>
1

> <s_lp_Variant>
AV-unprocessed.smi:2856-4

> <Gold.Version>
5.8.1

> <Gold.Id.Protein>
6NUR|6NUR_protein|mol2

> <Gold.PLP.Fitness>
40.2730

> <Gold.PLP.PLP>
-35.0691

> <Gold.PLP.part.hbond>
-2.4376

> <Gold.PLP.part.metal>
0.0000

> <Gold.PLP.part.buried>
-4.3908

> <Gold.PLP.part.nonpolar>
-28.2545

> <Gold.PLP.part.repulsive>
0.3295

> <Gold.PLP.ligand.clash>
0.0000

> <Gold.PLP.ligand.torsion>
0.1050

> <Gold.PLP.Chemscore.Hbond>
1.8000

> <Gold.PLP.Chemscore.CHOScore>
0.0000

> <Gold.PLP.Chemscore.Metal>
0.0000

> <Gold.Chemscore.Hbonds>
donor molecule, donor type, donor heavy atom, donor atom, acceptor molecule, acceptor atom, score
      P1  H  7997  8008       L1    11  1.00
      P1  H 10752 10764       L1    17  0.80

> <Gold.PLP.Chemscore.Internal.Correction>
0.0140

> <Gold.Rescore>
     Score         DG    S(hbond)    S(metal)    S(lipo)     H(rot)  DE(clash)    DE(int)     intcor
     18.22     -19.58       1.88        0.00      93.25       1.21       0.01       1.35       ----

> <Gold.Chemscore.Fitness>
18.2168

> <Gold.Chemscore.DG>
-19.5756

> <Gold.Chemscore.ZeroCoef>
-5.4800

> <Gold.Chemscore.Hbond>
1.8817

> <Gold.Chemscore.Metal>
0.0000

> <Gold.Chemscore.Lipo>
93.2543

> <Gold.Chemscore.Internal_Hbond>
0.0000

> <Gold.Chemscore.DEClash>
0.0103

> <Gold.Chemscore.DEInternal>
1.3485

> <Gold.Chemscore.Rot>
1.2109

> <Gold.Chemscore.Internal.Correction>
   9.000000E+99

> <Gold.Chemscore.Hbonds>
donor molecule, donor type, donor heavy atom, donor atom, acceptor molecule, acceptor atom, score
      P1  H  7997  8008       L1    11  1.00
      P1  H 10752 10764       L1    17  0.12

> <Gold.Chemscore.Hbond.Weighted>
-6.2849

> <Gold.Chemscore.Metal.Weighted>
-0.0000

> <Gold.Chemscore.Lipo.Weighted>
-10.9108

> <Gold.Chemscore.Internal_Hbond.Weighted>
0.0000

> <Gold.Chemscore.DEClash.Weighted>
0.0103

> <Gold.Chemscore.DEInternal.Weighted>
1.3485

> <Gold.Chemscore.Rot.Weighted>
3.1000

> <Gold.Chemscore.Internal.Correction.Weighted>
   9.000000E+99

> <Gold.Protein.RotatedTorsions>
[ 6907 6896 6895 6894 ] final -128.90 input  -60.11 | X-H torsion
[ 7974 7965 7964 7962 ] final  -65.48 input  175.53 | X-H torsion
[ 8008 7997 7996 7995 ] final  -44.17 input   59.86 | X-H torsion
[ 10167 10162 10161 10158 ] final -158.31 input  -65.29 | X-H torsion
[ 10718 10713 10712 10709 ] final  -30.72 input   66.30 | X-H torsion
[ 10763 10752 10751 10750 ] final  -76.48 input  -60.55 | X-H torsion
[ 11005 11000 10999 10996 ] final  -51.57 input  -57.11 | X-H torsion

> <Gold.Protein.ActiveResidues>
 VAL166  LYS551  ARG553  GLY616  TRP617  ASP618  TYR619  PRO620  LYS621  CYS622 
 ASP623  PHE694  ASN695  SER759  ASP760  ASP761  ALA762  ILE779  LEU786  VAL792 
 PHE793  MET794  SER795  GLU796  ALA797  LYS798  CYS799  TRP800  GLU811  SER814 

> <Gold.Protein.RotatedAtoms>
  150.9229  133.6859  159.2827 H   0  0  0  0  0  0  0  0  0  0  0  0  # atno 6907 bound_to 6896
  151.4308  135.1008  159.9651 H   0  0  0  0  0  0  0  0  0  0  0  0  # atno 6908 bound_to 6896
  152.4988  133.8659  159.7329 H   0  0  0  0  0  0  0  0  0  0  0  0  # atno 6909 bound_to 6896
  145.7537  140.8896  143.0466 H   0  0  0  0  0  0  0  0  0  0  0  0  # atno 7974 bound_to 7965
  154.3997  140.1429  156.3639 H   0  0  0  0  0  0  0  0  0  0  0  0  # atno 8008 bound_to 7997
  155.8155  140.3471  155.5462 H   0  0  0  0  0  0  0  0  0  0  0  0  # atno 8009 bound_to 7997
  155.8342  140.0917  157.1764 H   0  0  0  0  0  0  0  0  0  0  0  0  # atno 8010 bound_to 7997
  139.6702  143.9758  152.2279 H   0  0  0  0  0  0  0  0  0  0  0  0  # atno 10167 bound_to 10162
  156.3963  130.4382  149.7356 H   0  0  0  0  0  0  0  0  0  0  0  0  # atno 10718 bound_to 10713
  154.5004  135.5796  153.6526 H   0  0  0  0  0  0  0  0  0  0  0  0  # atno 10763 bound_to 10752
  152.9877  135.6134  154.3010 H   0  0  0  0  0  0  0  0  0  0  0  0  # atno 10764 bound_to 10752
  154.2917  135.2848  155.2631 H   0  0  0  0  0  0  0  0  0  0  0  0  # atno 10765 bound_to 10752
  141.0878  133.6639  156.3897 H   0  0  0  0  0  0  0  0  0  0  0  0  # atno 11005 bound_to 11000
  144.6844  139.9627  143.7480 LP  0  0  0  0  0  0  0  0  0  0  0  0  # atno 17320 bound_to 7965
  146.0331  139.3353  143.0743 LP  0  0  0  0  0  0  0  0  0  0  0  0  # atno 17321 bound_to 7965
  139.9520  144.6614  150.8162 LP  0  0  0  0  0  0  0  0  0  0  0  0  # atno 17342 bound_to 10162
  140.7615  143.3176  151.2697 LP  0  0  0  0  0  0  0  0  0  0  0  0  # atno 17343 bound_to 10162
  156.4390  130.7852  151.2873 LP  0  0  0  0  0  0  0  0  0  0  0  0  # atno 17370 bound_to 10713
  157.7502  131.0130  150.3409 LP  0  0  0  0  0  0  0  0  0  0  0  0  # atno 17371 bound_to 10713
  140.5322  134.6201  157.5353 LP  0  0  0  0  0  0  0  0  0  0  0  0  # atno 17394 bound_to 11000
  139.9699  134.7310  156.0062 LP  0  0  0  0  0  0  0  0  0  0  0  0  # atno 17395 bound_to 11000

$$$$
