AV-unprocessed.smi:2511|AV-procd|sdf|9887|dock1
  -GOLD-   2272013523D 1   1.00000     0.00000
 Structure written by MMmdl.
 40 41  0  0  0  0  0  0  0  0  1 V2000
  149.6176  131.8020  154.2917 N   0  0  0  0  0  0  0  0  0  0  0  0
  150.3845  132.1698  155.3237 C   0  0  0  0  0  0  0  0  0  0  0  0
  151.0147  131.3536  155.9944 O   0  0  0  0  0  0  0  0  0  0  0  0
  150.4742  133.6476  155.5964 C   0  0  0  0  0  0  0  0  0  0  0  0
  149.8306  134.5636  154.7333 C   0  0  0  0  0  0  0  0  0  0  0  0
  149.9321  135.9429  154.9975 C   0  0  0  0  0  0  0  0  0  0  0  0
  150.6748  136.3708  156.1228 C   0  0  0  0  0  0  0  0  0  0  0  0
  150.8672  137.7295  156.4906 N   0  0  0  0  0  0  0  0  0  0  0  0
  151.1734  138.2452  157.6976 C   0  0  0  0  0  0  0  0  0  0  0  0
  151.3270  137.5859  158.7233 O   0  0  0  0  0  0  0  0  0  0  0  0
  151.3272  139.5821  157.7034 N   0  0  0  0  0  0  0  0  0  0  0  0
  151.6581  140.4579  158.8300 C   0  0  1  0  0  0  0  0  0  0  0  0
  153.0774  140.1321  159.3286 C   0  0  0  0  0  0  0  0  0  0  0  0
  153.4963  141.0668  160.4730 C   0  0  0  0  0  0  0  0  0  0  0  0
  153.3862  142.5420  160.0575 C   0  0  0  0  0  0  0  0  0  0  0  0
  151.9653  142.8897  159.5662 C   0  0  1  0  0  0  0  0  0  0  0  0
  151.8387  144.3736  159.1638 C   0  0  0  0  0  0  0  0  0  0  0  0
  152.7789  144.7078  158.2792 F   0  0  0  0  0  0  0  0  0  0  0  0
  150.6403  144.6001  158.6255 F   0  0  0  0  0  0  0  0  0  0  0  0
  151.9638  145.1503  160.2400 F   0  0  0  0  0  0  0  0  0  0  0  0
  151.5548  141.9426  158.4184 C   0  0  0  0  0  0  0  0  0  0  0  0
  151.2963  135.3816  156.9111 C   0  0  0  0  0  0  0  0  0  0  0  0
  151.2009  134.0583  156.6642 N   0  0  0  0  0  0  0  0  0  0  0  0
  149.5166  130.8244  154.0616 H   0  0  0  0  0  0  0  0  0  0  0  0
  149.1416  132.5093  153.7502 H   0  0  0  0  0  0  0  0  0  0  0  0
  149.2656  134.2222  153.8780 H   0  0  0  0  0  0  0  0  0  0  0  0
  149.4516  136.6374  154.3266 H   0  0  0  0  0  0  0  0  0  0  0  0
  150.8377  138.3900  155.7277 H   0  0  0  0  0  0  0  0  0  0  0  0
  151.2024  140.0466  156.8152 H   0  0  0  0  0  0  0  0  0  0  0  0
  150.9682  140.2660  159.6539 H   0  0  0  0  0  0  0  0  0  0  0  0
  153.1272  139.0958  159.6654 H   0  0  0  0  0  0  0  0  0  0  0  0
  153.7903  140.2252  158.5077 H   0  0  0  0  0  0  0  0  0  0  0  0
  152.8663  140.8840  161.3443 H   0  0  0  0  0  0  0  0  0  0  0  0
  154.5189  140.8432  160.7787 H   0  0  0  0  0  0  0  0  0  0  0  0
  153.6573  143.1757  160.9022 H   0  0  0  0  0  0  0  0  0  0  0  0
  154.1118  142.7518  159.2708 H   0  0  0  0  0  0  0  0  0  0  0  0
  151.2775  142.7193  160.3963 H   0  0  0  0  0  0  0  0  0  0  0  0
  152.1881  142.1258  157.5491 H   0  0  0  0  0  0  0  0  0  0  0  0
  150.5356  142.1700  158.1054 H   0  0  0  0  0  0  0  0  0  0  0  0
  151.8866  135.6590  157.7725 H   0  0  0  0  0  0  0  0  0  0  0  0
  1  2  1  0  0  0  0
  1 24  1  0  0  0  0
  1 25  1  0  0  0  0
  2  3  2  0  0  0  0
  2  4  1  0  0  0  0
  4 23  1  0  0  0  0
  4  5  2  0  0  0  0
  5  6  1  0  0  0  0
  5 26  1  0  0  0  0
  6  7  2  0  0  0  0
  6 27  1  0  0  0  0
  7  8  1  0  0  0  0
  7 22  1  0  0  0  0
  8  9  1  0  0  0  0
  8 28  1  0  0  0  0
  9 10  2  0  0  0  0
  9 11  1  0  0  0  0
 11 12  1  0  0  0  0
 11 29  1  0  0  0  0
 12 21  1  0  0  0  0
 12 13  1  0  0  0  0
 12 30  1  0  0  0  0
 13 14  1  0  0  0  0
 13 31  1  0  0  0  0
 13 32  1  0  0  0  0
 14 15  1  0  0  0  0
 14 33  1  0  0  0  0
 14 34  1  0  0  0  0
 15 16  1  0  0  0  0
 15 35  1  0  0  0  0
 15 36  1  0  0  0  0
 16 17  1  0  0  0  0
 16 21  1  0  0  0  0
 16 37  1  0  0  0  0
 17 18  1  0  0  0  0
 17 19  1  0  0  0  0
 17 20  1  0  0  0  0
 21 38  1  0  0  0  0
 21 39  1  0  0  0  0
 22 23  2  0  0  0  0
 22 40  1  0  0  0  0
M  END
> <s_m_source_file>
AV-unprocessed.smi

> <i_m_source_file_index>
2511

> <i_lp_mmshare_version>
43012

> <i_f3d_flags>
0

> <s_epik_input>
W05IMl1DKD1PKWMxW2NIXVtjSF1jKFtjSF1uMSlbTkhdQyg9TylbTkhdW0NAQEhdMltDSDJdW0NIMl1bQ0gyXVtDQEBIXShDKEYpKEYpRilbQ0gyXTI=

> <s_epik_cmdline>
J2VwaWtfcHl0aG9uJywgJy1waCcsICc3LjAnLCAnLXRuJywgJzgnLCAnLW1hJywgJzIwMCcsICctbWV0YWxfYmluZGluZycsICctaW1hZScsICc8aW5maWxlLm1hZT4nLCAnLW9tYWUnLCAnPG91dGZpbGUubWFlPic=

> <r_lp_tautomer_probability>
1

> <r_epik_Ionization_Penalty>
4.28758e-05

> <r_epik_Ionization_Penalty_Charging>
0

> <r_epik_Ionization_Penalty_Neutral>
4.28758e-05

> <r_epik_State_Penalty>
-0

> <r_epik_Charging_Adjusted_Penalty>
0

> <i_epik_Tot_Q>
0

> <i_epik_Tot_abs_Q>
0

> <r_epik_Metal_State_Penalty>
-0

> <b_epik_Metal_Only>
0

> <s_lp_Force_Field>
OPLS_2005

> <r_lp_Energy>
28.5247

> <b_lp_Chiralities_Consistent>
1

> <s_lp_Variant>
AV-unprocessed.smi:2511-2

> <Gold.Version>
5.8.1

> <Gold.Id.Protein>
6NUR|6NUR_protein|mol2

> <Gold.PLP.Fitness>
43.8595

> <Gold.PLP.PLP>
-44.3997

> <Gold.PLP.part.hbond>
-0.2755

> <Gold.PLP.part.metal>
0.0000

> <Gold.PLP.part.buried>
-6.4005

> <Gold.PLP.part.nonpolar>
-38.3525

> <Gold.PLP.part.repulsive>
0.0809

> <Gold.PLP.ligand.clash>
0.0000

> <Gold.PLP.ligand.torsion>
0.2875

> <Gold.PLP.Chemscore.Hbond>
0.0000

> <Gold.PLP.Chemscore.CHOScore>
0.0000

> <Gold.PLP.Chemscore.Metal>
0.0000

> <Gold.PLP.Chemscore.Internal.Correction>
0.0347

> <Gold.Rescore>
     Score         DG    S(hbond)    S(metal)    S(lipo)     H(rot)  DE(clash)    DE(int)     intcor
     11.78     -13.50       0.00        0.00      90.39       1.00       0.17       1.54       ----

> <Gold.Chemscore.Fitness>
11.7811

> <Gold.Chemscore.DG>
-13.4962

> <Gold.Chemscore.ZeroCoef>
-5.4800

> <Gold.Chemscore.Hbond>
0.0000

> <Gold.Chemscore.Metal>
0.0000

> <Gold.Chemscore.Lipo>
90.3946

> <Gold.Chemscore.Internal_Hbond>
0.0000

> <Gold.Chemscore.DEClash>
0.1741

> <Gold.Chemscore.DEInternal>
1.5410

> <Gold.Chemscore.Rot>
1.0000

> <Gold.Chemscore.Internal.Correction>
   9.000000E+99

> <Gold.Chemscore.Hbond.Weighted>
-0.0001

> <Gold.Chemscore.Metal.Weighted>
-0.0000

> <Gold.Chemscore.Lipo.Weighted>
-10.5762

> <Gold.Chemscore.Internal_Hbond.Weighted>
0.0000

> <Gold.Chemscore.DEClash.Weighted>
0.1741

> <Gold.Chemscore.DEInternal.Weighted>
1.5410

> <Gold.Chemscore.Rot.Weighted>
2.5600

> <Gold.Chemscore.Internal.Correction.Weighted>
   9.000000E+99

> <Gold.Protein.RotatedTorsions>
[ 6907 6896 6895 6894 ] final   64.52 input  -60.11 | X-H torsion
[ 7974 7965 7964 7962 ] final   92.93 input  175.53 | X-H torsion
[ 8008 7997 7996 7995 ] final  138.86 input   59.86 | X-H torsion
[ 10167 10162 10161 10158 ] final  108.90 input  -65.29 | X-H torsion
[ 10718 10713 10712 10709 ] final -147.78 input   66.30 | X-H torsion
[ 10763 10752 10751 10750 ] final   92.39 input  -60.55 | X-H torsion
[ 11005 11000 10999 10996 ] final  -88.82 input  -57.11 | X-H torsion

> <Gold.Protein.ActiveResidues>
 VAL166  LYS551  ARG553  GLY616  TRP617  ASP618  TYR619  PRO620  LYS621  CYS622 
 ASP623  PHE694  ASN695  SER759  ASP760  ASP761  ALA762  ILE779  LEU786  VAL792 
 PHE793  MET794  SER795  GLU796  ALA797  LYS798  CYS799  TRP800  GLU811  SER814 

> <Gold.Protein.RotatedAtoms>
  152.4338  134.5726  159.9925 H   0  0  0  0  0  0  0  0  0  0  0  0  # atno 6907 bound_to 6896
  151.5842  133.3368  159.3022 H   0  0  0  0  0  0  0  0  0  0  0  0  # atno 6908 bound_to 6896
  150.8234  134.7488  159.6856 H   0  0  0  0  0  0  0  0  0  0  0  0  # atno 6909 bound_to 6896
  145.4857  139.2277  143.2858 H   0  0  0  0  0  0  0  0  0  0  0  0  # atno 7974 bound_to 7965
  156.2994  140.2382  156.4143 H   0  0  0  0  0  0  0  0  0  0  0  0  # atno 8008 bound_to 7997
  154.8413  140.0428  157.1563 H   0  0  0  0  0  0  0  0  0  0  0  0  # atno 8009 bound_to 7997
  154.9100  140.2989  155.5275 H   0  0  0  0  0  0  0  0  0  0  0  0  # atno 8010 bound_to 7997
  139.6810  144.7118  151.1516 H   0  0  0  0  0  0  0  0  0  0  0  0  # atno 10167 bound_to 10162
  156.4119  130.7986  151.2204 H   0  0  0  0  0  0  0  0  0  0  0  0  # atno 10718 bound_to 10713
  153.2187  135.4363  155.0464 H   0  0  0  0  0  0  0  0  0  0  0  0  # atno 10763 bound_to 10752
  154.8238  135.3351  154.6960 H   0  0  0  0  0  0  0  0  0  0  0  0  # atno 10764 bound_to 10752
  153.7393  135.7006  153.5026 H   0  0  0  0  0  0  0  0  0  0  0  0  # atno 10765 bound_to 10752
  141.1595  133.7593  156.9507 H   0  0  0  0  0  0  0  0  0  0  0  0  # atno 11005 bound_to 11000
  146.2314  140.5647  142.8973 LP  0  0  0  0  0  0  0  0  0  0  0  0  # atno 17320 bound_to 7965
  144.7863  140.5943  143.6571 LP  0  0  0  0  0  0  0  0  0  0  0  0  # atno 17321 bound_to 7965
  140.7652  143.5700  150.9006 LP  0  0  0  0  0  0  0  0  0  0  0  0  # atno 17342 bound_to 10162
  139.9372  143.6424  152.3062 LP  0  0  0  0  0  0  0  0  0  0  0  0  # atno 17343 bound_to 10162
  157.7507  131.0255  150.3921 LP  0  0  0  0  0  0  0  0  0  0  0  0  # atno 17370 bound_to 10713
  156.4221  130.3955  149.6818 LP  0  0  0  0  0  0  0  0  0  0  0  0  # atno 17371 bound_to 10713
  140.1259  134.9387  157.2269 LP  0  0  0  0  0  0  0  0  0  0  0  0  # atno 17394 bound_to 11000
  140.3013  134.3128  155.7289 LP  0  0  0  0  0  0  0  0  0  0  0  0  # atno 17395 bound_to 11000

$$$$
