AV-unprocessed.smi:2329|AV-procd|sdf|9302|dock5
  -GOLD-   2272012523D 1   1.00000     0.00000
 Structure written by MMmdl.
 45 48  0  0  0  0  0  0  0  0  1 V2000
  153.0685  142.4336  161.4091 C   0  0  0  0  0  0  0  0  0  0  0  0
  152.2961  143.3920  160.5275 C   0  0  0  0  0  0  0  0  0  0  0  0
  152.3283  144.7808  160.7624 C   0  0  0  0  0  0  0  0  0  0  0  0
  151.5876  145.6154  159.9063 C   0  0  0  0  0  0  0  0  0  0  0  0
  150.8506  145.0312  158.8584 C   0  0  0  0  0  0  0  0  0  0  0  0
  150.8714  143.6283  158.6925 C   0  0  0  0  0  0  0  0  0  0  0  0
  150.1017  143.1417  157.6045 N   0  0  0  0  0  0  0  0  0  0  0  0
  150.3987  142.1463  156.7467 C   0  0  0  0  0  0  0  0  0  0  0  0
  151.3807  141.4117  156.8358 O   0  0  0  0  0  0  0  0  0  0  0  0
  149.5094  142.0027  155.7489 N   0  0  0  0  0  0  0  0  0  0  0  0
  149.5361  141.0261  154.6590 C   0  0  2  0  0  0  0  0  0  0  0  0
  148.1278  140.6262  154.2175 C   0  0  1  0  0  0  0  0  0  0  0  0
  147.3198  140.8497  152.9894 C   0  0  0  0  0  0  0  0  0  0  0  0
  146.8124  139.3958  152.7984 C   0  0  0  0  0  0  0  0  0  0  0  0
  147.5754  138.5843  153.7240 O   0  0  0  0  0  0  0  0  0  0  0  0
  148.7822  139.3009  153.8887 C   0  0  2  0  0  0  0  0  0  0  0  0
  149.6743  139.5239  155.1260 C   0  0  0  0  0  0  0  0  0  0  0  0
  151.0739  138.8991  155.0750 C   0  0  0  0  0  0  0  0  0  0  0  0
  151.4742  138.4499  156.4860 C   0  0  0  0  0  0  0  0  0  0  0  0
  150.3592  138.9237  157.4127 C   0  0  0  0  0  0  0  0  0  0  0  0
  149.1451  139.0889  156.5036 C   0  0  0  0  0  0  0  0  0  0  0  0
  151.5887  142.8316  159.5231 N   0  0  0  0  0  0  0  0  0  0  0  0
  153.6837  142.9692  162.1325 H   0  0  0  0  0  0  0  0  0  0  0  0
  153.7237  141.8053  160.8053 H   0  0  0  0  0  0  0  0  0  0  0  0
  152.3816  141.7879  161.9568 H   0  0  0  0  0  0  0  0  0  0  0  0
  152.9039  145.1980  161.5755 H   0  0  0  0  0  0  0  0  0  0  0  0
  151.5849  146.6857  160.0501 H   0  0  0  0  0  0  0  0  0  0  0  0
  150.2779  145.6581  158.1904 H   0  0  0  0  0  0  0  0  0  0  0  0
  149.2451  143.6430  157.4215 H   0  0  0  0  0  0  0  0  0  0  0  0
  148.7212  142.6342  155.7540 H   0  0  0  0  0  0  0  0  0  0  0  0
  150.1832  141.3041  153.8219 H   0  0  0  0  0  0  0  0  0  0  0  0
  147.4619  140.5599  155.0832 H   0  0  0  0  0  0  0  0  0  0  0  0
  146.5076  141.5613  153.1398 H   0  0  0  0  0  0  0  0  0  0  0  0
  147.9351  141.1817  152.1519 H   0  0  0  0  0  0  0  0  0  0  0  0
  145.7494  139.3019  153.0224 H   0  0  0  0  0  0  0  0  0  0  0  0
  146.9738  139.0592  151.7736 H   0  0  0  0  0  0  0  0  0  0  0  0
  149.3599  139.3078  152.9571 H   0  0  0  0  0  0  0  0  0  0  0  0
  151.0895  138.0406  154.4025 H   0  0  0  0  0  0  0  0  0  0  0  0
  151.8056  139.6035  154.6804 H   0  0  0  0  0  0  0  0  0  0  0  0
  151.5460  137.3623  156.5178 H   0  0  0  0  0  0  0  0  0  0  0  0
  152.4429  138.8512  156.7852 H   0  0  0  0  0  0  0  0  0  0  0  0
  150.1759  138.2338  158.2368 H   0  0  0  0  0  0  0  0  0  0  0  0
  150.6285  139.8879  157.8447 H   0  0  0  0  0  0  0  0  0  0  0  0
  148.4332  139.7881  156.9417 H   0  0  0  0  0  0  0  0  0  0  0  0
  148.6286  138.1322  156.4143 H   0  0  0  0  0  0  0  0  0  0  0  0
  1  2  1  0  0  0  0
  1 23  1  0  0  0  0
  1 24  1  0  0  0  0
  1 25  1  0  0  0  0
  2 22  1  0  0  0  0
  2  3  2  0  0  0  0
  3  4  1  0  0  0  0
  3 26  1  0  0  0  0
  4  5  2  0  0  0  0
  4 27  1  0  0  0  0
  5  6  1  0  0  0  0
  5 28  1  0  0  0  0
  6  7  1  0  0  0  0
  6 22  2  0  0  0  0
  7  8  1  0  0  0  0
  7 29  1  0  0  0  0
  8  9  2  0  0  0  0
  8 10  1  0  0  0  0
 10 11  1  0  0  0  0
 10 30  1  0  0  0  0
 11 17  1  0  0  0  0
 11 12  1  0  0  0  0
 11 31  1  0  0  0  0
 12 16  1  0  0  0  0
 12 13  1  0  0  0  0
 12 32  1  0  0  0  0
 13 14  1  0  0  0  0
 13 33  1  0  0  0  0
 13 34  1  0  0  0  0
 14 15  1  0  0  0  0
 14 35  1  0  0  0  0
 14 36  1  0  0  0  0
 15 16  1  0  0  0  0
 16 17  1  0  0  0  0
 16 37  1  0  0  0  0
 17 21  1  0  0  0  0
 17 18  1  0  0  0  0
 18 19  1  0  0  0  0
 18 38  1  0  0  0  0
 18 39  1  0  0  0  0
 19 20  1  0  0  0  0
 19 40  1  0  0  0  0
 19 41  1  0  0  0  0
 20 21  1  0  0  0  0
 20 42  1  0  0  0  0
 20 43  1  0  0  0  0
 21 44  1  0  0  0  0
 21 45  1  0  0  0  0
M  END
> <s_m_source_file>
AV-unprocessed.smi

> <i_m_source_file_index>
2329

> <i_lp_mmshare_version>
43012

> <i_f3d_flags>
0

> <s_epik_input>
W0NIM11jMVtjSF1bY0hdW2NIXWMobjEpW05IXUMoPU8pW05IXVtDQEBIXTJbQ0BASF0oW0NIMl1bQ0gyXU8zKVtDQEhdM0MyNFtDSDJdW0NIMl1bQ0gyXVtDSDJdNA==

> <s_epik_cmdline>
J2VwaWtfcHl0aG9uJywgJy1waCcsICc3LjAnLCAnLXRuJywgJzgnLCAnLW1hJywgJzIwMCcsICctbWV0YWxfYmluZGluZycsICctaW1hZScsICc8aW5maWxlLm1hZT4nLCAnLW9tYWUnLCAnPG91dGZpbGUubWFlPic=

> <r_lp_tautomer_probability>
1

> <r_epik_Ionization_Penalty>
8.97002e-05

> <r_epik_Ionization_Penalty_Charging>
0

> <r_epik_Ionization_Penalty_Neutral>
8.97002e-05

> <r_epik_State_Penalty>
-0

> <r_epik_Charging_Adjusted_Penalty>
0

> <i_epik_Tot_Q>
0

> <i_epik_Tot_abs_Q>
0

> <r_epik_Metal_State_Penalty>
-0

> <b_epik_Metal_Only>
0

> <s_lp_Force_Field>
OPLS_2005

> <r_lp_Energy>
86.3971

> <b_lp_Chiralities_Consistent>
1

> <s_lp_Variant>
AV-unprocessed.smi:2329-1

> <Gold.Version>
5.8.1

> <Gold.Id.Protein>
6NUR|6NUR_protein|mol2

> <Gold.PLP.Fitness>
43.0079

> <Gold.PLP.PLP>
-40.7109

> <Gold.PLP.part.hbond>
-2.0000

> <Gold.PLP.part.metal>
0.0000

> <Gold.PLP.part.buried>
-2.7906

> <Gold.PLP.part.nonpolar>
-35.3685

> <Gold.PLP.part.repulsive>
0.3711

> <Gold.PLP.ligand.clash>
0.0000

> <Gold.PLP.ligand.torsion>
0.5065

> <Gold.PLP.Chemscore.Hbond>
1.0101

> <Gold.PLP.Chemscore.CHOScore>
0.0000

> <Gold.PLP.Chemscore.Metal>
0.0000

> <Gold.Chemscore.Hbonds>
donor molecule, donor type, donor heavy atom, donor atom, acceptor molecule, acceptor atom, score
      L1  H     7    29       P1  8028  0.44
      L1  H    10    30       P1  8028  0.43

> <Gold.PLP.Chemscore.Internal.Correction>
0.2796

> <Gold.Rescore>
     Score         DG    S(hbond)    S(metal)    S(lipo)     H(rot)  DE(clash)    DE(int)     intcor
     13.68     -21.43       1.56        0.00     113.66       1.00       2.58       5.18       ----

> <Gold.Chemscore.Fitness>
13.6783

> <Gold.Chemscore.DG>
-21.4342

> <Gold.Chemscore.ZeroCoef>
-5.4800

> <Gold.Chemscore.Hbond>
1.5618

> <Gold.Chemscore.Metal>
0.0000

> <Gold.Chemscore.Lipo>
113.6562

> <Gold.Chemscore.Internal_Hbond>
0.0000

> <Gold.Chemscore.DEClash>
2.5767

> <Gold.Chemscore.DEInternal>
5.1792

> <Gold.Chemscore.Rot>
1.0000

> <Gold.Chemscore.Internal.Correction>
   9.000000E+99

> <Gold.Chemscore.Hbonds>
donor molecule, donor type, donor heavy atom, donor atom, acceptor molecule, acceptor atom, score
      L1  H     7    29       P1  8028  0.16
      L1  H    10    30       P1  8028  0.42

> <Gold.Chemscore.Hbond.Weighted>
-5.2164

> <Gold.Chemscore.Metal.Weighted>
-0.0000

> <Gold.Chemscore.Lipo.Weighted>
-13.2978

> <Gold.Chemscore.Internal_Hbond.Weighted>
0.0000

> <Gold.Chemscore.DEClash.Weighted>
2.5767

> <Gold.Chemscore.DEInternal.Weighted>
5.1792

> <Gold.Chemscore.Rot.Weighted>
2.5600

> <Gold.Chemscore.Internal.Correction.Weighted>
   9.000000E+99

> <Gold.Protein.RotatedTorsions>
[ 6907 6896 6895 6894 ] final   74.04 input  -60.11 | X-H torsion
[ 7974 7965 7964 7962 ] final -114.33 input  175.53 | X-H torsion
[ 8008 7997 7996 7995 ] final  -66.81 input   59.86 | X-H torsion
[ 10167 10162 10161 10158 ] final  126.67 input  -65.29 | X-H torsion
[ 10718 10713 10712 10709 ] final  -37.01 input   66.30 | X-H torsion
[ 10763 10752 10751 10750 ] final  -45.66 input  -60.55 | X-H torsion
[ 11005 11000 10999 10996 ] final  -76.00 input  -57.11 | X-H torsion

> <Gold.Protein.ActiveResidues>
 VAL166  LYS551  ARG553  GLY616  TRP617  ASP618  TYR619  PRO620  LYS621  CYS622 
 ASP623  PHE694  ASN695  SER759  ASP760  ASP761  ALA762  ILE779  LEU786  VAL792 
 PHE793  MET794  SER795  GLU796  ALA797  LYS798  CYS799  TRP800  GLU811  SER814 

> <Gold.Protein.RotatedAtoms>
  152.4955  134.4331  159.9518 H   0  0  0  0  0  0  0  0  0  0  0  0  # atno 6907 bound_to 6896
  151.4311  133.3664  159.2776 H   0  0  0  0  0  0  0  0  0  0  0  0  # atno 6908 bound_to 6896
  150.9154  134.8595  159.7513 H   0  0  0  0  0  0  0  0  0  0  0  0  # atno 6909 bound_to 6896
  145.1214  140.8671  143.3811 H   0  0  0  0  0  0  0  0  0  0  0  0  # atno 7974 bound_to 7965
  154.4758  140.0905  156.7259 H   0  0  0  0  0  0  0  0  0  0  0  0  # atno 8008 bound_to 7997
  155.4600  140.3460  155.4293 H   0  0  0  0  0  0  0  0  0  0  0  0  # atno 8009 bound_to 7997
  156.1114  140.1449  156.9321 H   0  0  0  0  0  0  0  0  0  0  0  0  # atno 8010 bound_to 7997
  139.5619  144.6887  151.4019 H   0  0  0  0  0  0  0  0  0  0  0  0  # atno 10167 bound_to 10162
  156.3202  130.4264  149.7967 H   0  0  0  0  0  0  0  0  0  0  0  0  # atno 10718 bound_to 10713
  154.0322  135.6655  153.4782 H   0  0  0  0  0  0  0  0  0  0  0  0  # atno 10763 bound_to 10752
  153.0535  135.5070  154.7922 H   0  0  0  0  0  0  0  0  0  0  0  0  # atno 10764 bound_to 10752
  154.6871  135.3055  154.9497 H   0  0  0  0  0  0  0  0  0  0  0  0  # atno 10765 bound_to 10752
  141.1650  133.6967  156.7603 H   0  0  0  0  0  0  0  0  0  0  0  0  # atno 11005 bound_to 11000
  145.0736  139.3013  143.5819 LP  0  0  0  0  0  0  0  0  0  0  0  0  # atno 17320 bound_to 7965
  146.3520  140.0219  142.8658 LP  0  0  0  0  0  0  0  0  0  0  0  0  # atno 17321 bound_to 7965
  140.6899  143.7885  150.7240 LP  0  0  0  0  0  0  0  0  0  0  0  0  # atno 17342 bound_to 10162
  140.1364  143.4480  152.2221 LP  0  0  0  0  0  0  0  0  0  0  0  0  # atno 17343 bound_to 10162
  156.5278  130.8244  151.3226 LP  0  0  0  0  0  0  0  0  0  0  0  0  # atno 17370 bound_to 10713
  157.7410  130.9861  150.2416 LP  0  0  0  0  0  0  0  0  0  0  0  0  # atno 17371 bound_to 10713
  140.2539  134.8519  157.3694 LP  0  0  0  0  0  0  0  0  0  0  0  0  # atno 17394 bound_to 11000
  140.1676  134.4649  155.7853 LP  0  0  0  0  0  0  0  0  0  0  0  0  # atno 17395 bound_to 11000

$$$$
