AV-unprocessed.smi:1986|AV-procd|sdf|8051|dock2
  -GOLD-   2272010253D 1   1.00000     0.00000
 Structure written by MMmdl.
 47 48  0  0  0  0  0  0  0  0  1 V2000
  147.4699  141.0538  153.3594 C   0  0  0  0  0  0  0  0  0  0  0  0
  146.5048  139.9043  153.7025 C   0  0  0  0  0  0  0  0  0  0  0  0
  147.1382  138.6942  154.4601 C   0  0  2  0  0  0  0  0  0  0  0  0
  148.4883  138.3944  153.7532 C   0  0  0  0  0  0  0  0  0  0  0  0
  146.1930  137.4603  154.2846 C   0  0  0  0  0  0  0  0  0  0  0  0
  146.2737  136.8357  152.9639 N   0  0  0  0  0  0  0  0  0  0  0  0
  145.2352  136.3717  152.2518 C   0  0  0  0  0  0  0  0  0  0  0  0
  144.0661  136.4582  152.6300 O   0  0  0  0  0  0  0  0  0  0  0  0
  145.5824  135.7120  150.9096 C   0  0  0  0  0  0  0  0  0  0  0  0
  145.3478  134.2610  150.9086 N   0  0  0  0  0  0  0  0  0  0  0  0
  144.3855  133.8506  149.9981 N   0  0  0  0  0  0  0  0  0  0  0  0
  144.1040  132.5976  149.8770 C   0  0  0  0  0  0  0  0  0  0  0  0
  143.1478  132.2358  148.9599 O   0  0  0  0  0  0  0  0  0  0  0  0
  144.7729  131.5992  150.6820 C   0  0  0  0  0  0  0  0  0  0  0  0
  145.7068  132.0087  151.5683 C   0  0  0  0  0  0  0  0  0  0  0  0
  146.0542  133.4221  151.7274 C   0  0  0  0  0  0  0  0  0  0  0  0
  146.9073  133.8199  152.5201 O   0  0  0  0  0  0  0  0  0  0  0  0
  147.3679  139.0221  155.8961 N   0  0  0  0  0  0  0  0  0  0  0  0
  148.2234  140.1894  156.1423 C   0  0  0  0  0  0  0  0  0  0  0  0
  148.2917  140.5483  157.6365 C   0  0  0  0  0  0  0  0  0  0  0  0
  148.7521  139.4258  158.3790 O   0  0  0  0  0  0  0  0  0  0  0  0
  147.9176  138.2860  158.2128 C   0  0  0  0  0  0  0  0  0  0  0  0
  147.8480  137.9086  156.7233 C   0  0  0  0  0  0  0  0  0  0  0  0
  142.4706  132.8909  149.0296 H   0  0  0  0  0  0  0  0  0  0  0  0
  146.9390  141.8558  152.8465 H   0  0  0  0  0  0  0  0  0  0  0  0
  148.2730  140.7251  152.7002 H   0  0  0  0  0  0  0  0  0  0  0  0
  147.9232  141.4844  154.2523 H   0  0  0  0  0  0  0  0  0  0  0  0
  145.6662  140.3083  154.2696 H   0  0  0  0  0  0  0  0  0  0  0  0
  146.0598  139.5659  152.7662 H   0  0  0  0  0  0  0  0  0  0  0  0
  148.3930  138.3943  152.6669 H   0  0  0  0  0  0  0  0  0  0  0  0
  148.8828  137.4157  154.0269 H   0  0  0  0  0  0  0  0  0  0  0  0
  149.2493  139.1331  154.0062 H   0  0  0  0  0  0  0  0  0  0  0  0
  146.3783  136.7107  155.0540 H   0  0  0  0  0  0  0  0  0  0  0  0
  145.1529  137.7586  154.4113 H   0  0  0  0  0  0  0  0  0  0  0  0
  147.1982  136.7266  152.5728 H   0  0  0  0  0  0  0  0  0  0  0  0
  145.0129  136.2043  150.1198 H   0  0  0  0  0  0  0  0  0  0  0  0
  146.6306  135.9082  150.6750 H   0  0  0  0  0  0  0  0  0  0  0  0
  144.5251  130.5538  150.5714 H   0  0  0  0  0  0  0  0  0  0  0  0
  146.2142  131.2742  152.1763 H   0  0  0  0  0  0  0  0  0  0  0  0
  149.2348  140.0015  155.7824 H   0  0  0  0  0  0  0  0  0  0  0  0
  147.8549  141.0639  155.6092 H   0  0  0  0  0  0  0  0  0  0  0  0
  148.9733  141.3841  157.7942 H   0  0  0  0  0  0  0  0  0  0  0  0
  147.3128  140.8604  158.0037 H   0  0  0  0  0  0  0  0  0  0  0  0
  148.3249  137.4588  158.7939 H   0  0  0  0  0  0  0  0  0  0  0  0
  146.9211  138.4941  158.6058 H   0  0  0  0  0  0  0  0  0  0  0  0
  147.1969  137.0416  156.6294 H   0  0  0  0  0  0  0  0  0  0  0  0
  148.8402  137.5963  156.3978 H   0  0  0  0  0  0  0  0  0  0  0  0
  1  2  1  0  0  0  0
  1 25  1  0  0  0  0
  1 26  1  0  0  0  0
  1 27  1  0  0  0  0
  2  3  1  0  0  0  0
  2 28  1  0  0  0  0
  2 29  1  0  0  0  0
  3  4  1  0  0  0  0
  3  5  1  0  0  0  0
  3 18  1  0  0  0  0
  4 30  1  0  0  0  0
  4 31  1  0  0  0  0
  4 32  1  0  0  0  0
  5  6  1  0  0  0  0
  5 33  1  0  0  0  0
  5 34  1  0  0  0  0
  6  7  1  0  0  0  0
  6 35  1  0  0  0  0
  7  8  2  0  0  0  0
  7  9  1  0  0  0  0
  9 36  1  0  0  0  0
  9 37  1  0  0  0  0
  9 10  1  0  0  0  0
 10 11  1  0  0  0  0
 10 16  1  0  0  0  0
 11 12  2  0  0  0  0
 12 13  1  0  0  0  0
 12 14  1  0  0  0  0
 13 24  1  0  0  0  0
 14 38  1  0  0  0  0
 14 15  2  0  0  0  0
 15 39  1  0  0  0  0
 15 16  1  0  0  0  0
 16 17  2  0  0  0  0
 18 23  1  0  0  0  0
 18 19  1  0  0  0  0
 19 20  1  0  0  0  0
 19 40  1  0  0  0  0
 19 41  1  0  0  0  0
 20 21  1  0  0  0  0
 20 42  1  0  0  0  0
 20 43  1  0  0  0  0
 21 22  1  0  0  0  0
 22 23  1  0  0  0  0
 22 44  1  0  0  0  0
 22 45  1  0  0  0  0
 23 46  1  0  0  0  0
 23 47  1  0  0  0  0
M  END
> <s_m_source_file>
AV-unprocessed.smi

> <i_m_source_file_index>
1986

> <i_lp_mmshare_version>
43012

> <i_f3d_flags>
0

> <s_epik_input>
W0NIMl0xW0NIMl1PW0NIMl1bQ0gyXU4xW0NAQF0oW0NIM10pKFtDSDJdW0NIM10pW0NIMl1bTkhdQyg9TylbQ0gyXW4yW25IXWMoPU8pW2NIXVtjSF1jMj1P

> <s_epik_cmdline>
J2VwaWtfcHl0aG9uJywgJy1waCcsICc3LjAnLCAnLXRuJywgJzgnLCAnLW1hJywgJzIwMCcsICctbWV0YWxfYmluZGluZycsICctaW1hZScsICc8aW5maWxlLm1hZT4nLCAnLW9tYWUnLCAnPG91dGZpbGUubWFlPic=

> <r_epik_Ionization_Penalty>
2.44436

> <r_epik_Ionization_Penalty_Charging>
3.63754e-08

> <r_epik_Ionization_Penalty_Neutral>
2.44436

> <r_epik_State_Penalty>
2.04701

> <r_epik_Charging_Adjusted_Penalty>
2.04701

> <i_epik_Tot_Q>
0

> <i_epik_Tot_abs_Q>
0

> <r_epik_Metal_State_Penalty>
2.04701

> <b_epik_Metal_Only>
0

> <s_lp_Force_Field>
OPLS_2005

> <r_lp_Energy>
53.8062

> <b_lp_Chiralities_Consistent>
1

> <s_lp_Variant>
AV-unprocessed.smi:1986-6

> <Gold.Version>
5.8.1

> <Gold.Id.Protein>
6NUR|6NUR_protein|mol2

> <Gold.PLP.Fitness>
35.8601

> <Gold.PLP.PLP>
-29.2058

> <Gold.PLP.part.hbond>
-3.9090

> <Gold.PLP.part.metal>
0.0000

> <Gold.PLP.part.buried>
-4.5092

> <Gold.PLP.part.nonpolar>
-22.1665

> <Gold.PLP.part.repulsive>
1.1587

> <Gold.PLP.ligand.clash>
0.0000

> <Gold.PLP.ligand.torsion>
0.7218

> <Gold.PLP.Chemscore.Hbond>
2.6175

> <Gold.PLP.Chemscore.CHOScore>
0.0000

> <Gold.PLP.Chemscore.Metal>
0.0000

> <Gold.Chemscore.Hbonds>
donor molecule, donor type, donor heavy atom, donor atom, acceptor molecule, acceptor atom, score
      L1  H     6    35       P1  7948  1.00
      L1  H    13    24       P1 10186  0.65
      P1  H 10785 10796       L1    13  0.81

> <Gold.PLP.Chemscore.Internal.Correction>
0.2453

> <Gold.Rescore>
     Score         DG    S(hbond)    S(metal)    S(lipo)     H(rot)  DE(clash)    DE(int)     intcor
      9.08     -12.32       2.54        0.00      52.81       3.06       1.63       1.61       ----

> <Gold.Chemscore.Fitness>
9.0753

> <Gold.Chemscore.DG>
-12.3163

> <Gold.Chemscore.ZeroCoef>
-5.4800

> <Gold.Chemscore.Hbond>
2.5436

> <Gold.Chemscore.Metal>
0.0000

> <Gold.Chemscore.Lipo>
52.8143

> <Gold.Chemscore.Internal_Hbond>
0.0000

> <Gold.Chemscore.DEClash>
1.6308

> <Gold.Chemscore.DEInternal>
1.6102

> <Gold.Chemscore.Rot>
3.0620

> <Gold.Chemscore.Internal.Correction>
   9.000000E+99

> <Gold.Chemscore.Hbonds>
donor molecule, donor type, donor heavy atom, donor atom, acceptor molecule, acceptor atom, score
      L1  H     6    35       P1  7948  0.99
      L1  H    13    24       P1 10186  0.65
      P1  H 10785 10796       L1    13  0.54

> <Gold.Chemscore.Hbond.Weighted>
-8.4957

> <Gold.Chemscore.Metal.Weighted>
-0.0000

> <Gold.Chemscore.Lipo.Weighted>
-6.1793

> <Gold.Chemscore.Internal_Hbond.Weighted>
0.0000

> <Gold.Chemscore.DEClash.Weighted>
1.6308

> <Gold.Chemscore.DEInternal.Weighted>
1.6102

> <Gold.Chemscore.Rot.Weighted>
7.8387

> <Gold.Chemscore.Internal.Correction.Weighted>
   9.000000E+99

> <Gold.Protein.RotatedTorsions>
[ 6907 6896 6895 6894 ] final  -58.25 input  -60.11 | X-H torsion
[ 7974 7965 7964 7962 ] final   96.31 input  175.53 | X-H torsion
[ 8008 7997 7996 7995 ] final   52.12 input   59.86 | X-H torsion
[ 10167 10162 10161 10158 ] final  169.27 input  -65.29 | X-H torsion
[ 10718 10713 10712 10709 ] final -159.92 input   66.30 | X-H torsion
[ 10763 10752 10751 10750 ] final   24.33 input  -60.55 | X-H torsion
[ 11005 11000 10999 10996 ] final -146.60 input  -57.11 | X-H torsion

> <Gold.Protein.ActiveResidues>
 VAL166  LYS551  ARG553  GLY616  TRP617  ASP618  TYR619  PRO620  LYS621  CYS622 
 ASP623  PHE694  ASN695  SER759  ASP760  ASP761  ALA762  ILE779  LEU786  VAL792 
 PHE793  MET794  SER795  GLU796  ALA797  LYS798  CYS799  TRP800  GLU811  SER814 

> <Gold.Protein.RotatedAtoms>
  150.8022  134.7123  159.6610 H   0  0  0  0  0  0  0  0  0  0  0  0  # atno 6907 bound_to 6896
  152.4139  134.6072  160.0026 H   0  0  0  0  0  0  0  0  0  0  0  0  # atno 6908 bound_to 6896
  151.6307  133.3295  159.3144 H   0  0  0  0  0  0  0  0  0  0  0  0  # atno 6909 bound_to 6896
  145.4405  139.2301  143.3094 H   0  0  0  0  0  0  0  0  0  0  0  0  # atno 7974 bound_to 7965
  155.4466  140.3456  155.4296 H   0  0  0  0  0  0  0  0  0  0  0  0  # atno 8008 bound_to 7997
  156.1246  140.1497  156.9185 H   0  0  0  0  0  0  0  0  0  0  0  0  # atno 8009 bound_to 7997
  154.4849  140.0858  156.7442 H   0  0  0  0  0  0  0  0  0  0  0  0  # atno 8010 bound_to 7997
  139.4988  144.3724  151.9710 H   0  0  0  0  0  0  0  0  0  0  0  0  # atno 10167 bound_to 10162
  156.5748  130.8704  151.2848 H   0  0  0  0  0  0  0  0  0  0  0  0  # atno 10718 bound_to 10713
  153.0772  135.6607  154.0121 H   0  0  0  0  0  0  0  0  0  0  0  0  # atno 10763 bound_to 10752
  153.9752  135.2960  155.3426 H   0  0  0  0  0  0  0  0  0  0  0  0  # atno 10764 bound_to 10752
  154.7163  135.5184  153.8813 H   0  0  0  0  0  0  0  0  0  0  0  0  # atno 10765 bound_to 10752
  140.7803  134.3086  157.5047 H   0  0  0  0  0  0  0  0  0  0  0  0  # atno 11005 bound_to 11000
  146.2559  140.5153  142.8874 LP  0  0  0  0  0  0  0  0  0  0  0  0  # atno 17320 bound_to 7965
  144.8124  140.6409  143.6406 LP  0  0  0  0  0  0  0  0  0  0  0  0  # atno 17321 bound_to 7965
  140.3161  144.3482  150.6021 LP  0  0  0  0  0  0  0  0  0  0  0  0  # atno 17342 bound_to 10162
  140.5760  143.2176  151.7514 LP  0  0  0  0  0  0  0  0  0  0  0  0  # atno 17343 bound_to 10162
  157.7340  130.9739  150.2006 LP  0  0  0  0  0  0  0  0  0  0  0  0  # atno 17370 bound_to 10713
  156.2683  130.3719  149.8058 LP  0  0  0  0  0  0  0  0  0  0  0  0  # atno 17371 bound_to 10713
  139.8743  134.9314  156.3528 LP  0  0  0  0  0  0  0  0  0  0  0  0  # atno 17394 bound_to 11000
  140.9488  133.7464  156.0245 LP  0  0  0  0  0  0  0  0  0  0  0  0  # atno 17395 bound_to 11000

$$$$
