AV-unprocessed.smi:1385|AV-procd|sdf|5634|dock1
  -GOLD-   22720 5253D 1   1.00000     0.00000
 Structure written by MMmdl.
 38 39  0  0  0  0  0  0  0  0  3 V2000
  137.7297  137.1393  154.0284 C   0  0  0  0  0  0  0  0  0  0  0  0
  139.2113  137.2390  154.1580 C   0  0  0  0  0  0  0  0  0  0  0  0
  139.9417  136.3356  154.8230 N   0  0  0  0  0  0  0  0  0  0  0  0
  141.2966  136.6358  154.8017 N   0  0  0  0  0  0  0  0  0  0  0  0
  141.5488  137.7596  154.1162 C   0  0  0  0  0  0  0  0  0  0  0  0
  142.8508  138.2955  153.9305 N   0  0  0  0  0  0  0  0  0  0  0  0
  143.9751  138.0064  154.6094 C   0  0  0  0  0  0  0  0  0  0  0  0
  144.0566  137.2154  155.5495 O   0  0  0  0  0  0  0  0  0  0  0  0
  145.0218  138.6961  154.1327 N   0  0  0  0  0  0  0  0  0  0  0  0
  146.3882  138.6026  154.6389 C   0  0  2  0  0  0  0  0  0  0  0  0
  147.3880  139.2187  153.6433 C   0  0  0  0  0  0  0  0  0  0  0  0
  148.8364  139.0335  154.1251 C   0  0  0  0  0  0  0  0  0  0  0  0
  149.1465  137.5973  154.3604 N   0  3  1  0  0  0  0  0  0  0  0  0
  150.5696  137.3556  154.7054 C   0  0  0  0  0  0  0  0  0  0  0  0
  150.7519  135.9232  155.2179 C   0  0  0  0  0  0  0  0  0  0  0  0
  151.6783  135.8383  156.1913 N   0  5  0  0  0  0  0  0  0  0  0  0
  150.0913  135.0127  154.7220 O   0  0  0  0  0  0  0  0  0  0  0  0
  148.2158  136.9919  155.3465 C   0  0  0  0  0  0  0  0  0  0  0  0
  146.7542  137.1310  154.8890 C   0  0  0  0  0  0  0  0  0  0  0  0
  140.1362  138.5522  153.4396 S   0  0  0  0  0  0  0  0  0  0  0  0
  137.3078  136.5993  154.8766 H   0  0  0  0  0  0  0  0  0  0  0  0
  137.4719  136.6093  153.1114 H   0  0  0  0  0  0  0  0  0  0  0  0
  137.2865  138.1347  153.9947 H   0  0  0  0  0  0  0  0  0  0  0  0
  142.9372  138.9688  153.1837 H   0  0  0  0  0  0  0  0  0  0  0  0
  144.8644  139.3244  153.3585 H   0  0  0  0  0  0  0  0  0  0  0  0
  146.4547  139.1375  155.5884 H   0  0  0  0  0  0  0  0  0  0  0  0
  147.2706  138.7556  152.6623 H   0  0  0  0  0  0  0  0  0  0  0  0
  147.1821  140.2812  153.5094 H   0  0  0  0  0  0  0  0  0  0  0  0
  149.5135  139.4489  153.3783 H   0  0  0  0  0  0  0  0  0  0  0  0
  148.9997  139.5974  155.0448 H   0  0  0  0  0  0  0  0  0  0  0  0
  151.2151  137.5874  153.8552 H   0  0  0  0  0  0  0  0  0  0  0  0
  150.8757  138.0195  155.5150 H   0  0  0  0  0  0  0  0  0  0  0  0
  151.3669  135.8475  157.1701 H   0  0  0  0  0  0  0  0  0  0  0  0
  148.4505  135.9343  155.4733 H   0  0  0  0  0  0  0  0  0  0  0  0
  148.3548  137.4669  156.3191 H   0  0  0  0  0  0  0  0  0  0  0  0
  146.0909  136.7028  155.6415 H   0  0  0  0  0  0  0  0  0  0  0  0
  146.6047  136.5500  153.9774 H   0  0  0  0  0  0  0  0  0  0  0  0
  148.9909  137.1150  153.4867 H   0  0  0  0  0  0  0  0  0  0  0  0
  1  2  1  0  0  0  0
  1 21  1  0  0  0  0
  1 22  1  0  0  0  0
  1 23  1  0  0  0  0
  2 20  1  0  0  0  0
  2  3  2  0  0  0  0
  3  4  1  0  0  0  0
  4  5  2  0  0  0  0
  5  6  1  0  0  0  0
  5 20  1  0  0  0  0
  6  7  1  0  0  0  0
  6 24  1  0  0  0  0
  7  8  2  0  0  0  0
  7  9  1  0  0  0  0
  9 10  1  0  0  0  0
  9 25  1  0  0  0  0
 10 19  1  0  0  0  0
 10 11  1  0  0  0  0
 10 26  1  0  0  0  0
 11 12  1  0  0  0  0
 11 27  1  0  0  0  0
 11 28  1  0  0  0  0
 12 13  1  0  0  0  0
 12 29  1  0  0  0  0
 12 30  1  0  0  0  0
 13 14  1  0  0  0  0
 13 18  1  0  0  0  0
 13 38  1  0  0  0  0
 14 15  1  0  0  0  0
 14 31  1  0  0  0  0
 14 32  1  0  0  0  0
 15 16  1  0  0  0  0
 15 17  2  0  0  0  0
 16 33  1  0  0  0  0
 18 19  1  0  0  0  0
 18 34  1  0  0  0  0
 18 35  1  0  0  0  0
 19 36  1  0  0  0  0
 19 37  1  0  0  0  0
M  CHG  1  13   1
M  CHG  1  16  -1
M  END
> <s_m_source_file>
AV-unprocessed.smi

> <i_m_source_file_index>
1385

> <i_lp_mmshare_version>
43012

> <i_f3d_flags>
0

> <s_epik_input>
W0NIM11jMW5uYyhzMSlbTkhdQyg9TylbTkhdW0NIXTJbQ0gyXVtDSDJdTihbQ0gyXVtDSDJdMilbQ0gyXUMoPU8pW05IMl0=

> <s_epik_cmdline>
J2VwaWtfcHl0aG9uJywgJy1waCcsICc3LjAnLCAnLXRuJywgJzgnLCAnLW1hJywgJzIwMCcsICctbWV0YWxfYmluZGluZycsICctaW1hZScsICc8aW5maWxlLm1hZT4nLCAnLW9tYWUnLCAnPG91dGZpbGUubWFlPic=

> <r_lp_tautomer_probability>
1

> <r_epik_Ionization_Penalty>
5.73549

> <r_epik_Ionization_Penalty_Charging>
5.73152

> <r_epik_Ionization_Penalty_Neutral>
0.00396448

> <r_epik_State_Penalty>
6.57436

> <r_epik_Charging_Adjusted_Penalty>
12.3059

> <i_epik_Tot_Q>
0

> <i_epik_Tot_abs_Q>
2

> <r_epik_Metal_State_Penalty>
2.87628

> <b_epik_Metal_Only>
1

> <s_lp_Force_Field>
OPLS_2005

> <r_lp_Energy>
6.06006

> <b_lp_Chiralities_Consistent>
1

> <s_lp_Variant>
AV-unprocessed.smi:1385-7

> <Gold.Version>
5.8.1

> <Gold.Id.Protein>
6NUR|6NUR_protein|mol2

> <Gold.PLP.Fitness>
44.2837

> <Gold.PLP.PLP>
-24.8908

> <Gold.PLP.part.hbond>
-5.2510

> <Gold.PLP.part.metal>
0.0000

> <Gold.PLP.part.buried>
-3.9939

> <Gold.PLP.part.nonpolar>
-15.9195

> <Gold.PLP.part.repulsive>
0.2628

> <Gold.PLP.ligand.clash>
0.0000

> <Gold.PLP.ligand.torsion>
0.7332

> <Gold.PLP.Chemscore.Hbond>
6.9440

> <Gold.PLP.Chemscore.CHOScore>
0.0000

> <Gold.PLP.Chemscore.Metal>
0.0000

> <Gold.Chemscore.Hbonds>
donor molecule, donor type, donor heavy atom, donor atom, acceptor molecule, acceptor atom, score
      L1  H     6    24       P1 10175  1.00
      L1  H     9    25       P1 10175  0.94
      L1  H    13    38       P1  7948  2.00
      P1  H 10752 10763       L1    16  2.00
      P1  H 11000 11005       L1     3  1.00

> <Gold.PLP.Chemscore.Internal.Correction>
0.0273

> <Gold.Rescore>
     Score         DG    S(hbond)    S(metal)    S(lipo)     H(rot)  DE(clash)    DE(int)     intcor
     15.23     -20.25       4.40        0.00      45.16       2.04       0.14       4.88       ----

> <Gold.Chemscore.Fitness>
15.2260

> <Gold.Chemscore.DG>
-20.2460

> <Gold.Chemscore.ZeroCoef>
-5.4800

> <Gold.Chemscore.Hbond>
4.4001

> <Gold.Chemscore.Metal>
0.0000

> <Gold.Chemscore.Lipo>
45.1627

> <Gold.Chemscore.Internal_Hbond>
0.0000

> <Gold.Chemscore.DEClash>
0.1449

> <Gold.Chemscore.DEInternal>
4.8751

> <Gold.Chemscore.Rot>
2.0369

> <Gold.Chemscore.Internal.Correction>
   9.000000E+99

> <Gold.Chemscore.Hbonds>
donor molecule, donor type, donor heavy atom, donor atom, acceptor molecule, acceptor atom, score
      L1  H     6    24       P1 10175  0.97
      L1  H     9    25       P1 10175  0.91
      L1  H    13    38       P1  7948  1.00
      P1  H 10752 10763       L1    16  0.39
      P1  H 11000 11005       L1     3  0.25

> <Gold.Chemscore.Hbond.Weighted>
-14.6964

> <Gold.Chemscore.Metal.Weighted>
-0.0000

> <Gold.Chemscore.Lipo.Weighted>
-5.2840

> <Gold.Chemscore.Internal_Hbond.Weighted>
0.0000

> <Gold.Chemscore.DEClash.Weighted>
0.1449

> <Gold.Chemscore.DEInternal.Weighted>
4.8751

> <Gold.Chemscore.Rot.Weighted>
5.2144

> <Gold.Chemscore.Internal.Correction.Weighted>
   9.000000E+99

> <Gold.Protein.RotatedTorsions>
[ 6907 6896 6895 6894 ] final  -37.67 input  -60.11 | X-H torsion
[ 7974 7965 7964 7962 ] final  -34.41 input  175.53 | X-H torsion
[ 8008 7997 7996 7995 ] final  132.82 input   59.86 | X-H torsion
[ 10167 10162 10161 10158 ] final   24.22 input  -65.29 | X-H torsion
[ 10718 10713 10712 10709 ] final  113.87 input   66.30 | X-H torsion
[ 10763 10752 10751 10750 ] final  103.64 input  -60.55 | X-H torsion
[ 11005 11000 10999 10996 ] final   75.38 input  -57.11 | X-H torsion

> <Gold.Protein.ActiveResidues>
 VAL166  LYS551  ARG553  GLY616  TRP617  ASP618  TYR619  PRO620  LYS621  CYS622 
 ASP623  PHE694  ASN695  SER759  ASP760  ASP761  ALA762  ILE779  LEU786  VAL792 
 PHE793  MET794  SER795  GLU796  ALA797  LYS798  CYS799  TRP800  GLU811  SER814 

> <Gold.Protein.RotatedAtoms>
  151.0119  134.9403  159.8011 H   0  0  0  0  0  0  0  0  0  0  0  0  # atno 6907 bound_to 6896
  152.5304  134.3017  159.9091 H   0  0  0  0  0  0  0  0  0  0  0  0  # atno 6908 bound_to 6896
  151.3023  133.4075  159.2675 H   0  0  0  0  0  0  0  0  0  0  0  0  # atno 6909 bound_to 6896
  146.0831  140.6036  142.8899 H   0  0  0  0  0  0  0  0  0  0  0  0  # atno 7974 bound_to 7965
  156.2986  140.2537  156.3152 H   0  0  0  0  0  0  0  0  0  0  0  0  # atno 8008 bound_to 7997
  154.9288  140.0399  157.2056 H   0  0  0  0  0  0  0  0  0  0  0  0  # atno 8009 bound_to 7997
  154.8238  140.2864  155.5773 H   0  0  0  0  0  0  0  0  0  0  0  0  # atno 8010 bound_to 7997
  140.5206  144.0009  150.6415 H   0  0  0  0  0  0  0  0  0  0  0  0  # atno 10167 bound_to 10162
  157.6313  131.0990  150.7104 H   0  0  0  0  0  0  0  0  0  0  0  0  # atno 10718 bound_to 10713
  153.3554  135.3970  155.1678 H   0  0  0  0  0  0  0  0  0  0  0  0  # atno 10763 bound_to 10752
  154.8670  135.3666  154.5168 H   0  0  0  0  0  0  0  0  0  0  0  0  # atno 10764 bound_to 10752
  153.5623  135.7081  153.5602 H   0  0  0  0  0  0  0  0  0  0  0  0  # atno 10765 bound_to 10752
  139.9346  134.7513  156.1264 H   0  0  0  0  0  0  0  0  0  0  0  0  # atno 11005 bound_to 11000
  144.7307  140.4662  143.6940 LP  0  0  0  0  0  0  0  0  0  0  0  0  # atno 17320 bound_to 7965
  145.6180  139.1521  143.3038 LP  0  0  0  0  0  0  0  0  0  0  0  0  # atno 17321 bound_to 7965
  140.3357  143.3050  152.0641 LP  0  0  0  0  0  0  0  0  0  0  0  0  # atno 17342 bound_to 10162
  139.4922  144.6478  151.6740 LP  0  0  0  0  0  0  0  0  0  0  0  0  # atno 17343 bound_to 10162
  156.7443  130.4749  149.5470 LP  0  0  0  0  0  0  0  0  0  0  0  0  # atno 17370 bound_to 10713
  156.1519  130.6316  151.0607 LP  0  0  0  0  0  0  0  0  0  0  0  0  # atno 17371 bound_to 10713
  141.0953  133.6698  156.2632 LP  0  0  0  0  0  0  0  0  0  0  0  0  # atno 17394 bound_to 11000
  140.6110  134.5459  157.5533 LP  0  0  0  0  0  0  0  0  0  0  0  0  # atno 17395 bound_to 11000

$$$$
