#       Name:                AV-unprocessed.smi:2695
#       Creating user name   scv26
#       Creation time:       Fri Mar 27 14:44:15 2020


#       File generated by GOLD software.
#

@<TRIPOS>MOLECULE
AV-unprocessed.smi:2695
    45    46     1
SMALL
NO_CHARGES


@<TRIPOS>ATOM
      1 ****        -2.8048   1.6912   2.9526 C.3            1 S1                 0.0000
      2 ****        -2.9067   2.3680   1.5908 C.2            1 S1                 0.0000
      3 ****        -3.3940   3.6239   1.4845 C.2            1 S1                 0.0000
      4 ****        -3.4702   4.2772   0.2614 C.2            1 S1                 0.0000
      5 ****        -3.9232   5.4384   0.1569 O.co2          1 S1                -1.0000
      6 ****        -3.0075   3.5638  -0.8368 C.2            1 S1                 0.0000
      7 ****        -2.4655   2.2114  -0.7841 C.2            1 S1                 0.0000
      8 ****        -2.0550   1.6304  -1.7905 O.2            1 S1                 0.0000
      9 ****        -2.4540   1.6448   0.4553 N.am           1 S1                 0.0000
     10 ****        -1.9686   0.2522   0.5932 C.3            1 S1                 0.0000
     11 ****        -0.4422   0.1416   0.7254 C.2            1 S1                 0.0000
     12 ****         0.2475   1.1314   0.9739 O.2            1 S1                 0.0000
     13 ****         0.0656  -1.0891   0.5581 N.am           1 S1                 0.0000
     14 ****         1.4826  -1.4534   0.6114 C.3            1 S1                 0.0000
     15 ****         1.9399  -1.9360  -0.7895 C.3            1 S1                 0.0000
     16 ****         3.4449  -2.1950  -0.9298 C.3            1 S1                 0.0000
     17 ****         3.7230  -2.1721  -2.4365 C.3            1 S1                 0.0000
     18 ****         2.5854  -1.3609  -3.0724 C.3            1 S1                 0.0000
     19 ****         1.6692  -0.9343  -1.9214 C.3            1 S1                 0.0000
     20 ****         1.6866  -2.4974   1.7332 C.3            1 S1                 0.0000
     21 ****         1.2234  -2.0156   2.8873 F              1 S1                 0.0000
     22 ****         1.0356  -3.6266   1.4504 F              1 S1                 0.0000
     23 ****         2.9791  -2.7742   1.8996 F              1 S1                 0.0000
     24 ****        -2.9653   2.4118   3.7554 H              1 S1                 0.0000
     25 ****        -1.8194   1.2541   3.1142 H              1 S1                 0.0000
     26 ****        -3.5628   0.9143   3.0536 H              1 S1                 0.0000
     27 ****        -3.7291   4.1337   2.3766 H              1 S1                 0.0000
     28 ****        -3.0455   4.0358  -1.8080 H              1 S1                 0.0000
     29 ****        -2.4327  -0.2691   1.4285 H              1 S1                 0.0000
     30 ****        -2.2798  -0.3377  -0.2713 H              1 S1                 0.0000
     31 ****        -0.5828  -1.8392   0.3679 H              1 S1                 0.0000
     32 ****         2.0767  -0.5760   0.8728 H              1 S1                 0.0000
     33 ****         1.4146  -2.8609  -1.0338 H              1 S1                 0.0000
     34 ****         4.0059  -1.3944  -0.4457 H              1 S1                 0.0000
     35 ****         3.7552  -3.1374  -0.4780 H              1 S1                 0.0000
     36 ****         4.7020  -1.7442  -2.6542 H              1 S1                 0.0000
     37 ****         3.7167  -3.1878  -2.8339 H              1 S1                 0.0000
     38 ****         2.9579  -0.4972  -3.6240 H              1 S1                 0.0000
     39 ****         2.0365  -1.9864  -3.7777 H              1 S1                 0.0000
     40 ****         0.6205  -0.9098  -2.2203 H              1 S1                 0.0000
     41 ****         1.9401   0.0718  -1.5970 H              1 S1                 0.0000
     42 ****        -2.0875   2.0869  -2.6796 LP             1 S1                 0.0000
     43 ****        -1.6894   0.7024  -1.7179 LP             1 S1                 0.0000
     44 ****        -0.1850   2.0251   1.0930 LP             1 S1                 0.0000
     45 ****         1.2400   1.0413   1.0566 LP             1 S1                 0.0000
@<TRIPOS>BOND
    1    1    2 1     
    2    1   24 1     
    3    1   25 1     
    4    1   26 1     
    5    2    9 1     
    6    2    3 2     
    7    3    4 1     
    8    3   27 1     
    9    4    5 ar    
   10    4    6 2     
   11    6    7 1     
   12    6   28 1     
   13    7    8 2     
   14    7    9 am    
   15    9   10 1     
   16   10   11 1     
   17   10   29 1     
   18   10   30 1     
   19   11   12 2     
   20   11   13 am    
   21   13   14 1     
   22   13   31 1     
   23   14   15 1     
   24   14   20 1     
   25   14   32 1     
   26   15   19 1     
   27   15   16 1     
   28   15   33 1     
   29   16   17 1     
   30   16   34 1     
   31   16   35 1     
   32   17   18 1     
   33   17   36 1     
   34   17   37 1     
   35   18   19 1     
   36   18   38 1     
   37   18   39 1     
   38   19   40 1     
   39   19   41 1     
   40   20   21 1     
   41   20   22 1     
   42   20   23 1     
   43    8   42 1     
   44    8   43 1     
   45   12   44 1     
   46   12   45 1     
@<TRIPOS>SUBSTRUCTURE
      1 S1             1
@<TRIPOS>SET
LONE_PAIRS      STATIC     ATOMS    <user>   **** ""
5 5 42 43 44 45
DONOR_HYDROGENS      STATIC     ATOMS    <user>   **** ""
1 31
ATOM$BLUE        STATIC     ATOMS    COLORGROUP SYSTEM
5 5 42 43 44 45
ATOM$RED        STATIC     ATOMS    COLORGROUP SYSTEM
1 31
