AV-unprocessed.smi:1517|AV-procd|sdf|6122|dock5
  -GOLD-   22720 6253D 1   1.00000     0.00000
 Structure written by MMmdl.
 41 43  0  0  0  0  0  0  0  0  1 V2000
  149.5643  138.9324  153.4321 O   0  0  0  0  0  0  0  0  0  0  0  0
  148.7358  139.7308  154.2481 C   0  0  0  0  0  0  0  0  0  0  0  0
  149.5858  140.7631  155.0019 C   0  0  0  0  0  0  0  0  0  0  0  0
  150.4054  140.1536  156.0334 N   0  0  0  0  0  0  0  0  0  0  0  0
  151.0838  140.6930  157.1201 C   0  0  0  0  0  0  0  0  0  0  0  0
  151.0863  141.9906  157.4197 N   0  0  0  0  0  0  0  0  0  0  0  0
  151.8759  142.0291  158.5533 C   0  0  0  0  0  0  0  0  0  0  0  0
  152.2662  143.1193  159.3635 C   0  0  0  0  0  0  0  0  0  0  0  0
  153.0897  142.9131  160.4898 C   0  0  0  0  0  0  0  0  0  0  0  0
  153.5345  141.6170  160.8216 C   0  0  0  0  0  0  0  0  0  0  0  0
  153.1574  140.5163  160.0284 C   0  0  0  0  0  0  0  0  0  0  0  0
  152.3349  140.7268  158.9057 C   0  0  0  0  0  0  0  0  0  0  0  0
  151.7895  139.8815  157.9443 N   0  0  0  0  0  0  0  0  0  0  0  0
  151.9558  138.4350  157.8779 C   0  0  0  0  0  0  0  0  0  0  0  0
  150.6763  137.6839  158.2961 C   0  0  2  0  0  0  0  0  0  0  0  0
  150.8864  137.1432  159.5850 O   0  0  0  0  0  0  0  0  0  0  0  0
  150.2637  136.6235  157.2805 C   0  0  0  0  0  0  0  0  0  0  0  0
  151.0218  136.4269  156.1043 C   0  0  0  0  0  0  0  0  0  0  0  0
  150.6395  135.4496  155.1654 C   0  0  0  0  0  0  0  0  0  0  0  0
  149.4917  134.6670  155.3910 C   0  0  0  0  0  0  0  0  0  0  0  0
  149.1221  133.7295  154.4868 F   0  0  0  0  0  0  0  0  0  0  0  0
  148.7246  134.8651  156.5542 C   0  0  0  0  0  0  0  0  0  0  0  0
  149.1076  135.8387  157.4970 C   0  0  0  0  0  0  0  0  0  0  0  0
  148.3537  136.0189  158.6082 F   0  0  0  0  0  0  0  0  0  0  0  0
  149.4588  139.2128  152.5359 H   0  0  0  0  0  0  0  0  0  0  0  0
  148.0334  140.2450  153.5917 H   0  0  0  0  0  0  0  0  0  0  0  0
  148.1462  139.1095  154.9238 H   0  0  0  0  0  0  0  0  0  0  0  0
  150.2089  141.3403  154.3179 H   0  0  0  0  0  0  0  0  0  0  0  0
  148.9255  141.4761  155.4966 H   0  0  0  0  0  0  0  0  0  0  0  0
  150.5017  139.1534  155.9336 H   0  0  0  0  0  0  0  0  0  0  0  0
  151.9307  144.1161  159.1182 H   0  0  0  0  0  0  0  0  0  0  0  0
  153.3816  143.7536  161.1021 H   0  0  0  0  0  0  0  0  0  0  0  0
  154.1651  141.4679  161.6861 H   0  0  0  0  0  0  0  0  0  0  0  0
  153.4950  139.5219  160.2806 H   0  0  0  0  0  0  0  0  0  0  0  0
  152.2716  138.1392  156.8770 H   0  0  0  0  0  0  0  0  0  0  0  0
  152.7774  138.1684  158.5442 H   0  0  0  0  0  0  0  0  0  0  0  0
  149.8634  138.4024  158.4049 H   0  0  0  0  0  0  0  0  0  0  0  0
  150.0996  137.2672  160.0939 H   0  0  0  0  0  0  0  0  0  0  0  0
  151.9011  137.0257  155.9164 H   0  0  0  0  0  0  0  0  0  0  0  0
  151.2252  135.3029  154.2699 H   0  0  0  0  0  0  0  0  0  0  0  0
  147.8402  134.2690  156.7246 H   0  0  0  0  0  0  0  0  0  0  0  0
  1  2  1  0  0  0  0
  1 25  1  0  0  0  0
  2  3  1  0  0  0  0
  2 26  1  0  0  0  0
  2 27  1  0  0  0  0
  3  4  1  0  0  0  0
  3 28  1  0  0  0  0
  3 29  1  0  0  0  0
  4  5  1  0  0  0  0
  4 30  1  0  0  0  0
  5 13  1  0  0  0  0
  5  6  2  0  0  0  0
  6  7  1  0  0  0  0
  7 12  2  0  0  0  0
  7  8  1  0  0  0  0
  8  9  2  0  0  0  0
  8 31  1  0  0  0  0
  9 10  1  0  0  0  0
  9 32  1  0  0  0  0
 10 11  2  0  0  0  0
 10 33  1  0  0  0  0
 11 12  1  0  0  0  0
 11 34  1  0  0  0  0
 12 13  1  0  0  0  0
 13 14  1  0  0  0  0
 14 15  1  0  0  0  0
 14 35  1  0  0  0  0
 14 36  1  0  0  0  0
 15 16  1  0  0  0  0
 15 17  1  0  0  0  0
 15 37  1  0  0  0  0
 16 38  1  0  0  0  0
 17 23  1  0  0  0  0
 17 18  2  0  0  0  0
 18 19  1  0  0  0  0
 18 39  1  0  0  0  0
 19 20  2  0  0  0  0
 19 40  1  0  0  0  0
 20 21  1  0  0  0  0
 20 22  1  0  0  0  0
 22 23  2  0  0  0  0
 22 41  1  0  0  0  0
 23 24  1  0  0  0  0
M  END
> <s_m_source_file>
AV-unprocessed.smi

> <i_m_source_file_index>
1517

> <i_lp_mmshare_version>
43012

> <i_f3d_flags>
0

> <s_epik_input>
W09IXVtDSDJdW0NIMl1bTkhdYyhuMSluKGMoYzEyKVtjSF1bY0hdW2NIXVtjSF0yKVtDSDJdW0NASF0oW09IXSljM1tjSF1bY0hdYyhGKVtjSF1jM0Y=

> <s_epik_cmdline>
J2VwaWtfcHl0aG9uJywgJy1waCcsICc3LjAnLCAnLXRuJywgJzgnLCAnLW1hJywgJzIwMCcsICctbWV0YWxfYmluZGluZycsICctaW1hZScsICc8aW5maWxlLm1hZT4nLCAnLW9tYWUnLCAnPG91dGZpbGUubWFlPic=

> <r_epik_Ionization_Penalty>
1.30972

> <r_epik_Ionization_Penalty_Charging>
0

> <r_epik_Ionization_Penalty_Neutral>
1.30972

> <r_epik_State_Penalty>
1.38438

> <r_epik_Charging_Adjusted_Penalty>
1.38438

> <i_epik_Tot_Q>
0

> <i_epik_Tot_abs_Q>
0

> <r_epik_Metal_State_Penalty>
0.00551145

> <b_epik_Metal_Only>
0

> <s_lp_Force_Field>
OPLS_2005

> <r_lp_Energy>
9.55996

> <b_lp_Chiralities_Consistent>
1

> <s_lp_Variant>
AV-unprocessed.smi:1517-3

> <Gold.Version>
5.8.1

> <Gold.Id.Protein>
6NUR|6NUR_protein|mol2

> <Gold.PLP.Fitness>
45.6092

> <Gold.PLP.PLP>
-41.5329

> <Gold.PLP.part.hbond>
-2.7694

> <Gold.PLP.part.metal>
0.0000

> <Gold.PLP.part.buried>
-6.7304

> <Gold.PLP.part.nonpolar>
-33.0186

> <Gold.PLP.part.repulsive>
0.1180

> <Gold.PLP.ligand.clash>
0.0000

> <Gold.PLP.ligand.torsion>
0.9730

> <Gold.PLP.Chemscore.Hbond>
1.9913

> <Gold.PLP.Chemscore.CHOScore>
0.0000

> <Gold.PLP.Chemscore.Metal>
0.0000

> <Gold.Chemscore.Hbonds>
donor molecule, donor type, donor heavy atom, donor atom, acceptor molecule, acceptor atom, score
      L1  H     1    25       P1  7957  1.00
      P1  H  6896  6907       L1    16  0.91

> <Gold.PLP.Chemscore.Internal.Correction>
0.0485

> <Gold.Rescore>
     Score         DG    S(hbond)    S(metal)    S(lipo)     H(rot)  DE(clash)    DE(int)     intcor
     13.95     -14.98       1.88        0.00      97.97       3.22       0.01       1.03       ----

> <Gold.Chemscore.Fitness>
13.9516

> <Gold.Chemscore.DG>
-14.9849

> <Gold.Chemscore.ZeroCoef>
-5.4800

> <Gold.Chemscore.Hbond>
1.8816

> <Gold.Chemscore.Metal>
0.0000

> <Gold.Chemscore.Lipo>
97.9657

> <Gold.Chemscore.Internal_Hbond>
0.0000

> <Gold.Chemscore.DEClash>
0.0060

> <Gold.Chemscore.DEInternal>
1.0272

> <Gold.Chemscore.Rot>
3.2194

> <Gold.Chemscore.Internal.Correction>
   9.000000E+99

> <Gold.Chemscore.Hbonds>
donor molecule, donor type, donor heavy atom, donor atom, acceptor molecule, acceptor atom, score
      L1  H     1    25       P1  7957  0.97
      P1  H  6896  6907       L1    16  0.34

> <Gold.Chemscore.Hbond.Weighted>
-6.2845

> <Gold.Chemscore.Metal.Weighted>
-0.0000

> <Gold.Chemscore.Lipo.Weighted>
-11.4620

> <Gold.Chemscore.Internal_Hbond.Weighted>
0.0000

> <Gold.Chemscore.DEClash.Weighted>
0.0060

> <Gold.Chemscore.DEInternal.Weighted>
1.0272

> <Gold.Chemscore.Rot.Weighted>
8.2416

> <Gold.Chemscore.Internal.Correction.Weighted>
   9.000000E+99

> <Gold.Protein.RotatedTorsions>
[ 6907 6896 6895 6894 ] final  -13.20 input  -60.11 | X-H torsion
[ 7974 7965 7964 7962 ] final -171.32 input  175.53 | X-H torsion
[ 8008 7997 7996 7995 ] final    3.84 input   59.86 | X-H torsion
[ 10167 10162 10161 10158 ] final -148.12 input  -65.29 | X-H torsion
[ 10718 10713 10712 10709 ] final  144.36 input   66.30 | X-H torsion
[ 10763 10752 10751 10750 ] final  -67.49 input  -60.55 | X-H torsion
[ 11005 11000 10999 10996 ] final  -67.80 input  -57.11 | X-H torsion

> <Gold.Protein.ActiveResidues>
 VAL166  LYS551  ARG553  GLY616  TRP617  ASP618  TYR619  PRO620  LYS621  CYS622 
 ASP623  PHE694  ASN695  SER759  ASP760  ASP761  ALA762  ILE779  LEU786  VAL792 
 PHE793  MET794  SER795  GLU796  ALA797  LYS798  CYS799  TRP800  GLU811  SER814 

> <Gold.Protein.RotatedAtoms>
  151.3587  135.0899  159.9426 H   0  0  0  0  0  0  0  0  0  0  0  0  # atno 6907 bound_to 6896
  152.5168  133.9280  159.7577 H   0  0  0  0  0  0  0  0  0  0  0  0  # atno 6908 bound_to 6896
  150.9670  133.6330  159.2774 H   0  0  0  0  0  0  0  0  0  0  0  0  # atno 6909 bound_to 6896
  144.7158  140.1940  143.6345 H   0  0  0  0  0  0  0  0  0  0  0  0  # atno 7974 bound_to 7965
  154.7085  140.2688  155.6651 H   0  0  0  0  0  0  0  0  0  0  0  0  # atno 8008 bound_to 7997
  156.2788  140.2758  156.1644 H   0  0  0  0  0  0  0  0  0  0  0  0  # atno 8009 bound_to 7997
  155.0666  140.0372  157.2585 H   0  0  0  0  0  0  0  0  0  0  0  0  # atno 8010 bound_to 7997
  139.7560  143.8447  152.2597 H   0  0  0  0  0  0  0  0  0  0  0  0  # atno 10167 bound_to 10162
  157.3581  131.0961  151.0940 H   0  0  0  0  0  0  0  0  0  0  0  0  # atno 10718 bound_to 10713
  154.3753  135.6086  153.5762 H   0  0  0  0  0  0  0  0  0  0  0  0  # atno 10763 bound_to 10752
  152.9789  135.5848  154.4474 H   0  0  0  0  0  0  0  0  0  0  0  0  # atno 10764 bound_to 10752
  154.4234  135.2846  155.1938 H   0  0  0  0  0  0  0  0  0  0  0  0  # atno 10765 bound_to 10752
  141.1517  133.6727  156.6348 H   0  0  0  0  0  0  0  0  0  0  0  0  # atno 11005 bound_to 11000
  145.8742  139.2288  143.1643 LP  0  0  0  0  0  0  0  0  0  0  0  0  # atno 17320 bound_to 7965
  146.0056  140.8481  142.9997 LP  0  0  0  0  0  0  0  0  0  0  0  0  # atno 17321 bound_to 7965
  139.8439  144.7197  150.9297 LP  0  0  0  0  0  0  0  0  0  0  0  0  # atno 17342 bound_to 10162
  140.7803  143.3958  151.1231 LP  0  0  0  0  0  0  0  0  0  0  0  0  # atno 17343 bound_to 10162
  157.2090  130.6429  149.5767 LP  0  0  0  0  0  0  0  0  0  0  0  0  # atno 17370 bound_to 10713
  155.9733  130.4666  150.6295 LP  0  0  0  0  0  0  0  0  0  0  0  0  # atno 17371 bound_to 10713
  140.3439  134.7826  157.4418 LP  0  0  0  0  0  0  0  0  0  0  0  0  # atno 17394 bound_to 11000
  140.0915  134.5594  155.8439 LP  0  0  0  0  0  0  0  0  0  0  0  0  # atno 17395 bound_to 11000

$$$$
