AV-unprocessed.smi:2398|AV-procd|sdf|9497|dock1
  -GOLD-   2272013123D 1   1.00000     0.00000
 Structure written by MMmdl.
 34 35  0  0  0  0  0  0  0  0  1 V2000
  147.6749  131.7525  153.9137 O   0  0  0  0  0  0  0  0  0  0  0  0
  147.9926  132.8163  153.3835 C   0  0  0  0  0  0  0  0  0  0  0  0
  148.9839  133.6299  153.7874 N   0  0  0  0  0  0  0  0  0  0  0  0
  149.8886  133.4901  154.8772 C   0  0  0  0  0  0  0  0  0  0  0  0
  150.3082  132.2535  155.4270 C   0  0  0  0  0  0  0  0  0  0  0  0
  151.2167  132.2665  156.5046 C   0  0  0  0  0  0  0  0  0  0  0  0
  151.7169  133.3980  157.0439 N   0  0  0  0  0  0  0  0  0  0  0  0
  151.3211  134.5742  156.5140 C   0  0  0  0  0  0  0  0  0  0  0  0
  150.4170  134.6729  155.4373 C   0  0  0  0  0  0  0  0  0  0  0  0
  150.0638  135.8881  154.9524 F   0  0  0  0  0  0  0  0  0  0  0  0
  147.3694  133.3168  152.3066 N   0  0  0  0  0  0  0  0  0  0  0  0
  146.2508  132.6874  151.6108 C   0  0  1  0  0  0  0  0  0  0  0  0
  144.9439  133.4265  151.9557 C   0  0  0  0  0  0  0  0  0  0  0  0
  143.7457  132.8321  151.1980 C   0  0  0  0  0  0  0  0  0  0  0  0
  143.9939  132.8355  149.6798 C   0  0  2  0  0  0  0  0  0  0  0  0
  142.9067  132.2198  149.0224 O   0  0  0  0  0  0  0  0  0  0  0  0
  145.2942  132.0925  149.3290 C   0  0  0  0  0  0  0  0  0  0  0  0
  146.4931  132.6844  150.0873 C   0  0  0  0  0  0  0  0  0  0  0  0
  146.1532  131.6553  151.9536 H   0  0  0  0  0  0  0  0  0  0  0  0
  144.0594  133.8656  149.3268 H   0  0  0  0  0  0  0  0  0  0  0  0
  149.0928  134.4818  153.2566 H   0  0  0  0  0  0  0  0  0  0  0  0
  149.9671  131.3019  155.0524 H   0  0  0  0  0  0  0  0  0  0  0  0
  151.5536  131.3392  156.9438 H   0  0  0  0  0  0  0  0  0  0  0  0
  151.7380  135.4646  156.9608 H   0  0  0  0  0  0  0  0  0  0  0  0
  147.6938  134.1987  151.9373 H   0  0  0  0  0  0  0  0  0  0  0  0
  144.7586  133.3775  153.0295 H   0  0  0  0  0  0  0  0  0  0  0  0
  145.0390  134.4845  151.7063 H   0  0  0  0  0  0  0  0  0  0  0  0
  143.5706  131.8122  151.5437 H   0  0  0  0  0  0  0  0  0  0  0  0
  142.8435  133.3982  151.4325 H   0  0  0  0  0  0  0  0  0  0  0  0
  142.1633  132.8021  149.0614 H   0  0  0  0  0  0  0  0  0  0  0  0
  145.1970  131.0349  149.5789 H   0  0  0  0  0  0  0  0  0  0  0  0
  145.4769  132.1418  148.2549 H   0  0  0  0  0  0  0  0  0  0  0  0
  146.6729  133.7028  149.7397 H   0  0  0  0  0  0  0  0  0  0  0  0
  147.3918  132.1140  149.8492 H   0  0  0  0  0  0  0  0  0  0  0  0
  1  2  2  0  0  0  0
  2  3  1  0  0  0  0
  2 11  1  0  0  0  0
  3  4  1  0  0  0  0
  3 21  1  0  0  0  0
  4  9  1  0  0  0  0
  4  5  2  0  0  0  0
  5  6  1  0  0  0  0
  5 22  1  0  0  0  0
  6  7  2  0  0  0  0
  6 23  1  0  0  0  0
  7  8  1  0  0  0  0
  8  9  2  0  0  0  0
  8 24  1  0  0  0  0
  9 10  1  0  0  0  0
 11 12  1  0  0  0  0
 11 25  1  0  0  0  0
 12 19  1  0  0  0  0
 12 18  1  0  0  0  0
 12 13  1  0  0  0  0
 13 14  1  0  0  0  0
 13 26  1  0  0  0  0
 13 27  1  0  0  0  0
 14 15  1  0  0  0  0
 14 28  1  0  0  0  0
 14 29  1  0  0  0  0
 15 20  1  0  0  0  0
 15 16  1  0  0  0  0
 15 17  1  0  0  0  0
 16 30  1  0  0  0  0
 17 18  1  0  0  0  0
 17 31  1  0  0  0  0
 17 32  1  0  0  0  0
 18 33  1  0  0  0  0
 18 34  1  0  0  0  0
M  END
> <s_m_source_file>
AV-unprocessed.smi

> <i_m_source_file_index>
2398

> <i_lp_mmshare_version>
43012

> <i_f3d_flags>
0

> <s_epik_input>
W0NIMl0xW0NIMl1bQ0BASF0oW09IXSlbQ0gyXVtDSDJdW0NAQEhdMVtOSF1DKD1PKVtOSF1jMltjSF1bY0hdbltjSF1jMkY=

> <s_epik_cmdline>
J2VwaWtfcHl0aG9uJywgJy1waCcsICc3LjAnLCAnLXRuJywgJzgnLCAnLW1hJywgJzIwMCcsICctbWV0YWxfYmluZGluZycsICctaW1hZScsICc8aW5maWxlLm1hZT4nLCAnLW9tYWUnLCAnPG91dGZpbGUubWFlPic=

> <r_epik_Ionization_Penalty>
0.00343298

> <r_epik_Ionization_Penalty_Charging>
0

> <r_epik_Ionization_Penalty_Neutral>
0.00343298

> <r_epik_State_Penalty>
0.00240232

> <r_epik_Charging_Adjusted_Penalty>
0.00240232

> <i_epik_Tot_Q>
0

> <i_epik_Tot_abs_Q>
0

> <r_epik_Metal_State_Penalty>
-0

> <b_epik_Metal_Only>
0

> <s_lp_Force_Field>
OPLS_2005

> <r_lp_Energy>
13.0545

> <b_lp_Chiralities_Consistent>
1

> <s_lp_Variant>
AV-unprocessed.smi:2398-1

> <Gold.Version>
5.8.1

> <Gold.Id.Protein>
6NUR|6NUR_protein|mol2

> <Gold.PLP.Fitness>
43.4732

> <Gold.PLP.PLP>
-35.8730

> <Gold.PLP.part.hbond>
-4.4904

> <Gold.PLP.part.metal>
0.0000

> <Gold.PLP.part.buried>
-5.1160

> <Gold.PLP.part.nonpolar>
-26.9390

> <Gold.PLP.part.repulsive>
0.0700

> <Gold.PLP.ligand.clash>
0.0000

> <Gold.PLP.ligand.torsion>
0.3194

> <Gold.PLP.Chemscore.Hbond>
2.7452

> <Gold.PLP.Chemscore.CHOScore>
0.0000

> <Gold.PLP.Chemscore.Metal>
0.0000

> <Gold.Chemscore.Hbonds>
donor molecule, donor type, donor heavy atom, donor atom, acceptor molecule, acceptor atom, score
      L1  H     3    21       P1  7948  0.33
      L1  H    11    25       P1  7948  0.22
      L1  H    16    30       P1 10186  0.99
      P1  H  6896  6908       L1     7  0.35
      P1  H 10785 10796       L1    16  0.80

> <Gold.PLP.Chemscore.Internal.Correction>
0.0033

> <Gold.Rescore>
     Score         DG    S(hbond)    S(metal)    S(lipo)     H(rot)  DE(clash)    DE(int)     intcor
     17.32     -17.92       2.18        0.00      76.04       1.47       0.15       0.45       ----

> <Gold.Chemscore.Fitness>
17.3186

> <Gold.Chemscore.DG>
-17.9184

> <Gold.Chemscore.ZeroCoef>
-5.4800

> <Gold.Chemscore.Hbond>
2.1836

> <Gold.Chemscore.Metal>
0.0000

> <Gold.Chemscore.Lipo>
76.0364

> <Gold.Chemscore.Internal_Hbond>
0.0000

> <Gold.Chemscore.DEClash>
0.1470

> <Gold.Chemscore.DEInternal>
0.4528

> <Gold.Chemscore.Rot>
1.4653

> <Gold.Chemscore.Internal.Correction>
   9.000000E+99

> <Gold.Chemscore.Hbonds>
donor molecule, donor type, donor heavy atom, donor atom, acceptor molecule, acceptor atom, score
      L1  H     3    21       P1  7948  0.02
      L1  H    11    25       P1  7948  0.04
      L1  H    16    30       P1 10186  0.92
      P1  H  6896  6908       L1     7  0.24
      P1  H 10785 10796       L1    16  0.66

> <Gold.Chemscore.Hbond.Weighted>
-7.2932

> <Gold.Chemscore.Metal.Weighted>
-0.0000

> <Gold.Chemscore.Lipo.Weighted>
-8.8963

> <Gold.Chemscore.Internal_Hbond.Weighted>
0.0000

> <Gold.Chemscore.DEClash.Weighted>
0.1470

> <Gold.Chemscore.DEInternal.Weighted>
0.4528

> <Gold.Chemscore.Rot.Weighted>
3.7511

> <Gold.Chemscore.Internal.Correction.Weighted>
   9.000000E+99

> <Gold.Protein.RotatedTorsions>
[ 6907 6896 6895 6894 ] final   64.04 input  -60.11 | X-H torsion
[ 7974 7965 7964 7962 ] final   90.85 input  175.53 | X-H torsion
[ 8008 7997 7996 7995 ] final   72.56 input   59.86 | X-H torsion
[ 10167 10162 10161 10158 ] final   11.47 input  -65.29 | X-H torsion
[ 10718 10713 10712 10709 ] final -159.24 input   66.30 | X-H torsion
[ 10763 10752 10751 10750 ] final  136.85 input  -60.55 | X-H torsion
[ 11005 11000 10999 10996 ] final  -79.64 input  -57.11 | X-H torsion

> <Gold.Protein.ActiveResidues>
 VAL166  LYS551  ARG553  GLY616  TRP617  ASP618  TYR619  PRO620  LYS621  CYS622 
 ASP623  PHE694  ASN695  SER759  ASP760  ASP761  ALA762  ILE779  LEU786  VAL792 
 PHE793  MET794  SER795  GLU796  ALA797  LYS798  CYS799  TRP800  GLU811  SER814 

> <Gold.Protein.RotatedAtoms>
  152.4301  134.5795  159.9943 H   0  0  0  0  0  0  0  0  0  0  0  0  # atno 6907 bound_to 6896
  151.5920  133.3360  159.3037 H   0  0  0  0  0  0  0  0  0  0  0  0  # atno 6908 bound_to 6896
  150.8193  134.7428  159.6823 H   0  0  0  0  0  0  0  0  0  0  0  0  # atno 6909 bound_to 6896
  145.5135  139.2277  143.2711 H   0  0  0  0  0  0  0  0  0  0  0  0  # atno 7974 bound_to 7965
  155.7706  140.3484  155.5245 H   0  0  0  0  0  0  0  0  0  0  0  0  # atno 8008 bound_to 7997
  155.8825  140.1004  157.1496 H   0  0  0  0  0  0  0  0  0  0  0  0  # atno 8009 bound_to 7997
  154.4026  140.1320  156.4201 H   0  0  0  0  0  0  0  0  0  0  0  0  # atno 8010 bound_to 7997
  140.6129  143.8369  150.7086 H   0  0  0  0  0  0  0  0  0  0  0  0  # atno 10167 bound_to 10162
  156.5653  130.8665  151.2822 H   0  0  0  0  0  0  0  0  0  0  0  0  # atno 10718 bound_to 10713
  153.8634  135.3064  155.3439 H   0  0  0  0  0  0  0  0  0  0  0  0  # atno 10763 bound_to 10752
  154.7839  135.4820  153.9906 H   0  0  0  0  0  0  0  0  0  0  0  0  # atno 10764 bound_to 10752
  153.1448  135.6831  153.9066 H   0  0  0  0  0  0  0  0  0  0  0  0  # atno 10765 bound_to 10752
  141.1667  133.7114  156.8152 H   0  0  0  0  0  0  0  0  0  0  0  0  # atno 11005 bound_to 11000
  146.2151  140.5943  142.9042 LP  0  0  0  0  0  0  0  0  0  0  0  0  # atno 17320 bound_to 7965
  144.7714  140.5646  143.6667 LP  0  0  0  0  0  0  0  0  0  0  0  0  # atno 17321 bound_to 7965
  140.1941  143.4012  152.1841 LP  0  0  0  0  0  0  0  0  0  0  0  0  # atno 17342 bound_to 10162
  139.5376  144.7225  151.4842 LP  0  0  0  0  0  0  0  0  0  0  0  0  # atno 17343 bound_to 10162
  157.7360  130.9771  150.2111 LP  0  0  0  0  0  0  0  0  0  0  0  0  # atno 17370 bound_to 10713
  156.2762  130.3728  149.7981 LP  0  0  0  0  0  0  0  0  0  0  0  0  # atno 17371 bound_to 10713
  140.2159  134.8793  157.3324 LP  0  0  0  0  0  0  0  0  0  0  0  0  # atno 17394 bound_to 11000
  140.2038  134.4222  155.7648 LP  0  0  0  0  0  0  0  0  0  0  0  0  # atno 17395 bound_to 11000

$$$$
