AV-unprocessed.smi:159|AV-procd|sdf|1342|dock2
  -GOLD-   2262019 43D 1   1.00000     0.00000
 Structure written by MMmdl.
 28 29  0  0  0  0  0  0  0  0  1 V2000
  155.5385  142.4584  165.3831 N   0  0  0  0  0  0  0  0  0  0  0  0
  154.8030  142.3582  164.2669 C   0  0  0  0  0  0  0  0  0  0  0  0
  153.7432  143.3052  164.0030 C   0  0  0  0  0  0  0  0  0  0  0  0
  153.0438  143.1348  162.8594 C   0  0  0  0  0  0  0  0  0  0  0  0
  153.3118  142.0988  161.9755 N   0  0  0  0  0  0  0  0  0  0  0  0
  152.5153  141.9357  160.7001 C   0  0  2  0  0  0  0  0  0  0  0  0
  153.4094  142.1676  159.4766 C   0  0  0  0  0  0  0  0  0  0  0  0
  152.9909  143.5550  159.0380 C   0  0  0  0  0  0  0  0  0  0  0  0
  151.5138  143.5776  159.4255 C   0  0  2  0  0  0  0  0  0  0  0  0
  150.9451  144.9956  159.5808 C   0  0  0  0  0  0  0  0  0  0  0  0
  150.5802  145.5118  158.3188 O   0  0  0  0  0  0  0  0  0  0  0  0
  151.5003  142.8966  160.6760 O   0  0  0  0  0  0  0  0  0  0  0  0
  154.3710  141.2002  162.2508 C   0  0  0  0  0  0  0  0  0  0  0  0
  154.6714  140.2909  161.4781 O   0  0  0  0  0  0  0  0  0  0  0  0
  155.0661  141.3857  163.4158 N   0  0  0  0  0  0  0  0  0  0  0  0
  152.0590  140.9447  160.7253 H   0  0  0  0  0  0  0  0  0  0  0  0
  150.9444  143.0028  158.6925 H   0  0  0  0  0  0  0  0  0  0  0  0
  156.2800  141.7972  165.5633 H   0  0  0  0  0  0  0  0  0  0  0  0
  155.3508  143.2012  166.0412 H   0  0  0  0  0  0  0  0  0  0  0  0
  153.4954  144.1212  164.6667 H   0  0  0  0  0  0  0  0  0  0  0  0
  152.2540  143.8392  162.6435 H   0  0  0  0  0  0  0  0  0  0  0  0
  154.4706  142.0804  159.7137 H   0  0  0  0  0  0  0  0  0  0  0  0
  153.1554  141.4301  158.7143 H   0  0  0  0  0  0  0  0  0  0  0  0
  153.5470  144.3080  159.5981 H   0  0  0  0  0  0  0  0  0  0  0  0
  153.1538  143.7323  157.9747 H   0  0  0  0  0  0  0  0  0  0  0  0
  150.0921  145.0098  160.2598 H   0  0  0  0  0  0  0  0  0  0  0  0
  151.7031  145.6593  159.9980 H   0  0  0  0  0  0  0  0  0  0  0  0
  149.6415  145.6186  158.2975 H   0  0  0  0  0  0  0  0  0  0  0  0
  1  2  1  0  0  0  0
  1 18  1  0  0  0  0
  1 19  1  0  0  0  0
  2 15  2  0  0  0  0
  2  3  1  0  0  0  0
  3  4  2  0  0  0  0
  3 20  1  0  0  0  0
  4  5  1  0  0  0  0
  4 21  1  0  0  0  0
  5  6  1  0  0  0  0
  5 13  1  0  0  0  0
  6 16  1  0  0  0  0
  6 12  1  0  0  0  0
  6  7  1  0  0  0  0
  7  8  1  0  0  0  0
  7 22  1  0  0  0  0
  7 23  1  0  0  0  0
  8  9  1  0  0  0  0
  8 24  1  0  0  0  0
  8 25  1  0  0  0  0
  9 17  1  0  0  0  0
  9 10  1  0  0  0  0
  9 12  1  0  0  0  0
 10 11  1  0  0  0  0
 10 26  1  0  0  0  0
 10 27  1  0  0  0  0
 11 28  1  0  0  0  0
 13 14  2  0  0  0  0
 13 15  1  0  0  0  0
M  END
> <s_m_source_file>
AV-unprocessed.smi

> <i_m_source_file_index>
159

> <i_lp_mmshare_version>
43012

> <i_f3d_flags>
0

> <s_epik_input>
W05IMl1jMVtjSF1bY0hdbihjKD1PKW4xKVtDQEhdMltDSDJdW0NIMl1bQ0BIXShPMilbQ0gyXVtPSF0=

> <s_epik_cmdline>
J2VwaWtfcHl0aG9uJywgJy1waCcsICc3LjAnLCAnLXRuJywgJzgnLCAnLW1hJywgJzIwMCcsICctbWV0YWxfYmluZGluZycsICctaW1hZScsICc8aW5maWxlLm1hZT4nLCAnLW9tYWUnLCAnPG91dGZpbGUubWFlPic=

> <r_lp_tautomer_probability>
0.99996

> <r_epik_Ionization_Penalty>
0.00126102

> <r_epik_Ionization_Penalty_Charging>
4.46248e-08

> <r_epik_Ionization_Penalty_Neutral>
0.00126097

> <r_epik_State_Penalty>
1.15523e-05

> <r_epik_Charging_Adjusted_Penalty>
1.1597e-05

> <i_epik_Tot_Q>
0

> <i_epik_Tot_abs_Q>
0

> <r_epik_Metal_State_Penalty>
-0

> <b_epik_Metal_Only>
0

> <s_epik_Chemistry_Notes>
This compound contains an acetal/aminal-like group ( X-CH(R)-Y where X, Y are N, S, or O) that may be acid/base labile, releasing an aldehyde.

> <s_lp_Force_Field>
OPLS_2005

> <r_lp_Energy>
25.8801

> <b_lp_Chiralities_Consistent>
1

> <s_lp_Variant>
AV-unprocessed.smi:159-4

> <Gold.Version>
5.8.1

> <Gold.Id.Protein>
6NUR|6NUR_protein|mol2

> <Gold.PLP.Fitness>
39.8532

> <Gold.PLP.PLP>
-37.2955

> <Gold.PLP.part.hbond>
-4.4247

> <Gold.PLP.part.metal>
0.0000

> <Gold.PLP.part.buried>
0.2469

> <Gold.PLP.part.nonpolar>
-33.5531

> <Gold.PLP.part.repulsive>
0.1263

> <Gold.PLP.ligand.clash>
0.0000

> <Gold.PLP.ligand.torsion>
0.2295

> <Gold.PLP.Chemscore.Hbond>
1.0012

> <Gold.PLP.Chemscore.CHOScore>
0.0000

> <Gold.PLP.Chemscore.Metal>
0.0000

> <Gold.Chemscore.Hbonds>
donor molecule, donor type, donor heavy atom, donor atom, acceptor molecule, acceptor atom, score
      L1  H    11    28       P1  8029  0.99
      P1  H  6933  6945       L1    12  0.01

> <Gold.PLP.Chemscore.Internal.Correction>
0.0130

> <Gold.Rescore>
     Score         DG    S(hbond)    S(metal)    S(lipo)     H(rot)  DE(clash)    DE(int)     intcor
      7.88      -9.20       0.41        0.00      65.79       2.09       0.07       1.25       ----

> <Gold.Chemscore.Fitness>
7.8797

> <Gold.Chemscore.DG>
-9.1979

> <Gold.Chemscore.ZeroCoef>
-5.4800

> <Gold.Chemscore.Hbond>
0.4131

> <Gold.Chemscore.Metal>
0.0000

> <Gold.Chemscore.Lipo>
65.7911

> <Gold.Chemscore.Internal_Hbond>
0.0000

> <Gold.Chemscore.DEClash>
0.0693

> <Gold.Chemscore.DEInternal>
1.2489

> <Gold.Chemscore.Rot>
2.0935

> <Gold.Chemscore.Internal.Correction>
   9.000000E+99

> <Gold.Chemscore.Hbonds>
donor molecule, donor type, donor heavy atom, donor atom, acceptor molecule, acceptor atom, score
      L1  H    11    28       P1  8029  0.61

> <Gold.Chemscore.Hbond.Weighted>
-1.3797

> <Gold.Chemscore.Metal.Weighted>
-0.0000

> <Gold.Chemscore.Lipo.Weighted>
-7.6976

> <Gold.Chemscore.Internal_Hbond.Weighted>
0.0000

> <Gold.Chemscore.DEClash.Weighted>
0.0693

> <Gold.Chemscore.DEInternal.Weighted>
1.2489

> <Gold.Chemscore.Rot.Weighted>
5.3594

> <Gold.Chemscore.Internal.Correction.Weighted>
   9.000000E+99

> <Gold.Protein.RotatedTorsions>
[ 6907 6896 6895 6894 ] final   17.76 input  -60.11 | X-H torsion
[ 7974 7965 7964 7962 ] final  -99.08 input  175.53 | X-H torsion
[ 8008 7997 7996 7995 ] final  148.01 input   59.86 | X-H torsion
[ 10167 10162 10161 10158 ] final  170.68 input  -65.29 | X-H torsion
[ 10718 10713 10712 10709 ] final   48.05 input   66.30 | X-H torsion
[ 10763 10752 10751 10750 ] final  -13.93 input  -60.55 | X-H torsion
[ 11005 11000 10999 10996 ] final   36.21 input  -57.11 | X-H torsion

> <Gold.Protein.ActiveResidues>
 VAL166  LYS551  ARG553  GLY616  TRP617  ASP618  TYR619  PRO620  LYS621  CYS622 
 ASP623  PHE694  ASN695  SER759  ASP760  ASP761  ALA762  ILE779  LEU786  VAL792 
 PHE793  MET794  SER795  GLU796  ALA797  LYS798  CYS799  TRP800  GLU811  SER814 

> <Gold.Protein.RotatedAtoms>
  151.8547  135.0545  160.0462 H   0  0  0  0  0  0  0  0  0  0  0  0  # atno 6907 bound_to 6896
  152.2709  133.5377  159.5447 H   0  0  0  0  0  0  0  0  0  0  0  0  # atno 6908 bound_to 6896
  150.7151  134.0615  159.3875 H   0  0  0  0  0  0  0  0  0  0  0  0  # atno 6909 bound_to 6896
  145.3122  140.9403  143.2763 H   0  0  0  0  0  0  0  0  0  0  0  0  # atno 7974 bound_to 7965
  156.2806  140.2140  156.5630 H   0  0  0  0  0  0  0  0  0  0  0  0  # atno 8008 bound_to 7997
  154.7198  140.0504  157.0651 H   0  0  0  0  0  0  0  0  0  0  0  0  # atno 8009 bound_to 7997
  155.0494  140.3154  155.4700 H   0  0  0  0  0  0  0  0  0  0  0  0  # atno 8010 bound_to 7997
  139.5025  144.3570  151.9864 H   0  0  0  0  0  0  0  0  0  0  0  0  # atno 10167 bound_to 10162
  157.4647  130.8218  149.7923 H   0  0  0  0  0  0  0  0  0  0  0  0  # atno 10718 bound_to 10713
  153.5207  135.7015  153.5733 H   0  0  0  0  0  0  0  0  0  0  0  0  # atno 10763 bound_to 10752
  153.3783  135.3927  155.1838 H   0  0  0  0  0  0  0  0  0  0  0  0  # atno 10764 bound_to 10752
  154.8695  135.3829  154.4695 H   0  0  0  0  0  0  0  0  0  0  0  0  # atno 10765 bound_to 10752
  140.2348  134.3484  155.7949 H   0  0  0  0  0  0  0  0  0  0  0  0  # atno 11005 bound_to 11000
  144.9006  139.4654  143.6634 LP  0  0  0  0  0  0  0  0  0  0  0  0  # atno 17320 bound_to 7965
  146.3113  139.7758  142.9017 LP  0  0  0  0  0  0  0  0  0  0  0  0  # atno 17321 bound_to 7965
  140.3006  144.3650  150.6061 LP  0  0  0  0  0  0  0  0  0  0  0  0  # atno 17342 bound_to 10162
  140.5876  143.2169  151.7313 LP  0  0  0  0  0  0  0  0  0  0  0  0  # atno 17343 bound_to 10162
  156.0045  130.3863  150.2483 LP  0  0  0  0  0  0  0  0  0  0  0  0  # atno 17370 bound_to 10713
  157.0662  131.0104  151.3205 LP  0  0  0  0  0  0  0  0  0  0  0  0  # atno 17371 bound_to 10713
  141.2215  133.7265  156.8790 LP  0  0  0  0  0  0  0  0  0  0  0  0  # atno 17394 bound_to 11000
  140.1713  134.9098  157.2837 LP  0  0  0  0  0  0  0  0  0  0  0  0  # atno 17395 bound_to 11000

$$$$
