AV-unprocessed.smi:148|AV-procd|sdf|1229|dock1
  -GOLD-   2262018433D 1   1.00000     0.00000
 Structure written by MMmdl.
 63 67  0  0  0  0  0  0  0  0  1 V2000
  143.8826  133.8211  159.3138 O   0  0  0  0  0  0  0  0  0  0  0  0
  145.1155  134.0512  158.6640 C   0  0  0  0  0  0  0  0  0  0  0  0
  146.3114  133.7618  159.6045 C   0  0  1  0  0  0  0  0  0  0  0  0
  147.6432  133.5918  158.8275 C   0  0  0  0  0  0  0  0  0  0  0  0
  147.5127  132.7789  157.6308 N   0  0  0  0  0  0  0  0  0  0  0  0
  147.0215  131.4946  157.5579 C   0  0  0  0  0  0  0  0  0  0  0  0
  147.0159  130.9677  156.3633 N   0  0  0  0  0  0  0  0  0  0  0  0
  147.5445  131.9649  155.5542 C   0  0  0  0  0  0  0  0  0  0  0  0
  147.8310  132.0625  154.1678 C   0  0  0  0  0  0  0  0  0  0  0  0
  147.6050  131.0370  153.3146 N   0  0  0  0  0  0  0  0  0  0  0  0
  148.2667  129.8274  153.8067 C   0  0  0  0  0  0  0  0  0  0  0  0
  148.1985  128.6871  152.7827 C   0  0  0  0  0  0  0  0  0  0  0  0
  146.7440  128.4154  152.3867 C   0  0  0  0  0  0  0  0  0  0  0  0
  146.1074  129.7022  151.8486 C   0  0  0  0  0  0  0  0  0  0  0  0
  146.2072  130.8667  152.8712 C   0  0  2  0  0  0  0  0  0  0  0  0
  145.5418  132.1934  152.3634 C   0  0  2  0  0  0  0  0  0  0  0  0
  144.1506  131.9582  151.7302 C   0  0  0  0  0  0  0  0  0  0  0  0
  144.1695  132.6074  150.3399 C   0  0  0  0  0  0  0  0  0  0  0  0
  145.6459  132.7363  149.9759 C   0  0  0  0  0  0  0  0  0  0  0  0
  146.3114  133.0376  151.3167 C   0  0  2  0  0  0  0  0  0  0  0  0
  147.7124  132.8591  151.2732 O   0  0  0  0  0  0  0  0  0  0  0  0
  148.3567  133.2284  153.7058 N   0  0  0  0  0  0  0  0  0  0  0  0
  148.5965  134.2333  154.5535 C   0  0  0  0  0  0  0  0  0  0  0  0
  148.3919  134.2805  155.8720 N   0  0  0  0  0  0  0  0  0  0  0  0
  147.8601  133.1120  156.3334 C   0  0  0  0  0  0  0  0  0  0  0  0
  146.3936  134.8037  160.7566 C   0  0  1  0  0  0  0  0  0  0  0  0
  147.3437  134.4913  161.8990 C   0  0  0  0  0  0  0  0  0  0  0  0
  147.4075  135.8398  162.6067 C   0  0  0  0  0  0  0  0  0  0  0  0
  147.3516  136.8096  161.5657 O   0  0  0  0  0  0  0  0  0  0  0  0
  146.8253  136.2249  160.3759 C   0  0  0  0  0  0  0  0  0  0  0  0
  143.6350  132.9192  159.1788 H   0  0  0  0  0  0  0  0  0  0  0  0
  145.1333  133.4052  157.7867 H   0  0  0  0  0  0  0  0  0  0  0  0
  145.1459  135.0786  158.3004 H   0  0  0  0  0  0  0  0  0  0  0  0
  146.1106  132.7976  160.0742 H   0  0  0  0  0  0  0  0  0  0  0  0
  148.0504  134.5592  158.5361 H   0  0  0  0  0  0  0  0  0  0  0  0
  148.3973  133.1152  159.4524 H   0  0  0  0  0  0  0  0  0  0  0  0
  146.6660  130.9579  158.4255 H   0  0  0  0  0  0  0  0  0  0  0  0
  149.3109  130.0446  154.0371 H   0  0  0  0  0  0  0  0  0  0  0  0
  147.7960  129.5087  154.7382 H   0  0  0  0  0  0  0  0  0  0  0  0
  148.7799  128.9499  151.8979 H   0  0  0  0  0  0  0  0  0  0  0  0
  148.6497  127.7853  153.1969 H   0  0  0  0  0  0  0  0  0  0  0  0
  146.6994  127.6290  151.6326 H   0  0  0  0  0  0  0  0  0  0  0  0
  146.1830  128.0562  153.2502 H   0  0  0  0  0  0  0  0  0  0  0  0
  146.6086  129.9644  150.9180 H   0  0  0  0  0  0  0  0  0  0  0  0
  145.0708  129.4985  151.5852 H   0  0  0  0  0  0  0  0  0  0  0  0
  145.6495  130.5545  153.7556 H   0  0  0  0  0  0  0  0  0  0  0  0
  145.3670  132.8410  153.2223 H   0  0  0  0  0  0  0  0  0  0  0  0
  143.9207  130.8971  151.6433 H   0  0  0  0  0  0  0  0  0  0  0  0
  143.3594  132.3896  152.3444 H   0  0  0  0  0  0  0  0  0  0  0  0
  143.6070  132.0332  149.6033 H   0  0  0  0  0  0  0  0  0  0  0  0
  143.7218  133.6007  150.3954 H   0  0  0  0  0  0  0  0  0  0  0  0
  146.0096  131.7927  149.5677 H   0  0  0  0  0  0  0  0  0  0  0  0
  145.8281  133.5132  149.2327 H   0  0  0  0  0  0  0  0  0  0  0  0
  146.1383  134.0908  151.5437 H   0  0  0  0  0  0  0  0  0  0  0  0
  147.8966  132.0022  150.9187 H   0  0  0  0  0  0  0  0  0  0  0  0
  149.0153  135.1262  154.1131 H   0  0  0  0  0  0  0  0  0  0  0  0
  145.4022  134.8819  161.2057 H   0  0  0  0  0  0  0  0  0  0  0  0
  146.9893  133.6887  162.5460 H   0  0  0  0  0  0  0  0  0  0  0  0
  148.3393  134.2317  161.5419 H   0  0  0  0  0  0  0  0  0  0  0  0
  146.5401  135.9713  163.2550 H   0  0  0  0  0  0  0  0  0  0  0  0
  148.3058  135.9551  163.2135 H   0  0  0  0  0  0  0  0  0  0  0  0
  147.6141  136.2264  159.6248 H   0  0  0  0  0  0  0  0  0  0  0  0
  145.9939  136.8138  159.9878 H   0  0  0  0  0  0  0  0  0  0  0  0
  1  2  1  0  0  0  0
  1 31  1  0  0  0  0
  2  3  1  0  0  0  0
  2 32  1  0  0  0  0
  2 33  1  0  0  0  0
  3  4  1  0  0  0  0
  3 26  1  0  0  0  0
  3 34  1  0  0  0  0
  4  5  1  0  0  0  0
  4 35  1  0  0  0  0
  4 36  1  0  0  0  0
  5 25  1  0  0  0  0
  5  6  1  0  0  0  0
  6  7  2  0  0  0  0
  6 37  1  0  0  0  0
  7  8  1  0  0  0  0
  8 25  2  0  0  0  0
  8  9  1  0  0  0  0
  9 10  1  0  0  0  0
  9 22  2  0  0  0  0
 10 15  1  0  0  0  0
 10 11  1  0  0  0  0
 11 12  1  0  0  0  0
 11 38  1  0  0  0  0
 11 39  1  0  0  0  0
 12 13  1  0  0  0  0
 12 40  1  0  0  0  0
 12 41  1  0  0  0  0
 13 14  1  0  0  0  0
 13 42  1  0  0  0  0
 13 43  1  0  0  0  0
 14 15  1  0  0  0  0
 14 44  1  0  0  0  0
 14 45  1  0  0  0  0
 15 16  1  0  0  0  0
 15 46  1  0  0  0  0
 16 20  1  0  0  0  0
 16 17  1  0  0  0  0
 16 47  1  0  0  0  0
 17 18  1  0  0  0  0
 17 48  1  0  0  0  0
 17 49  1  0  0  0  0
 18 19  1  0  0  0  0
 18 50  1  0  0  0  0
 18 51  1  0  0  0  0
 19 20  1  0  0  0  0
 19 52  1  0  0  0  0
 19 53  1  0  0  0  0
 20 21  1  0  0  0  0
 20 54  1  0  0  0  0
 21 55  1  0  0  0  0
 22 23  1  0  0  0  0
 23 24  2  0  0  0  0
 23 56  1  0  0  0  0
 24 25  1  0  0  0  0
 26 30  1  0  0  0  0
 26 27  1  0  0  0  0
 26 57  1  0  0  0  0
 27 28  1  0  0  0  0
 27 58  1  0  0  0  0
 27 59  1  0  0  0  0
 28 29  1  0  0  0  0
 28 60  1  0  0  0  0
 28 61  1  0  0  0  0
 29 30  1  0  0  0  0
 30 62  1  0  0  0  0
 30 63  1  0  0  0  0
M  END
> <s_m_source_file>
AV-unprocessed.smi

> <i_m_source_file_index>
148

> <i_lp_mmshare_version>
43012

> <i_f3d_flags>
0

> <s_epik_input>
W0NIMl0xT1tDSDJdW0NIMl1bQ0BIXTFbQ0BIXShbQ0gyXVtPSF0pW0NIMl1uKFtjSF1uMiljKGMyMyluW2NIXW5jM040W0NIMl1bQ0gyXVtDSDJdW0NIMl1bQ0BIXTRbQ0BASF01W0NIMl1bQ0gyXVtDSDJdW0NASF01W09IXQ==

> <s_epik_cmdline>
J2VwaWtfcHl0aG9uJywgJy1waCcsICc3LjAnLCAnLXRuJywgJzgnLCAnLW1hJywgJzIwMCcsICctbWV0YWxfYmluZGluZycsICctaW1hZScsICc8aW5maWxlLm1hZT4nLCAnLW9tYWUnLCAnPG91dGZpbGUubWFlPic=

> <r_lp_tautomer_probability>
1

> <r_epik_Ionization_Penalty>
0.00556303

> <r_epik_Ionization_Penalty_Charging>
0

> <r_epik_Ionization_Penalty_Neutral>
0.00556303

> <r_epik_State_Penalty>
0.00401767

> <r_epik_Charging_Adjusted_Penalty>
0.00401767

> <i_epik_Tot_Q>
0

> <i_epik_Tot_abs_Q>
0

> <r_epik_Metal_State_Penalty>
-0

> <b_epik_Metal_Only>
0

> <s_lp_Force_Field>
OPLS_2005

> <r_lp_Energy>
73.9782

> <b_lp_Chiralities_Consistent>
1

> <s_lp_Variant>
AV-unprocessed.smi:148-28

> <Gold.Version>
5.8.1

> <Gold.Id.Protein>
6NUR|6NUR_protein|mol2

> <Gold.PLP.Fitness>
49.6391

> <Gold.PLP.PLP>
-38.7726

> <Gold.PLP.part.hbond>
-2.5313

> <Gold.PLP.part.metal>
0.0000

> <Gold.PLP.part.buried>
-4.0980

> <Gold.PLP.part.nonpolar>
-31.9903

> <Gold.PLP.part.repulsive>
0.3327

> <Gold.PLP.ligand.clash>
0.0000

> <Gold.PLP.ligand.torsion>
0.7293

> <Gold.PLP.Chemscore.Hbond>
2.8713

> <Gold.PLP.Chemscore.CHOScore>
1.0000

> <Gold.PLP.Chemscore.Metal>
0.0000

> <Gold.Chemscore.Hbonds>
donor molecule, donor type, donor heavy atom, donor atom, acceptor molecule, acceptor atom, score
      L1  H    21    55       P1 10747  1.00
      P1  H  6931  6943       L1    29  0.49
      P1  H  6934  6947       L1    29  0.26
      L1  C    23    56       P1  7948  1.00

> <Gold.PLP.Chemscore.Internal.Correction>
0.7115

> <Gold.Rescore>
     Score         DG    S(hbond)    S(metal)    S(lipo)     H(rot)  DE(clash)    DE(int)     intcor
     13.09     -14.67       1.42        0.00     110.70       3.32       0.05       1.53       ----

> <Gold.Chemscore.Fitness>
13.0934

> <Gold.Chemscore.DG>
-14.6742

> <Gold.Chemscore.ZeroCoef>
-5.4800

> <Gold.Chemscore.Hbond>
1.4198

> <Gold.Chemscore.Metal>
0.0000

> <Gold.Chemscore.Lipo>
110.7025

> <Gold.Chemscore.Internal_Hbond>
0.0000

> <Gold.Chemscore.DEClash>
0.0460

> <Gold.Chemscore.DEInternal>
1.5348

> <Gold.Chemscore.Rot>
3.3203

> <Gold.Chemscore.Internal.Correction>
   9.000000E+99

> <Gold.Chemscore.Hbonds>
donor molecule, donor type, donor heavy atom, donor atom, acceptor molecule, acceptor atom, score
      L1  H    21    55       P1 10747  0.94
      P1  H  6931  6943       L1    29  0.28
      P1  H  6934  6947       L1    29  0.05

> <Gold.Chemscore.Hbond.Weighted>
-4.7420

> <Gold.Chemscore.Metal.Weighted>
-0.0000

> <Gold.Chemscore.Lipo.Weighted>
-12.9522

> <Gold.Chemscore.Internal_Hbond.Weighted>
0.0000

> <Gold.Chemscore.DEClash.Weighted>
0.0460

> <Gold.Chemscore.DEInternal.Weighted>
1.5348

> <Gold.Chemscore.Rot.Weighted>
8.5000

> <Gold.Chemscore.Internal.Correction.Weighted>
   9.000000E+99

> <Gold.Protein.RotatedTorsions>
[ 6907 6896 6895 6894 ] final    9.69 input  -60.11 | X-H torsion
[ 7974 7965 7964 7962 ] final   31.82 input  175.53 | X-H torsion
[ 8008 7997 7996 7995 ] final  -89.42 input   59.86 | X-H torsion
[ 10167 10162 10161 10158 ] final    0.43 input  -65.29 | X-H torsion
[ 10718 10713 10712 10709 ] final -132.00 input   66.30 | X-H torsion
[ 10763 10752 10751 10750 ] final   71.86 input  -60.55 | X-H torsion
[ 11005 11000 10999 10996 ] final -116.59 input  -57.11 | X-H torsion

> <Gold.Protein.ActiveResidues>
 VAL166  LYS551  ARG553  GLY616  TRP617  ASP618  TYR619  PRO620  LYS621  CYS622 
 ASP623  PHE694  ASN695  SER759  ASP760  ASP761  ALA762  ILE779  LEU786  VAL792 
 PHE793  MET794  SER795  GLU796  ALA797  LYS798  CYS799  TRP800  GLU811  SER814 

> <Gold.Protein.RotatedAtoms>
  151.7262  135.0884  160.0292 H   0  0  0  0  0  0  0  0  0  0  0  0  # atno 6907 bound_to 6896
  152.3570  133.6245  159.5995 H   0  0  0  0  0  0  0  0  0  0  0  0  # atno 6908 bound_to 6896
  150.7578  133.9400  159.3494 H   0  0  0  0  0  0  0  0  0  0  0  0  # atno 6909 bound_to 6896
  146.1526  139.6607  142.9088 H   0  0  0  0  0  0  0  0  0  0  0  0  # atno 7974 bound_to 7965
  154.6864  140.0542  157.0319 H   0  0  0  0  0  0  0  0  0  0  0  0  # atno 8008 bound_to 7997
  155.0878  140.3216  155.4563 H   0  0  0  0  0  0  0  0  0  0  0  0  # atno 8009 bound_to 7997
  156.2713  140.2053  156.6006 H   0  0  0  0  0  0  0  0  0  0  0  0  # atno 8010 bound_to 7997
  140.6729  143.6998  150.7961 H   0  0  0  0  0  0  0  0  0  0  0  0  # atno 10167 bound_to 10162
  156.2301  130.7032  151.0849 H   0  0  0  0  0  0  0  0  0  0  0  0  # atno 10718 bound_to 10713
  153.0424  135.5121  154.7656 H   0  0  0  0  0  0  0  0  0  0  0  0  # atno 10763 bound_to 10752
  154.6583  135.2935  154.9901 H   0  0  0  0  0  0  0  0  0  0  0  0  # atno 10764 bound_to 10752
  154.0761  135.6670  153.4883 H   0  0  0  0  0  0  0  0  0  0  0  0  # atno 10765 bound_to 10752
  141.0412  133.9833  157.2992 H   0  0  0  0  0  0  0  0  0  0  0  0  # atno 11005 bound_to 11000
  145.4786  141.0437  143.2658 LP  0  0  0  0  0  0  0  0  0  0  0  0  # atno 17320 bound_to 7965
  144.7923  139.6304  143.7108 LP  0  0  0  0  0  0  0  0  0  0  0  0  # atno 17321 bound_to 7965
  140.0686  143.5083  152.2591 LP  0  0  0  0  0  0  0  0  0  0  0  0  # atno 17342 bound_to 10162
  139.6006  144.7581  151.3180 LP  0  0  0  0  0  0  0  0  0  0  0  0  # atno 17343 bound_to 10162
  157.7129  131.0725  150.6435 LP  0  0  0  0  0  0  0  0  0  0  0  0  # atno 17370 bound_to 10713
  156.6502  130.4483  149.5722 LP  0  0  0  0  0  0  0  0  0  0  0  0  # atno 17371 bound_to 10713
  139.9277  135.0201  156.8292 LP  0  0  0  0  0  0  0  0  0  0  0  0  # atno 17394 bound_to 11000
  140.6231  133.9975  155.7627 LP  0  0  0  0  0  0  0  0  0  0  0  0  # atno 17395 bound_to 11000

$$$$
