AV-unprocessed.smi:995|AV-procd|sdf|4346|dock1
  -GOLD-   22720 2243D 1   1.00000     0.00000
 Structure written by MMmdl.
 37 38  0  0  0  0  0  0  0  0  1 V2000
  151.5229  136.3003  154.6716 O   0  0  0  0  0  0  0  0  0  0  0  0
  150.7981  135.9794  155.6136 C   0  0  0  0  0  0  0  0  0  0  0  0
  150.3877  136.8268  156.5763 N   0  0  0  0  0  0  0  0  0  0  0  0
  150.7199  138.1966  156.7587 C   0  0  0  0  0  0  0  0  0  0  0  0
  149.9484  138.9476  157.6683 C   0  0  0  0  0  0  0  0  0  0  0  0
  150.2655  140.3019  157.8840 C   0  0  0  0  0  0  0  0  0  0  0  0
  151.3541  140.8633  157.1877 C   0  0  0  0  0  0  0  0  0  0  0  0
  151.6587  142.1919  157.4008 O   0  0  0  0  0  0  0  0  0  0  0  0
  151.3300  142.7726  158.6604 C   0  0  0  0  0  0  0  0  0  0  0  0
  152.2186  144.0028  158.8977 C   0  0  0  0  0  0  0  0  0  0  0  0
  153.4982  143.6267  158.9123 F   0  0  0  0  0  0  0  0  0  0  0  0
  152.0181  144.8605  157.8962 F   0  0  0  0  0  0  0  0  0  0  0  0
  151.8883  144.7190  160.2169 C   0  0  0  0  0  0  0  0  0  0  0  0
  150.6065  145.0837  160.2596 F   0  0  0  0  0  0  0  0  0  0  0  0
  152.1615  143.9357  161.2605 F   0  0  0  0  0  0  0  0  0  0  0  0
  152.1126  140.1461  156.3227 N   0  0  0  0  0  0  0  0  0  0  0  0
  151.8029  138.8479  156.1192 C   0  0  0  0  0  0  0  0  0  0  0  0
  150.2584  134.5440  155.7103 C   0  0  1  0  0  0  0  0  0  0  0  0
  149.4551  134.1185  154.4590 C   0  0  0  0  0  0  0  0  0  0  0  0
  149.0255  132.7716  154.6103 O   0  0  0  0  0  0  0  0  0  0  0  0
  150.1288  131.8903  154.7658 C   0  0  0  0  0  0  0  0  0  0  0  0
  150.9211  132.3011  156.0169 C   0  0  0  0  0  0  0  0  0  0  0  0
  151.3553  133.6463  155.8683 O   0  0  0  0  0  0  0  0  0  0  0  0
  149.7206  136.4504  157.2345 H   0  0  0  0  0  0  0  0  0  0  0  0
  149.1200  138.4953  158.1937 H   0  0  0  0  0  0  0  0  0  0  0  0
  149.6848  140.8992  158.5713 H   0  0  0  0  0  0  0  0  0  0  0  0
  150.2803  143.0708  158.6754 H   0  0  0  0  0  0  0  0  0  0  0  0
  151.4833  142.0450  159.4594 H   0  0  0  0  0  0  0  0  0  0  0  0
  152.4811  145.6267  160.3325 H   0  0  0  0  0  0  0  0  0  0  0  0
  152.4629  138.3302  155.4410 H   0  0  0  0  0  0  0  0  0  0  0  0
  149.6201  134.4908  156.5941 H   0  0  0  0  0  0  0  0  0  0  0  0
  148.5719  134.7458  154.3333 H   0  0  0  0  0  0  0  0  0  0  0  0
  150.0532  134.2194  153.5515 H   0  0  0  0  0  0  0  0  0  0  0  0
  149.7591  130.8701  154.8687 H   0  0  0  0  0  0  0  0  0  0  0  0
  150.7619  131.9163  153.8775 H   0  0  0  0  0  0  0  0  0  0  0  0
  150.3125  132.1977  156.9166 H   0  0  0  0  0  0  0  0  0  0  0  0
  151.7923  131.6578  156.1416 H   0  0  0  0  0  0  0  0  0  0  0  0
  1  2  2  0  0  0  0
  2  3  1  0  0  0  0
  2 18  1  0  0  0  0
  3  4  1  0  0  0  0
  3 24  1  0  0  0  0
  4 17  1  0  0  0  0
  4  5  2  0  0  0  0
  5  6  1  0  0  0  0
  5 25  1  0  0  0  0
  6  7  2  0  0  0  0
  6 26  1  0  0  0  0
  7  8  1  0  0  0  0
  7 16  1  0  0  0  0
  8  9  1  0  0  0  0
  9 10  1  0  0  0  0
  9 27  1  0  0  0  0
  9 28  1  0  0  0  0
 10 11  1  0  0  0  0
 10 12  1  0  0  0  0
 10 13  1  0  0  0  0
 13 14  1  0  0  0  0
 13 15  1  0  0  0  0
 13 29  1  0  0  0  0
 16 17  2  0  0  0  0
 17 30  1  0  0  0  0
 18 23  1  0  0  0  0
 18 19  1  0  0  0  0
 18 31  1  0  0  0  0
 19 20  1  0  0  0  0
 19 32  1  0  0  0  0
 19 33  1  0  0  0  0
 20 21  1  0  0  0  0
 21 22  1  0  0  0  0
 21 34  1  0  0  0  0
 21 35  1  0  0  0  0
 22 23  1  0  0  0  0
 22 36  1  0  0  0  0
 22 37  1  0  0  0  0
M  END
> <s_m_source_file>
AV-unprocessed.smi

> <i_m_source_file_index>
995

> <i_lp_mmshare_version>
43012

> <i_f3d_flags>
0

> <s_epik_input>
TzFbQ0gyXVtDSDJdT1tDSDJdW0NASF0xQyg9TylbTkhdYzJbY0hdW2NIXWMobltjSF0yKU9bQ0gyXUMoRikoRilbQ0hdKEYpRg==

> <s_epik_cmdline>
J2VwaWtfcHl0aG9uJywgJy1waCcsICc3LjAnLCAnLXRuJywgJzgnLCAnLW1hJywgJzIwMCcsICctbWV0YWxfYmluZGluZycsICctaW1hZScsICc8aW5maWxlLm1hZT4nLCAnLW9tYWUnLCAnPG91dGZpbGUubWFlPic=

> <r_lp_tautomer_probability>
1

> <r_epik_Ionization_Penalty>
2.54436e-06

> <r_epik_Ionization_Penalty_Charging>
0

> <r_epik_Ionization_Penalty_Neutral>
2.54436e-06

> <r_epik_State_Penalty>
-0

> <r_epik_Charging_Adjusted_Penalty>
0

> <i_epik_Tot_Q>
0

> <i_epik_Tot_abs_Q>
0

> <r_epik_Metal_State_Penalty>
-0

> <b_epik_Metal_Only>
0

> <s_lp_Force_Field>
OPLS_2005

> <r_lp_Energy>
9.88959

> <b_lp_Chiralities_Consistent>
1

> <s_lp_Variant>
AV-unprocessed.smi:995-2

> <Gold.Version>
5.8.1

> <Gold.Id.Protein>
6NUR|6NUR_protein|mol2

> <Gold.PLP.Fitness>
44.6887

> <Gold.PLP.PLP>
-40.2732

> <Gold.PLP.part.hbond>
-1.8430

> <Gold.PLP.part.metal>
0.0000

> <Gold.PLP.part.buried>
-4.0719

> <Gold.PLP.part.nonpolar>
-33.9400

> <Gold.PLP.part.repulsive>
0.2860

> <Gold.PLP.ligand.clash>
0.0000

> <Gold.PLP.ligand.torsion>
0.5673

> <Gold.PLP.Chemscore.Hbond>
1.7963

> <Gold.PLP.Chemscore.CHOScore>
0.0000

> <Gold.PLP.Chemscore.Metal>
0.0000

> <Gold.Chemscore.Hbonds>
donor molecule, donor type, donor heavy atom, donor atom, acceptor molecule, acceptor atom, score
      P1  H  7997  8010       L1    16  0.52
      P1  H 10752 10763       L1     1  1.00

> <Gold.PLP.Chemscore.Internal.Correction>
0.1615

> <Gold.Rescore>
     Score         DG    S(hbond)    S(metal)    S(lipo)     H(rot)  DE(clash)    DE(int)     intcor
     12.35     -14.17       1.84        0.00      68.19       2.12       0.06       1.76       ----

> <Gold.Chemscore.Fitness>
12.3484

> <Gold.Chemscore.DG>
-14.1735

> <Gold.Chemscore.ZeroCoef>
-5.4800

> <Gold.Chemscore.Hbond>
1.8370

> <Gold.Chemscore.Metal>
0.0000

> <Gold.Chemscore.Lipo>
68.1868

> <Gold.Chemscore.Internal_Hbond>
0.0000

> <Gold.Chemscore.DEClash>
0.0629

> <Gold.Chemscore.DEInternal>
1.7623

> <Gold.Chemscore.Rot>
2.1172

> <Gold.Chemscore.Internal.Correction>
   9.000000E+99

> <Gold.Chemscore.Hbonds>
donor molecule, donor type, donor heavy atom, donor atom, acceptor molecule, acceptor atom, score
      P1  H  7997  8010       L1    16  0.20
      P1  H 10752 10763       L1     1  0.95

> <Gold.Chemscore.Hbond.Weighted>
-6.1356

> <Gold.Chemscore.Metal.Weighted>
-0.0000

> <Gold.Chemscore.Lipo.Weighted>
-7.9779

> <Gold.Chemscore.Internal_Hbond.Weighted>
0.0000

> <Gold.Chemscore.DEClash.Weighted>
0.0629

> <Gold.Chemscore.DEInternal.Weighted>
1.7623

> <Gold.Chemscore.Rot.Weighted>
5.4200

> <Gold.Chemscore.Internal.Correction.Weighted>
   9.000000E+99

> <Gold.Protein.RotatedTorsions>
[ 6907 6896 6895 6894 ] final    3.35 input  -60.11 | X-H torsion
[ 7974 7965 7964 7962 ] final  142.31 input  175.53 | X-H torsion
[ 8008 7997 7996 7995 ] final   74.78 input   59.86 | X-H torsion
[ 10167 10162 10161 10158 ] final  170.95 input  -65.29 | X-H torsion
[ 10718 10713 10712 10709 ] final  -88.13 input   66.30 | X-H torsion
[ 10763 10752 10751 10750 ] final   51.39 input  -60.55 | X-H torsion
[ 11005 11000 10999 10996 ] final  135.66 input  -57.11 | X-H torsion

> <Gold.Protein.ActiveResidues>
 VAL166  LYS551  ARG553  GLY616  TRP617  ASP618  TYR619  PRO620  LYS621  CYS622 
 ASP623  PHE694  ASN695  SER759  ASP760  ASP761  ALA762  ILE779  LEU786  VAL792 
 PHE793  MET794  SER795  GLU796  ALA797  LYS798  CYS799  TRP800  GLU811  SER814 

> <Gold.Protein.RotatedAtoms>
  151.6236  135.1030  160.0106 H   0  0  0  0  0  0  0  0  0  0  0  0  # atno 6907 bound_to 6896
  152.4144  133.7011  159.6435 H   0  0  0  0  0  0  0  0  0  0  0  0  # atno 6908 bound_to 6896
  150.8033  133.8483  159.3239 H   0  0  0  0  0  0  0  0  0  0  0  0  # atno 6909 bound_to 6896
  144.9019  139.5411  143.5750 H   0  0  0  0  0  0  0  0  0  0  0  0  # atno 7974 bound_to 7965
  155.8034  140.3475  155.5416 H   0  0  0  0  0  0  0  0  0  0  0  0  # atno 8008 bound_to 7997
  155.8515  140.0957  157.1692 H   0  0  0  0  0  0  0  0  0  0  0  0  # atno 8009 bound_to 7997
  154.4008  140.1375  156.3837 H   0  0  0  0  0  0  0  0  0  0  0  0  # atno 8010 bound_to 7997
  139.5033  144.3540  151.9894 H   0  0  0  0  0  0  0  0  0  0  0  0  # atno 10167 bound_to 10162
  155.9984  130.4824  150.4972 H   0  0  0  0  0  0  0  0  0  0  0  0  # atno 10718 bound_to 10713
  152.9785  135.5847  154.4408 H   0  0  0  0  0  0  0  0  0  0  0  0  # atno 10763 bound_to 10752
  154.4010  135.2769  155.2098 H   0  0  0  0  0  0  0  0  0  0  0  0  # atno 10764 bound_to 10752
  154.3929  135.6121  153.5908 H   0  0  0  0  0  0  0  0  0  0  0  0  # atno 10765 bound_to 10752
  139.9994  134.9484  157.0038 H   0  0  0  0  0  0  0  0  0  0  0  0  # atno 11005 bound_to 11000
  146.3113  139.7756  142.9018 LP  0  0  0  0  0  0  0  0  0  0  0  0  # atno 17320 bound_to 7965
  145.3602  141.0324  143.3289 LP  0  0  0  0  0  0  0  0  0  0  0  0  # atno 17321 bound_to 7965
  140.2976  144.3683  150.6069 LP  0  0  0  0  0  0  0  0  0  0  0  0  # atno 17342 bound_to 10162
  140.5898  143.2168  151.7274 LP  0  0  0  0  0  0  0  0  0  0  0  0  # atno 17343 bound_to 10162
  157.2961  131.0636  151.2101 LP  0  0  0  0  0  0  0  0  0  0  0  0  # atno 17370 bound_to 10713
  157.3096  130.6883  149.6208 LP  0  0  0  0  0  0  0  0  0  0  0  0  # atno 17371 bound_to 10713
  140.4756  134.1342  155.7209 LP  0  0  0  0  0  0  0  0  0  0  0  0  # atno 17394 bound_to 11000
  141.1630  133.8756  157.1794 LP  0  0  0  0  0  0  0  0  0  0  0  0  # atno 17395 bound_to 11000

$$$$
