#       Name:                AV-unprocessed.smi:2321
#       Creating user name   scv26
#       Creation time:       Fri Mar 27 12:50:50 2020


#       File generated by GOLD software.
#

@<TRIPOS>MOLECULE
AV-unprocessed.smi:2321
    39    40     1
SMALL
NO_CHARGES


@<TRIPOS>ATOM
      1 ****        -3.2970  -0.3594  -0.8747 O.2            1 S1                 0.0000
      2 ****        -2.0862  -0.1969  -0.7412 C.2            1 S1                 0.0000
      3 ****        -1.4811   0.9988  -0.6013 N.am           1 S1                 0.0000
      4 ****        -2.0571   2.2976  -0.5751 C.ar           1 S1                 0.0000
      5 ****        -3.3239   2.6184  -1.1205 C.ar           1 S1                 0.0000
      6 ****        -3.7726   3.9523  -1.0435 C.ar           1 S1                 0.0000
      7 ****        -3.0540   4.9484  -0.4831 N.ar           1 S1                 0.0000
      8 ****        -1.8407   4.6413   0.0227 C.ar           1 S1                 0.0000
      9 ****        -1.2987   3.3406  -0.0023 C.ar           1 S1                 0.0000
     10 ****        -0.0715   3.1003   0.5200 F              1 S1                 0.0000
     11 ****        -1.2462  -1.2478  -0.6981 N.am           1 S1                 0.0000
     12 ****        -1.5625  -2.6733  -0.8159 C.3            1 S1                 0.0000
     13 ****        -0.4513  -3.4998  -0.1446 C.3            1 S1                 0.0000
     14 ****        -0.7131  -5.0064  -0.2880 C.3            1 S1                 0.0000
     15 ****        -0.8764  -5.4054  -1.7629 C.3            1 S1                 0.0000
     16 ****        -1.9930  -4.5928  -2.4518 C.3            1 S1                 0.0000
     17 ****        -2.1770  -4.9990  -3.9286 C.3            1 S1                 0.0000
     18 ****        -1.0680  -4.7586  -4.6289 F              1 S1                 0.0000
     19 ****        -2.4662  -6.2976  -4.0122 F              1 S1                 0.0000
     20 ****        -3.1851  -4.3137  -4.4684 F              1 S1                 0.0000
     21 ****        -1.7219  -3.0809  -2.2965 C.3            1 S1                 0.0000
     22 ****        -0.4878   0.9685  -0.4234 H              1 S1                 0.0000
     23 ****        -3.9484   1.8821  -1.6020 H              1 S1                 0.0000
     24 ****        -4.7344   4.2277  -1.4500 H              1 S1                 0.0000
     25 ****        -1.2837   5.4573   0.4590 H              1 S1                 0.0000
     26 ****        -0.2713  -1.0311  -0.5482 H              1 S1                 0.0000
     27 ****        -2.4934  -2.8827  -0.2855 H              1 S1                 0.0000
     28 ****         0.5142  -3.2568  -0.5909 H              1 S1                 0.0000
     29 ****        -0.3775  -3.2404   0.9122 H              1 S1                 0.0000
     30 ****         0.1062  -5.5691   0.1602 H              1 S1                 0.0000
     31 ****        -1.6126  -5.2766   0.2665 H              1 S1                 0.0000
     32 ****         0.0685  -5.2528  -2.2858 H              1 S1                 0.0000
     33 ****        -1.0944  -6.4720  -1.8260 H              1 S1                 0.0000
     34 ****        -2.9288  -4.8146  -1.9362 H              1 S1                 0.0000
     35 ****        -2.5363  -2.5162  -2.7510 H              1 S1                 0.0000
     36 ****        -0.8199  -2.8125  -2.8484 H              1 S1                 0.0000
     37 ****        -3.9094   0.4310  -0.8850 LP             1 S1                 0.0000
     38 ****        -3.6698  -1.2821  -0.9731 LP             1 S1                 0.0000
     39 ****        -3.4087   5.8825  -0.4440 LP             1 S1                 0.0000
@<TRIPOS>BOND
    1    1    2 2     
    2    2    3 am    
    3    2   11 am    
    4    3    4 1     
    5    3   22 1     
    6    4    9 ar    
    7    4    5 ar    
    8    5    6 ar    
    9    5   23 1     
   10    6    7 ar    
   11    6   24 1     
   12    7    8 ar    
   13    8    9 ar    
   14    8   25 1     
   15    9   10 1     
   16   11   12 1     
   17   11   26 1     
   18   12   21 1     
   19   12   13 1     
   20   12   27 1     
   21   13   14 1     
   22   13   28 1     
   23   13   29 1     
   24   14   15 1     
   25   14   30 1     
   26   14   31 1     
   27   15   16 1     
   28   15   32 1     
   29   15   33 1     
   30   16   17 1     
   31   16   21 1     
   32   16   34 1     
   33   17   18 1     
   34   17   19 1     
   35   17   20 1     
   36   21   35 1     
   37   21   36 1     
   38    1   37 1     
   39    1   38 1     
   40    7   39 1     
@<TRIPOS>SUBSTRUCTURE
      1 S1             1
@<TRIPOS>SET
LONE_PAIRS      STATIC     ATOMS    <user>   **** ""
3 37 38 39
DONOR_HYDROGENS      STATIC     ATOMS    <user>   **** ""
2 22 26
ATOM$BLUE        STATIC     ATOMS    COLORGROUP SYSTEM
3 37 38 39
ATOM$RED        STATIC     ATOMS    COLORGROUP SYSTEM
2 22 26
