AV-unprocessed.smi:1128|AV-procd|sdf|4844|dock4
  -GOLD-   22720 3413D 1   1.00000     0.00000
 Structure written by MMmdl.
 37 38  0  0  0  0  0  0  0  0  2 V2000
  151.0566  137.1598  159.9116 O   0  0  0  0  0  0  0  0  0  0  0  0
  150.5016  137.7424  158.9807 C   0  0  0  0  0  0  0  0  0  0  0  0
  151.0324  138.8059  158.3597 N   0  0  0  0  0  0  0  0  0  0  0  0
  152.3112  139.4331  158.6827 C   0  0  0  0  0  0  0  0  0  0  0  0
  152.1448  140.8962  159.1417 C   0  0  2  0  0  0  0  0  0  0  0  0
  151.8897  141.8668  157.9637 C   0  0  0  0  0  0  0  0  0  0  0  0
  152.0093  143.3255  158.3672 C   0  0  0  0  0  0  0  0  0  0  0  0
  152.5740  143.7323  159.5161 C   0  0  0  0  0  0  0  0  0  0  0  0
  153.1643  142.7784  160.5374 C   0  0  0  0  0  0  0  0  0  0  0  0
  153.3609  141.3617  159.9662 C   0  0  0  0  0  0  0  0  0  0  0  0
  149.3073  137.4294  158.4452 N   0  0  0  0  0  0  0  0  0  0  0  0
  148.4028  136.4057  158.7804 C   0  0  0  0  0  0  0  0  0  0  0  0
  148.0636  136.0381  160.0477 C   0  0  0  0  0  0  0  0  0  0  0  0
  147.1146  134.9659  160.3223 C   0  0  0  0  0  0  0  0  0  0  0  0
  146.7744  134.4787  161.7198 C   0  0  0  0  0  0  0  0  0  0  0  0
  147.2746  133.2626  161.9396 F   0  0  0  0  0  0  0  0  0  0  0  0
  147.2595  135.3063  162.6456 F   0  0  0  0  0  0  0  0  0  0  0  0
  145.4520  134.4168  161.8691 F   0  0  0  0  0  0  0  0  0  0  0  0
  146.6426  134.3742  159.1671 C   0  0  0  0  0  0  0  0  0  0  0  0
  146.9159  134.6828  157.8809 N   0  5  0  0  0  0  0  0  0  0  0  0
  147.7973  135.6930  157.6354 C   0  0  0  0  0  0  0  0  0  0  0  0
  148.0955  136.0201  156.4860 O   0  0  0  0  0  0  0  0  0  0  0  0
  150.5049  139.2197  157.6048 H   0  0  0  0  0  0  0  0  0  0  0  0
  152.7631  138.8478  159.4840 H   0  0  0  0  0  0  0  0  0  0  0  0
  153.0034  139.3751  157.8409 H   0  0  0  0  0  0  0  0  0  0  0  0
  151.2759  140.9382  159.8009 H   0  0  0  0  0  0  0  0  0  0  0  0
  152.6011  141.6838  157.1576 H   0  0  0  0  0  0  0  0  0  0  0  0
  150.8943  141.7022  157.5505 H   0  0  0  0  0  0  0  0  0  0  0  0
  151.6205  144.0554  157.6724 H   0  0  0  0  0  0  0  0  0  0  0  0
  152.6130  144.7858  159.7524 H   0  0  0  0  0  0  0  0  0  0  0  0
  154.1183  143.1721  160.8888 H   0  0  0  0  0  0  0  0  0  0  0  0
  152.4961  142.7493  161.3985 H   0  0  0  0  0  0  0  0  0  0  0  0
  153.5578  140.6669  160.7834 H   0  0  0  0  0  0  0  0  0  0  0  0
  154.2490  141.3477  159.3328 H   0  0  0  0  0  0  0  0  0  0  0  0
  148.9889  138.0240  157.6940 H   0  0  0  0  0  0  0  0  0  0  0  0
  148.4909  136.5293  160.9049 H   0  0  0  0  0  0  0  0  0  0  0  0
  145.9426  133.5211  159.2956 H   0  0  0  0  0  0  0  0  0  0  0  0
  1  2  2  0  0  0  0
  2  3  1  0  0  0  0
  2 11  1  0  0  0  0
  3  4  1  0  0  0  0
  3 23  1  0  0  0  0
  4  5  1  0  0  0  0
  4 24  1  0  0  0  0
  4 25  1  0  0  0  0
  5 10  1  0  0  0  0
  5  6  1  0  0  0  0
  5 26  1  0  0  0  0
  6  7  1  0  0  0  0
  6 27  1  0  0  0  0
  6 28  1  0  0  0  0
  7  8  2  0  0  0  0
  7 29  1  0  0  0  0
  8  9  1  0  0  0  0
  8 30  1  0  0  0  0
  9 10  1  0  0  0  0
  9 31  1  0  0  0  0
  9 32  1  0  0  0  0
 10 33  1  0  0  0  0
 10 34  1  0  0  0  0
 11 12  1  0  0  0  0
 11 35  1  0  0  0  0
 12 21  1  0  0  0  0
 12 13  2  0  0  0  0
 13 14  1  0  0  0  0
 13 36  1  0  0  0  0
 14 15  1  0  0  0  0
 14 19  2  0  0  0  0
 15 16  1  0  0  0  0
 15 17  1  0  0  0  0
 15 18  1  0  0  0  0
 19 20  1  0  0  0  0
 19 37  1  0  0  0  0
 20 21  1  0  0  0  0
 21 22  2  0  0  0  0
M  CHG  1  20  -1
M  END
> <s_m_source_file>
AV-unprocessed.smi

> <i_m_source_file_index>
1128

> <i_lp_mmshare_version>
43012

> <i_f3d_flags>
0

> <s_epik_input>
Tz1jMVtuSF1bY0hdYyhDKEYpKEYpRilbY0hdYzFbTkhdQyg9TylbTkhdW0NIMl1bQ0BASF0yW0NIMl1bQ0hdPVtDSF1bQ0gyXVtDSDJdMg==

> <s_epik_cmdline>
J2VwaWtfcHl0aG9uJywgJy1waCcsICc3LjAnLCAnLXRuJywgJzgnLCAnLW1hJywgJzIwMCcsICctbWV0YWxfYmluZGluZycsICctaW1hZScsICc8aW5maWxlLm1hZT4nLCAnLW9tYWUnLCAnPG91dGZpbGUubWFlPic=

> <r_lp_tautomer_probability>
1

> <r_epik_Ionization_Penalty>
3.16664

> <r_epik_Ionization_Penalty_Charging>
0.172425

> <r_epik_Ionization_Penalty_Neutral>
2.99422

> <r_epik_State_Penalty>
2.99038

> <r_epik_Charging_Adjusted_Penalty>
3.16281

> <i_epik_Tot_Q>
-1

> <i_epik_Tot_abs_Q>
1

> <r_epik_Metal_State_Penalty>
0.453031

> <b_epik_Metal_Only>
1

> <s_lp_Force_Field>
OPLS_2005

> <r_lp_Energy>
22.3955

> <b_lp_Chiralities_Consistent>
1

> <s_lp_Variant>
AV-unprocessed.smi:1128-3

> <Gold.Version>
5.8.1

> <Gold.Id.Protein>
6NUR|6NUR_protein|mol2

> <Gold.PLP.Fitness>
42.7157

> <Gold.PLP.PLP>
-41.3689

> <Gold.PLP.part.hbond>
-1.0835

> <Gold.PLP.part.metal>
0.0000

> <Gold.PLP.part.buried>
-5.5096

> <Gold.PLP.part.nonpolar>
-36.4280

> <Gold.PLP.part.repulsive>
0.2729

> <Gold.PLP.ligand.clash>
0.0000

> <Gold.PLP.ligand.torsion>
0.7345

> <Gold.PLP.Chemscore.Hbond>
0.9100

> <Gold.PLP.Chemscore.CHOScore>
0.0000

> <Gold.PLP.Chemscore.Metal>
0.0000

> <Gold.Chemscore.Hbonds>
donor molecule, donor type, donor heavy atom, donor atom, acceptor molecule, acceptor atom, score
      P1  H  6896  6908       L1     1  0.98

> <Gold.PLP.Chemscore.Internal.Correction>
0.0858

> <Gold.Rescore>
     Score         DG    S(hbond)    S(metal)    S(lipo)     H(rot)  DE(clash)    DE(int)     intcor
     15.62     -16.21       0.98        0.00      91.94       1.29       0.02       0.57       ----

> <Gold.Chemscore.Fitness>
15.6190

> <Gold.Chemscore.DG>
-16.2088

> <Gold.Chemscore.ZeroCoef>
-5.4800

> <Gold.Chemscore.Hbond>
0.9837

> <Gold.Chemscore.Metal>
0.0000

> <Gold.Chemscore.Lipo>
91.9365

> <Gold.Chemscore.Internal_Hbond>
0.0000

> <Gold.Chemscore.DEClash>
0.0168

> <Gold.Chemscore.DEInternal>
0.5730

> <Gold.Chemscore.Rot>
1.2943

> <Gold.Chemscore.Internal.Correction>
   9.000000E+99

> <Gold.Chemscore.Hbonds>
donor molecule, donor type, donor heavy atom, donor atom, acceptor molecule, acceptor atom, score
      P1  H  6896  6908       L1     1  0.89

> <Gold.Chemscore.Hbond.Weighted>
-3.2855

> <Gold.Chemscore.Metal.Weighted>
-0.0000

> <Gold.Chemscore.Lipo.Weighted>
-10.7566

> <Gold.Chemscore.Internal_Hbond.Weighted>
0.0000

> <Gold.Chemscore.DEClash.Weighted>
0.0168

> <Gold.Chemscore.DEInternal.Weighted>
0.5730

> <Gold.Chemscore.Rot.Weighted>
3.3133

> <Gold.Chemscore.Internal.Correction.Weighted>
   9.000000E+99

> <Gold.Protein.RotatedTorsions>
[ 6907 6896 6895 6894 ] final -141.34 input  -60.11 | X-H torsion
[ 7974 7965 7964 7962 ] final -145.79 input  175.53 | X-H torsion
[ 8008 7997 7996 7995 ] final  167.72 input   59.86 | X-H torsion
[ 10167 10162 10161 10158 ] final  110.58 input  -65.29 | X-H torsion
[ 10718 10713 10712 10709 ] final -113.90 input   66.30 | X-H torsion
[ 10763 10752 10751 10750 ] final    8.23 input  -60.55 | X-H torsion
[ 11005 11000 10999 10996 ] final   58.99 input  -57.11 | X-H torsion

> <Gold.Protein.ActiveResidues>
 VAL166  LYS551  ARG553  GLY616  TRP617  ASP618  TYR619  PRO620  LYS621  CYS622 
 ASP623  PHE694  ASN695  SER759  ASP760  ASP761  ALA762  ILE779  LEU786  VAL792 
 PHE793  MET794  SER795  GLU796  ALA797  LYS798  CYS799  TRP800  GLU811  SER814 

> <Gold.Protein.RotatedAtoms>
  151.0725  133.5455  159.2625 H   0  0  0  0  0  0  0  0  0  0  0  0  # atno 6907 bound_to 6896
  151.2389  135.0581  159.9027 H   0  0  0  0  0  0  0  0  0  0  0  0  # atno 6908 bound_to 6896
  152.5413  134.0503  159.8160 H   0  0  0  0  0  0  0  0  0  0  0  0  # atno 6909 bound_to 6896
  144.8203  140.5539  143.5582 H   0  0  0  0  0  0  0  0  0  0  0  0  # atno 7974 bound_to 7965
  156.1609  140.1609  156.8614 H   0  0  0  0  0  0  0  0  0  0  0  0  # atno 8008 bound_to 7997
  154.5160  140.0789  156.8117 H   0  0  0  0  0  0  0  0  0  0  0  0  # atno 8009 bound_to 7997
  155.3709  140.3400  155.4245 H   0  0  0  0  0  0  0  0  0  0  0  0  # atno 8010 bound_to 7997
  139.6677  144.7127  151.1746 H   0  0  0  0  0  0  0  0  0  0  0  0  # atno 10167 bound_to 10162
  156.0796  130.5998  150.8704 H   0  0  0  0  0  0  0  0  0  0  0  0  # atno 10718 bound_to 10713
  153.2274  135.6888  153.7929 H   0  0  0  0  0  0  0  0  0  0  0  0  # atno 10763 bound_to 10752
  153.7106  135.3283  155.3246 H   0  0  0  0  0  0  0  0  0  0  0  0  # atno 10764 bound_to 10752
  154.8298  135.4589  154.1146 H   0  0  0  0  0  0  0  0  0  0  0  0  # atno 10765 bound_to 10752
  140.0337  134.5975  155.9473 H   0  0  0  0  0  0  0  0  0  0  0  0  # atno 11005 bound_to 11000
  145.5119  139.1479  143.3600 LP  0  0  0  0  0  0  0  0  0  0  0  0  # atno 17320 bound_to 7965
  146.2508  140.5260  142.8894 LP  0  0  0  0  0  0  0  0  0  0  0  0  # atno 17321 bound_to 7965
  140.7606  143.5893  150.8813 LP  0  0  0  0  0  0  0  0  0  0  0  0  # atno 17342 bound_to 10162
  139.9556  143.6222  152.3017 LP  0  0  0  0  0  0  0  0  0  0  0  0  # atno 17343 bound_to 10162
  157.5907  131.0944  150.9124 LP  0  0  0  0  0  0  0  0  0  0  0  0  # atno 17370 bound_to 10713
  156.9300  130.5346  149.5279 LP  0  0  0  0  0  0  0  0  0  0  0  0  # atno 17371 bound_to 10713
  141.1845  133.6553  156.5160 LP  0  0  0  0  0  0  0  0  0  0  0  0  # atno 17394 bound_to 11000
  140.4184  134.7210  157.4876 LP  0  0  0  0  0  0  0  0  0  0  0  0  # atno 17395 bound_to 11000

$$$$
