#       Name:                AV-unprocessed.smi:1813
#       Creating user name   scv26
#       Creation time:       Fri Mar 27 09:00:11 2020


#       File generated by GOLD software.
#

@<TRIPOS>MOLECULE
AV-unprocessed.smi:1813
    45    46     1
SMALL
NO_CHARGES


@<TRIPOS>ATOM
      1 ****        -5.6474   3.4816   0.3651 C.3            1 S1                 0.0000
      2 ****        -4.9853   2.2005   0.1751 N.am           1 S1                 0.0000
      3 ****        -4.2015   1.9041  -0.8716 C.2            1 S1                 0.0000
      4 ****        -3.9598   2.6970  -1.7816 O.2            1 S1                 0.0000
      5 ****        -3.5873   0.4993  -0.8952 C.3            1 S1                 0.0000
      6 ****        -2.1090   0.4751  -0.8145 N.3            1 S1                 0.0000
      7 ****        -1.6411  -0.9062  -0.9714 C.3            1 S1                 0.0000
      8 ****        -0.1045  -0.9588  -1.0205 C.3            1 S1                 0.0000
      9 ****         0.5102  -0.3471   0.2484 C.3            1 S1                 0.0000
     10 ****         1.9648  -0.2832   0.1443 N.am           1 S1                 0.0000
     11 ****         2.8026  -1.2974   0.4046 C.2            1 S1                 0.0000
     12 ****         2.4270  -2.4121   0.7695 O.2            1 S1                 0.0000
     13 ****         4.0823  -0.9322   0.2135 N.am           1 S1                 0.0000
     14 ****         5.2534  -1.7174   0.3791 C.2            1 S1                 0.0000
     15 ****         5.2546  -3.0023   0.7533 N.2            1 S1                 0.0000
     16 ****         6.5483  -3.5234   0.8359 C.2            1 S1                 0.0000
     17 ****         7.5272  -2.6151   0.5183 C.2            1 S1                 0.0000
     18 ****         6.8593  -1.0600   0.0996 S.3            1 S1                 0.0000
     19 ****        -0.0637   1.0625   0.4482 C.3            1 S1                 0.0000
     20 ****        -1.6026   1.0447   0.4431 C.3            1 S1                 0.0000
     21 ****        -6.1789   3.4879   1.3168 H              1 S1                 0.0000
     22 ****        -6.3702   3.6645  -0.4309 H              1 S1                 0.0000
     23 ****        -4.9237   4.2978   0.3734 H              1 S1                 0.0000
     24 ****        -5.1310   1.4944   0.8820 H              1 S1                 0.0000
     25 ****        -4.0097  -0.1026  -0.0881 H              1 S1                 0.0000
     26 ****        -3.9060   0.0304  -1.8273 H              1 S1                 0.0000
     27 ****        -2.0136  -1.5296  -0.1564 H              1 S1                 0.0000
     28 ****        -2.0352  -1.3268  -1.8975 H              1 S1                 0.0000
     29 ****         0.2227  -1.9926  -1.1365 H              1 S1                 0.0000
     30 ****         0.2486  -0.4222  -1.9027 H              1 S1                 0.0000
     31 ****         0.2347  -0.9566   1.1113 H              1 S1                 0.0000
     32 ****         2.3599   0.5970  -0.1527 H              1 S1                 0.0000
     33 ****         4.2374   0.0194  -0.0847 H              1 S1                 0.0000
     34 ****         6.6809  -4.5544   1.1291 H              1 S1                 0.0000
     35 ****         8.5963  -2.7663   0.5051 H              1 S1                 0.0000
     36 ****         0.2958   1.4819   1.3886 H              1 S1                 0.0000
     37 ****         0.2912   1.7261  -0.3422 H              1 S1                 0.0000
     38 ****        -1.9502   2.0692   0.5750 H              1 S1                 0.0000
     39 ****        -1.9777   0.4721   1.2932 H              1 S1                 0.0000
     40 ****        -4.3557   3.6151  -1.7631 LP             1 S1                 0.0000
     41 ****        -3.3675   2.4231  -2.5393 LP             1 S1                 0.0000
     42 ****        -1.7524   1.0477  -1.5527 LP             1 S1                 0.0000
     43 ****         1.4513  -2.5977   0.8858 LP             1 S1                 0.0000
     44 ****         3.0978  -3.1316   0.9496 LP             1 S1                 0.0000
     45 ****         4.4269  -3.5276   0.9506 LP             1 S1                 0.0000
@<TRIPOS>BOND
    1    1    2 1     
    2    1   21 1     
    3    1   22 1     
    4    1   23 1     
    5    2    3 am    
    6    2   24 1     
    7    3    4 2     
    8    3    5 1     
    9    5    6 1     
   10    5   25 1     
   11    5   26 1     
   12    6   20 1     
   13    6    7 1     
   14    7    8 1     
   15    7   27 1     
   16    7   28 1     
   17    8    9 1     
   18    8   29 1     
   19    8   30 1     
   20    9   10 1     
   21    9   19 1     
   22    9   31 1     
   23   10   11 am    
   24   10   32 1     
   25   11   12 2     
   26   11   13 am    
   27   13   14 1     
   28   13   33 1     
   29   14   18 1     
   30   14   15 2     
   31   15   16 1     
   32   16   17 2     
   33   16   34 1     
   34   17   18 1     
   35   17   35 1     
   36   19   20 1     
   37   19   36 1     
   38   19   37 1     
   39   20   38 1     
   40   20   39 1     
   41    4   40 1     
   42    4   41 1     
   43    6   42 1     
   44   12   43 1     
   45   12   44 1     
   46   15   45 1     
@<TRIPOS>SUBSTRUCTURE
      1 S1             1
@<TRIPOS>SET
LONE_PAIRS      STATIC     ATOMS    <user>   **** ""
6 40 41 42 43 44 45
DONOR_HYDROGENS      STATIC     ATOMS    <user>   **** ""
3 24 32 33
ATOM$BLUE        STATIC     ATOMS    COLORGROUP SYSTEM
6 40 41 42 43 44 45
ATOM$RED        STATIC     ATOMS    COLORGROUP SYSTEM
3 24 32 33
