AV-unprocessed.smi:3346|AV-procd|sdf|12908|dock2
  -GOLD-   2272019323D 1   1.00000     0.00000
 Structure written by MMmdl.
 48 49  0  0  0  0  0  0  0  0  2 V2000
  153.5710  141.5333  160.6464 C   0  0  0  0  0  0  0  0  0  0  0  0
  152.8192  142.6892  159.9688 C   0  0  0  0  0  0  0  0  0  0  0  0
  152.1163  143.5592  161.0247 C   0  0  0  0  0  0  0  0  0  0  0  0
  151.8434  142.1450  158.9008 C   0  0  0  0  0  0  0  0  0  0  0  0
  151.0231  143.2065  158.1286 C   0  0  1  0  0  0  0  0  0  0  0  0
  151.9130  144.2286  157.4038 C   0  0  0  0  0  0  0  0  0  0  0  0
  150.1324  142.5668  157.1347 N   0  3  0  0  0  0  0  0  0  0  0  0
  150.7709  141.5618  156.2584 C   0  0  0  0  0  0  0  0  0  0  0  0
  149.7452  140.9545  155.3139 C   0  0  0  0  0  0  0  0  0  0  0  0
  148.8180  141.7889  154.6538 C   0  0  0  0  0  0  0  0  0  0  0  0
  147.8639  141.2099  153.7976 C   0  0  0  0  0  0  0  0  0  0  0  0
  147.8728  139.8121  153.6350 C   0  0  0  0  0  0  0  0  0  0  0  0
  148.7515  139.0017  154.2615 N   0  0  0  0  0  0  0  0  0  0  0  0
  149.6731  139.5551  155.0857 C   0  0  0  0  0  0  0  0  0  0  0  0
  150.5778  138.6902  155.7248 N   0  0  0  0  0  0  0  0  0  0  0  0
  150.2233  137.2758  155.7395 C   0  0  0  0  0  0  0  0  0  0  0  0
  151.1948  136.5093  156.6535 C   0  0  0  0  0  0  0  0  0  0  0  0
  152.5343  136.7308  156.2197 O   0  0  0  0  0  0  0  0  0  0  0  0
  152.8957  138.1088  156.2628 C   0  0  0  0  0  0  0  0  0  0  0  0
  151.9649  138.9159  155.3414 C   0  0  0  0  0  0  0  0  0  0  0  0
  152.8853  140.8641  161.1673 H   0  0  0  0  0  0  0  0  0  0  0  0
  154.2900  141.9056  161.3768 H   0  0  0  0  0  0  0  0  0  0  0  0
  154.1247  140.9412  159.9170 H   0  0  0  0  0  0  0  0  0  0  0  0
  153.5728  143.3034  159.4767 H   0  0  0  0  0  0  0  0  0  0  0  0
  151.3165  143.0101  161.5226 H   0  0  0  0  0  0  0  0  0  0  0  0
  151.6841  144.4576  160.5851 H   0  0  0  0  0  0  0  0  0  0  0  0
  152.8190  143.8879  161.7912 H   0  0  0  0  0  0  0  0  0  0  0  0
  152.4057  141.5493  158.1800 H   0  0  0  0  0  0  0  0  0  0  0  0
  151.1662  141.4474  159.3937 H   0  0  0  0  0  0  0  0  0  0  0  0
  150.3869  143.7573  158.8216 H   0  0  0  0  0  0  0  0  0  0  0  0
  152.4957  144.8250  158.1057 H   0  0  0  0  0  0  0  0  0  0  0  0
  151.3109  144.9259  156.8199 H   0  0  0  0  0  0  0  0  0  0  0  0
  152.6085  143.7386  156.7214 H   0  0  0  0  0  0  0  0  0  0  0  0
  149.4141  142.0822  157.6539 H   0  0  0  0  0  0  0  0  0  0  0  0
  151.5737  142.0262  155.6855 H   0  0  0  0  0  0  0  0  0  0  0  0
  151.2284  140.7722  156.8545 H   0  0  0  0  0  0  0  0  0  0  0  0
  148.8332  142.8588  154.8013 H   0  0  0  0  0  0  0  0  0  0  0  0
  147.1410  141.8217  153.2784 H   0  0  0  0  0  0  0  0  0  0  0  0
  147.1551  139.3320  152.9864 H   0  0  0  0  0  0  0  0  0  0  0  0
  149.1984  137.1533  156.0917 H   0  0  0  0  0  0  0  0  0  0  0  0
  150.2708  136.8705  154.7277 H   0  0  0  0  0  0  0  0  0  0  0  0
  151.0817  136.8247  157.6921 H   0  0  0  0  0  0  0  0  0  0  0  0
  150.9815  135.4410  156.6188 H   0  0  0  0  0  0  0  0  0  0  0  0
  152.8414  138.4774  157.2886 H   0  0  0  0  0  0  0  0  0  0  0  0
  153.9312  138.2158  155.9394 H   0  0  0  0  0  0  0  0  0  0  0  0
  152.1069  138.6078  154.3044 H   0  0  0  0  0  0  0  0  0  0  0  0
  152.2102  139.9768  155.3953 H   0  0  0  0  0  0  0  0  0  0  0  0
  149.6912  143.2775  156.5689 H   0  0  0  0  0  0  0  0  0  0  0  0
  1  2  1  0  0  0  0
  1 21  1  0  0  0  0
  1 22  1  0  0  0  0
  1 23  1  0  0  0  0
  2  3  1  0  0  0  0
  2  4  1  0  0  0  0
  2 24  1  0  0  0  0
  3 25  1  0  0  0  0
  3 26  1  0  0  0  0
  3 27  1  0  0  0  0
  4  5  1  0  0  0  0
  4 28  1  0  0  0  0
  4 29  1  0  0  0  0
  5  6  1  0  0  0  0
  5  7  1  0  0  0  0
  5 30  1  0  0  0  0
  6 31  1  0  0  0  0
  6 32  1  0  0  0  0
  6 33  1  0  0  0  0
  7  8  1  0  0  0  0
  7 34  1  0  0  0  0
  7 48  1  0  0  0  0
  8  9  1  0  0  0  0
  8 35  1  0  0  0  0
  8 36  1  0  0  0  0
  9 14  1  0  0  0  0
  9 10  2  0  0  0  0
 10 11  1  0  0  0  0
 10 37  1  0  0  0  0
 11 12  2  0  0  0  0
 11 38  1  0  0  0  0
 12 13  1  0  0  0  0
 12 39  1  0  0  0  0
 13 14  2  0  0  0  0
 14 15  1  0  0  0  0
 15 20  1  0  0  0  0
 15 16  1  0  0  0  0
 16 17  1  0  0  0  0
 16 40  1  0  0  0  0
 16 41  1  0  0  0  0
 17 18  1  0  0  0  0
 17 42  1  0  0  0  0
 17 43  1  0  0  0  0
 18 19  1  0  0  0  0
 19 20  1  0  0  0  0
 19 44  1  0  0  0  0
 19 45  1  0  0  0  0
 20 46  1  0  0  0  0
 20 47  1  0  0  0  0
M  CHG  1   7   1
M  END
> <s_m_source_file>
AV-unprocessed.smi

> <i_m_source_file_index>
3346

> <i_lp_mmshare_version>
43012

> <i_f3d_flags>
0

> <s_epik_input>
W0NIM11bQ0hdKFtDSDNdKVtDSDJdW0NASF0oW0NIM10pW05IXVtDSDJdYzFbY0hdW2NIXVtjSF1uYzFOMltDSDJdW0NIMl1PW0NIMl1bQ0gyXTI=

> <s_epik_cmdline>
J2VwaWtfcHl0aG9uJywgJy1waCcsICc3LjAnLCAnLXRuJywgJzgnLCAnLW1hJywgJzIwMCcsICctbWV0YWxfYmluZGluZycsICctaW1hZScsICc8aW5maWxlLm1hZT4nLCAnLW9tYWUnLCAnPG91dGZpbGUubWFlPic=

> <r_lp_tautomer_probability>
1

> <r_epik_Ionization_Penalty>
0.0185938

> <r_epik_Ionization_Penalty_Charging>
0.0176519

> <r_epik_Ionization_Penalty_Neutral>
0.000941891

> <r_epik_State_Penalty>
0.0140027

> <r_epik_Charging_Adjusted_Penalty>
0.0316546

> <i_epik_Tot_Q>
1

> <i_epik_Tot_abs_Q>
1

> <r_epik_Metal_State_Penalty>
0.0141454

> <b_epik_Metal_Only>
0

> <s_lp_Force_Field>
OPLS_2005

> <r_lp_Energy>
23.7399

> <b_lp_Chiralities_Consistent>
1

> <s_lp_Variant>
AV-unprocessed.smi:3346-2

> <Gold.Version>
5.8.1

> <Gold.Id.Protein>
6NUR|6NUR_protein|mol2

> <Gold.PLP.Fitness>
50.4741

> <Gold.PLP.PLP>
-42.7582

> <Gold.PLP.part.hbond>
-2.0000

> <Gold.PLP.part.metal>
0.0000

> <Gold.PLP.part.buried>
-2.1921

> <Gold.PLP.part.nonpolar>
-39.2954

> <Gold.PLP.part.repulsive>
0.2216

> <Gold.PLP.ligand.clash>
0.0000

> <Gold.PLP.ligand.torsion>
0.5072

> <Gold.PLP.Chemscore.Hbond>
2.8320

> <Gold.PLP.Chemscore.CHOScore>
0.0000

> <Gold.PLP.Chemscore.Metal>
0.0000

> <Gold.Chemscore.Hbonds>
donor molecule, donor type, donor heavy atom, donor atom, acceptor molecule, acceptor atom, score
      L1  H     7    48       P1  8028  2.00
      P1  H 10752 10765       L1    18  1.00

> <Gold.PLP.Chemscore.Internal.Correction>
0.2343

> <Gold.Rescore>
     Score         DG    S(hbond)    S(metal)    S(lipo)     H(rot)  DE(clash)    DE(int)     intcor
     21.13     -22.06       1.91        0.00     122.67       1.62       0.21       0.73       ----

> <Gold.Chemscore.Fitness>
21.1310

> <Gold.Chemscore.DG>
-22.0618

> <Gold.Chemscore.ZeroCoef>
-5.4800

> <Gold.Chemscore.Hbond>
1.9129

> <Gold.Chemscore.Metal>
0.0000

> <Gold.Chemscore.Lipo>
122.6682

> <Gold.Chemscore.Internal_Hbond>
0.0000

> <Gold.Chemscore.DEClash>
0.2056

> <Gold.Chemscore.DEInternal>
0.7252

> <Gold.Chemscore.Rot>
1.6248

> <Gold.Chemscore.Internal.Correction>
   9.000000E+99

> <Gold.Chemscore.Hbonds>
donor molecule, donor type, donor heavy atom, donor atom, acceptor molecule, acceptor atom, score
      L1  H     7    48       P1  8028  1.00
      P1  H 10752 10765       L1    18  0.89

> <Gold.Chemscore.Hbond.Weighted>
-6.3892

> <Gold.Chemscore.Metal.Weighted>
-0.0000

> <Gold.Chemscore.Lipo.Weighted>
-14.3522

> <Gold.Chemscore.Internal_Hbond.Weighted>
0.0000

> <Gold.Chemscore.DEClash.Weighted>
0.2056

> <Gold.Chemscore.DEInternal.Weighted>
0.7252

> <Gold.Chemscore.Rot.Weighted>
4.1596

> <Gold.Chemscore.Internal.Correction.Weighted>
   9.000000E+99

> <Gold.Protein.RotatedTorsions>
[ 6907 6896 6895 6894 ] final -102.28 input  -60.11 | X-H torsion
[ 7974 7965 7964 7962 ] final  146.58 input  175.53 | X-H torsion
[ 8008 7997 7996 7995 ] final -123.55 input   59.86 | X-H torsion
[ 10167 10162 10161 10158 ] final   98.15 input  -65.29 | X-H torsion
[ 10718 10713 10712 10709 ] final   74.71 input   66.30 | X-H torsion
[ 10763 10752 10751 10750 ] final -141.12 input  -60.55 | X-H torsion
[ 11005 11000 10999 10996 ] final  159.04 input  -57.11 | X-H torsion

> <Gold.Protein.ActiveResidues>
 VAL166  LYS551  ARG553  GLY616  TRP617  ASP618  TYR619  PRO620  LYS621  CYS622 
 ASP623  PHE694  ASN695  SER759  ASP760  ASP761  ALA762  ILE779  LEU786  VAL792 
 PHE793  MET794  SER795  GLU796  ALA797  LYS798  CYS799  TRP800  GLU811  SER814 

> <Gold.Protein.RotatedAtoms>
  150.7189  134.0605  159.3829 H   0  0  0  0  0  0  0  0  0  0  0  0  # atno 6907 bound_to 6896
  151.8585  135.0530  160.0476 H   0  0  0  0  0  0  0  0  0  0  0  0  # atno 6908 bound_to 6896
  152.2735  133.5369  159.5490 H   0  0  0  0  0  0  0  0  0  0  0  0  # atno 6909 bound_to 6896
  144.8659  139.5923  143.5909 H   0  0  0  0  0  0  0  0  0  0  0  0  # atno 7974 bound_to 7965
  155.1824  140.0411  157.2884 H   0  0  0  0  0  0  0  0  0  0  0  0  # atno 8008 bound_to 7997
  154.6194  140.2497  155.7540 H   0  0  0  0  0  0  0  0  0  0  0  0  # atno 8009 bound_to 7997
  156.2425  140.2898  156.0495 H   0  0  0  0  0  0  0  0  0  0  0  0  # atno 8010 bound_to 7997
  139.7735  144.6914  151.0122 H   0  0  0  0  0  0  0  0  0  0  0  0  # atno 10167 bound_to 10162
  157.6604  130.9691  150.1250 H   0  0  0  0  0  0  0  0  0  0  0  0  # atno 10718 bound_to 10713
  154.8556  135.3533  154.5817 H   0  0  0  0  0  0  0  0  0  0  0  0  # atno 10763 bound_to 10752
  153.6428  135.6997  153.5240 H   0  0  0  0  0  0  0  0  0  0  0  0  # atno 10764 bound_to 10752
  153.2957  135.4221  155.1166 H   0  0  0  0  0  0  0  0  0  0  0  0  # atno 10765 bound_to 10752
  140.1923  134.8398  157.2926 H   0  0  0  0  0  0  0  0  0  0  0  0  # atno 11005 bound_to 11000
  146.2895  139.7100  142.9171 LP  0  0  0  0  0  0  0  0  0  0  0  0  # atno 17320 bound_to 7965
  145.4222  141.0407  143.2957 LP  0  0  0  0  0  0  0  0  0  0  0  0  # atno 17321 bound_to 7965
  140.7815  143.4562  151.0342 LP  0  0  0  0  0  0  0  0  0  0  0  0  # atno 17342 bound_to 10162
  139.8245  143.7775  152.3178 LP  0  0  0  0  0  0  0  0  0  0  0  0  # atno 17343 bound_to 10162
  156.2111  130.3667  149.8669 LP  0  0  0  0  0  0  0  0  0  0  0  0  # atno 17370 bound_to 10713
  156.6547  130.8758  151.3537 LP  0  0  0  0  0  0  0  0  0  0  0  0  # atno 17371 bound_to 10713
  140.2145  134.4098  155.7596 LP  0  0  0  0  0  0  0  0  0  0  0  0  # atno 17394 bound_to 11000
  141.2226  133.7135  156.8392 LP  0  0  0  0  0  0  0  0  0  0  0  0  # atno 17395 bound_to 11000

$$$$
