#       Name:                AV-unprocessed.smi:1260
#       Creating user name   scv26
#       Creation time:       Fri Mar 27 04:41:29 2020


#       File generated by GOLD software.
#

@<TRIPOS>MOLECULE
AV-unprocessed.smi:1260
    42    44     1
SMALL
NO_CHARGES


@<TRIPOS>ATOM
      1 ****         0.5106   2.6326  -1.6928 O.2            1 S1                 0.0000
      2 ****         1.2884   1.6796  -1.6598 C.2            1 S1                 0.0000
      3 ****         2.7946   1.9204  -1.5771 C.3            1 S1                 0.0000
      4 ****         3.2462   1.7878  -0.2049 N.pl3          1 S1                 0.0000
      5 ****         3.2852   2.6716   0.7943 C.2            1 S1                 0.0000
      6 ****         3.7363   2.1244   1.9127 N.2            1 S1                 0.0000
      7 ****         3.9859   0.8131   1.5437 N.2            1 S1                 0.0000
      8 ****         3.6969   0.6070   0.2883 N.2            1 S1                 0.0000
      9 ****         0.8884   0.3989  -1.6489 N.am           1 S1                 0.0000
     10 ****        -0.5016  -0.0369  -1.5571 C.3            1 S1                 0.0000
     11 ****        -0.6966  -1.5223  -1.8893 C.3            1 S1                 0.0000
     12 ****        -1.8791  -1.9773  -1.0145 C.3            1 S1                 0.0000
     13 ****        -2.2722  -0.8013  -0.2063 N.4            1 S1                 1.0000
     14 ****        -2.9451  -1.0828   1.0879 C.3            1 S1                 0.0000
     15 ****        -1.9586  -1.4874   2.1962 C.3            1 S1                 0.0000
     16 ****        -0.8451  -0.4449   2.3374 C.3            1 S1                 0.0000
     17 ****        -0.1220  -0.2829   0.9970 C.3            1 S1                 0.0000
     18 ****        -1.0998   0.0998  -0.1456 C.3            1 S1                 0.0000
     19 ****         3.3317   1.2115  -2.2093 H              1 S1                 0.0000
     20 ****         3.0357   2.9228  -1.9333 H              1 S1                 0.0000
     21 ****         2.9745   3.7022   0.7059 H              1 S1                 0.0000
     22 ****         1.5979  -0.3198  -1.6261 H              1 S1                 0.0000
     23 ****        -1.1089   0.5452  -2.2537 H              1 S1                 0.0000
     24 ****        -0.8876  -1.6754  -2.9521 H              1 S1                 0.0000
     25 ****         0.1922  -2.0998  -1.6301 H              1 S1                 0.0000
     26 ****        -2.7244  -2.3141  -1.6152 H              1 S1                 0.0000
     27 ****        -1.5727  -2.8068  -0.3763 H              1 S1                 0.0000
     28 ****        -3.4726  -0.1782   1.3930 H              1 S1                 0.0000
     29 ****        -3.7056  -1.8520   0.9486 H              1 S1                 0.0000
     30 ****        -2.4895  -1.5931   3.1427 H              1 S1                 0.0000
     31 ****        -1.5252  -2.4640   1.9778 H              1 S1                 0.0000
     32 ****        -1.2634   0.5113   2.6544 H              1 S1                 0.0000
     33 ****        -0.1387  -0.7506   3.1099 H              1 S1                 0.0000
     34 ****         0.6559   0.4746   1.0979 H              1 S1                 0.0000
     35 ****         0.3911  -1.2155   0.7589 H              1 S1                 0.0000
     36 ****        -1.4499   1.1196   0.0210 H              1 S1                 0.0000
     37 ****        -2.9514  -0.3160  -0.7751 H              1 S1                 0.0000
     38 ****         0.8640   3.5676  -1.6655 LP             1 S1                 0.0000
     39 ****        -0.4750   2.4720  -1.7469 LP             1 S1                 0.0000
     40 ****         3.8653   2.5537   2.8066 LP             1 S1                 0.0000
     41 ****         4.3426   0.1125   2.1617 LP             1 S1                 0.0000
     42 ****         3.7895  -0.2535  -0.2127 LP             1 S1                 0.0000
@<TRIPOS>BOND
    1    1    2 2     
    2    2    3 1     
    3    2    9 am    
    4    3    4 1     
    5    3   19 1     
    6    3   20 1     
    7    4    8 1     
    8    4    5 1     
    9    5    6 2     
   10    5   21 1     
   11    6    7 1     
   12    7    8 2     
   13    9   10 1     
   14    9   22 1     
   15   10   18 1     
   16   10   11 1     
   17   10   23 1     
   18   11   12 1     
   19   11   24 1     
   20   11   25 1     
   21   12   13 1     
   22   12   26 1     
   23   12   27 1     
   24   13   18 1     
   25   13   14 1     
   26   13   37 1     
   27   14   15 1     
   28   14   28 1     
   29   14   29 1     
   30   15   16 1     
   31   15   30 1     
   32   15   31 1     
   33   16   17 1     
   34   16   32 1     
   35   16   33 1     
   36   17   18 1     
   37   17   34 1     
   38   17   35 1     
   39   18   36 1     
   40    1   38 1     
   41    1   39 1     
   42    6   40 1     
   43    7   41 1     
   44    8   42 1     
@<TRIPOS>SUBSTRUCTURE
      1 S1             1
@<TRIPOS>SET
LONE_PAIRS      STATIC     ATOMS    <user>   **** ""
5 38 39 40 41 42
DONOR_HYDROGENS      STATIC     ATOMS    <user>   **** ""
2 22 37
ATOM$BLUE        STATIC     ATOMS    COLORGROUP SYSTEM
5 38 39 40 41 42
ATOM$RED        STATIC     ATOMS    COLORGROUP SYSTEM
2 22 37
