#       Name:                AV-unprocessed.smi:634
#       Creating user name   scv26
#       Creation time:       Fri Mar 27 00:06:07 2020


#       File generated by GOLD software.
#

@<TRIPOS>MOLECULE
AV-unprocessed.smi:634
    38    39     1
SMALL
NO_CHARGES


@<TRIPOS>ATOM
      1 ****        -5.5875  -2.5842  -0.4930 C.3            1 S1                 0.0000
      2 ****        -4.2380  -2.3271   0.0852 C.2            1 S1                 0.0000
      3 ****        -2.9956  -2.2183  -0.4719 C.2            1 S1                 0.0000
      4 ****        -2.1584  -1.9631   0.6485 C.2            1 S1                 0.0000
      5 ****        -0.8278  -1.7907   0.6161 N.pl3          1 S1                -1.0000
      6 ****        -0.3040  -0.5732   0.3437 C.2            1 S1                 0.0000
      7 ****        -0.9422   0.4540   0.1054 O.2            1 S1                 0.0000
      8 ****         1.0401  -0.5599   0.3488 N.am           1 S1                 0.0000
      9 ****         1.9739   0.5491   0.1075 C.3            1 S1                 0.0000
     10 ****         3.3934  -0.0363   0.2558 C.3            1 S1                 0.0000
     11 ****         1.7910   1.7077   1.1251 C.3            1 S1                 0.0000
     12 ****         2.4999   2.9670   0.6049 C.3            1 S1                 0.0000
     13 ****         2.4733   2.8567  -1.2246 S.o2           1 S1                 0.0000
     14 ****         1.4728   3.7921  -1.7606 O.2            1 S1                 0.0000
     15 ****         3.8578   2.8672  -1.7215 O.2            1 S1                 0.0000
     16 ****         1.8079   1.1506  -1.3078 C.3            1 S1                 0.0000
     17 ****        -2.8310  -1.9372   1.7869 N.2            1 S1                 0.0000
     18 ****        -4.1666  -2.1638   1.4336 O.3            1 S1                 0.0000
     19 ****        -5.6735  -3.6192  -0.8233 H              1 S1                 0.0000
     20 ****        -5.7683  -1.9383  -1.3523 H              1 S1                 0.0000
     21 ****        -6.3718  -2.3960   0.2406 H              1 S1                 0.0000
     22 ****        -2.7270  -2.3032  -1.5142 H              1 S1                 0.0000
     23 ****         1.4759  -1.4468   0.5552 H              1 S1                 0.0000
     24 ****         4.1663   0.7121   0.0814 H              1 S1                 0.0000
     25 ****         3.5629  -0.8469  -0.4541 H              1 S1                 0.0000
     26 ****         3.5521  -0.4410   1.2562 H              1 S1                 0.0000
     27 ****         0.7364   1.9556   1.2351 H              1 S1                 0.0000
     28 ****         2.1424   1.4368   2.1212 H              1 S1                 0.0000
     29 ****         2.0168   3.8876   0.9325 H              1 S1                 0.0000
     30 ****         3.5411   2.9886   0.9262 H              1 S1                 0.0000
     31 ****         2.3260   0.5845  -2.0820 H              1 S1                 0.0000
     32 ****         0.7632   1.2343  -1.6037 H              1 S1                 0.0000
     33 ****        -0.2210  -2.5653   0.7940 LP             1 S1                 0.0000
     34 ****        -1.9420   0.4322   0.1025 LP             1 S1                 0.0000
     35 ****        -0.4603   1.3093  -0.0851 LP             1 S1                 0.0000
     36 ****        -2.4637  -1.7875   2.7049 LP             1 S1                 0.0000
     37 ****        -4.5007  -2.9880   1.8907 LP             1 S1                 0.0000
     38 ****        -4.7250  -1.3809   1.7080 LP             1 S1                 0.0000
@<TRIPOS>BOND
    1    1    2 1     
    2    1   19 1     
    3    1   20 1     
    4    1   21 1     
    5    2   18 1     
    6    2    3 2     
    7    3    4 1     
    8    3   22 1     
    9    4    5 1     
   10    4   17 2     
   11    5    6 1     
   12    6    7 2     
   13    6    8 am    
   14    8    9 1     
   15    8   23 1     
   16    9   16 1     
   17    9   10 1     
   18    9   11 1     
   19   10   24 1     
   20   10   25 1     
   21   10   26 1     
   22   11   12 1     
   23   11   27 1     
   24   11   28 1     
   25   12   13 1     
   26   12   29 1     
   27   12   30 1     
   28   13   14 2     
   29   13   15 2     
   30   13   16 1     
   31   16   31 1     
   32   16   32 1     
   33   17   18 1     
   34    5   33 1     
   35    7   34 1     
   36    7   35 1     
   37   17   36 1     
   38   18   37 1     
   39   18   38 1     
@<TRIPOS>SUBSTRUCTURE
      1 S1             1
@<TRIPOS>SET
LONE_PAIRS      STATIC     ATOMS    <user>   **** ""
8 33 34 35 14 15 36 37 38
DONOR_HYDROGENS      STATIC     ATOMS    <user>   **** ""
1 23
ATOM$BLUE        STATIC     ATOMS    COLORGROUP SYSTEM
8 33 34 35 14 15 36 37 38
ATOM$RED        STATIC     ATOMS    COLORGROUP SYSTEM
1 23
