#       Name:                AV-unprocessed.smi:2413
#       Creating user name   scv26
#       Creation time:       Fri Mar 27 13:17:06 2020


#       File generated by GOLD software.
#

@<TRIPOS>MOLECULE
AV-unprocessed.smi:2413
    52    53     1
SMALL
NO_CHARGES


@<TRIPOS>ATOM
      1 ****        -4.4280   1.6413  -2.6824 C.3            1 S1                 0.0000
      2 ****        -3.7367   0.3124  -2.9698 C.2            1 S1                 0.0000
      3 ****        -3.1343   0.1518  -4.0306 O.2            1 S1                 0.0000
      4 ****        -3.8255  -0.6289  -2.0180 N.am           1 S1                 0.0000
      5 ****        -3.2312  -1.9598  -2.0934 C.3            1 S1                 0.0000
      6 ****        -1.7096  -1.9435  -1.8565 C.3            1 S1                 0.0000
      7 ****        -1.3140  -1.3490  -0.4876 C.3            1 S1                 0.0000
      8 ****         0.1258  -1.4572  -0.2937 N.3            1 S1                 0.0000
      9 ****         0.5819  -0.8228   0.8679 C.ar           1 S1                 0.0000
     10 ****         0.2478  -1.2780   2.1577 C.ar           1 S1                 0.0000
     11 ****         0.7754  -0.5513   3.2399 C.ar           1 S1                 0.0000
     12 ****         1.5640   0.5291   3.0215 N.pl3          1 S1                 1.0000
     13 ****         1.8488   0.9147   1.7645 C.ar           1 S1                 0.0000
     14 ****         2.7402   2.1495   1.5616 C.3            1 S1                 0.0000
     15 ****         2.9960   2.4404   0.0630 C.3            1 S1                 0.0000
     16 ****         4.1125   1.9139   2.2245 C.3            1 S1                 0.0000
     17 ****         2.0534   3.3909   2.1647 C.3            1 S1                 0.0000
     18 ****         1.3669   0.2590   0.6966 N.ar           1 S1                 0.0000
     19 ****         0.6122  -2.8219  -0.4451 C.3            1 S1                 0.0000
     20 ****         0.1722  -3.3852  -1.8063 C.3            1 S1                 0.0000
     21 ****        -1.2447  -3.2904  -1.9231 O.3            1 S1                 0.0000
     22 ****        -5.0357   1.5903  -1.7780 H              1 S1                 0.0000
     23 ****        -5.0781   1.9148  -3.5136 H              1 S1                 0.0000
     24 ****        -3.6864   2.4298  -2.5527 H              1 S1                 0.0000
     25 ****        -4.3477  -0.4093  -1.1821 H              1 S1                 0.0000
     26 ****        -3.7152  -2.5877  -1.3448 H              1 S1                 0.0000
     27 ****        -3.4562  -2.4087  -3.0623 H              1 S1                 0.0000
     28 ****        -1.2329  -1.3704  -2.6540 H              1 S1                 0.0000
     29 ****        -1.6077  -0.3000  -0.4305 H              1 S1                 0.0000
     30 ****        -1.8358  -1.8750   0.3132 H              1 S1                 0.0000
     31 ****        -0.3816  -2.1418   2.3153 H              1 S1                 0.0000
     32 ****         0.5930  -0.7993   4.2754 H              1 S1                 0.0000
     33 ****         3.6311   3.3176  -0.0672 H              1 S1                 0.0000
     34 ****         2.0673   2.6359  -0.4749 H              1 S1                 0.0000
     35 ****         3.4968   1.6062  -0.4304 H              1 S1                 0.0000
     36 ****         4.6084   1.0370   1.8065 H              1 S1                 0.0000
     37 ****         4.0213   1.7583   3.2999 H              1 S1                 0.0000
     38 ****         4.7761   2.7669   2.0784 H              1 S1                 0.0000
     39 ****         2.6546   4.2888   2.0161 H              1 S1                 0.0000
     40 ****         1.8950   3.2834   3.2382 H              1 S1                 0.0000
     41 ****         1.0804   3.5673   1.7047 H              1 S1                 0.0000
     42 ****         1.6999  -2.8389  -0.3659 H              1 S1                 0.0000
     43 ****         0.2190  -3.4476   0.3571 H              1 S1                 0.0000
     44 ****         0.6528  -2.8476  -2.6254 H              1 S1                 0.0000
     45 ****         0.4673  -4.4309  -1.8939 H              1 S1                 0.0000
     46 ****         1.9393   1.0456   3.8176 H              1 S1                 0.0000
     47 ****        -3.0986   0.8917  -4.7024 LP             1 S1                 0.0000
     48 ****        -2.6803  -0.7187  -4.2211 LP             1 S1                 0.0000
     49 ****         0.5409  -0.9401  -1.0423 LP             1 S1                 0.0000
     50 ****         1.5906   0.5734  -0.2260 LP             1 S1                 0.0000
     51 ****        -1.5210  -3.6820  -2.8008 LP             1 S1                 0.0000
     52 ****        -1.6633  -3.8113  -1.1792 LP             1 S1                 0.0000
@<TRIPOS>BOND
    1    1    2 1     
    2    1   22 1     
    3    1   23 1     
    4    1   24 1     
    5    2    3 2     
    6    2    4 am    
    7    4    5 1     
    8    4   25 1     
    9    5    6 1     
   10    5   26 1     
   11    5   27 1     
   12    6   21 1     
   13    6    7 1     
   14    6   28 1     
   15    7    8 1     
   16    7   29 1     
   17    7   30 1     
   18    8    9 1     
   19    8   19 1     
   20    9   18 ar    
   21    9   10 ar    
   22   10   11 ar    
   23   10   31 1     
   24   11   12 ar    
   25   11   32 1     
   26   12   13 ar    
   27   12   46 1     
   28   13   14 1     
   29   13   18 ar    
   30   14   15 1     
   31   14   16 1     
   32   14   17 1     
   33   15   33 1     
   34   15   34 1     
   35   15   35 1     
   36   16   36 1     
   37   16   37 1     
   38   16   38 1     
   39   17   39 1     
   40   17   40 1     
   41   17   41 1     
   42   19   20 1     
   43   19   42 1     
   44   19   43 1     
   45   20   21 1     
   46   20   44 1     
   47   20   45 1     
   48    3   47 1     
   49    3   48 1     
   50    8   49 1     
   51   18   50 1     
   52   21   51 1     
   53   21   52 1     
@<TRIPOS>SUBSTRUCTURE
      1 S1             1
@<TRIPOS>SET
LONE_PAIRS      STATIC     ATOMS    <user>   **** ""
6 47 48 49 50 51 52
DONOR_HYDROGENS      STATIC     ATOMS    <user>   **** ""
2 25 46
ATOM$BLUE        STATIC     ATOMS    COLORGROUP SYSTEM
6 47 48 49 50 51 52
ATOM$RED        STATIC     ATOMS    COLORGROUP SYSTEM
2 25 46
