AV-unprocessed.smi:787|AV-procd|sdf|3728|dock9
  -GOLD-   22720 1163D 1   1.00000     0.00000
 Structure written by MMmdl.
 47 49  0  0  0  0  0  0  0  0  2 V2000
  145.3977  140.0788  158.0709 C   0  0  0  0  0  0  0  0  0  0  0  0
  146.3747  139.3295  157.2969 N   0  0  0  0  0  0  0  0  0  0  0  0
  147.6433  139.8689  157.0401 C   0  0  0  0  0  0  0  0  0  0  0  0
  148.2065  140.7131  157.9349 N   0  0  0  0  0  0  0  0  0  0  0  0
  149.4165  141.2121  157.6520 C   0  0  0  0  0  0  0  0  0  0  0  0
  150.1897  140.9936  156.5777 N   0  0  0  0  0  0  0  0  0  0  0  0
  149.6440  140.1548  155.6872 C   0  0  0  0  0  0  0  0  0  0  0  0
  150.2207  139.7527  154.4957 N   0  0  0  0  0  0  0  0  0  0  0  0
  149.2912  138.9367  154.0073 C   0  0  0  0  0  0  0  0  0  0  0  0
  148.1776  138.7471  154.7431 N   0  0  0  0  0  0  0  0  0  0  0  0
  147.0601  137.8770  154.4017 C   0  0  0  0  0  0  0  0  0  0  0  0
  146.0622  138.5166  153.4090 C   0  0  1  0  0  0  0  0  0  0  0  0
  146.3403  139.9021  153.3251 O   0  0  0  0  0  0  0  0  0  0  0  0
  146.1342  137.9088  151.9923 C   0  0  0  0  0  0  0  0  0  0  0  0
  145.2090  136.7576  151.8264 N   0  3  2  0  0  0  0  0  0  0  0  0
  143.8588  137.0321  152.3686 C   0  0  0  0  0  0  0  0  0  0  0  0
  145.7639  135.4763  152.3298 C   0  0  0  0  0  0  0  0  0  0  0  0
  145.2475  134.2902  151.5324 C   0  0  0  0  0  0  0  0  0  0  0  0
  143.8668  133.9988  151.5195 C   0  0  0  0  0  0  0  0  0  0  0  0
  143.3796  132.9110  150.7693 C   0  0  0  0  0  0  0  0  0  0  0  0
  144.2706  132.1094  150.0300 C   0  0  0  0  0  0  0  0  0  0  0  0
  145.6497  132.3939  150.0432 C   0  0  0  0  0  0  0  0  0  0  0  0
  146.1380  133.4798  150.7953 C   0  0  0  0  0  0  0  0  0  0  0  0
  148.3621  139.5515  155.8687 C   0  0  0  0  0  0  0  0  0  0  0  0
  144.4718  139.5099  158.1517 H   0  0  0  0  0  0  0  0  0  0  0  0
  145.1719  141.0313  157.5904 H   0  0  0  0  0  0  0  0  0  0  0  0
  145.7675  140.2728  159.0784 H   0  0  0  0  0  0  0  0  0  0  0  0
  146.0765  138.4966  156.8108 H   0  0  0  0  0  0  0  0  0  0  0  0
  149.8260  141.8846  158.3910 H   0  0  0  0  0  0  0  0  0  0  0  0
  149.4340  138.4350  153.0612 H   0  0  0  0  0  0  0  0  0  0  0  0
  147.4492  136.9456  153.9937 H   0  0  0  0  0  0  0  0  0  0  0  0
  146.5456  137.6024  155.3239 H   0  0  0  0  0  0  0  0  0  0  0  0
  145.0566  138.4032  153.8140 H   0  0  0  0  0  0  0  0  0  0  0  0
  145.6609  140.3252  152.8233 H   0  0  0  0  0  0  0  0  0  0  0  0
  145.9124  138.6878  151.2643 H   0  0  0  0  0  0  0  0  0  0  0  0
  147.1500  137.5820  151.7694 H   0  0  0  0  0  0  0  0  0  0  0  0
  143.8879  137.1380  153.4541 H   0  0  0  0  0  0  0  0  0  0  0  0
  143.1728  136.2207  152.1239 H   0  0  0  0  0  0  0  0  0  0  0  0
  143.4461  137.9491  151.9477 H   0  0  0  0  0  0  0  0  0  0  0  0
  146.8549  135.5070  152.3160 H   0  0  0  0  0  0  0  0  0  0  0  0
  145.4697  135.3277  153.3699 H   0  0  0  0  0  0  0  0  0  0  0  0
  143.1766  134.6106  152.0818 H   0  0  0  0  0  0  0  0  0  0  0  0
  142.3220  132.6913  150.7601 H   0  0  0  0  0  0  0  0  0  0  0  0
  143.8968  131.2754  149.4545 H   0  0  0  0  0  0  0  0  0  0  0  0
  146.3331  131.7789  149.4762 H   0  0  0  0  0  0  0  0  0  0  0  0
  147.1972  133.6918  150.7969 H   0  0  0  0  0  0  0  0  0  0  0  0
  145.0952  136.6253  150.8319 H   0  0  0  0  0  0  0  0  0  0  0  0
  1  2  1  0  0  0  0
  1 25  1  0  0  0  0
  1 26  1  0  0  0  0
  1 27  1  0  0  0  0
  2  3  1  0  0  0  0
  2 28  1  0  0  0  0
  3 24  1  0  0  0  0
  3  4  2  0  0  0  0
  4  5  1  0  0  0  0
  5  6  2  0  0  0  0
  5 29  1  0  0  0  0
  6  7  1  0  0  0  0
  7 24  2  0  0  0  0
  7  8  1  0  0  0  0
  8  9  2  0  0  0  0
  9 10  1  0  0  0  0
  9 30  1  0  0  0  0
 10 11  1  0  0  0  0
 10 24  1  0  0  0  0
 11 12  1  0  0  0  0
 11 31  1  0  0  0  0
 11 32  1  0  0  0  0
 12 13  1  0  0  0  0
 12 14  1  0  0  0  0
 12 33  1  0  0  0  0
 13 34  1  0  0  0  0
 14 15  1  0  0  0  0
 14 35  1  0  0  0  0
 14 36  1  0  0  0  0
 15 16  1  0  0  0  0
 15 17  1  0  0  0  0
 15 47  1  0  0  0  0
 16 37  1  0  0  0  0
 16 38  1  0  0  0  0
 16 39  1  0  0  0  0
 17 18  1  0  0  0  0
 17 40  1  0  0  0  0
 17 41  1  0  0  0  0
 18 23  1  0  0  0  0
 18 19  2  0  0  0  0
 19 20  1  0  0  0  0
 19 42  1  0  0  0  0
 20 21  2  0  0  0  0
 20 43  1  0  0  0  0
 21 22  1  0  0  0  0
 21 44  1  0  0  0  0
 22 23  2  0  0  0  0
 22 45  1  0  0  0  0
 23 46  1  0  0  0  0
M  CHG  1  15   1
M  END
> <s_m_source_file>
AV-unprocessed.smi

> <i_m_source_file_index>
787

> <i_lp_mmshare_version>
43012

> <i_f3d_flags>
0

> <s_epik_input>
bjFbY0hdbmMoW05IXVtDSDNdKWMoYzEyKW4oW2NIXW4yKVtDSDJdW0NASF0oW09IXSlbQ0gyXU4oW0NIM10pW0NIMl1jM1tjSF1bY0hdW2NIXVtjSF1bY0hdMw==

> <s_epik_cmdline>
J2VwaWtfcHl0aG9uJywgJy1waCcsICc3LjAnLCAnLXRuJywgJzgnLCAnLW1hJywgJzIwMCcsICctbWV0YWxfYmluZGluZycsICctaW1hZScsICc8aW5maWxlLm1hZT4nLCAnLW9tYWUnLCAnPG91dGZpbGUubWFlPic=

> <r_lp_tautomer_probability>
0.999987

> <r_epik_Ionization_Penalty>
0.0526284

> <r_epik_Ionization_Penalty_Charging>
0.0475377

> <r_epik_Ionization_Penalty_Neutral>
0.00509065

> <r_epik_State_Penalty>
0.0404888

> <r_epik_Charging_Adjusted_Penalty>
0.0880265

> <i_epik_Tot_Q>
1

> <i_epik_Tot_abs_Q>
1

> <r_epik_Metal_State_Penalty>
0.040507

> <b_epik_Metal_Only>
0

> <s_lp_Force_Field>
OPLS_2005

> <r_lp_Energy>
14.9507

> <b_lp_Chiralities_Consistent>
1

> <s_lp_Variant>
AV-unprocessed.smi:787-4

> <Gold.Version>
5.8.1

> <Gold.Id.Protein>
6NUR|6NUR_protein|mol2

> <Gold.PLP.Fitness>
40.0916

> <Gold.PLP.PLP>
-32.9316

> <Gold.PLP.part.hbond>
-3.0249

> <Gold.PLP.part.metal>
0.0000

> <Gold.PLP.part.buried>
-2.3683

> <Gold.PLP.part.nonpolar>
-28.2760

> <Gold.PLP.part.repulsive>
0.2506

> <Gold.PLP.ligand.clash>
0.0000

> <Gold.PLP.ligand.torsion>
2.0406

> <Gold.PLP.Chemscore.Hbond>
2.0000

> <Gold.PLP.Chemscore.CHOScore>
1.6872

> <Gold.PLP.Chemscore.Metal>
0.0000

> <Gold.Chemscore.Hbonds>
donor molecule, donor type, donor heavy atom, donor atom, acceptor molecule, acceptor atom, score
      L1  H    13    34       P1 10175  0.94
      P1  H  7989  7998       L1     8  0.94
      L1  C     9    30       P1  7948  1.00
      L1  C     9    30       P1  7957  0.66

> <Gold.PLP.Chemscore.Internal.Correction>
0.1794

> <Gold.Rescore>
     Score         DG    S(hbond)    S(metal)    S(lipo)     H(rot)  DE(clash)    DE(int)     intcor
      9.93     -12.29       1.93        0.00      72.93       3.19       0.31       2.05       ----

> <Gold.Chemscore.Fitness>
9.9309

> <Gold.Chemscore.DG>
-12.2874

> <Gold.Chemscore.ZeroCoef>
-5.4800

> <Gold.Chemscore.Hbond>
1.9308

> <Gold.Chemscore.Metal>
0.0000

> <Gold.Chemscore.Lipo>
72.9258

> <Gold.Chemscore.Internal_Hbond>
0.0000

> <Gold.Chemscore.DEClash>
0.3090

> <Gold.Chemscore.DEInternal>
2.0476

> <Gold.Chemscore.Rot>
3.1928

> <Gold.Chemscore.Internal.Correction>
   9.000000E+99

> <Gold.Chemscore.Hbonds>
donor molecule, donor type, donor heavy atom, donor atom, acceptor molecule, acceptor atom, score
      L1  H    13    34       P1 10175  0.76
      P1  H  7989  7998       L1     8  0.89

> <Gold.Chemscore.Hbond.Weighted>
-6.4487

> <Gold.Chemscore.Metal.Weighted>
-0.0000

> <Gold.Chemscore.Lipo.Weighted>
-8.5323

> <Gold.Chemscore.Internal_Hbond.Weighted>
0.0000

> <Gold.Chemscore.DEClash.Weighted>
0.3090

> <Gold.Chemscore.DEInternal.Weighted>
2.0476

> <Gold.Chemscore.Rot.Weighted>
8.1736

> <Gold.Chemscore.Internal.Correction.Weighted>
   9.000000E+99

> <Gold.Protein.RotatedTorsions>
[ 6907 6896 6895 6894 ] final  115.59 input  -60.11 | X-H torsion
[ 7974 7965 7964 7962 ] final -123.53 input  175.53 | X-H torsion
[ 8008 7997 7996 7995 ] final -123.53 input   59.86 | X-H torsion
[ 10167 10162 10161 10158 ] final -125.90 input  -65.29 | X-H torsion
[ 10718 10713 10712 10709 ] final  -46.80 input   66.30 | X-H torsion
[ 10763 10752 10751 10750 ] final   66.48 input  -60.55 | X-H torsion
[ 11005 11000 10999 10996 ] final -154.98 input  -57.11 | X-H torsion

> <Gold.Protein.ActiveResidues>
 VAL166  LYS551  ARG553  GLY616  TRP617  ASP618  TYR619  PRO620  LYS621  CYS622 
 ASP623  PHE694  ASN695  SER759  ASP760  ASP761  ALA762  ILE779  LEU786  VAL792 
 PHE793  MET794  SER795  GLU796  ALA797  LYS798  CYS799  TRP800  GLU811  SER814 

> <Gold.Protein.RotatedAtoms>
  152.4732  133.8077  159.6986 H   0  0  0  0  0  0  0  0  0  0  0  0  # atno 6907 bound_to 6896
  150.8733  133.7465  159.2961 H   0  0  0  0  0  0  0  0  0  0  0  0  # atno 6908 bound_to 6896
  151.4993  135.1064  159.9876 H   0  0  0  0  0  0  0  0  0  0  0  0  # atno 6909 bound_to 6896
  145.0177  140.7961  143.4400 H   0  0  0  0  0  0  0  0  0  0  0  0  # atno 7974 bound_to 7965
  155.1820  140.0411  157.2884 H   0  0  0  0  0  0  0  0  0  0  0  0  # atno 8008 bound_to 7997
  154.6197  140.2497  155.7537 H   0  0  0  0  0  0  0  0  0  0  0  0  # atno 8009 bound_to 7997
  156.2426  140.2897  156.0499 H   0  0  0  0  0  0  0  0  0  0  0  0  # atno 8010 bound_to 7997
  139.9772  143.5781  152.2391 H   0  0  0  0  0  0  0  0  0  0  0  0  # atno 10167 bound_to 10162
  156.2147  130.4162  149.9069 H   0  0  0  0  0  0  0  0  0  0  0  0  # atno 10718 bound_to 10713
  153.0142  135.5319  154.6830 H   0  0  0  0  0  0  0  0  0  0  0  0  # atno 10763 bound_to 10752
  154.5985  135.2866  155.0563 H   0  0  0  0  0  0  0  0  0  0  0  0  # atno 10764 bound_to 10752
  154.1629  135.6544  153.5043 H   0  0  0  0  0  0  0  0  0  0  0  0  # atno 10765 bound_to 10752
  140.6915  134.4036  157.5219 H   0  0  0  0  0  0  0  0  0  0  0  0  # atno 11005 bound_to 11000
  145.1938  139.2287  143.5229 LP  0  0  0  0  0  0  0  0  0  0  0  0  # atno 17320 bound_to 7965
  146.3480  140.1740  142.8589 LP  0  0  0  0  0  0  0  0  0  0  0  0  # atno 17321 bound_to 7965
  139.6437  144.7656  151.2288 LP  0  0  0  0  0  0  0  0  0  0  0  0  # atno 17342 bound_to 10162
  140.7502  143.6275  150.8454 LP  0  0  0  0  0  0  0  0  0  0  0  0  # atno 17343 bound_to 10162
  156.6736  130.8830  151.3566 LP  0  0  0  0  0  0  0  0  0  0  0  0  # atno 17370 bound_to 10713
  157.7057  130.9382  150.0923 LP  0  0  0  0  0  0  0  0  0  0  0  0  # atno 17371 bound_to 10713
  139.8922  134.8760  156.2282 LP  0  0  0  0  0  0  0  0  0  0  0  0  # atno 17394 bound_to 11000
  141.0238  133.7027  156.1312 LP  0  0  0  0  0  0  0  0  0  0  0  0  # atno 17395 bound_to 11000

$$$$
