#       Name:                AV-unprocessed.smi:2712
#       Creating user name   scv26
#       Creation time:       Fri Mar 27 14:51:48 2020


#       File generated by GOLD software.
#

@<TRIPOS>MOLECULE
AV-unprocessed.smi:2712
    57    58     1
SMALL
NO_CHARGES


@<TRIPOS>ATOM
      1 ****        -4.1393   5.8281   3.3381 C.3            1 S1                 0.0000
      2 ****        -3.8019   5.2408   1.9995 C.2            1 S1                 0.0000
      3 ****        -3.9336   5.9800   0.7584 C.2            1 S1                 0.0000
      4 ****        -3.6139   5.3783  -0.4073 C.2            1 S1                 0.0000
      5 ****        -3.1336   3.9989  -0.4535 C.2            1 S1                 0.0000
      6 ****        -2.8371   3.4213  -1.4992 O.2            1 S1                 0.0000
      7 ****        -3.0413   3.4082   0.7750 N.am           1 S1                 0.0000
      8 ****        -2.5546   2.0287   0.9221 C.3            1 S1                 0.0000
      9 ****        -1.0233   1.9105   0.8912 C.2            1 S1                 0.0000
     10 ****        -0.3070   2.9042   1.0241 O.2            1 S1                 0.0000
     11 ****        -0.5373   0.6705   0.7276 N.am           1 S1                 0.0000
     12 ****         0.8786   0.3120   0.6762 C.3            1 S1                 0.0000
     13 ****         1.4252   0.5424  -0.7470 C.3            1 S1                 0.0000
     14 ****         2.7600  -0.1581  -1.0390 C.3            1 S1                 0.0000
     15 ****         2.5877  -1.5907  -1.5790 C.3            1 S1                 0.0000
     16 ****         2.1494  -2.6710  -0.5504 C.3            1 S1                 0.0000
     17 ****         2.0591  -4.1168  -1.1668 C.3            1 S1                 0.0000
     18 ****         0.8500  -4.2641  -2.1160 C.3            1 S1                 0.0000
     19 ****         1.9403  -5.1810  -0.0494 C.3            1 S1                 0.0000
     20 ****         3.3404  -4.4675  -1.9583 C.3            1 S1                 0.0000
     21 ****         0.8586  -2.2503   0.2095 C.3            1 S1                 0.0000
     22 ****         1.0780  -1.1144   1.2249 C.3            1 S1                 0.0000
     23 ****        -3.3765   4.0205   1.9715 N.2            1 S1                 0.0000
     24 ****        -4.5287   6.8415   3.2375 H              1 S1                 0.0000
     25 ****        -3.2560   5.8712   3.9760 H              1 S1                 0.0000
     26 ****        -4.8955   5.2292   3.8465 H              1 S1                 0.0000
     27 ****        -4.2847   7.0012   0.7756 H              1 S1                 0.0000
     28 ****        -3.7119   5.9299  -1.3308 H              1 S1                 0.0000
     29 ****        -2.9078   1.6054   1.8642 H              1 S1                 0.0000
     30 ****        -2.9811   1.3966   0.1409 H              1 S1                 0.0000
     31 ****        -1.1990  -0.0855   0.6272 H              1 S1                 0.0000
     32 ****         1.4199   0.9730   1.3558 H              1 S1                 0.0000
     33 ****         0.6890   0.2400  -1.4934 H              1 S1                 0.0000
     34 ****         1.5532   1.6163  -0.8898 H              1 S1                 0.0000
     35 ****         3.2744   0.4197  -1.8077 H              1 S1                 0.0000
     36 ****         3.4170  -0.1387  -0.1688 H              1 S1                 0.0000
     37 ****         1.8987  -1.5713  -2.4230 H              1 S1                 0.0000
     38 ****         3.5563  -1.8641  -1.9944 H              1 S1                 0.0000
     39 ****         2.9502  -2.7182   0.1890 H              1 S1                 0.0000
     40 ****         0.8136  -5.2637  -2.5507 H              1 S1                 0.0000
     41 ****         0.8927  -3.5574  -2.9445 H              1 S1                 0.0000
     42 ****        -0.0964  -4.1097  -1.5981 H              1 S1                 0.0000
     43 ****         0.9891  -5.1389   0.4786 H              1 S1                 0.0000
     44 ****         2.7360  -5.0742   0.6887 H              1 S1                 0.0000
     45 ****         2.0120  -6.1908  -0.4554 H              1 S1                 0.0000
     46 ****         3.3482  -5.5151  -2.2614 H              1 S1                 0.0000
     47 ****         4.2371  -4.2957  -1.3617 H              1 S1                 0.0000
     48 ****         3.4300  -3.8871  -2.8765 H              1 S1                 0.0000
     49 ****         0.0592  -1.9942  -0.4866 H              1 S1                 0.0000
     50 ****         0.4769  -3.0904   0.7835 H              1 S1                 0.0000
     51 ****         2.0760  -1.2022   1.6553 H              1 S1                 0.0000
     52 ****         0.4045  -1.2587   2.0712 H              1 S1                 0.0000
     53 ****        -2.9202   3.8978  -2.3745 LP             1 S1                 0.0000
     54 ****        -2.5132   2.4756  -1.4735 LP             1 S1                 0.0000
     55 ****        -0.7209   3.8051   1.1545 LP             1 S1                 0.0000
     56 ****         0.6883   2.8098   1.0016 LP             1 S1                 0.0000
     57 ****        -3.2880   3.5105   2.8271 LP             1 S1                 0.0000
@<TRIPOS>BOND
    1    1    2 1     
    2    1   24 1     
    3    1   25 1     
    4    1   26 1     
    5    2   23 2     
    6    2    3 1     
    7    3    4 2     
    8    3   27 1     
    9    4    5 1     
   10    4   28 1     
   11    5    6 2     
   12    5    7 am    
   13    7    8 1     
   14    7   23 1     
   15    8    9 1     
   16    8   29 1     
   17    8   30 1     
   18    9   10 2     
   19    9   11 am    
   20   11   12 1     
   21   11   31 1     
   22   12   22 1     
   23   12   13 1     
   24   12   32 1     
   25   13   14 1     
   26   13   33 1     
   27   13   34 1     
   28   14   15 1     
   29   14   35 1     
   30   14   36 1     
   31   15   16 1     
   32   15   37 1     
   33   15   38 1     
   34   16   17 1     
   35   16   21 1     
   36   16   39 1     
   37   17   18 1     
   38   17   19 1     
   39   17   20 1     
   40   18   40 1     
   41   18   41 1     
   42   18   42 1     
   43   19   43 1     
   44   19   44 1     
   45   19   45 1     
   46   20   46 1     
   47   20   47 1     
   48   20   48 1     
   49   21   22 1     
   50   21   49 1     
   51   21   50 1     
   52   22   51 1     
   53   22   52 1     
   54    6   53 1     
   55    6   54 1     
   56   10   55 1     
   57   10   56 1     
   58   23   57 1     
@<TRIPOS>SUBSTRUCTURE
      1 S1             1
@<TRIPOS>SET
LONE_PAIRS      STATIC     ATOMS    <user>   **** ""
5 53 54 55 56 57
DONOR_HYDROGENS      STATIC     ATOMS    <user>   **** ""
1 31
ATOM$BLUE        STATIC     ATOMS    COLORGROUP SYSTEM
5 53 54 55 56 57
ATOM$RED        STATIC     ATOMS    COLORGROUP SYSTEM
1 31
