AV-unprocessed.smi:2504|AV-procd|sdf|9849|dock3
  -GOLD-   2272013473D 1   1.00000     0.00000
 Structure written by MMmdl.
 46 48  0  0  0  0  0  0  0  0  1 V2000
  152.3303  140.3758  155.0841 O   0  0  0  0  0  0  0  0  0  0  0  0
  151.2758  140.0500  155.6306 C   0  0  0  0  0  0  0  0  0  0  0  0
  150.8193  140.7190  156.9450 C   0  0  0  0  0  0  0  0  0  0  0  0
  150.6827  142.2540  156.8545 C   0  0  0  0  0  0  0  0  0  0  0  0
  151.0381  142.7684  158.2473 C   0  0  0  0  0  0  0  0  0  0  0  0
  152.1564  141.8362  158.7011 C   0  0  0  0  0  0  0  0  0  0  0  0
  151.7799  140.4643  158.1320 C   0  0  0  0  0  0  0  0  0  0  0  0
  150.3989  139.1436  155.0263 N   0  0  0  0  0  0  0  0  0  0  0  0
  150.8767  137.9519  154.3407 C   0  0  0  0  0  0  0  0  0  0  0  0
  149.5238  137.3355  154.7215 C   0  0  0  0  0  0  0  0  0  0  0  0
  149.6204  135.6256  155.4137 S   0  0  0  0  0  0  0  0  0  0  0  0
  151.0271  135.2735  155.6626 O   0  0  0  0  0  0  0  0  0  0  0  0
  148.6292  135.4904  156.4918 O   0  0  0  0  0  0  0  0  0  0  0  0
  149.0724  134.6692  154.0904 N   0  0  0  0  0  0  0  0  0  0  0  0
  147.8401  133.9004  154.2601 C   0  0  0  0  0  0  0  0  0  0  0  0
  147.6425  132.9263  153.0885 C   0  0  0  0  0  0  0  0  0  0  0  0
  146.2621  133.0244  152.4635 C   0  0  0  0  0  0  0  0  0  0  0  0
  145.3986  131.9098  152.4403 C   0  0  0  0  0  0  0  0  0  0  0  0
  144.1243  132.0507  151.8579 C   0  0  0  0  0  0  0  0  0  0  0  0
  143.7665  133.3041  151.3223 C   0  0  0  0  0  0  0  0  0  0  0  0
  144.5854  134.3780  151.3376 N   0  0  0  0  0  0  0  0  0  0  0  0
  145.8065  134.2336  151.8958 C   0  0  0  0  0  0  0  0  0  0  0  0
  149.4095  138.4137  155.8053 C   0  0  0  0  0  0  0  0  0  0  0  0
  149.8392  140.3171  157.2049 H   0  0  0  0  0  0  0  0  0  0  0  0
  151.3872  142.6795  156.1380 H   0  0  0  0  0  0  0  0  0  0  0  0
  149.6811  142.5618  156.5521 H   0  0  0  0  0  0  0  0  0  0  0  0
  151.3389  143.8165  158.2451 H   0  0  0  0  0  0  0  0  0  0  0  0
  150.1785  142.6667  158.9115 H   0  0  0  0  0  0  0  0  0  0  0  0
  153.1022  142.1650  158.2682 H   0  0  0  0  0  0  0  0  0  0  0  0
  152.2755  141.8216  159.7851 H   0  0  0  0  0  0  0  0  0  0  0  0
  151.2666  139.8759  158.8935 H   0  0  0  0  0  0  0  0  0  0  0  0
  152.6779  139.9094  157.8558 H   0  0  0  0  0  0  0  0  0  0  0  0
  151.0236  138.0842  153.2686 H   0  0  0  0  0  0  0  0  0  0  0  0
  151.7376  137.4907  154.8271 H   0  0  0  0  0  0  0  0  0  0  0  0
  148.7567  137.4194  153.9499 H   0  0  0  0  0  0  0  0  0  0  0  0
  149.0357  135.2229  153.2346 H   0  0  0  0  0  0  0  0  0  0  0  0
  147.8894  133.3496  155.1998 H   0  0  0  0  0  0  0  0  0  0  0  0
  146.9961  134.5873  154.3329 H   0  0  0  0  0  0  0  0  0  0  0  0
  148.4006  133.1037  152.3242 H   0  0  0  0  0  0  0  0  0  0  0  0
  147.7956  131.9035  153.4350 H   0  0  0  0  0  0  0  0  0  0  0  0
  145.7057  130.9643  152.8629 H   0  0  0  0  0  0  0  0  0  0  0  0
  143.4368  131.2185  151.8228 H   0  0  0  0  0  0  0  0  0  0  0  0
  142.7967  133.4477  150.8694 H   0  0  0  0  0  0  0  0  0  0  0  0
  146.4350  135.1123  151.8962 H   0  0  0  0  0  0  0  0  0  0  0  0
  149.7755  138.0924  156.7829 H   0  0  0  0  0  0  0  0  0  0  0  0
  148.4365  138.9023  155.8595 H   0  0  0  0  0  0  0  0  0  0  0  0
  1  2  2  0  0  0  0
  2  3  1  0  0  0  0
  2  8  1  0  0  0  0
  3  7  1  0  0  0  0
  3  4  1  0  0  0  0
  3 24  1  0  0  0  0
  4  5  1  0  0  0  0
  4 25  1  0  0  0  0
  4 26  1  0  0  0  0
  5  6  1  0  0  0  0
  5 27  1  0  0  0  0
  5 28  1  0  0  0  0
  6  7  1  0  0  0  0
  6 29  1  0  0  0  0
  6 30  1  0  0  0  0
  7 31  1  0  0  0  0
  7 32  1  0  0  0  0
  8 23  1  0  0  0  0
  8  9  1  0  0  0  0
  9 10  1  0  0  0  0
  9 33  1  0  0  0  0
  9 34  1  0  0  0  0
 10 11  1  0  0  0  0
 10 23  1  0  0  0  0
 10 35  1  0  0  0  0
 11 12  2  0  0  0  0
 11 13  2  0  0  0  0
 11 14  1  0  0  0  0
 14 15  1  0  0  0  0
 14 36  1  0  0  0  0
 15 16  1  0  0  0  0
 15 37  1  0  0  0  0
 15 38  1  0  0  0  0
 16 17  1  0  0  0  0
 16 39  1  0  0  0  0
 16 40  1  0  0  0  0
 17 22  1  0  0  0  0
 17 18  2  0  0  0  0
 18 19  1  0  0  0  0
 18 41  1  0  0  0  0
 19 20  2  0  0  0  0
 19 42  1  0  0  0  0
 20 21  1  0  0  0  0
 20 43  1  0  0  0  0
 21 22  2  0  0  0  0
 22 44  1  0  0  0  0
 23 45  1  0  0  0  0
 23 46  1  0  0  0  0
M  END
> <s_m_source_file>
AV-unprocessed.smi

> <i_m_source_file_index>
2504

> <i_lp_mmshare_version>
43012

> <i_f3d_flags>
0

> <s_epik_input>
W0NIMl0xW0NIMl1bQ0gyXVtDSDJdW0NIXTFDKD1PKU4yW0NIMl1bQ0hdKFtDSDJdMilTKD1PKSg9TylbTkhdW0NIMl1bQ0gyXWMzW2NIXVtjSF1bY0hdbltjSF0z

> <s_epik_cmdline>
J2VwaWtfcHl0aG9uJywgJy1waCcsICc3LjAnLCAnLXRuJywgJzgnLCAnLW1hJywgJzIwMCcsICctbWV0YWxfYmluZGluZycsICctaW1hZScsICc8aW5maWxlLm1hZT4nLCAnLW9tYWUnLCAnPG91dGZpbGUubWFlPic=

> <r_epik_Ionization_Penalty>
0.0107611

> <r_epik_Ionization_Penalty_Charging>
0

> <r_epik_Ionization_Penalty_Neutral>
0.0107611

> <r_epik_State_Penalty>
0.00821942

> <r_epik_Charging_Adjusted_Penalty>
0.00821942

> <i_epik_Tot_Q>
0

> <i_epik_Tot_abs_Q>
0

> <r_epik_Metal_State_Penalty>
0.0376733

> <b_epik_Metal_Only>
0

> <s_lp_Force_Field>
OPLS_2005

> <r_lp_Energy>
34.3459

> <b_lp_Chiralities_Consistent>
1

> <s_lp_Variant>
AV-unprocessed.smi:2504-1

> <Gold.Version>
5.8.1

> <Gold.Id.Protein>
6NUR|6NUR_protein|mol2

> <Gold.PLP.Fitness>
51.0081

> <Gold.PLP.PLP>
-38.1521

> <Gold.PLP.part.hbond>
-4.0000

> <Gold.PLP.part.metal>
0.0000

> <Gold.PLP.part.buried>
-1.1069

> <Gold.PLP.part.nonpolar>
-33.3360

> <Gold.PLP.part.repulsive>
0.2640

> <Gold.PLP.ligand.clash>
0.0000

> <Gold.PLP.ligand.torsion>
1.5942

> <Gold.PLP.Chemscore.Hbond>
2.7501

> <Gold.PLP.Chemscore.CHOScore>
2.0000

> <Gold.PLP.Chemscore.Metal>
0.0000

> <Gold.Chemscore.Hbonds>
donor molecule, donor type, donor heavy atom, donor atom, acceptor molecule, acceptor atom, score
      L1  H    14    36       P1  7948  1.00
      P1  H  7989  7998       L1     1  0.52
      P1  H  7997  8009       L1     1  0.22
      P1  H 10752 10764       L1    12  0.70
      L1  C    20    43       P1 10186  1.00
      L1  C    22    44       P1  7948  0.52

> <Gold.PLP.Chemscore.Internal.Correction>
1.7940

> <Gold.Rescore>
     Score         DG    S(hbond)    S(metal)    S(lipo)     H(rot)  DE(clash)    DE(int)     intcor
     14.39     -17.70       2.12        0.00      84.46       1.85       1.22       2.09       ----

> <Gold.Chemscore.Fitness>
14.3918

> <Gold.Chemscore.DG>
-17.7042

> <Gold.Chemscore.ZeroCoef>
-5.4800

> <Gold.Chemscore.Hbond>
2.1187

> <Gold.Chemscore.Metal>
0.0000

> <Gold.Chemscore.Lipo>
84.4638

> <Gold.Chemscore.Internal_Hbond>
0.0000

> <Gold.Chemscore.DEClash>
1.2233

> <Gold.Chemscore.DEInternal>
2.0891

> <Gold.Chemscore.Rot>
1.8494

> <Gold.Chemscore.Internal.Correction>
   9.000000E+99

> <Gold.Chemscore.Hbonds>
donor molecule, donor type, donor heavy atom, donor atom, acceptor molecule, acceptor atom, score
      L1  H    14    36       P1  7948  0.35
      P1  H  7989  7998       L1     1  0.12
      P1  H  7997  8009       L1     1  0.21
      P1  H 10752 10764       L1    12  0.67

> <Gold.Chemscore.Hbond.Weighted>
-7.0765

> <Gold.Chemscore.Metal.Weighted>
-0.0000

> <Gold.Chemscore.Lipo.Weighted>
-9.8823

> <Gold.Chemscore.Internal_Hbond.Weighted>
0.0000

> <Gold.Chemscore.DEClash.Weighted>
1.2233

> <Gold.Chemscore.DEInternal.Weighted>
2.0891

> <Gold.Chemscore.Rot.Weighted>
4.7346

> <Gold.Chemscore.Internal.Correction.Weighted>
   9.000000E+99

> <Gold.Protein.RotatedTorsions>
[ 6907 6896 6895 6894 ] final  170.40 input  -60.11 | X-H torsion
[ 7974 7965 7964 7962 ] final  -56.88 input  175.53 | X-H torsion
[ 8008 7997 7996 7995 ] final -159.13 input   59.86 | X-H torsion
[ 10167 10162 10161 10158 ] final  -82.47 input  -65.29 | X-H torsion
[ 10718 10713 10712 10709 ] final -110.15 input   66.30 | X-H torsion
[ 10763 10752 10751 10750 ] final  -40.04 input  -60.55 | X-H torsion
[ 11005 11000 10999 10996 ] final  -15.18 input  -57.11 | X-H torsion

> <Gold.Protein.ActiveResidues>
 VAL166  LYS551  ARG553  GLY616  TRP617  ASP618  TYR619  PRO620  LYS621  CYS622 
 ASP623  PHE694  ASN695  SER759  ASP760  ASP761  ALA762  ILE779  LEU786  VAL792 
 PHE793  MET794  SER795  GLU796  ALA797  LYS798  CYS799  TRP800  GLU811  SER814 

> <Gold.Protein.RotatedAtoms>
  151.8167  133.3389  159.3571 H   0  0  0  0  0  0  0  0  0  0  0  0  # atno 6907 bound_to 6896
  150.7308  134.5612  159.5852 H   0  0  0  0  0  0  0  0  0  0  0  0  # atno 6908 bound_to 6896
  152.3035  134.7583  160.0403 H   0  0  0  0  0  0  0  0  0  0  0  0  # atno 6909 bound_to 6896
  145.8576  140.8308  142.9953 H   0  0  0  0  0  0  0  0  0  0  0  0  # atno 7974 bound_to 7965
  155.7580  140.0835  157.2169 H   0  0  0  0  0  0  0  0  0  0  0  0  # atno 8008 bound_to 7997
  154.4006  140.1548  156.2856 H   0  0  0  0  0  0  0  0  0  0  0  0  # atno 8009 bound_to 7997
  155.8867  140.3417  155.5929 H   0  0  0  0  0  0  0  0  0  0  0  0  # atno 8010 bound_to 7997
  140.4317  143.2546  151.8750 H   0  0  0  0  0  0  0  0  0  0  0  0  # atno 10167 bound_to 10162
  156.0575  130.5800  150.8198 H   0  0  0  0  0  0  0  0  0  0  0  0  # atno 10718 bound_to 10713
  153.9394  135.6763  153.4744 H   0  0  0  0  0  0  0  0  0  0  0  0  # atno 10763 bound_to 10752
  153.0939  135.4861  154.8739 H   0  0  0  0  0  0  0  0  0  0  0  0  # atno 10764 bound_to 10752
  154.7385  135.3155  154.8728 H   0  0  0  0  0  0  0  0  0  0  0  0  # atno 10765 bound_to 10752
  140.7940  133.8265  155.9407 H   0  0  0  0  0  0  0  0  0  0  0  0  # atno 11005 bound_to 11000
  144.6727  140.1046  143.7458 LP  0  0  0  0  0  0  0  0  0  0  0  0  # atno 17320 bound_to 7965
  145.9286  139.2591  143.1339 LP  0  0  0  0  0  0  0  0  0  0  0  0  # atno 17321 bound_to 7965
  139.4785  144.5327  151.8643 LP  0  0  0  0  0  0  0  0  0  0  0  0  # atno 17342 bound_to 10162
  140.4420  144.1974  150.5892 LP  0  0  0  0  0  0  0  0  0  0  0  0  # atno 17343 bound_to 10162
  157.5557  131.0945  150.9631 LP  0  0  0  0  0  0  0  0  0  0  0  0  # atno 17370 bound_to 10713
  156.9881  130.5552  149.5301 LP  0  0  0  0  0  0  0  0  0  0  0  0  # atno 17371 bound_to 10713
  140.9361  134.1961  157.4831 LP  0  0  0  0  0  0  0  0  0  0  0  0  # atno 17394 bound_to 11000
  139.8728  134.9853  156.5274 LP  0  0  0  0  0  0  0  0  0  0  0  0  # atno 17395 bound_to 11000

$$$$
