AV-unprocessed.smi:774|AV-procd|sdf|3692|dock1
  -GOLD-   22720 1113D 1   1.00000     0.00000
 Structure written by MMmdl.
 37 38  0  0  0  0  0  0  0  0  1 V2000
  145.7763  132.0508  149.3112 C   0  0  0  0  0  0  0  0  0  0  0  0
  144.5069  131.8056  150.1312 C   0  0  0  0  0  0  0  0  0  0  0  0
  144.6902  132.4025  151.8340 S   0  0  0  0  0  0  0  0  0  0  0  0
  144.2078  134.1411  151.6233 C   0  0  1  0  0  0  0  0  0  0  0  0
  143.9551  134.8424  152.9558 C   0  0  0  0  0  0  0  0  0  0  0  0
  144.0654  136.3298  152.6205 C   0  0  0  0  0  0  0  0  0  0  0  0
  145.0962  136.4280  151.4818 C   0  0  1  0  0  0  0  0  0  0  0  0
  146.3591  136.9768  151.9726 N   0  0  0  0  0  0  0  0  0  0  0  0
  146.5017  138.1068  152.6799 C   0  0  0  0  0  0  0  0  0  0  0  0
  145.5586  138.8218  153.0145 O   0  0  0  0  0  0  0  0  0  0  0  0
  147.7966  138.3336  152.9622 N   0  0  0  0  0  0  0  0  0  0  0  0
  148.4004  139.4273  153.6437 C   0  0  0  0  0  0  0  0  0  0  0  0
  147.6382  140.6067  153.7776 C   0  0  0  0  0  0  0  0  0  0  0  0
  148.1909  141.7132  154.4495 C   0  0  0  0  0  0  0  0  0  0  0  0
  149.4953  141.5980  154.9662 C   0  0  0  0  0  0  0  0  0  0  0  0
  150.2409  140.4799  154.8475 N   0  0  0  0  0  0  0  0  0  0  0  0
  149.7044  139.4217  154.2016 C   0  0  0  0  0  0  0  0  0  0  0  0
  145.2929  134.9931  150.9555 C   0  0  0  0  0  0  0  0  0  0  0  0
  145.6571  131.6845  148.2914 H   0  0  0  0  0  0  0  0  0  0  0  0
  146.6333  131.5394  149.7500 H   0  0  0  0  0  0  0  0  0  0  0  0
  146.0101  133.1144  149.2579 H   0  0  0  0  0  0  0  0  0  0  0  0
  143.6609  132.3103  149.6644 H   0  0  0  0  0  0  0  0  0  0  0  0
  144.2763  130.7404  150.1525 H   0  0  0  0  0  0  0  0  0  0  0  0
  143.2958  134.1850  151.0262 H   0  0  0  0  0  0  0  0  0  0  0  0
  142.9902  134.5821  153.3918 H   0  0  0  0  0  0  0  0  0  0  0  0
  144.7302  134.5731  153.6746 H   0  0  0  0  0  0  0  0  0  0  0  0
  143.0997  136.6883  152.2614 H   0  0  0  0  0  0  0  0  0  0  0  0
  144.3240  136.9304  153.4937 H   0  0  0  0  0  0  0  0  0  0  0  0
  144.6838  137.0492  150.6847 H   0  0  0  0  0  0  0  0  0  0  0  0
  147.1925  136.4526  151.7492 H   0  0  0  0  0  0  0  0  0  0  0  0
  148.4427  137.6355  152.6247 H   0  0  0  0  0  0  0  0  0  0  0  0
  146.6384  140.6659  153.3725 H   0  0  0  0  0  0  0  0  0  0  0  0
  147.6282  142.6274  154.5667 H   0  0  0  0  0  0  0  0  0  0  0  0
  149.9514  142.4254  155.4895 H   0  0  0  0  0  0  0  0  0  0  0  0
  150.3566  138.5656  154.1483 H   0  0  0  0  0  0  0  0  0  0  0  0
  146.2785  134.6155  151.2338 H   0  0  0  0  0  0  0  0  0  0  0  0
  145.2298  134.9485  149.8678 H   0  0  0  0  0  0  0  0  0  0  0  0
  1  2  1  0  0  0  0
  1 19  1  0  0  0  0
  1 20  1  0  0  0  0
  1 21  1  0  0  0  0
  2  3  1  0  0  0  0
  2 22  1  0  0  0  0
  2 23  1  0  0  0  0
  3  4  1  0  0  0  0
  4 18  1  0  0  0  0
  4  5  1  0  0  0  0
  4 24  1  0  0  0  0
  5  6  1  0  0  0  0
  5 25  1  0  0  0  0
  5 26  1  0  0  0  0
  6  7  1  0  0  0  0
  6 27  1  0  0  0  0
  6 28  1  0  0  0  0
  7  8  1  0  0  0  0
  7 18  1  0  0  0  0
  7 29  1  0  0  0  0
  8  9  1  0  0  0  0
  8 30  1  0  0  0  0
  9 10  2  0  0  0  0
  9 11  1  0  0  0  0
 11 12  1  0  0  0  0
 11 31  1  0  0  0  0
 12 17  1  0  0  0  0
 12 13  2  0  0  0  0
 13 14  1  0  0  0  0
 13 32  1  0  0  0  0
 14 15  2  0  0  0  0
 14 33  1  0  0  0  0
 15 16  1  0  0  0  0
 15 34  1  0  0  0  0
 16 17  2  0  0  0  0
 17 35  1  0  0  0  0
 18 36  1  0  0  0  0
 18 37  1  0  0  0  0
M  END
> <s_m_source_file>
AV-unprocessed.smi

> <i_m_source_file_index>
774

> <i_lp_mmshare_version>
43012

> <i_f3d_flags>
0

> <s_epik_input>
W0NIM11bQ0gyXVNbQ0BASF0xW0NIMl1bQ0gyXVtDQEhdKFtDSDJdMSlbTkhdQyg9TylbTkhdYzJbY0hdW2NIXVtjSF1uW2NIXTI=

> <s_epik_cmdline>
J2VwaWtfcHl0aG9uJywgJy1waCcsICc3LjAnLCAnLXRuJywgJzgnLCAnLW1hJywgJzIwMCcsICctbWV0YWxfYmluZGluZycsICctaW1hZScsICc8aW5maWxlLm1hZT4nLCAnLW9tYWUnLCAnPG91dGZpbGUubWFlPic=

> <r_epik_Ionization_Penalty>
0.00485718

> <r_epik_Ionization_Penalty_Charging>
0

> <r_epik_Ionization_Penalty_Neutral>
0.00485718

> <r_epik_State_Penalty>
0.00349461

> <r_epik_Charging_Adjusted_Penalty>
0.00349461

> <i_epik_Tot_Q>
0

> <i_epik_Tot_abs_Q>
0

> <r_epik_Metal_State_Penalty>
-0

> <b_epik_Metal_Only>
0

> <s_lp_Force_Field>
OPLS_2005

> <r_lp_Energy>
20.4228

> <b_lp_Chiralities_Consistent>
1

> <s_lp_Variant>
AV-unprocessed.smi:774-2

> <Gold.Version>
5.8.1

> <Gold.Id.Protein>
6NUR|6NUR_protein|mol2

> <Gold.PLP.Fitness>
42.3688

> <Gold.PLP.PLP>
-32.0945

> <Gold.PLP.part.hbond>
-3.9426

> <Gold.PLP.part.metal>
0.0000

> <Gold.PLP.part.buried>
0.9060

> <Gold.PLP.part.nonpolar>
-33.1260

> <Gold.PLP.part.repulsive>
3.9692

> <Gold.PLP.ligand.clash>
0.0000

> <Gold.PLP.ligand.torsion>
0.4103

> <Gold.PLP.Chemscore.Hbond>
2.8296

> <Gold.PLP.Chemscore.CHOScore>
0.8613

> <Gold.PLP.Chemscore.Metal>
0.0000

> <Gold.Chemscore.Hbonds>
donor molecule, donor type, donor heavy atom, donor atom, acceptor molecule, acceptor atom, score
      L1  H     8    30       P1  7948  1.00
      L1  H    11    31       P1  7948  1.00
      P1  H  7989  7998       L1    16  0.78
      L1  C    15    34       P1  8028  0.86

> <Gold.PLP.Chemscore.Internal.Correction>
0.0223

> <Gold.Rescore>
     Score         DG    S(hbond)    S(metal)    S(lipo)     H(rot)  DE(clash)    DE(int)     intcor
     15.07     -18.59       2.02        0.00      82.95       1.30       0.57       2.96       ----

> <Gold.Chemscore.Fitness>
15.0683

> <Gold.Chemscore.DG>
-18.5941

> <Gold.Chemscore.ZeroCoef>
-5.4800

> <Gold.Chemscore.Hbond>
2.0203

> <Gold.Chemscore.Metal>
0.0000

> <Gold.Chemscore.Lipo>
82.9459

> <Gold.Chemscore.Internal_Hbond>
0.0000

> <Gold.Chemscore.DEClash>
0.5696

> <Gold.Chemscore.DEInternal>
2.9562

> <Gold.Chemscore.Rot>
1.3041

> <Gold.Chemscore.Internal.Correction>
   9.000000E+99

> <Gold.Chemscore.Hbonds>
donor molecule, donor type, donor heavy atom, donor atom, acceptor molecule, acceptor atom, score
      L1  H     8    30       P1  7948  0.95
      L1  H    11    31       P1  7948  0.99
      P1  H  7989  7998       L1    16  0.06

> <Gold.Chemscore.Hbond.Weighted>
-6.7478

> <Gold.Chemscore.Metal.Weighted>
-0.0000

> <Gold.Chemscore.Lipo.Weighted>
-9.7047

> <Gold.Chemscore.Internal_Hbond.Weighted>
0.0000

> <Gold.Chemscore.DEClash.Weighted>
0.5696

> <Gold.Chemscore.DEInternal.Weighted>
2.9562

> <Gold.Chemscore.Rot.Weighted>
3.3384

> <Gold.Chemscore.Internal.Correction.Weighted>
   9.000000E+99

> <Gold.Protein.RotatedTorsions>
[ 6907 6896 6895 6894 ] final   73.16 input  -60.11 | X-H torsion
[ 7974 7965 7964 7962 ] final  121.04 input  175.53 | X-H torsion
[ 8008 7997 7996 7995 ] final   -4.45 input   59.86 | X-H torsion
[ 10167 10162 10161 10158 ] final  -41.11 input  -65.29 | X-H torsion
[ 10718 10713 10712 10709 ] final    6.10 input   66.30 | X-H torsion
[ 10763 10752 10751 10750 ] final  -87.35 input  -60.55 | X-H torsion
[ 11005 11000 10999 10996 ] final   11.77 input  -57.11 | X-H torsion

> <Gold.Protein.ActiveResidues>
 VAL166  LYS551  ARG553  GLY616  TRP617  ASP618  TYR619  PRO620  LYS621  CYS622 
 ASP623  PHE694  ASN695  SER759  ASP760  ASP761  ALA762  ILE779  LEU786  VAL792 
 PHE793  MET794  SER795  GLU796  ALA797  LYS798  CYS799  TRP800  GLU811  SER814 

> <Gold.Protein.RotatedAtoms>
  152.4908  134.4464  159.9559 H   0  0  0  0  0  0  0  0  0  0  0  0  # atno 6907 bound_to 6896
  151.4451  133.3626  159.2795 H   0  0  0  0  0  0  0  0  0  0  0  0  # atno 6908 bound_to 6896
  150.9060  134.8499  159.7453 H   0  0  0  0  0  0  0  0  0  0  0  0  # atno 6909 bound_to 6896
  145.1240  139.3370  143.4699 H   0  0  0  0  0  0  0  0  0  0  0  0  # atno 7974 bound_to 7965
  154.6141  140.2483  155.7631 H   0  0  0  0  0  0  0  0  0  0  0  0  # atno 8008 bound_to 7997
  156.2388  140.2940  156.0337 H   0  0  0  0  0  0  0  0  0  0  0  0  # atno 8009 bound_to 7997
  155.2003  140.0394  157.2906 H   0  0  0  0  0  0  0  0  0  0  0  0  # atno 8010 bound_to 7997
  140.7013  143.3113  151.3020 H   0  0  0  0  0  0  0  0  0  0  0  0  # atno 10167 bound_to 10162
  156.9172  130.5778  149.5647 H   0  0  0  0  0  0  0  0  0  0  0  0  # atno 10718 bound_to 10713
  154.6326  135.5416  153.7697 H   0  0  0  0  0  0  0  0  0  0  0  0  # atno 10763 bound_to 10752
  153.0292  135.6439  154.1279 H   0  0  0  0  0  0  0  0  0  0  0  0  # atno 10764 bound_to 10752
  154.1208  135.2920  155.3189 H   0  0  0  0  0  0  0  0  0  0  0  0  # atno 10765 bound_to 10752
  140.4995  134.0760  155.7790 H   0  0  0  0  0  0  0  0  0  0  0  0  # atno 11005 bound_to 11000
  146.3519  140.1211  142.8600 LP  0  0  0  0  0  0  0  0  0  0  0  0  # atno 17320 bound_to 7965
  145.0708  140.9154  143.4883 LP  0  0  0  0  0  0  0  0  0  0  0  0  # atno 17321 bound_to 7965
  139.6537  144.0315  152.2645 LP  0  0  0  0  0  0  0  0  0  0  0  0  # atno 17342 bound_to 10162
  139.9859  144.6395  150.7858 LP  0  0  0  0  0  0  0  0  0  0  0  0  # atno 17343 bound_to 10162
  156.0508  130.5577  150.8984 LP  0  0  0  0  0  0  0  0  0  0  0  0  # atno 17370 bound_to 10713
  157.5930  131.0944  150.9087 LP  0  0  0  0  0  0  0  0  0  0  0  0  # atno 17371 bound_to 10713
  141.1443  133.9083  157.2253 LP  0  0  0  0  0  0  0  0  0  0  0  0  # atno 17394 bound_to 11000
  139.9722  135.0125  156.9540 LP  0  0  0  0  0  0  0  0  0  0  0  0  # atno 17395 bound_to 11000

$$$$
