#       Name:                AV-unprocessed.smi:1978
#       Creating user name   scv26
#       Creation time:       Fri Mar 27 10:18:31 2020


#       File generated by GOLD software.
#

@<TRIPOS>MOLECULE
AV-unprocessed.smi:1978
    50    51     1
SMALL
NO_CHARGES


@<TRIPOS>ATOM
      1 ****        -2.4405   6.4304   2.7296 C.3            1 S1                 0.0000
      2 ****        -2.7777   5.2022   1.9553 C.2            1 S1                 0.0000
      3 ****        -2.1310   4.5264   0.9597 C.2            1 S1                 0.0000
      4 ****        -3.0066   3.4411   0.6820 C.2            1 S1                 0.0000
      5 ****        -2.8141   2.4867  -0.2416 N.pl3          1 S1                -1.0000
      6 ****        -2.0638   1.4001   0.0492 C.2            1 S1                 0.0000
      7 ****        -1.4839   1.1737   1.1139 O.2            1 S1                 0.0000
      8 ****        -1.9753   0.5208  -0.9592 N.am           1 S1                 0.0000
      9 ****        -1.2231  -0.7302  -0.9328 C.3            1 S1                 0.0000
     10 ****         0.3146  -0.5209  -1.0593 C.3            1 S1                 0.0000
     11 ****         0.6232   0.2628  -2.3597 C.3            1 S1                 0.0000
     12 ****         1.0894  -1.8092  -1.0006 N.4            1 S1                 1.0000
     13 ****         2.5722  -1.6181  -1.0304 C.3            1 S1                 0.0000
     14 ****         3.3229  -2.9503  -1.1884 C.3            1 S1                 0.0000
     15 ****         2.9448  -3.9376  -0.0837 C.3            1 S1                 0.0000
     16 ****         1.4236  -4.1150  -0.0607 C.3            1 S1                 0.0000
     17 ****         0.6793  -2.7701   0.0787 C.3            1 S1                 0.0000
     18 ****         0.8040  -2.1843   1.5035 C.3            1 S1                 0.0000
     19 ****        -4.0969   3.4670   1.4299 N.2            1 S1                 0.0000
     20 ****        -3.9553   4.5901   2.2536 O.3            1 S1                 0.0000
     21 ****        -2.3427   7.2891   2.0654 H              1 S1                 0.0000
     22 ****        -1.4976   6.3038   3.2615 H              1 S1                 0.0000
     23 ****        -3.2142   6.6581   3.4632 H              1 S1                 0.0000
     24 ****        -1.1816   4.7664   0.5052 H              1 S1                 0.0000
     25 ****        -2.4706   0.7412  -1.8111 H              1 S1                 0.0000
     26 ****        -1.5004  -1.2345  -0.0082 H              1 S1                 0.0000
     27 ****        -1.5829  -1.3582  -1.7482 H              1 S1                 0.0000
     28 ****         0.6427   0.0941  -0.2204 H              1 S1                 0.0000
     29 ****        -0.0027   1.1482  -2.4651 H              1 S1                 0.0000
     30 ****         0.4594  -0.3563  -3.2421 H              1 S1                 0.0000
     31 ****         1.6441   0.6388  -2.3916 H              1 S1                 0.0000
     32 ****         2.8746  -0.9959  -1.8688 H              1 S1                 0.0000
     33 ****         2.9007  -1.0997  -0.1291 H              1 S1                 0.0000
     34 ****         3.0932  -3.3849  -2.1625 H              1 S1                 0.0000
     35 ****         4.3991  -2.7744  -1.1757 H              1 S1                 0.0000
     36 ****         3.4330  -4.8977  -0.2540 H              1 S1                 0.0000
     37 ****         3.3005  -3.5754   0.8812 H              1 S1                 0.0000
     38 ****         1.1092  -4.6038  -0.9842 H              1 S1                 0.0000
     39 ****         1.1398  -4.7900   0.7476 H              1 S1                 0.0000
     40 ****        -0.3655  -3.0334  -0.0763 H              1 S1                 0.0000
     41 ****         0.4687  -2.9084   2.2464 H              1 S1                 0.0000
     42 ****         0.1920  -1.2929   1.6366 H              1 S1                 0.0000
     43 ****         1.8296  -1.9166   1.7541 H              1 S1                 0.0000
     44 ****         0.8650  -2.2834  -1.8635 H              1 S1                 0.0000
     45 ****        -3.2268   2.5794  -1.1477 LP             1 S1                 0.0000
     46 ****        -1.5455   1.8297   1.8662 LP             1 S1                 0.0000
     47 ****        -0.9521   0.3341   1.2249 LP             1 S1                 0.0000
     48 ****        -4.8604   2.8214   1.4111 LP             1 S1                 0.0000
     49 ****        -4.7134   5.2224   2.0941 LP             1 S1                 0.0000
     50 ****        -3.9539   4.3064   3.2125 LP             1 S1                 0.0000
@<TRIPOS>BOND
    1    1    2 1     
    2    1   21 1     
    3    1   22 1     
    4    1   23 1     
    5    2   20 1     
    6    2    3 2     
    7    3    4 1     
    8    3   24 1     
    9    4    5 1     
   10    4   19 2     
   11    5    6 1     
   12    6    7 2     
   13    6    8 am    
   14    8    9 1     
   15    8   25 1     
   16    9   10 1     
   17    9   26 1     
   18    9   27 1     
   19   10   11 1     
   20   10   12 1     
   21   10   28 1     
   22   11   29 1     
   23   11   30 1     
   24   11   31 1     
   25   12   17 1     
   26   12   13 1     
   27   12   44 1     
   28   13   14 1     
   29   13   32 1     
   30   13   33 1     
   31   14   15 1     
   32   14   34 1     
   33   14   35 1     
   34   15   16 1     
   35   15   36 1     
   36   15   37 1     
   37   16   17 1     
   38   16   38 1     
   39   16   39 1     
   40   17   18 1     
   41   17   40 1     
   42   18   41 1     
   43   18   42 1     
   44   18   43 1     
   45   19   20 1     
   46    5   45 1     
   47    7   46 1     
   48    7   47 1     
   49   19   48 1     
   50   20   49 1     
   51   20   50 1     
@<TRIPOS>SUBSTRUCTURE
      1 S1             1
@<TRIPOS>SET
LONE_PAIRS      STATIC     ATOMS    <user>   **** ""
6 45 46 47 48 49 50
DONOR_HYDROGENS      STATIC     ATOMS    <user>   **** ""
2 25 44
ATOM$BLUE        STATIC     ATOMS    COLORGROUP SYSTEM
6 45 46 47 48 49 50
ATOM$RED        STATIC     ATOMS    COLORGROUP SYSTEM
2 25 44
