AV-unprocessed.smi:2451|AV-procd|sdf|9675|dock2
  -GOLD-   2272013313D 1   1.00000     0.00000
 Structure written by MMmdl.
 38 39  0  0  0  0  0  0  0  0  1 V2000
  150.8566  145.2255  160.4297 C   0  0  0  0  0  0  0  0  0  0  0  0
  151.5096  143.9010  160.8579 C   0  0  2  0  0  0  0  0  0  0  0  0
  152.6390  144.1251  161.8865 C   0  0  0  0  0  0  0  0  0  0  0  0
  153.2239  142.7941  162.3890 C   0  0  0  0  0  0  0  0  0  0  0  0
  153.6847  141.8997  161.2275 C   0  0  0  0  0  0  0  0  0  0  0  0
  152.5453  141.6917  160.2141 C   0  0  2  0  0  0  0  0  0  0  0  0
  152.9786  140.8083  159.1280 N   0  0  0  0  0  0  0  0  0  0  0  0
  151.7796  140.0611  158.1405 S   0  0  0  0  0  0  0  0  0  0  0  0
  152.4646  139.0862  157.2780 O   0  0  0  0  0  0  0  0  0  0  0  0
  150.6885  139.6203  159.0235 O   0  0  0  0  0  0  0  0  0  0  0  0
  151.1752  141.4646  157.1123 C   0  0  0  0  0  0  0  0  0  0  0  0
  150.3740  140.9347  155.9576 C   0  0  0  0  0  0  0  0  0  0  0  0
  149.1574  141.4384  155.4191 C   0  0  0  0  0  0  0  0  0  0  0  0
  148.8823  140.5792  154.3946 C   0  0  0  0  0  0  0  0  0  0  0  0
  149.8454  139.6280  154.3008 O   0  0  0  0  0  0  0  0  0  0  0  0
  150.7942  139.8643  155.3019 N   0  0  0  0  0  0  0  0  0  0  0  0
  151.9887  143.0296  159.6658 C   0  0  2  0  0  0  0  0  0  0  0  0
  152.9810  143.7636  158.7335 C   0  0  0  0  0  0  0  0  0  0  0  0
  151.5811  145.9149  159.9962 H   0  0  0  0  0  0  0  0  0  0  0  0
  150.4042  145.7278  161.2853 H   0  0  0  0  0  0  0  0  0  0  0  0
  150.0688  145.0571  159.6952 H   0  0  0  0  0  0  0  0  0  0  0  0
  150.7277  143.3339  161.3658 H   0  0  0  0  0  0  0  0  0  0  0  0
  153.4317  144.7329  161.4494 H   0  0  0  0  0  0  0  0  0  0  0  0
  152.2581  144.6924  162.7362 H   0  0  0  0  0  0  0  0  0  0  0  0
  154.0577  142.9857  163.0648 H   0  0  0  0  0  0  0  0  0  0  0  0
  152.4693  142.2658  162.9730 H   0  0  0  0  0  0  0  0  0  0  0  0
  154.5512  142.3462  160.7391 H   0  0  0  0  0  0  0  0  0  0  0  0
  154.0161  140.9373  161.6190 H   0  0  0  0  0  0  0  0  0  0  0  0
  151.7331  141.1909  160.7438 H   0  0  0  0  0  0  0  0  0  0  0  0
  153.6663  140.1301  159.4550 H   0  0  0  0  0  0  0  0  0  0  0  0
  150.5728  142.1191  157.7418 H   0  0  0  0  0  0  0  0  0  0  0  0
  152.0389  142.0348  156.7690 H   0  0  0  0  0  0  0  0  0  0  0  0
  148.5769  142.2911  155.7383 H   0  0  0  0  0  0  0  0  0  0  0  0
  148.0794  140.5143  153.6753 H   0  0  0  0  0  0  0  0  0  0  0  0
  151.1113  142.7911  159.0625 H   0  0  0  0  0  0  0  0  0  0  0  0
  153.8903  144.0648  159.2522 H   0  0  0  0  0  0  0  0  0  0  0  0
  152.5353  144.6597  158.3029 H   0  0  0  0  0  0  0  0  0  0  0  0
  153.2775  143.1363  157.8929 H   0  0  0  0  0  0  0  0  0  0  0  0
  1  2  1  0  0  0  0
  1 19  1  0  0  0  0
  1 20  1  0  0  0  0
  1 21  1  0  0  0  0
  2 17  1  0  0  0  0
  2  3  1  0  0  0  0
  2 22  1  0  0  0  0
  3  4  1  0  0  0  0
  3 23  1  0  0  0  0
  3 24  1  0  0  0  0
  4  5  1  0  0  0  0
  4 25  1  0  0  0  0
  4 26  1  0  0  0  0
  5  6  1  0  0  0  0
  5 27  1  0  0  0  0
  5 28  1  0  0  0  0
  6  7  1  0  0  0  0
  6 17  1  0  0  0  0
  6 29  1  0  0  0  0
  7  8  1  0  0  0  0
  7 30  1  0  0  0  0
  8  9  2  0  0  0  0
  8 10  2  0  0  0  0
  8 11  1  0  0  0  0
 11 12  1  0  0  0  0
 11 31  1  0  0  0  0
 11 32  1  0  0  0  0
 12 16  2  0  0  0  0
 12 13  1  0  0  0  0
 13 14  2  0  0  0  0
 13 33  1  0  0  0  0
 14 15  1  0  0  0  0
 14 34  1  0  0  0  0
 15 16  1  0  0  0  0
 17 18  1  0  0  0  0
 17 35  1  0  0  0  0
 18 36  1  0  0  0  0
 18 37  1  0  0  0  0
 18 38  1  0  0  0  0
M  END
> <s_m_source_file>
AV-unprocessed.smi

> <i_m_source_file_index>
2451

> <i_lp_mmshare_version>
43012

> <i_f3d_flags>
0

> <s_epik_input>
W0NIM11bQ0BASF0xW0NIMl1bQ0gyXVtDSDJdW0NASF0oW0NASF0xW0NIM10pW05IXVMoPU8pKD1PKVtDSDJdYzJbY0hdW2NIXW9uMg==

> <s_epik_cmdline>
J2VwaWtfcHl0aG9uJywgJy1waCcsICc3LjAnLCAnLXRuJywgJzgnLCAnLW1hJywgJzIwMCcsICctbWV0YWxfYmluZGluZycsICctaW1hZScsICc8aW5maWxlLm1hZT4nLCAnLW9tYWUnLCAnPG91dGZpbGUubWFlPic=

> <r_lp_tautomer_probability>
1

> <r_epik_Ionization_Penalty>
8.73668e-05

> <r_epik_Ionization_Penalty_Charging>
0

> <r_epik_Ionization_Penalty_Neutral>
8.73668e-05

> <r_epik_State_Penalty>
-0

> <r_epik_Charging_Adjusted_Penalty>
0

> <i_epik_Tot_Q>
0

> <i_epik_Tot_abs_Q>
0

> <r_epik_Metal_State_Penalty>
0.0716439

> <b_epik_Metal_Only>
0

> <s_lp_Force_Field>
OPLS_2005

> <r_lp_Energy>
8.89421

> <b_lp_Chiralities_Consistent>
1

> <s_lp_Variant>
AV-unprocessed.smi:2451-7

> <Gold.Version>
5.8.1

> <Gold.Id.Protein>
6NUR|6NUR_protein|mol2

> <Gold.PLP.Fitness>
45.8091

> <Gold.PLP.PLP>
-42.5680

> <Gold.PLP.part.hbond>
-3.0000

> <Gold.PLP.part.metal>
0.0000

> <Gold.PLP.part.buried>
-3.9245

> <Gold.PLP.part.nonpolar>
-35.5134

> <Gold.PLP.part.repulsive>
0.7666

> <Gold.PLP.ligand.clash>
0.0000

> <Gold.PLP.ligand.torsion>
0.8636

> <Gold.PLP.Chemscore.Hbond>
1.0000

> <Gold.PLP.Chemscore.CHOScore>
0.6043

> <Gold.PLP.Chemscore.Metal>
0.0000

> <Gold.Chemscore.Hbonds>
donor molecule, donor type, donor heavy atom, donor atom, acceptor molecule, acceptor atom, score
      P1  H  7997  8009       L1     9  0.31

> <Gold.PLP.Chemscore.Internal.Correction>
0.1553

> <Gold.Rescore>
     Score         DG    S(hbond)    S(metal)    S(lipo)     H(rot)  DE(clash)    DE(int)     intcor
     16.06     -17.83       0.95        0.00     114.69       1.66       0.04       1.73       ----

> <Gold.Chemscore.Fitness>
16.0613

> <Gold.Chemscore.DG>
-17.8338

> <Gold.Chemscore.ZeroCoef>
-5.4800

> <Gold.Chemscore.Hbond>
0.9526

> <Gold.Chemscore.Metal>
0.0000

> <Gold.Chemscore.Lipo>
114.6905

> <Gold.Chemscore.Internal_Hbond>
0.0000

> <Gold.Chemscore.DEClash>
0.0412

> <Gold.Chemscore.DEInternal>
1.7313

> <Gold.Chemscore.Rot>
1.6588

> <Gold.Chemscore.Internal.Correction>
   9.000000E+99

> <Gold.Chemscore.Hbonds>
donor molecule, donor type, donor heavy atom, donor atom, acceptor molecule, acceptor atom, score
      P1  H  7997  8009       L1     9  0.20

> <Gold.Chemscore.Hbond.Weighted>
-3.1816

> <Gold.Chemscore.Metal.Weighted>
-0.0000

> <Gold.Chemscore.Lipo.Weighted>
-13.4188

> <Gold.Chemscore.Internal_Hbond.Weighted>
0.0000

> <Gold.Chemscore.DEClash.Weighted>
0.0412

> <Gold.Chemscore.DEInternal.Weighted>
1.7313

> <Gold.Chemscore.Rot.Weighted>
4.2466

> <Gold.Chemscore.Internal.Correction.Weighted>
   9.000000E+99

> <Gold.Protein.RotatedTorsions>
[ 6907 6896 6895 6894 ] final  178.06 input  -60.11 | X-H torsion
[ 7974 7965 7964 7962 ] final  137.80 input  175.53 | X-H torsion
[ 8008 7997 7996 7995 ] final -165.28 input   59.86 | X-H torsion
[ 10167 10162 10161 10158 ] final   21.49 input  -65.29 | X-H torsion
[ 10718 10713 10712 10709 ] final  -81.22 input   66.30 | X-H torsion
[ 10763 10752 10751 10750 ] final -160.67 input  -60.55 | X-H torsion
[ 11005 11000 10999 10996 ] final  164.69 input  -57.11 | X-H torsion

> <Gold.Protein.ActiveResidues>
 VAL166  LYS551  ARG553  GLY616  TRP617  ASP618  TYR619  PRO620  LYS621  CYS622 
 ASP623  PHE694  ASN695  SER759  ASP760  ASP761  ALA762  ILE779  LEU786  VAL792 
 PHE793  MET794  SER795  GLU796  ALA797  LYS798  CYS799  TRP800  GLU811  SER814 

> <Gold.Protein.RotatedAtoms>
  151.6939  133.3311  159.3249 H   0  0  0  0  0  0  0  0  0  0  0  0  # atno 6907 bound_to 6896
  150.7766  134.6675  159.6382 H   0  0  0  0  0  0  0  0  0  0  0  0  # atno 6908 bound_to 6896
  152.3811  134.6592  160.0194 H   0  0  0  0  0  0  0  0  0  0  0  0  # atno 6909 bound_to 6896
  144.9433  139.4905  143.5561 H   0  0  0  0  0  0  0  0  0  0  0  0  # atno 7974 bound_to 7965
  155.8475  140.0958  157.1696 H   0  0  0  0  0  0  0  0  0  0  0  0  # atno 8008 bound_to 7997
  154.3984  140.1389  156.3865 H   0  0  0  0  0  0  0  0  0  0  0  0  # atno 8009 bound_to 7997
  155.7997  140.3453  155.5398 H   0  0  0  0  0  0  0  0  0  0  0  0  # atno 8010 bound_to 7997
  140.5423  143.9656  150.6526 H   0  0  0  0  0  0  0  0  0  0  0  0  # atno 10167 bound_to 10162
  156.0054  130.4597  150.3919 H   0  0  0  0  0  0  0  0  0  0  0  0  # atno 10718 bound_to 10713
  154.7370  135.3059  154.8793 H   0  0  0  0  0  0  0  0  0  0  0  0  # atno 10763 bound_to 10752
  153.9619  135.6752  153.4749 H   0  0  0  0  0  0  0  0  0  0  0  0  # atno 10764 bound_to 10752
  153.0972  135.4929  154.8724 H   0  0  0  0  0  0  0  0  0  0  0  0  # atno 10765 bound_to 10752
  140.2485  134.7995  157.3479 H   0  0  0  0  0  0  0  0  0  0  0  0  # atno 11005 bound_to 11000
  146.3294  139.8467  142.8880 LP  0  0  0  0  0  0  0  0  0  0  0  0  # atno 17320 bound_to 7965
  145.2957  141.0180  143.3637 LP  0  0  0  0  0  0  0  0  0  0  0  0  # atno 17321 bound_to 7965
  140.3060  143.3229  152.0926 LP  0  0  0  0  0  0  0  0  0  0  0  0  # atno 17342 bound_to 10162
  139.4993  144.6667  151.6340 LP  0  0  0  0  0  0  0  0  0  0  0  0  # atno 17343 bound_to 10162
  157.1993  131.0434  151.2659 LP  0  0  0  0  0  0  0  0  0  0  0  0  # atno 17370 bound_to 10713
  157.3990  130.7323  149.6753 LP  0  0  0  0  0  0  0  0  0  0  0  0  # atno 17371 bound_to 10713
  140.1581  134.4763  155.7913 LP  0  0  0  0  0  0  0  0  0  0  0  0  # atno 17394 bound_to 11000
  141.2204  133.6890  156.7497 LP  0  0  0  0  0  0  0  0  0  0  0  0  # atno 17395 bound_to 11000

$$$$
