AV-unprocessed.smi:652|AV-procd|sdf|3192|dock3
  -GOLD-   22720 0113D 1   1.00000     0.00000
 Structure written by MMmdl.
 48 49  0  0  0  0  0  0  0  0  2 V2000
  147.8968  133.0238  153.2713 C   0  0  0  0  0  0  0  0  0  0  0  0
  146.6844  133.9132  152.9658 C   0  0  0  0  0  0  0  0  0  0  0  0
  146.2801  133.8356  151.4853 C   0  0  0  0  0  0  0  0  0  0  0  0
  146.9867  135.2919  153.3407 N   0  0  0  0  0  0  0  0  0  0  0  0
  146.3345  136.0071  154.2711 C   0  0  0  0  0  0  0  0  0  0  0  0
  145.3779  135.5720  154.9121 O   0  0  0  0  0  0  0  0  0  0  0  0
  146.8352  137.4341  154.5092 C   0  0  0  0  0  0  0  0  0  0  0  0
  147.7456  137.9354  153.3691 C   0  0  0  0  0  0  0  0  0  0  0  0
  148.2073  139.3310  153.5769 N   0  3  1  0  0  0  0  0  0  0  0  0
  147.0792  140.2895  153.6569 C   0  0  0  0  0  0  0  0  0  0  0  0
  147.6010  141.7248  153.8328 C   0  0  0  0  0  0  0  0  0  0  0  0
  148.4270  141.7913  154.9881 O   0  0  0  0  0  0  0  0  0  0  0  0
  149.5740  140.9549  154.8778 C   0  0  1  0  0  0  0  0  0  0  0  0
  150.4443  141.1539  156.1261 C   0  0  0  0  0  0  0  0  0  0  0  0
  150.5607  142.5601  156.4877 N   0  0  0  0  0  0  0  0  0  0  0  0
  151.2902  142.9425  157.6217 C   0  0  0  0  0  0  0  0  0  0  0  0
  151.5833  144.3067  157.8182 C   0  0  0  0  0  0  0  0  0  0  0  0
  152.3210  144.6569  158.9624 C   0  0  0  0  0  0  0  0  0  0  0  0
  152.7107  143.6149  159.8236 C   0  0  0  0  0  0  0  0  0  0  0  0
  152.4013  142.3204  159.5859 N   0  0  0  0  0  0  0  0  0  0  0  0
  151.6989  141.9889  158.4966 N   0  0  0  0  0  0  0  0  0  0  0  0
  149.1043  139.4929  154.7479 C   0  0  0  0  0  0  0  0  0  0  0  0
  147.6879  131.9812  153.0297 H   0  0  0  0  0  0  0  0  0  0  0  0
  148.1611  133.0684  154.3286 H   0  0  0  0  0  0  0  0  0  0  0  0
  148.7711  133.3291  152.6953 H   0  0  0  0  0  0  0  0  0  0  0  0
  145.8507  133.5529  153.5715 H   0  0  0  0  0  0  0  0  0  0  0  0
  146.0392  132.8113  151.1994 H   0  0  0  0  0  0  0  0  0  0  0  0
  147.0838  134.1817  150.8345 H   0  0  0  0  0  0  0  0  0  0  0  0
  145.4001  134.4467  151.2822 H   0  0  0  0  0  0  0  0  0  0  0  0
  147.7562  135.7330  152.8578 H   0  0  0  0  0  0  0  0  0  0  0  0
  145.9799  138.0976  154.6390 H   0  0  0  0  0  0  0  0  0  0  0  0
  147.3833  137.4413  155.4521 H   0  0  0  0  0  0  0  0  0  0  0  0
  148.6261  137.2931  153.3099 H   0  0  0  0  0  0  0  0  0  0  0  0
  147.2379  137.8526  152.4066 H   0  0  0  0  0  0  0  0  0  0  0  0
  146.4742  140.2285  152.7515 H   0  0  0  0  0  0  0  0  0  0  0  0
  146.4321  140.0227  154.4942 H   0  0  0  0  0  0  0  0  0  0  0  0
  148.1572  142.0498  152.9522 H   0  0  0  0  0  0  0  0  0  0  0  0
  146.7664  142.4154  153.9547 H   0  0  0  0  0  0  0  0  0  0  0  0
  150.1494  141.2309  153.9918 H   0  0  0  0  0  0  0  0  0  0  0  0
  150.0361  140.5902  156.9662 H   0  0  0  0  0  0  0  0  0  0  0  0
  151.4443  140.7638  155.9323 H   0  0  0  0  0  0  0  0  0  0  0  0
  149.9913  143.2408  156.0057 H   0  0  0  0  0  0  0  0  0  0  0  0
  151.2556  145.0611  157.1180 H   0  0  0  0  0  0  0  0  0  0  0  0
  152.5793  145.6841  159.1729 H   0  0  0  0  0  0  0  0  0  0  0  0
  153.2799  143.8212  160.7177 H   0  0  0  0  0  0  0  0  0  0  0  0
  148.5808  139.1834  155.6541 H   0  0  0  0  0  0  0  0  0  0  0  0
  149.9768  138.8485  154.6471 H   0  0  0  0  0  0  0  0  0  0  0  0
  148.7398  139.5862  152.7573 H   0  0  0  0  0  0  0  0  0  0  0  0
  1  2  1  0  0  0  0
  1 23  1  0  0  0  0
  1 24  1  0  0  0  0
  1 25  1  0  0  0  0
  2  3  1  0  0  0  0
  2  4  1  0  0  0  0
  2 26  1  0  0  0  0
  3 27  1  0  0  0  0
  3 28  1  0  0  0  0
  3 29  1  0  0  0  0
  4  5  1  0  0  0  0
  4 30  1  0  0  0  0
  5  6  2  0  0  0  0
  5  7  1  0  0  0  0
  7  8  1  0  0  0  0
  7 31  1  0  0  0  0
  7 32  1  0  0  0  0
  8  9  1  0  0  0  0
  8 33  1  0  0  0  0
  8 34  1  0  0  0  0
  9 22  1  0  0  0  0
  9 10  1  0  0  0  0
  9 48  1  0  0  0  0
 10 11  1  0  0  0  0
 10 35  1  0  0  0  0
 10 36  1  0  0  0  0
 11 12  1  0  0  0  0
 11 37  1  0  0  0  0
 11 38  1  0  0  0  0
 12 13  1  0  0  0  0
 13 14  1  0  0  0  0
 13 22  1  0  0  0  0
 13 39  1  0  0  0  0
 14 15  1  0  0  0  0
 14 40  1  0  0  0  0
 14 41  1  0  0  0  0
 15 16  1  0  0  0  0
 15 42  1  0  0  0  0
 16 21  1  0  0  0  0
 16 17  2  0  0  0  0
 17 18  1  0  0  0  0
 17 43  1  0  0  0  0
 18 19  2  0  0  0  0
 18 44  1  0  0  0  0
 19 20  1  0  0  0  0
 19 45  1  0  0  0  0
 20 21  2  0  0  0  0
 22 46  1  0  0  0  0
 22 47  1  0  0  0  0
M  CHG  1   9   1
M  END
> <s_m_source_file>
AV-unprocessed.smi

> <i_m_source_file_index>
652

> <i_lp_mmshare_version>
43012

> <i_f3d_flags>
0

> <s_epik_input>
W0NIM11bQ0hdKFtDSDNdKVtOSF1DKD1PKVtDSDJdW0NIMl1OMVtDSDJdW0NIMl1PW0NASF0oW0NIMl0xKVtDSDJdW05IXWMyW2NIXVtjSF1bY0hdbm4y

> <s_epik_cmdline>
J2VwaWtfcHl0aG9uJywgJy1waCcsICc3LjAnLCAnLXRuJywgJzgnLCAnLW1hJywgJzIwMCcsICctbWV0YWxfYmluZGluZycsICctaW1hZScsICc8aW5maWxlLm1hZT4nLCAnLW9tYWUnLCAnPG91dGZpbGUubWFlPic=

> <r_lp_tautomer_probability>
0.999978

> <r_epik_Ionization_Penalty>
0.433079

> <r_epik_Ionization_Penalty_Charging>
0.413784

> <r_epik_Ionization_Penalty_Neutral>
0.0192945

> <r_epik_State_Penalty>
0.425138

> <r_epik_Charging_Adjusted_Penalty>
0.838922

> <i_epik_Tot_Q>
1

> <i_epik_Tot_abs_Q>
1

> <r_epik_Metal_State_Penalty>
0.422073

> <b_epik_Metal_Only>
0

> <s_lp_Force_Field>
OPLS_2005

> <r_lp_Energy>
21.6039

> <b_lp_Chiralities_Consistent>
1

> <s_lp_Variant>
AV-unprocessed.smi:652-1

> <Gold.Version>
5.8.1

> <Gold.Id.Protein>
6NUR|6NUR_protein|mol2

> <Gold.PLP.Fitness>
48.1719

> <Gold.PLP.PLP>
-39.7199

> <Gold.PLP.part.hbond>
-2.7975

> <Gold.PLP.part.metal>
0.0000

> <Gold.PLP.part.buried>
-2.0114

> <Gold.PLP.part.nonpolar>
-35.7247

> <Gold.PLP.part.repulsive>
1.2865

> <Gold.PLP.ligand.clash>
0.0000

> <Gold.PLP.ligand.torsion>
0.3916

> <Gold.PLP.Chemscore.Hbond>
3.0000

> <Gold.PLP.Chemscore.CHOScore>
0.0000

> <Gold.PLP.Chemscore.Metal>
0.0000

> <Gold.Chemscore.Hbonds>
donor molecule, donor type, donor heavy atom, donor atom, acceptor molecule, acceptor atom, score
      L1  H     4    30       P1  7948  1.00
      L1  H     9    48       P1  7957  1.00
      L1  H    15    42       P1  8028  1.00

> <Gold.PLP.Chemscore.Internal.Correction>
0.2351

> <Gold.Rescore>
     Score         DG    S(hbond)    S(metal)    S(lipo)     H(rot)  DE(clash)    DE(int)     intcor
     18.81     -21.04       2.97        0.00      97.73       2.26       1.55       0.68       ----

> <Gold.Chemscore.Fitness>
18.8081

> <Gold.Chemscore.DG>
-21.0358

> <Gold.Chemscore.ZeroCoef>
-5.4800

> <Gold.Chemscore.Hbond>
2.9656

> <Gold.Chemscore.Metal>
0.0000

> <Gold.Chemscore.Lipo>
97.7341

> <Gold.Chemscore.Internal_Hbond>
0.0000

> <Gold.Chemscore.DEClash>
1.5452

> <Gold.Chemscore.DEInternal>
0.6825

> <Gold.Chemscore.Rot>
2.2594

> <Gold.Chemscore.Internal.Correction>
   9.000000E+99

> <Gold.Chemscore.Hbonds>
donor molecule, donor type, donor heavy atom, donor atom, acceptor molecule, acceptor atom, score
      L1  H     4    30       P1  7948  0.99
      L1  H     9    48       P1  7957  1.00
      L1  H    15    42       P1  8028  1.00

> <Gold.Chemscore.Hbond.Weighted>
-9.9050

> <Gold.Chemscore.Metal.Weighted>
-0.0000

> <Gold.Chemscore.Lipo.Weighted>
-11.4349

> <Gold.Chemscore.Internal_Hbond.Weighted>
0.0000

> <Gold.Chemscore.DEClash.Weighted>
1.5452

> <Gold.Chemscore.DEInternal.Weighted>
0.6825

> <Gold.Chemscore.Rot.Weighted>
5.7841

> <Gold.Chemscore.Internal.Correction.Weighted>
   9.000000E+99

> <Gold.Protein.RotatedTorsions>
[ 6907 6896 6895 6894 ] final  104.40 input  -60.11 | X-H torsion
[ 7974 7965 7964 7962 ] final  -89.94 input  175.53 | X-H torsion
[ 8008 7997 7996 7995 ] final   68.48 input   59.86 | X-H torsion
[ 10167 10162 10161 10158 ] final  101.21 input  -65.29 | X-H torsion
[ 10718 10713 10712 10709 ] final    9.92 input   66.30 | X-H torsion
[ 10763 10752 10751 10750 ] final  -51.82 input  -60.55 | X-H torsion
[ 11005 11000 10999 10996 ] final  -41.00 input  -57.11 | X-H torsion

> <Gold.Protein.ActiveResidues>
 VAL166  LYS551  ARG553  GLY616  TRP617  ASP618  TYR619  PRO620  LYS621  CYS622 
 ASP623  PHE694  ASN695  SER759  ASP760  ASP761  ALA762  ILE779  LEU786  VAL792 
 PHE793  MET794  SER795  GLU796  ALA797  LYS798  CYS799  TRP800  GLU811  SER814 

> <Gold.Protein.RotatedAtoms>
  152.5265  133.9683  159.7749 H   0  0  0  0  0  0  0  0  0  0  0  0  # atno 6907 bound_to 6896
  150.9960  133.6095  159.2708 H   0  0  0  0  0  0  0  0  0  0  0  0  # atno 6908 bound_to 6896
  151.3221  135.0827  159.9362 H   0  0  0  0  0  0  0  0  0  0  0  0  # atno 6909 bound_to 6896
  145.4330  140.9556  143.2117 H   0  0  0  0  0  0  0  0  0  0  0  0  # atno 7974 bound_to 7965
  155.7090  140.3494  155.4965 H   0  0  0  0  0  0  0  0  0  0  0  0  # atno 8008 bound_to 7997
  155.9373  140.1095  157.1106 H   0  0  0  0  0  0  0  0  0  0  0  0  # atno 8009 bound_to 7997
  154.4096  140.1219  156.4867 H   0  0  0  0  0  0  0  0  0  0  0  0  # atno 8010 bound_to 7997
  139.7458  144.6998  151.0506 H   0  0  0  0  0  0  0  0  0  0  0  0  # atno 10167 bound_to 10162
  156.9733  130.5977  149.5670 H   0  0  0  0  0  0  0  0  0  0  0  0  # atno 10718 bound_to 10713
  154.1327  135.6517  153.4925 H   0  0  0  0  0  0  0  0  0  0  0  0  # atno 10763 bound_to 10752
  153.0190  135.5296  154.6985 H   0  0  0  0  0  0  0  0  0  0  0  0  # atno 10764 bound_to 10752
  154.6224  135.2966  155.0281 H   0  0  0  0  0  0  0  0  0  0  0  0  # atno 10765 bound_to 10752
  141.0215  133.6861  156.2398 H   0  0  0  0  0  0  0  0  0  0  0  0  # atno 11005 bound_to 11000
  144.8170  139.5859  143.7004 LP  0  0  0  0  0  0  0  0  0  0  0  0  # atno 17320 bound_to 7965
  146.2597  139.6381  142.9371 LP  0  0  0  0  0  0  0  0  0  0  0  0  # atno 17321 bound_to 7965
  140.7792  143.4868  150.9945 LP  0  0  0  0  0  0  0  0  0  0  0  0  # atno 17342 bound_to 10162
  139.8556  143.7381  152.3176 LP  0  0  0  0  0  0  0  0  0  0  0  0  # atno 17343 bound_to 10162
  156.0274  130.5367  150.8443 LP  0  0  0  0  0  0  0  0  0  0  0  0  # atno 17370 bound_to 10713
  157.5577  131.0945  150.9604 LP  0  0  0  0  0  0  0  0  0  0  0  0  # atno 17371 bound_to 10713
  140.6565  134.5013  157.5581 LP  0  0  0  0  0  0  0  0  0  0  0  0  # atno 17394 bound_to 11000
  139.9149  134.8267  156.1401 LP  0  0  0  0  0  0  0  0  0  0  0  0  # atno 17395 bound_to 11000

$$$$
