AV-unprocessed.smi:1208|AV-procd|sdf|5063|dock9
  -GOLD-   22720 4103D 1   1.00000     0.00000
 Structure written by MMmdl.
 35 36  0  0  0  0  0  0  0  0  2 V2000
  149.9651  141.7483  156.4765 C   0  0  0  0  0  0  0  0  0  0  0  0
  151.2786  142.1142  157.1830 C   0  0  2  0  0  0  0  0  0  0  0  0
  152.0200  140.8884  157.4739 N   0  0  0  0  0  0  0  0  0  0  0  0
  151.5202  139.7736  158.0300 C   0  0  0  0  0  0  0  0  0  0  0  0
  150.3406  139.6524  158.3638 O   0  0  0  0  0  0  0  0  0  0  0  0
  152.5164  138.6174  158.2086 C   0  0  0  0  0  0  0  0  0  0  0  0
  153.2909  138.6820  159.4566 N   0  0  0  0  0  0  0  0  0  0  0  0
  154.2574  139.7760  159.4969 N   0  5  0  0  0  0  0  0  0  0  0  0
  155.0374  139.9308  160.5996 C   0  0  0  0  0  0  0  0  0  0  0  0
  155.8828  140.8170  160.6989 O   0  0  0  0  0  0  0  0  0  0  0  0
  154.8520  139.0045  161.7043 C   0  0  0  0  0  0  0  0  0  0  0  0
  153.9363  138.0175  161.6486 C   0  0  0  0  0  0  0  0  0  0  0  0
  153.0817  137.8118  160.4856 C   0  0  0  0  0  0  0  0  0  0  0  0
  152.2341  136.9201  160.4334 O   0  0  0  0  0  0  0  0  0  0  0  0
  151.0368  142.9040  158.4845 C   0  0  1  0  0  0  0  0  0  0  0  0
  152.3093  143.2793  159.2489 C   0  0  0  0  0  0  0  0  0  0  0  0
  151.8555  144.4923  160.0266 C   0  0  0  0  0  0  0  0  0  0  0  0
  150.9536  145.1864  159.0117 C   0  0  0  0  0  0  0  0  0  0  0  0
  150.3981  144.1494  158.2070 O   0  0  0  0  0  0  0  0  0  0  0  0
  149.4000  142.6413  156.2085 H   0  0  0  0  0  0  0  0  0  0  0  0
  149.3294  141.1309  157.1121 H   0  0  0  0  0  0  0  0  0  0  0  0
  150.1562  141.1941  155.5568 H   0  0  0  0  0  0  0  0  0  0  0  0
  151.8528  142.7495  156.5062 H   0  0  0  0  0  0  0  0  0  0  0  0
  152.9992  140.8858  157.2285 H   0  0  0  0  0  0  0  0  0  0  0  0
  151.9559  137.6825  158.1543 H   0  0  0  0  0  0  0  0  0  0  0  0
  153.2028  138.5969  157.3602 H   0  0  0  0  0  0  0  0  0  0  0  0
  155.4600  139.1119  162.5903 H   0  0  0  0  0  0  0  0  0  0  0  0
  153.8311  137.3541  162.4939 H   0  0  0  0  0  0  0  0  0  0  0  0
  150.3810  142.3396  159.1497 H   0  0  0  0  0  0  0  0  0  0  0  0
  152.6762  142.4749  159.8874 H   0  0  0  0  0  0  0  0  0  0  0  0
  153.1063  143.5569  158.5571 H   0  0  0  0  0  0  0  0  0  0  0  0
  151.2769  144.1837  160.8983 H   0  0  0  0  0  0  0  0  0  0  0  0
  152.6799  145.1205  160.3649 H   0  0  0  0  0  0  0  0  0  0  0  0
  150.1751  145.7836  159.4868 H   0  0  0  0  0  0  0  0  0  0  0  0
  151.5404  145.8439  158.3691 H   0  0  0  0  0  0  0  0  0  0  0  0
  1  2  1  0  0  0  0
  1 20  1  0  0  0  0
  1 21  1  0  0  0  0
  1 22  1  0  0  0  0
  2  3  1  0  0  0  0
  2 15  1  0  0  0  0
  2 23  1  0  0  0  0
  3  4  1  0  0  0  0
  3 24  1  0  0  0  0
  4  5  2  0  0  0  0
  4  6  1  0  0  0  0
  6 25  1  0  0  0  0
  6 26  1  0  0  0  0
  6  7  1  0  0  0  0
  7  8  1  0  0  0  0
  7 13  1  0  0  0  0
  8  9  1  0  0  0  0
  9 10  2  0  0  0  0
  9 11  1  0  0  0  0
 11 27  1  0  0  0  0
 11 12  2  0  0  0  0
 12 28  1  0  0  0  0
 12 13  1  0  0  0  0
 13 14  2  0  0  0  0
 15 19  1  0  0  0  0
 15 16  1  0  0  0  0
 15 29  1  0  0  0  0
 16 17  1  0  0  0  0
 16 30  1  0  0  0  0
 16 31  1  0  0  0  0
 17 18  1  0  0  0  0
 17 32  1  0  0  0  0
 17 33  1  0  0  0  0
 18 19  1  0  0  0  0
 18 34  1  0  0  0  0
 18 35  1  0  0  0  0
M  CHG  1   8  -1
M  END
> <s_m_source_file>
AV-unprocessed.smi

> <i_m_source_file_index>
1208

> <i_lp_mmshare_version>
43012

> <i_f3d_flags>
0

> <s_epik_input>
TzFbQ0gyXVtDSDJdW0NIMl1bQ0BIXTFbQ0BIXShbQ0gzXSlbTkhdQyg9TylbQ0gyXW4yW25IXWMoPU8pW2NIXVtjSF1jMj1P

> <s_epik_cmdline>
J2VwaWtfcHl0aG9uJywgJy1waCcsICc3LjAnLCAnLXRuJywgJzgnLCAnLW1hJywgJzIwMCcsICctbWV0YWxfYmluZGluZycsICctaW1hZScsICc8aW5maWxlLm1hZT4nLCAnLW9tYWUnLCAnPG91dGZpbGUubWFlPic=

> <r_lp_tautomer_probability>
1

> <r_epik_Ionization_Penalty>
0.0975494

> <r_epik_Ionization_Penalty_Charging>
0.0975494

> <r_epik_Ionization_Penalty_Neutral>
2.30132e-08

> <r_epik_State_Penalty>
0.034345

> <r_epik_Charging_Adjusted_Penalty>
0.131894

> <i_epik_Tot_Q>
-1

> <i_epik_Tot_abs_Q>
1

> <r_epik_Metal_State_Penalty>
0.034345

> <b_epik_Metal_Only>
0

> <s_lp_Force_Field>
OPLS_2005

> <r_lp_Energy>
33.2444

> <b_lp_Chiralities_Consistent>
1

> <s_lp_Variant>
AV-unprocessed.smi:1208-3

> <Gold.Version>
5.8.1

> <Gold.Id.Protein>
6NUR|6NUR_protein|mol2

> <Gold.PLP.Fitness>
38.4539

> <Gold.PLP.PLP>
-30.7016

> <Gold.PLP.part.hbond>
-3.0000

> <Gold.PLP.part.metal>
0.0000

> <Gold.PLP.part.buried>
-4.4710

> <Gold.PLP.part.nonpolar>
-23.7687

> <Gold.PLP.part.repulsive>
0.2909

> <Gold.PLP.ligand.clash>
0.0000

> <Gold.PLP.ligand.torsion>
0.6337

> <Gold.PLP.Chemscore.Hbond>
3.0000

> <Gold.PLP.Chemscore.CHOScore>
0.0000

> <Gold.PLP.Chemscore.Metal>
0.0000

> <Gold.Chemscore.Hbonds>
donor molecule, donor type, donor heavy atom, donor atom, acceptor molecule, acceptor atom, score
      P1  H  6896  6908       L1    14  1.00
      P1  H  7997  8009       L1     8  0.52

> <Gold.PLP.Chemscore.Internal.Correction>
0.0199

> <Gold.Rescore>
     Score         DG    S(hbond)    S(metal)    S(lipo)     H(rot)  DE(clash)    DE(int)     intcor
     13.67     -15.32       1.86        0.00      74.63       1.99       0.04       1.61       ----

> <Gold.Chemscore.Fitness>
13.6709

> <Gold.Chemscore.DG>
-15.3224

> <Gold.Chemscore.ZeroCoef>
-5.4800

> <Gold.Chemscore.Hbond>
1.8610

> <Gold.Chemscore.Metal>
0.0000

> <Gold.Chemscore.Lipo>
74.6263

> <Gold.Chemscore.Internal_Hbond>
0.0000

> <Gold.Chemscore.DEClash>
0.0396

> <Gold.Chemscore.DEInternal>
1.6119

> <Gold.Chemscore.Rot>
1.9940

> <Gold.Chemscore.Internal.Correction>
   9.000000E+99

> <Gold.Chemscore.Hbonds>
donor molecule, donor type, donor heavy atom, donor atom, acceptor molecule, acceptor atom, score
      P1  H  6896  6908       L1    14  1.00
      P1  H  7997  8009       L1     8  0.16

> <Gold.Chemscore.Hbond.Weighted>
-6.2158

> <Gold.Chemscore.Metal.Weighted>
-0.0000

> <Gold.Chemscore.Lipo.Weighted>
-8.7313

> <Gold.Chemscore.Internal_Hbond.Weighted>
0.0000

> <Gold.Chemscore.DEClash.Weighted>
0.0396

> <Gold.Chemscore.DEInternal.Weighted>
1.6119

> <Gold.Chemscore.Rot.Weighted>
5.1047

> <Gold.Chemscore.Internal.Correction.Weighted>
   9.000000E+99

> <Gold.Protein.RotatedTorsions>
[ 6907 6896 6895 6894 ] final -110.07 input  -60.11 | X-H torsion
[ 7974 7965 7964 7962 ] final -121.90 input  175.53 | X-H torsion
[ 8008 7997 7996 7995 ] final  122.62 input   59.86 | X-H torsion
[ 10167 10162 10161 10158 ] final   42.79 input  -65.29 | X-H torsion
[ 10718 10713 10712 10709 ] final -107.00 input   66.30 | X-H torsion
[ 10763 10752 10751 10750 ] final  -55.14 input  -60.55 | X-H torsion
[ 11005 11000 10999 10996 ] final -152.78 input  -57.11 | X-H torsion

> <Gold.Protein.ActiveResidues>
 VAL166  LYS551  ARG553  GLY616  TRP617  ASP618  TYR619  PRO620  LYS621  CYS622 
 ASP623  PHE694  ASN695  SER759  ASP760  ASP761  ALA762  ILE779  LEU786  VAL792 
 PHE793  MET794  SER795  GLU796  ALA797  LYS798  CYS799  TRP800  GLU811  SER814 

> <Gold.Protein.RotatedAtoms>
  150.7601  133.9436  159.3463 H   0  0  0  0  0  0  0  0  0  0  0  0  # atno 6907 bound_to 6896
  151.7347  135.0865  160.0315 H   0  0  0  0  0  0  0  0  0  0  0  0  # atno 6908 bound_to 6896
  152.3567  133.6209  159.6020 H   0  0  0  0  0  0  0  0  0  0  0  0  # atno 6909 bound_to 6896
  145.0353  140.8101  143.4299 H   0  0  0  0  0  0  0  0  0  0  0  0  # atno 7974 bound_to 7965
  156.2734  140.2781  156.1496 H   0  0  0  0  0  0  0  0  0  0  0  0  # atno 8008 bound_to 7997
  155.0867  140.0388  157.2674 H   0  0  0  0  0  0  0  0  0  0  0  0  # atno 8009 bound_to 7997
  154.6921  140.2631  155.6808 H   0  0  0  0  0  0  0  0  0  0  0  0  # atno 8010 bound_to 7997
  140.3508  144.2352  150.6146 H   0  0  0  0  0  0  0  0  0  0  0  0  # atno 10167 bound_to 10162
  156.0416  130.5641  150.7760 H   0  0  0  0  0  0  0  0  0  0  0  0  # atno 10718 bound_to 10713
  154.1860  135.6435  153.5047 H   0  0  0  0  0  0  0  0  0  0  0  0  # atno 10763 bound_to 10752
  153.0047  135.5417  154.6465 H   0  0  0  0  0  0  0  0  0  0  0  0  # atno 10764 bound_to 10752
  154.5841  135.2928  155.0675 H   0  0  0  0  0  0  0  0  0  0  0  0  # atno 10765 bound_to 10752
  140.7152  134.3789  157.5192 H   0  0  0  0  0  0  0  0  0  0  0  0  # atno 11005 bound_to 11000
  145.1718  139.2400  143.5338 LP  0  0  0  0  0  0  0  0  0  0  0  0  # atno 17320 bound_to 7965
  146.3503  140.1470  142.8593 LP  0  0  0  0  0  0  0  0  0  0  0  0  # atno 17321 bound_to 7965
  140.5220  143.2263  151.8373 LP  0  0  0  0  0  0  0  0  0  0  0  0  # atno 17342 bound_to 10162
  139.4826  144.4825  151.9289 LP  0  0  0  0  0  0  0  0  0  0  0  0  # atno 17343 bound_to 10162
  157.5241  131.0933  151.0041 LP  0  0  0  0  0  0  0  0  0  0  0  0  # atno 17370 bound_to 10713
  157.0364  130.5731  149.5350 LP  0  0  0  0  0  0  0  0  0  0  0  0  # atno 17371 bound_to 10713
  139.8862  134.8917  156.2600 LP  0  0  0  0  0  0  0  0  0  0  0  0  # atno 17394 bound_to 11000
  141.0051  133.7128  156.1021 LP  0  0  0  0  0  0  0  0  0  0  0  0  # atno 17395 bound_to 11000

$$$$
