AV-unprocessed.smi:170|AV-procd|sdf|1406|dock8
  -GOLD-   2262019163D 1   1.00000     0.00000
 Structure written by MMmdl.
 57 61  0  0  0  0  0  0  0  0  1 V2000
  151.4388  134.5443  156.3521 O   0  0  0  0  0  0  0  0  0  0  0  0
  150.1424  134.7297  155.8157 C   0  0  2  0  0  0  0  0  0  0  0  0
  149.2126  135.2845  156.9127 C   0  0  0  0  0  0  0  0  0  0  0  0
  149.6828  136.5452  157.4598 N   0  0  0  0  0  0  0  0  0  0  0  0
  149.3414  137.0972  158.6733 C   0  0  0  0  0  0  0  0  0  0  0  0
  149.8961  138.2493  158.9349 N   0  0  0  0  0  0  0  0  0  0  0  0
  150.6765  138.5131  157.8152 C   0  0  0  0  0  0  0  0  0  0  0  0
  151.5322  139.5826  157.4233 C   0  0  0  0  0  0  0  0  0  0  0  0
  151.7697  140.6971  158.1520 N   0  0  0  0  0  0  0  0  0  0  0  0
  152.2101  140.3523  159.4984 C   0  0  0  0  0  0  0  0  0  0  0  0
  152.6664  141.6124  160.2459 C   0  0  0  0  0  0  0  0  0  0  0  0
  151.6026  142.5548  160.2566 O   0  0  0  0  0  0  0  0  0  0  0  0
  151.2379  142.9606  158.9419 C   0  0  0  0  0  0  0  0  0  0  0  0
  150.7445  141.7482  158.1177 C   0  0  1  0  0  0  0  0  0  0  0  0
  150.3698  142.1589  156.6689 C   0  0  0  0  0  0  0  0  0  0  0  0
  149.0280  141.6099  156.1782 C   0  0  0  0  0  0  0  0  0  0  0  0
  148.8455  140.0887  156.0356 C   0  0  0  0  0  0  0  0  0  0  0  0
  149.1188  140.2381  154.5380 C   0  0  0  0  0  0  0  0  0  0  0  0
  148.7090  141.7057  154.6776 C   0  0  0  0  0  0  0  0  0  0  0  0
  152.1632  139.4862  156.2273 N   0  0  0  0  0  0  0  0  0  0  0  0
  151.9592  138.4198  155.4479 C   0  0  0  0  0  0  0  0  0  0  0  0
  151.1821  137.3575  155.6714 N   0  0  0  0  0  0  0  0  0  0  0  0
  150.5567  137.4469  156.8802 C   0  0  0  0  0  0  0  0  0  0  0  0
  149.6103  133.4081  155.2234 C   0  0  2  0  0  0  0  0  0  0  0  0
  148.4018  133.4951  154.2853 C   0  0  0  0  0  0  0  0  0  0  0  0
  147.8406  132.0958  154.4019 C   0  0  0  0  0  0  0  0  0  0  0  0
  148.0622  131.7929  155.8820 C   0  0  0  0  0  0  0  0  0  0  0  0
  149.2488  132.4910  156.2526 O   0  0  0  0  0  0  0  0  0  0  0  0
  151.5520  133.6255  156.5433 H   0  0  0  0  0  0  0  0  0  0  0  0
  150.2130  135.4658  155.0139 H   0  0  0  0  0  0  0  0  0  0  0  0
  148.2099  135.4426  156.5139 H   0  0  0  0  0  0  0  0  0  0  0  0
  149.1133  134.5673  157.7284 H   0  0  0  0  0  0  0  0  0  0  0  0
  148.6651  136.6145  159.3639 H   0  0  0  0  0  0  0  0  0  0  0  0
  151.3915  139.8748  160.0394 H   0  0  0  0  0  0  0  0  0  0  0  0
  153.0298  139.6337  159.4540 H   0  0  0  0  0  0  0  0  0  0  0  0
  152.9342  141.3654  161.2733 H   0  0  0  0  0  0  0  0  0  0  0  0
  153.5518  142.0461  159.7783 H   0  0  0  0  0  0  0  0  0  0  0  0
  150.4530  143.7100  159.0364 H   0  0  0  0  0  0  0  0  0  0  0  0
  152.0854  143.4461  158.4547 H   0  0  0  0  0  0  0  0  0  0  0  0
  149.8553  141.3621  158.6148 H   0  0  0  0  0  0  0  0  0  0  0  0
  150.3665  143.2470  156.5970 H   0  0  0  0  0  0  0  0  0  0  0  0
  151.1430  141.8277  155.9762 H   0  0  0  0  0  0  0  0  0  0  0  0
  148.1983  142.0325  156.7452 H   0  0  0  0  0  0  0  0  0  0  0  0
  149.5768  139.4769  156.5640 H   0  0  0  0  0  0  0  0  0  0  0  0
  147.8251  139.7639  156.2467 H   0  0  0  0  0  0  0  0  0  0  0  0
  150.1736  140.1140  154.2870 H   0  0  0  0  0  0  0  0  0  0  0  0
  148.4740  139.6412  153.8927 H   0  0  0  0  0  0  0  0  0  0  0  0
  147.6480  141.8669  154.4791 H   0  0  0  0  0  0  0  0  0  0  0  0
  149.3323  142.4045  154.1186 H   0  0  0  0  0  0  0  0  0  0  0  0
  152.4926  138.4194  154.5088 H   0  0  0  0  0  0  0  0  0  0  0  0
  150.4228  132.9217  154.6808 H   0  0  0  0  0  0  0  0  0  0  0  0
  147.6626  134.2137  154.6399 H   0  0  0  0  0  0  0  0  0  0  0  0
  148.6745  133.7621  153.2641 H   0  0  0  0  0  0  0  0  0  0  0  0
  146.7941  132.0247  154.1042 H   0  0  0  0  0  0  0  0  0  0  0  0
  148.4204  131.4072  153.7856 H   0  0  0  0  0  0  0  0  0  0  0  0
  147.2345  132.1823  156.4756 H   0  0  0  0  0  0  0  0  0  0  0  0
  148.1473  130.7244  156.0807 H   0  0  0  0  0  0  0  0  0  0  0  0
  1  2  1  0  0  0  0
  1 29  1  0  0  0  0
  2  3  1  0  0  0  0
  2 24  1  0  0  0  0
  2 30  1  0  0  0  0
  3  4  1  0  0  0  0
  3 31  1  0  0  0  0
  3 32  1  0  0  0  0
  4 23  1  0  0  0  0
  4  5  1  0  0  0  0
  5  6  2  0  0  0  0
  5 33  1  0  0  0  0
  6  7  1  0  0  0  0
  7 23  2  0  0  0  0
  7  8  1  0  0  0  0
  8  9  1  0  0  0  0
  8 20  2  0  0  0  0
  9 14  1  0  0  0  0
  9 10  1  0  0  0  0
 10 11  1  0  0  0  0
 10 34  1  0  0  0  0
 10 35  1  0  0  0  0
 11 12  1  0  0  0  0
 11 36  1  0  0  0  0
 11 37  1  0  0  0  0
 12 13  1  0  0  0  0
 13 14  1  0  0  0  0
 13 38  1  0  0  0  0
 13 39  1  0  0  0  0
 14 15  1  0  0  0  0
 14 40  1  0  0  0  0
 15 16  1  0  0  0  0
 15 41  1  0  0  0  0
 15 42  1  0  0  0  0
 16 19  1  0  0  0  0
 16 17  1  0  0  0  0
 16 43  1  0  0  0  0
 17 18  1  0  0  0  0
 17 44  1  0  0  0  0
 17 45  1  0  0  0  0
 18 19  1  0  0  0  0
 18 46  1  0  0  0  0
 18 47  1  0  0  0  0
 19 48  1  0  0  0  0
 19 49  1  0  0  0  0
 20 21  1  0  0  0  0
 21 22  2  0  0  0  0
 21 50  1  0  0  0  0
 22 23  1  0  0  0  0
 24 28  1  0  0  0  0
 24 25  1  0  0  0  0
 24 51  1  0  0  0  0
 25 26  1  0  0  0  0
 25 52  1  0  0  0  0
 25 53  1  0  0  0  0
 26 27  1  0  0  0  0
 26 54  1  0  0  0  0
 26 55  1  0  0  0  0
 27 28  1  0  0  0  0
 27 56  1  0  0  0  0
 27 57  1  0  0  0  0
M  END
> <s_m_source_file>
AV-unprocessed.smi

> <i_m_source_file_index>
170

> <i_lp_mmshare_version>
43012

> <i_f3d_flags>
0

> <s_epik_input>
TzFbQ0gyXVtDSDJdW0NIMl1bQ0BIXTFbQ0BIXShbT0hdKVtDSDJdbihbY0hdbjIpYyhjMjMpbltjSF1uYzNONFtDSDJdW0NIMl1PW0NIMl1bQ0BIXTRbQ0gyXVtDSF01W0NIMl1bQ0gyXVtDSDJdNQ==

> <s_epik_cmdline>
J2VwaWtfcHl0aG9uJywgJy1waCcsICc3LjAnLCAnLXRuJywgJzgnLCAnLW1hJywgJzIwMCcsICctbWV0YWxfYmluZGluZycsICctaW1hZScsICc8aW5maWxlLm1hZT4nLCAnLW9tYWUnLCAnPG91dGZpbGUubWFlPic=

> <r_lp_tautomer_probability>
1

> <r_epik_Ionization_Penalty>
4.98275e-05

> <r_epik_Ionization_Penalty_Charging>
0

> <r_epik_Ionization_Penalty_Neutral>
4.98275e-05

> <r_epik_State_Penalty>
-0

> <r_epik_Charging_Adjusted_Penalty>
0

> <i_epik_Tot_Q>
0

> <i_epik_Tot_abs_Q>
0

> <r_epik_Metal_State_Penalty>
-0

> <b_epik_Metal_Only>
0

> <s_lp_Force_Field>
OPLS_2005

> <r_lp_Energy>
54.7181

> <b_lp_Chiralities_Consistent>
1

> <s_lp_Variant>
AV-unprocessed.smi:170-1

> <Gold.Version>
5.8.1

> <Gold.Id.Protein>
6NUR|6NUR_protein|mol2

> <Gold.PLP.Fitness>
44.5185

> <Gold.PLP.PLP>
-41.3783

> <Gold.PLP.part.hbond>
-3.2224

> <Gold.PLP.part.metal>
0.0000

> <Gold.PLP.part.buried>
-4.0711

> <Gold.PLP.part.nonpolar>
-34.0938

> <Gold.PLP.part.repulsive>
0.0387

> <Gold.PLP.ligand.clash>
0.0000

> <Gold.PLP.ligand.torsion>
1.4760

> <Gold.PLP.Chemscore.Hbond>
1.9280

> <Gold.PLP.Chemscore.CHOScore>
0.0000

> <Gold.PLP.Chemscore.Metal>
0.0000

> <Gold.Chemscore.Hbonds>
donor molecule, donor type, donor heavy atom, donor atom, acceptor molecule, acceptor atom, score
      P1  H  7997  8010       L1    20  0.39
      P1  H 10752 10764       L1     1  0.10

> <Gold.PLP.Chemscore.Internal.Correction>
0.3083

> <Gold.Rescore>
     Score         DG    S(hbond)    S(metal)    S(lipo)     H(rot)  DE(clash)    DE(int)     intcor
      9.84     -12.82       0.75        0.00      98.51       2.61       0.00       2.97       ----

> <Gold.Chemscore.Fitness>
9.8426

> <Gold.Chemscore.DG>
-12.8180

> <Gold.Chemscore.ZeroCoef>
-5.4800

> <Gold.Chemscore.Hbond>
0.7501

> <Gold.Chemscore.Metal>
0.0000

> <Gold.Chemscore.Lipo>
98.5095

> <Gold.Chemscore.Internal_Hbond>
0.0000

> <Gold.Chemscore.DEClash>
0.0042

> <Gold.Chemscore.DEInternal>
2.9712

> <Gold.Chemscore.Rot>
2.6144

> <Gold.Chemscore.Internal.Correction>
   9.000000E+99

> <Gold.Chemscore.Hbonds>
donor molecule, donor type, donor heavy atom, donor atom, acceptor molecule, acceptor atom, score
      P1  H  7997  8010       L1    20  0.26
      P1  H 10752 10764       L1     1  0.07

> <Gold.Chemscore.Hbond.Weighted>
-2.5053

> <Gold.Chemscore.Metal.Weighted>
-0.0000

> <Gold.Chemscore.Lipo.Weighted>
-11.5256

> <Gold.Chemscore.Internal_Hbond.Weighted>
0.0000

> <Gold.Chemscore.DEClash.Weighted>
0.0042

> <Gold.Chemscore.DEInternal.Weighted>
2.9712

> <Gold.Chemscore.Rot.Weighted>
6.6929

> <Gold.Chemscore.Internal.Correction.Weighted>
   9.000000E+99

> <Gold.Protein.RotatedTorsions>
[ 6907 6896 6895 6894 ] final -153.65 input  -60.11 | X-H torsion
[ 7974 7965 7964 7962 ] final  170.86 input  175.53 | X-H torsion
[ 8008 7997 7996 7995 ] final   71.43 input   59.86 | X-H torsion
[ 10167 10162 10161 10158 ] final   -4.26 input  -65.29 | X-H torsion
[ 10718 10713 10712 10709 ] final   18.66 input   66.30 | X-H torsion
[ 10763 10752 10751 10750 ] final  -10.04 input  -60.55 | X-H torsion
[ 11005 11000 10999 10996 ] final    8.61 input  -57.11 | X-H torsion

> <Gold.Protein.ActiveResidues>
 VAL166  LYS551  ARG553  GLY616  TRP617  ASP618  TYR619  PRO620  LYS621  CYS622 
 ASP623  PHE694  ASN695  SER759  ASP760  ASP761  ALA762  ILE779  LEU786  VAL792 
 PHE793  MET794  SER795  GLU796  ALA797  LYS798  CYS799  TRP800  GLU811  SER814 

> <Gold.Protein.RotatedAtoms>
  151.2457  133.4376  159.2608 H   0  0  0  0  0  0  0  0  0  0  0  0  # atno 6907 bound_to 6896
  151.0664  134.9770  159.8297 H   0  0  0  0  0  0  0  0  0  0  0  0  # atno 6908 bound_to 6896
  152.5406  134.2404  159.8912 H   0  0  0  0  0  0  0  0  0  0  0  0  # atno 6909 bound_to 6896
  144.7311  139.9264  143.6422 H   0  0  0  0  0  0  0  0  0  0  0  0  # atno 7974 bound_to 7965
  155.7538  140.3488  155.5163 H   0  0  0  0  0  0  0  0  0  0  0  0  # atno 8008 bound_to 7997
  155.8979  140.1029  157.1392 H   0  0  0  0  0  0  0  0  0  0  0  0  # atno 8009 bound_to 7997
  154.4040  140.1291  156.4386 H   0  0  0  0  0  0  0  0  0  0  0  0  # atno 8010 bound_to 7997
  140.6921  143.6444  150.8406 H   0  0  0  0  0  0  0  0  0  0  0  0  # atno 10167 bound_to 10162
  157.0994  130.6461  149.5868 H   0  0  0  0  0  0  0  0  0  0  0  0  # atno 10718 bound_to 10713
  153.4634  135.7016  153.6036 H   0  0  0  0  0  0  0  0  0  0  0  0  # atno 10763 bound_to 10752
  153.4321  135.3800  155.2177 H   0  0  0  0  0  0  0  0  0  0  0  0  # atno 10764 bound_to 10752
  154.8727  135.3953  154.4063 H   0  0  0  0  0  0  0  0  0  0  0  0  # atno 10765 bound_to 10752
  140.5351  134.0429  155.7886 H   0  0  0  0  0  0  0  0  0  0  0  0  # atno 11005 bound_to 11000
  146.0890  139.3880  143.0417 LP  0  0  0  0  0  0  0  0  0  0  0  0  # atno 17320 bound_to 7965
  145.7737  140.9886  143.1136 LP  0  0  0  0  0  0  0  0  0  0  0  0  # atno 17321 bound_to 7965
  140.0158  143.5594  152.2820 LP  0  0  0  0  0  0  0  0  0  0  0  0  # atno 17342 bound_to 10162
  139.6334  144.7647  151.2488 LP  0  0  0  0  0  0  0  0  0  0  0  0  # atno 17343 bound_to 10162
  155.9877  130.4918  150.7139 LP  0  0  0  0  0  0  0  0  0  0  0  0  # atno 17370 bound_to 10713
  157.4653  131.0887  151.0701 LP  0  0  0  0  0  0  0  0  0  0  0  0  # atno 17371 bound_to 10713
  141.1259  133.9383  157.2636 LP  0  0  0  0  0  0  0  0  0  0  0  0  # atno 17394 bound_to 11000
  139.9533  135.0171  156.9058 LP  0  0  0  0  0  0  0  0  0  0  0  0  # atno 17395 bound_to 11000

$$$$
