AV-unprocessed.smi:3334|AV-procd|sdf|12836|dock5
  -GOLD-   2272019213D 1   1.00000     0.00000
 Structure written by MMmdl.
 41 42  0  0  0  0  0  0  0  0  1 V2000
  153.8933  141.4346  160.6312 C   0  0  0  0  0  0  0  0  0  0  0  0
  153.1288  142.7663  160.6429 C   0  0  0  0  0  0  0  0  0  0  0  0
  152.1168  142.8505  161.7928 C   0  0  0  0  0  0  0  0  0  0  0  0
  152.4932  143.0613  159.3195 C   0  0  0  0  0  0  0  0  0  0  0  0
  151.7638  142.1685  158.6457 N   0  0  0  0  0  0  0  0  0  0  0  0
  151.2744  142.6670  157.4339 C   0  0  0  0  0  0  0  0  0  0  0  0
  150.4674  141.7741  156.5328 C   0  0  0  0  0  0  0  0  0  0  0  0
  149.0493  141.4894  157.0630 C   0  0  0  0  0  0  0  0  0  0  0  0
  148.0704  142.4125  156.4964 N   0  0  0  0  0  0  0  0  0  0  0  0
  146.7567  142.1724  156.3813 C   0  0  0  0  0  0  0  0  0  0  0  0
  146.2468  141.0699  156.5817 O   0  0  0  0  0  0  0  0  0  0  0  0
  145.8779  143.3754  156.0235 C   0  0  0  0  0  0  0  0  0  0  0  0
  145.2551  143.2732  154.6131 C   0  0  1  0  0  0  0  0  0  0  0  0
  144.3941  144.4553  154.2335 C   0  0  0  0  0  0  0  0  0  0  0  0
  144.7274  144.9765  153.0556 C   0  0  0  0  0  0  0  0  0  0  0  0
  145.8824  144.2585  152.4152 C   0  0  0  0  0  0  0  0  0  0  0  0
  146.3098  143.2218  153.4783 C   0  0  0  0  0  0  0  0  0  0  0  0
  151.6605  143.9607  157.1877 C   0  0  0  0  0  0  0  0  0  0  0  0
  152.6578  144.5956  158.4680 S   0  0  0  0  0  0  0  0  0  0  0  0
  154.6493  141.4236  159.8453 H   0  0  0  0  0  0  0  0  0  0  0  0
  153.2236  140.5910  160.4624 H   0  0  0  0  0  0  0  0  0  0  0  0
  154.4024  141.2668  161.5804 H   0  0  0  0  0  0  0  0  0  0  0  0
  153.8693  143.5478  160.8194 H   0  0  0  0  0  0  0  0  0  0  0  0
  151.6405  143.8310  161.8233 H   0  0  0  0  0  0  0  0  0  0  0  0
  152.6014  142.6896  162.7558 H   0  0  0  0  0  0  0  0  0  0  0  0
  151.3336  142.0996  161.6868 H   0  0  0  0  0  0  0  0  0  0  0  0
  150.3853  142.2325  155.5463 H   0  0  0  0  0  0  0  0  0  0  0  0
  150.9888  140.8301  156.3724 H   0  0  0  0  0  0  0  0  0  0  0  0
  148.7575  140.4614  156.8465 H   0  0  0  0  0  0  0  0  0  0  0  0
  149.0644  141.5890  158.1496 H   0  0  0  0  0  0  0  0  0  0  0  0
  148.3957  143.3480  156.2988 H   0  0  0  0  0  0  0  0  0  0  0  0
  145.0858  143.4801  156.7672 H   0  0  0  0  0  0  0  0  0  0  0  0
  146.4876  144.2766  156.0931 H   0  0  0  0  0  0  0  0  0  0  0  0
  144.6244  142.3847  154.5558 H   0  0  0  0  0  0  0  0  0  0  0  0
  143.5860  144.8091  154.8573 H   0  0  0  0  0  0  0  0  0  0  0  0
  144.2358  145.8148  152.5847 H   0  0  0  0  0  0  0  0  0  0  0  0
  145.5540  143.7794  151.4925 H   0  0  0  0  0  0  0  0  0  0  0  0
  146.6875  144.9554  152.1809 H   0  0  0  0  0  0  0  0  0  0  0  0
  147.2988  143.4809  153.8586 H   0  0  0  0  0  0  0  0  0  0  0  0
  146.3862  142.2211  153.0519 H   0  0  0  0  0  0  0  0  0  0  0  0
  151.4354  144.5699  156.3251 H   0  0  0  0  0  0  0  0  0  0  0  0
  1  2  1  0  0  0  0
  1 20  1  0  0  0  0
  1 21  1  0  0  0  0
  1 22  1  0  0  0  0
  2  3  1  0  0  0  0
  2  4  1  0  0  0  0
  2 23  1  0  0  0  0
  3 24  1  0  0  0  0
  3 25  1  0  0  0  0
  3 26  1  0  0  0  0
  4 19  1  0  0  0  0
  4  5  2  0  0  0  0
  5  6  1  0  0  0  0
  6  7  1  0  0  0  0
  6 18  2  0  0  0  0
  7  8  1  0  0  0  0
  7 27  1  0  0  0  0
  7 28  1  0  0  0  0
  8  9  1  0  0  0  0
  8 29  1  0  0  0  0
  8 30  1  0  0  0  0
  9 10  1  0  0  0  0
  9 31  1  0  0  0  0
 10 11  2  0  0  0  0
 10 12  1  0  0  0  0
 12 13  1  0  0  0  0
 12 32  1  0  0  0  0
 12 33  1  0  0  0  0
 13 17  1  0  0  0  0
 13 14  1  0  0  0  0
 13 34  1  0  0  0  0
 14 15  2  0  0  0  0
 14 35  1  0  0  0  0
 15 16  1  0  0  0  0
 15 36  1  0  0  0  0
 16 17  1  0  0  0  0
 16 37  1  0  0  0  0
 16 38  1  0  0  0  0
 17 39  1  0  0  0  0
 17 40  1  0  0  0  0
 18 19  1  0  0  0  0
 18 41  1  0  0  0  0
M  END
> <s_m_source_file>
AV-unprocessed.smi

> <i_m_source_file_index>
3334

> <i_lp_mmshare_version>
43012

> <i_f3d_flags>
0

> <s_epik_input>
W0NIM11bQ0hdKFtDSDNdKWMxbmMoW2NIXXMxKVtDSDJdW0NIMl1bTkhdQyg9TylbQ0gyXVtDQEBIXTJbQ0hdPVtDSF1bQ0gyXVtDSDJdMg==

> <s_epik_cmdline>
J2VwaWtfcHl0aG9uJywgJy1waCcsICc3LjAnLCAnLXRuJywgJzgnLCAnLW1hJywgJzIwMCcsICctbWV0YWxfYmluZGluZycsICctaW1hZScsICc8aW5maWxlLm1hZT4nLCAnLW9tYWUnLCAnPG91dGZpbGUubWFlPic=

> <r_epik_Ionization_Penalty>
0.000771592

> <r_epik_Ionization_Penalty_Charging>
0

> <r_epik_Ionization_Penalty_Neutral>
0.000771592

> <r_epik_State_Penalty>
0.000494253

> <r_epik_Charging_Adjusted_Penalty>
0.000494253

> <i_epik_Tot_Q>
0

> <i_epik_Tot_abs_Q>
0

> <r_epik_Metal_State_Penalty>
-0

> <b_epik_Metal_Only>
0

> <s_lp_Force_Field>
OPLS_2005

> <r_lp_Energy>
5.93023

> <b_lp_Chiralities_Consistent>
1

> <s_lp_Variant>
AV-unprocessed.smi:3334-2

> <Gold.Version>
5.8.1

> <Gold.Id.Protein>
6NUR|6NUR_protein|mol2

> <Gold.PLP.Fitness>
50.7295

> <Gold.PLP.PLP>
-46.9303

> <Gold.PLP.part.hbond>
-1.0000

> <Gold.PLP.part.metal>
0.0000

> <Gold.PLP.part.buried>
-4.8073

> <Gold.PLP.part.nonpolar>
-42.0871

> <Gold.PLP.part.repulsive>
0.0190

> <Gold.PLP.ligand.clash>
0.0000

> <Gold.PLP.ligand.torsion>
0.9496

> <Gold.PLP.Chemscore.Hbond>
1.0000

> <Gold.PLP.Chemscore.CHOScore>
0.8629

> <Gold.PLP.Chemscore.Metal>
0.0000

> <Gold.Chemscore.Hbonds>
donor molecule, donor type, donor heavy atom, donor atom, acceptor molecule, acceptor atom, score
      L1  H     9    31       P1  8028  1.00
      L1  C    18    41       P1  8028  0.61

> <Gold.PLP.Chemscore.Internal.Correction>
0.1096

> <Gold.Rescore>
     Score         DG    S(hbond)    S(metal)    S(lipo)     H(rot)  DE(clash)    DE(int)     intcor
     17.23     -18.30       0.35        0.00     132.85       1.52       0.41       0.66       ----

> <Gold.Chemscore.Fitness>
17.2264

> <Gold.Chemscore.DG>
-18.2975

> <Gold.Chemscore.ZeroCoef>
-5.4800

> <Gold.Chemscore.Hbond>
0.3459

> <Gold.Chemscore.Metal>
0.0000

> <Gold.Chemscore.Lipo>
132.8519

> <Gold.Chemscore.Internal_Hbond>
0.0000

> <Gold.Chemscore.DEClash>
0.4105

> <Gold.Chemscore.DEInternal>
0.6606

> <Gold.Chemscore.Rot>
1.5162

> <Gold.Chemscore.Internal.Correction>
   9.000000E+99

> <Gold.Chemscore.Hbonds>
donor molecule, donor type, donor heavy atom, donor atom, acceptor molecule, acceptor atom, score
      L1  H     9    31       P1  8028  0.64

> <Gold.Chemscore.Hbond.Weighted>
-1.1554

> <Gold.Chemscore.Metal.Weighted>
-0.0000

> <Gold.Chemscore.Lipo.Weighted>
-15.5437

> <Gold.Chemscore.Internal_Hbond.Weighted>
0.0000

> <Gold.Chemscore.DEClash.Weighted>
0.4105

> <Gold.Chemscore.DEInternal.Weighted>
0.6606

> <Gold.Chemscore.Rot.Weighted>
3.8815

> <Gold.Chemscore.Internal.Correction.Weighted>
   9.000000E+99

> <Gold.Protein.RotatedTorsions>
[ 6907 6896 6895 6894 ] final   57.30 input  -60.11 | X-H torsion
[ 7974 7965 7964 7962 ] final   91.67 input  175.53 | X-H torsion
[ 8008 7997 7996 7995 ] final -136.11 input   59.86 | X-H torsion
[ 10167 10162 10161 10158 ] final -158.44 input  -65.29 | X-H torsion
[ 10718 10713 10712 10709 ] final  146.90 input   66.30 | X-H torsion
[ 10763 10752 10751 10750 ] final -175.88 input  -60.55 | X-H torsion
[ 11005 11000 10999 10996 ] final  -50.65 input  -57.11 | X-H torsion

> <Gold.Protein.ActiveResidues>
 VAL166  LYS551  ARG553  GLY616  TRP617  ASP618  TYR619  PRO620  LYS621  CYS622 
 ASP623  PHE694  ASN695  SER759  ASP760  ASP761  ALA762  ILE779  LEU786  VAL792 
 PHE793  MET794  SER795  GLU796  ALA797  LYS798  CYS799  TRP800  GLU811  SER814 

> <Gold.Protein.RotatedAtoms>
  152.3718  134.6722  160.0173 H   0  0  0  0  0  0  0  0  0  0  0  0  # atno 6907 bound_to 6896
  151.7013  133.3306  159.3275 H   0  0  0  0  0  0  0  0  0  0  0  0  # atno 6908 bound_to 6896
  150.7679  134.6548  159.6352 H   0  0  0  0  0  0  0  0  0  0  0  0  # atno 6909 bound_to 6896
  145.5026  139.2276  143.2769 H   0  0  0  0  0  0  0  0  0  0  0  0  # atno 7974 bound_to 7965
  155.3897  140.0499  157.3041 H   0  0  0  0  0  0  0  0  0  0  0  0  # atno 8008 bound_to 7997
  154.5042  140.2168  155.9246 H   0  0  0  0  0  0  0  0  0  0  0  0  # atno 8009 bound_to 7997
  156.1505  140.3137  155.8645 H   0  0  0  0  0  0  0  0  0  0  0  0  # atno 8010 bound_to 7997
  139.6692  143.9775  152.2273 H   0  0  0  0  0  0  0  0  0  0  0  0  # atno 10167 bound_to 10162
  157.3275  131.0915  151.1190 H   0  0  0  0  0  0  0  0  0  0  0  0  # atno 10718 bound_to 10713
  154.5791  135.2834  155.0751 H   0  0  0  0  0  0  0  0  0  0  0  0  # atno 10763 bound_to 10752
  154.2094  135.6410  153.5114 H   0  0  0  0  0  0  0  0  0  0  0  0  # atno 10764 bound_to 10752
  153.0082  135.5488  154.6439 H   0  0  0  0  0  0  0  0  0  0  0  0  # atno 10765 bound_to 10752
  141.0828  133.6649  156.3762 H   0  0  0  0  0  0  0  0  0  0  0  0  # atno 11005 bound_to 11000
  146.2217  140.5827  142.9014 LP  0  0  0  0  0  0  0  0  0  0  0  0  # atno 17320 bound_to 7965
  144.7772  140.5764  143.6630 LP  0  0  0  0  0  0  0  0  0  0  0  0  # atno 17321 bound_to 7965
  139.9535  144.6605  150.8149 LP  0  0  0  0  0  0  0  0  0  0  0  0  # atno 17342 bound_to 10162
  140.7611  143.3167  151.2717 LP  0  0  0  0  0  0  0  0  0  0  0  0  # atno 17343 bound_to 10162
  157.2451  130.6587  149.5907 LP  0  0  0  0  0  0  0  0  0  0  0  0  # atno 17370 bound_to 10713
  155.9692  130.4556  150.5893 LP  0  0  0  0  0  0  0  0  0  0  0  0  # atno 17371 bound_to 10713
  140.5431  134.6101  157.5386 LP  0  0  0  0  0  0  0  0  0  0  0  0  # atno 17394 bound_to 11000
  139.9643  134.7400  156.0171 LP  0  0  0  0  0  0  0  0  0  0  0  0  # atno 17395 bound_to 11000

$$$$
