AV-unprocessed.smi:2703|AV-procd|sdf|10439|dock1
  -GOLD-   2272014483D 1   1.00000     0.00000
 Structure written by MMmdl.
 42 44  0  0  0  0  0  0  0  0  3 V2000
  152.2101  144.9933  159.5664 C   0  0  0  0  0  0  0  0  0  0  0  0
  152.1039  143.5443  159.1247 C   0  0  0  0  0  0  0  0  0  0  0  0
  151.5393  143.2504  157.8632 C   0  0  0  0  0  0  0  0  0  0  0  0
  151.4199  141.9164  157.4159 C   0  0  0  0  0  0  0  0  0  0  0  0
  150.9032  141.4083  156.2364 N   0  0  0  0  0  0  0  0  0  0  0  0
  151.0694  140.1011  156.4133 C   0  0  0  0  0  0  0  0  0  0  0  0
  151.6359  139.7009  157.5679 N   0  0  0  0  0  0  0  0  0  0  0  0
  151.9091  138.3336  157.9747 C   0  0  0  0  0  0  0  0  0  0  0  0
  150.6364  137.4678  158.0272 C   0  0  1  0  0  0  0  0  0  0  0  0
  150.9035  136.1972  157.4654 O   0  0  0  0  0  0  0  0  0  0  0  0
  150.1225  137.2886  159.4649 C   0  0  0  0  0  0  0  0  0  0  0  0
  148.3139  137.1250  159.5285 S   0  0  0  0  0  0  0  0  0  0  0  0
  147.9155  135.8605  160.7118 C   0  0  0  0  0  0  0  0  0  0  0  0
  147.9994  134.4857  160.3981 C   0  0  0  0  0  0  0  0  0  0  0  0
  147.6749  133.5283  161.3717 C   0  0  0  0  0  0  0  0  0  0  0  0
  147.2710  133.9644  162.6421 C   0  0  0  0  0  0  0  0  0  0  0  0
  147.2000  135.3448  162.9102 C   0  0  0  0  0  0  0  0  0  0  0  0
  147.5168  136.2779  161.9605 N   0  3  0  0  0  0  0  0  0  0  0  0
  147.4370  137.5287  162.2557 O   0  5  0  0  0  0  0  0  0  0  0  0
  151.8861  140.8750  158.2712 C   0  0  0  0  0  0  0  0  0  0  0  0
  152.4519  141.1556  159.5277 C   0  0  0  0  0  0  0  0  0  0  0  0
  152.5619  142.4940  159.9601 C   0  0  0  0  0  0  0  0  0  0  0  0
  153.1699  142.7859  161.3207 C   0  0  0  0  0  0  0  0  0  0  0  0
  151.7972  145.6697  158.8176 H   0  0  0  0  0  0  0  0  0  0  0  0
  153.2531  145.2678  159.7256 H   0  0  0  0  0  0  0  0  0  0  0  0
  151.6635  145.1505  160.4965 H   0  0  0  0  0  0  0  0  0  0  0  0
  151.1902  144.0499  157.2263 H   0  0  0  0  0  0  0  0  0  0  0  0
  150.7629  139.3910  155.6592 H   0  0  0  0  0  0  0  0  0  0  0  0
  152.6387  137.8994  157.2901 H   0  0  0  0  0  0  0  0  0  0  0  0
  152.3836  138.3631  158.9564 H   0  0  0  0  0  0  0  0  0  0  0  0
  149.8583  137.9448  157.4297 H   0  0  0  0  0  0  0  0  0  0  0  0
  151.5677  136.2985  156.8002 H   0  0  0  0  0  0  0  0  0  0  0  0
  150.5818  136.4137  159.9265 H   0  0  0  0  0  0  0  0  0  0  0  0
  150.4026  138.1554  160.0642 H   0  0  0  0  0  0  0  0  0  0  0  0
  148.3076  134.1522  159.4197 H   0  0  0  0  0  0  0  0  0  0  0  0
  147.7346  132.4735  161.1467 H   0  0  0  0  0  0  0  0  0  0  0  0
  147.0155  133.2475  163.4084 H   0  0  0  0  0  0  0  0  0  0  0  0
  146.8973  135.7546  163.8630 H   0  0  0  0  0  0  0  0  0  0  0  0
  152.7990  140.3471  160.1538 H   0  0  0  0  0  0  0  0  0  0  0  0
  153.4983  141.8710  161.8149 H   0  0  0  0  0  0  0  0  0  0  0  0
  152.4392  143.2722  161.9674 H   0  0  0  0  0  0  0  0  0  0  0  0
  154.0357  143.4408  161.2218 H   0  0  0  0  0  0  0  0  0  0  0  0
  1  2  1  0  0  0  0
  1 24  1  0  0  0  0
  1 25  1  0  0  0  0
  1 26  1  0  0  0  0
  2 22  1  0  0  0  0
  2  3  2  0  0  0  0
  3  4  1  0  0  0  0
  3 27  1  0  0  0  0
  4 20  2  0  0  0  0
  4  5  1  0  0  0  0
  5  6  2  0  0  0  0
  6  7  1  0  0  0  0
  6 28  1  0  0  0  0
  7  8  1  0  0  0  0
  7 20  1  0  0  0  0
  8  9  1  0  0  0  0
  8 29  1  0  0  0  0
  8 30  1  0  0  0  0
  9 10  1  0  0  0  0
  9 11  1  0  0  0  0
  9 31  1  0  0  0  0
 10 32  1  0  0  0  0
 11 12  1  0  0  0  0
 11 33  1  0  0  0  0
 11 34  1  0  0  0  0
 12 13  1  0  0  0  0
 13 18  1  0  0  0  0
 13 14  2  0  0  0  0
 14 15  1  0  0  0  0
 14 35  1  0  0  0  0
 15 16  2  0  0  0  0
 15 36  1  0  0  0  0
 16 17  1  0  0  0  0
 16 37  1  0  0  0  0
 17 18  2  0  0  0  0
 17 38  1  0  0  0  0
 18 19  1  0  0  0  0
 20 21  1  0  0  0  0
 21 22  2  0  0  0  0
 21 39  1  0  0  0  0
 22 23  1  0  0  0  0
 23 40  1  0  0  0  0
 23 41  1  0  0  0  0
 23 42  1  0  0  0  0
M  CHG  1  18   1
M  CHG  1  19  -1
M  END
> <s_m_source_file>
AV-unprocessed.smi

> <i_m_source_file_index>
2703

> <i_lp_mmshare_version>
43012

> <i_f3d_flags>
0

> <s_epik_input>
W0NIM11jKFtjSF0xKWMoW0NIM10pW2NIXWMoYzEyKW4oW2NIXW4yKVtDSDJdW0NASF0oW09IXSlbQ0gyXVNjM1tjSF1bY0hdW2NIXVtjSF1bbitdM1tPLV0=

> <s_epik_cmdline>
J2VwaWtfcHl0aG9uJywgJy1waCcsICc3LjAnLCAnLXRuJywgJzgnLCAnLW1hJywgJzIwMCcsICctbWV0YWxfYmluZGluZycsICctaW1hZScsICc8aW5maWxlLm1hZT4nLCAnLW9tYWUnLCAnPG91dGZpbGUubWFlPic=

> <r_epik_Ionization_Penalty>
0.106001

> <r_epik_Ionization_Penalty_Charging>
1.39204e-07

> <r_epik_Ionization_Penalty_Neutral>
0.106001

> <r_epik_State_Penalty>
0.0958598

> <r_epik_Charging_Adjusted_Penalty>
0.0958599

> <i_epik_Tot_Q>
0

> <i_epik_Tot_abs_Q>
2

> <r_epik_Metal_State_Penalty>
0.000104041

> <b_epik_Metal_Only>
0

> <s_lp_Force_Field>
OPLS_2005

> <r_lp_Energy>
17.7295

> <b_lp_Chiralities_Consistent>
1

> <s_lp_Variant>
AV-unprocessed.smi:2703-2

> <Gold.Version>
5.8.1

> <Gold.Id.Protein>
6NUR|6NUR_protein|mol2

> <Gold.PLP.Fitness>
55.0547

> <Gold.PLP.PLP>
-53.7622

> <Gold.PLP.part.hbond>
-2.5412

> <Gold.PLP.part.metal>
0.0000

> <Gold.PLP.part.buried>
-6.1407

> <Gold.PLP.part.nonpolar>
-45.5829

> <Gold.PLP.part.repulsive>
0.0510

> <Gold.PLP.ligand.clash>
0.0000

> <Gold.PLP.ligand.torsion>
1.5494

> <Gold.PLP.Chemscore.Hbond>
1.4080

> <Gold.PLP.Chemscore.CHOScore>
0.0000

> <Gold.PLP.Chemscore.Metal>
0.0000

> <Gold.Chemscore.Hbonds>
donor molecule, donor type, donor heavy atom, donor atom, acceptor molecule, acceptor atom, score
      P1  H  6931  6943       L1    19  0.69
      P1  H  6934  6947       L1    19  0.51

> <Gold.PLP.Chemscore.Internal.Correction>
0.1672

> <Gold.Rescore>
     Score         DG    S(hbond)    S(metal)    S(lipo)     H(rot)  DE(clash)    DE(int)     intcor
     18.81     -20.40       1.77        0.00     126.37       2.26       0.09       1.51       ----

> <Gold.Chemscore.Fitness>
18.8060

> <Gold.Chemscore.DG>
-20.4030

> <Gold.Chemscore.ZeroCoef>
-5.4800

> <Gold.Chemscore.Hbond>
1.7703

> <Gold.Chemscore.Metal>
0.0000

> <Gold.Chemscore.Lipo>
126.3680

> <Gold.Chemscore.Internal_Hbond>
0.0000

> <Gold.Chemscore.DEClash>
0.0866

> <Gold.Chemscore.DEInternal>
1.5104

> <Gold.Chemscore.Rot>
2.2558

> <Gold.Chemscore.Internal.Correction>
   9.000000E+99

> <Gold.Chemscore.Hbonds>
donor molecule, donor type, donor heavy atom, donor atom, acceptor molecule, acceptor atom, score
      P1  H  6931  6943       L1    19  0.46
      P1  H  6934  6947       L1    19  0.50

> <Gold.Chemscore.Hbond.Weighted>
-5.9127

> <Gold.Chemscore.Metal.Weighted>
-0.0000

> <Gold.Chemscore.Lipo.Weighted>
-14.7851

> <Gold.Chemscore.Internal_Hbond.Weighted>
0.0000

> <Gold.Chemscore.DEClash.Weighted>
0.0866

> <Gold.Chemscore.DEInternal.Weighted>
1.5104

> <Gold.Chemscore.Rot.Weighted>
5.7748

> <Gold.Chemscore.Internal.Correction.Weighted>
   9.000000E+99

> <Gold.Protein.RotatedTorsions>
[ 6907 6896 6895 6894 ] final  176.92 input  -60.11 | X-H torsion
[ 7974 7965 7964 7962 ] final -135.98 input  175.53 | X-H torsion
[ 8008 7997 7996 7995 ] final  163.10 input   59.86 | X-H torsion
[ 10167 10162 10161 10158 ] final  -24.27 input  -65.29 | X-H torsion
[ 10718 10713 10712 10709 ] final   13.69 input   66.30 | X-H torsion
[ 10763 10752 10751 10750 ] final   75.32 input  -60.55 | X-H torsion
[ 11005 11000 10999 10996 ] final   28.28 input  -57.11 | X-H torsion

> <Gold.Protein.ActiveResidues>
 VAL166  LYS551  ARG553  GLY616  TRP617  ASP618  TYR619  PRO620  LYS621  CYS622 
 ASP623  PHE694  ASN695  SER759  ASP760  ASP761  ALA762  ILE779  LEU786  VAL792 
 PHE793  MET794  SER795  GLU796  ALA797  LYS798  CYS799  TRP800  GLU811  SER814 

> <Gold.Protein.RotatedAtoms>
  151.7124  133.3312  159.3293 H   0  0  0  0  0  0  0  0  0  0  0  0  # atno 6907 bound_to 6896
  150.7688  134.6520  159.6303 H   0  0  0  0  0  0  0  0  0  0  0  0  # atno 6908 bound_to 6896
  152.3703  134.6746  160.0230 H   0  0  0  0  0  0  0  0  0  0  0  0  # atno 6909 bound_to 6896
  144.8967  140.6716  143.5111 H   0  0  0  0  0  0  0  0  0  0  0  0  # atno 7974 bound_to 7965
  156.1982  140.1732  156.7954 H   0  0  0  0  0  0  0  0  0  0  0  0  # atno 8008 bound_to 7997
  154.5557  140.0709  156.8771 H   0  0  0  0  0  0  0  0  0  0  0  0  # atno 8009 bound_to 7997
  155.2943  140.3357  155.4253 H   0  0  0  0  0  0  0  0  0  0  0  0  # atno 8010 bound_to 7997
  140.7288  143.4368  151.0717 H   0  0  0  0  0  0  0  0  0  0  0  0  # atno 10167 bound_to 10162
  157.0283  130.6182  149.5731 H   0  0  0  0  0  0  0  0  0  0  0  0  # atno 10718 bound_to 10713
  153.0647  135.4993  154.8173 H   0  0  0  0  0  0  0  0  0  0  0  0  # atno 10763 bound_to 10752
  154.6935  135.2989  154.9447 H   0  0  0  0  0  0  0  0  0  0  0  0  # atno 10764 bound_to 10752
  154.0194  135.6744  153.4824 H   0  0  0  0  0  0  0  0  0  0  0  0  # atno 10765 bound_to 10752
  140.3172  134.2583  155.7723 H   0  0  0  0  0  0  0  0  0  0  0  0  # atno 11005 bound_to 11000
  145.3688  139.1663  143.4343 LP  0  0  0  0  0  0  0  0  0  0  0  0  # atno 17320 bound_to 7965
  146.3085  140.3758  142.8679 LP  0  0  0  0  0  0  0  0  0  0  0  0  # atno 17321 bound_to 7965
  139.8031  143.8056  152.3165 LP  0  0  0  0  0  0  0  0  0  0  0  0  # atno 17342 bound_to 10162
  139.8079  144.7348  150.9736 LP  0  0  0  0  0  0  0  0  0  0  0  0  # atno 17343 bound_to 10162
  156.0078  130.5167  150.7889 LP  0  0  0  0  0  0  0  0  0  0  0  0  # atno 17370 bound_to 10713
  157.5197  131.0931  151.0094 LP  0  0  0  0  0  0  0  0  0  0  0  0  # atno 17371 bound_to 10713
  141.2095  133.7748  156.9994 LP  0  0  0  0  0  0  0  0  0  0  0  0  # atno 17394 bound_to 11000
  140.0973  134.9557  157.1869 LP  0  0  0  0  0  0  0  0  0  0  0  0  # atno 17395 bound_to 11000

$$$$
