#       Name:                AV-unprocessed.smi:3232
#       Creating user name   scv26
#       Creation time:       Fri Mar 27 18:20:42 2020


#       File generated by GOLD software.
#

@<TRIPOS>MOLECULE
AV-unprocessed.smi:3232
    44    45     1
SMALL
NO_CHARGES


@<TRIPOS>ATOM
      1 ****        -4.8065   0.5592  -1.3500 C.3            1 S1                 0.0000
      2 ****        -3.3218   0.2099  -1.1852 C.3            1 S1                 0.0000
      3 ****        -2.6278   1.1572  -0.2783 N.4            1 S1                 1.0000
      4 ****        -3.0385   1.0978   1.1445 C.3            1 S1                 0.0000
      5 ****        -1.8170   1.5228   1.9715 C.3            1 S1                 0.0000
      6 ****        -0.7809   1.9657   0.9400 C.3            1 S1                 0.0000
      7 ****        -1.1444   1.1612  -0.3143 C.3            1 S1                 0.0000
      8 ****        -0.5331  -0.2646  -0.3361 C.3            1 S1                 0.0000
      9 ****         0.9266  -0.2440  -0.3399 N.am           1 S1                 0.0000
     10 ****         1.7126  -0.5655   0.7012 C.2            1 S1                 0.0000
     11 ****         1.2651  -0.8817   1.8043 O.2            1 S1                 0.0000
     12 ****         3.2301  -0.5040   0.4546 C.3            1 S1                 0.0000
     13 ****         4.0578  -0.6187   1.7510 C.3            1 S1                 0.0000
     14 ****         3.6319  -1.4985  -0.5334 N.pl3          1 S1                 0.0000
     15 ****         3.9366  -1.3519  -1.8246 C.2            1 S1                 0.0000
     16 ****         4.2228  -2.4885  -2.4431 N.2            1 S1                 0.0000
     17 ****         4.0605  -3.3606  -1.4043 C.2            1 S1                 0.0000
     18 ****         3.6977  -2.8213  -0.2406 N.2            1 S1                 0.0000
     19 ****        -5.2858  -0.1185  -2.0568 H              1 S1                 0.0000
     20 ****        -4.9338   1.5745  -1.7268 H              1 S1                 0.0000
     21 ****        -5.3453   0.4807  -0.4053 H              1 S1                 0.0000
     22 ****        -3.2183  -0.8127  -0.8200 H              1 S1                 0.0000
     23 ****        -2.8453   0.2489  -2.1656 H              1 S1                 0.0000
     24 ****        -3.8885   1.7603   1.3109 H              1 S1                 0.0000
     25 ****        -3.3425   0.0876   1.4233 H              1 S1                 0.0000
     26 ****        -2.0504   2.3136   2.6852 H              1 S1                 0.0000
     27 ****        -1.4369   0.6700   2.5356 H              1 S1                 0.0000
     28 ****        -0.9115   3.0293   0.7351 H              1 S1                 0.0000
     29 ****         0.2441   1.8323   1.2837 H              1 S1                 0.0000
     30 ****        -0.8142   1.6940  -1.2072 H              1 S1                 0.0000
     31 ****        -0.9162  -0.8629   0.4923 H              1 S1                 0.0000
     32 ****        -0.8285  -0.7877  -1.2454 H              1 S1                 0.0000
     33 ****         1.3758   0.0082  -1.2085 H              1 S1                 0.0000
     34 ****         3.4387   0.4771   0.0249 H              1 S1                 0.0000
     35 ****         3.7896   0.1639   2.4616 H              1 S1                 0.0000
     36 ****         5.1229  -0.5160   1.5416 H              1 S1                 0.0000
     37 ****         3.9110  -1.5795   2.2463 H              1 S1                 0.0000
     38 ****         3.9446  -0.3943  -2.3241 H              1 S1                 0.0000
     39 ****         4.2080  -4.4253  -1.5104 H              1 S1                 0.0000
     40 ****        -2.8878   2.0823  -0.5896 H              1 S1                 0.0000
     41 ****         0.2767  -0.9070   1.9544 LP             1 S1                 0.0000
     42 ****         1.8901  -1.1131   2.5499 LP             1 S1                 0.0000
     43 ****         4.4821  -2.6583  -3.3938 LP             1 S1                 0.0000
     44 ****         3.5187  -3.2780   0.6309 LP             1 S1                 0.0000
@<TRIPOS>BOND
    1    1    2 1     
    2    1   19 1     
    3    1   20 1     
    4    1   21 1     
    5    2    3 1     
    6    2   22 1     
    7    2   23 1     
    8    3    7 1     
    9    3    4 1     
   10    3   40 1     
   11    4    5 1     
   12    4   24 1     
   13    4   25 1     
   14    5    6 1     
   15    5   26 1     
   16    5   27 1     
   17    6    7 1     
   18    6   28 1     
   19    6   29 1     
   20    7    8 1     
   21    7   30 1     
   22    8    9 1     
   23    8   31 1     
   24    8   32 1     
   25    9   10 am    
   26    9   33 1     
   27   10   11 2     
   28   10   12 1     
   29   12   13 1     
   30   12   14 1     
   31   12   34 1     
   32   13   35 1     
   33   13   36 1     
   34   13   37 1     
   35   14   18 1     
   36   14   15 1     
   37   15   16 2     
   38   15   38 1     
   39   16   17 1     
   40   17   18 2     
   41   17   39 1     
   42   11   41 1     
   43   11   42 1     
   44   16   43 1     
   45   18   44 1     
@<TRIPOS>SUBSTRUCTURE
      1 S1             1
@<TRIPOS>SET
LONE_PAIRS      STATIC     ATOMS    <user>   **** ""
4 41 42 43 44
DONOR_HYDROGENS      STATIC     ATOMS    <user>   **** ""
2 40 33
ATOM$BLUE        STATIC     ATOMS    COLORGROUP SYSTEM
4 41 42 43 44
ATOM$RED        STATIC     ATOMS    COLORGROUP SYSTEM
2 40 33
