AV-unprocessed.smi:3101|AV-procd|sdf|11811|dock4
  -GOLD-   2272017183D 1   1.00000     0.00000
 Structure written by MMmdl.
 28 29  0  0  0  0  0  0  0  0  1 V2000
  151.6945  143.8963  157.6399 C   0  0  0  0  0  0  0  0  0  0  0  0
  152.5155  143.0775  158.6488 C   0  0  1  0  0  0  0  0  0  0  0  0
  152.6796  143.7593  159.9920 C   0  0  0  0  0  0  0  0  0  0  0  0
  153.0766  142.5958  160.8938 C   0  0  0  0  0  0  0  0  0  0  0  0
  152.4408  141.4440  160.3478 O   0  0  0  0  0  0  0  0  0  0  0  0
  151.8769  141.7440  159.0702 C   0  0  2  0  0  0  0  0  0  0  0  0
  152.1076  140.5680  158.1085 C   0  0  0  0  0  0  0  0  0  0  0  0
  153.0966  139.8465  158.2409 O   0  0  0  0  0  0  0  0  0  0  0  0
  151.1826  140.4147  157.1423 N   0  0  0  0  0  0  0  0  0  0  0  0
  151.1306  139.4280  156.1234 C   0  0  0  0  0  0  0  0  0  0  0  0
  151.8151  138.2212  156.4014 C   0  0  0  0  0  0  0  0  0  0  0  0
  151.8569  137.1888  155.5301 N   0  0  0  0  0  0  0  0  0  0  0  0
  151.2054  137.3595  154.3600 C   0  0  0  0  0  0  0  0  0  0  0  0
  150.5179  138.5539  154.0660 C   0  0  0  0  0  0  0  0  0  0  0  0
  150.4801  139.5818  154.9416 N   0  0  0  0  0  0  0  0  0  0  0  0
  150.6921  144.1016  158.0165 H   0  0  0  0  0  0  0  0  0  0  0  0
  151.5911  143.3705  156.6908 H   0  0  0  0  0  0  0  0  0  0  0  0
  152.1749  144.8530  157.4346 H   0  0  0  0  0  0  0  0  0  0  0  0
  153.5083  142.8933  158.2334 H   0  0  0  0  0  0  0  0  0  0  0  0
  153.4207  144.5590  159.9801 H   0  0  0  0  0  0  0  0  0  0  0  0
  151.7293  144.1799  160.3247 H   0  0  0  0  0  0  0  0  0  0  0  0
  154.1556  142.4411  160.8621 H   0  0  0  0  0  0  0  0  0  0  0  0
  152.7878  142.7566  161.9327 H   0  0  0  0  0  0  0  0  0  0  0  0
  150.8030  141.8772  159.2092 H   0  0  0  0  0  0  0  0  0  0  0  0
  150.4213  141.0781  157.1482 H   0  0  0  0  0  0  0  0  0  0  0  0
  152.3382  138.0800  157.3361 H   0  0  0  0  0  0  0  0  0  0  0  0
  151.2321  136.5411  153.6558 H   0  0  0  0  0  0  0  0  0  0  0  0
  149.9981  138.6848  153.1286 H   0  0  0  0  0  0  0  0  0  0  0  0
  1  2  1  0  0  0  0
  1 16  1  0  0  0  0
  1 17  1  0  0  0  0
  1 18  1  0  0  0  0
  2  6  1  0  0  0  0
  2  3  1  0  0  0  0
  2 19  1  0  0  0  0
  3  4  1  0  0  0  0
  3 20  1  0  0  0  0
  3 21  1  0  0  0  0
  4  5  1  0  0  0  0
  4 22  1  0  0  0  0
  4 23  1  0  0  0  0
  5  6  1  0  0  0  0
  6  7  1  0  0  0  0
  6 24  1  0  0  0  0
  7  8  2  0  0  0  0
  7  9  1  0  0  0  0
  9 10  1  0  0  0  0
  9 25  1  0  0  0  0
 10 15  1  0  0  0  0
 10 11  2  0  0  0  0
 11 12  1  0  0  0  0
 11 26  1  0  0  0  0
 12 13  2  0  0  0  0
 13 14  1  0  0  0  0
 13 27  1  0  0  0  0
 14 15  2  0  0  0  0
 14 28  1  0  0  0  0
M  END
> <s_m_source_file>
AV-unprocessed.smi

> <i_m_source_file_index>
3101

> <i_lp_mmshare_version>
43012

> <i_f3d_flags>
0

> <s_epik_input>
W0NIM11bQ0BASF0xW0NIMl1bQ0gyXU9bQ0BIXTFDKD1PKVtOSF1jMltjSF1uW2NIXVtjSF1uMg==

> <s_epik_cmdline>
J2VwaWtfcHl0aG9uJywgJy1waCcsICc3LjAnLCAnLXRuJywgJzgnLCAnLW1hJywgJzIwMCcsICctbWV0YWxfYmluZGluZycsICctaW1hZScsICc8aW5maWxlLm1hZT4nLCAnLW9tYWUnLCAnPG91dGZpbGUubWFlPic=

> <r_lp_tautomer_probability>
1

> <r_epik_Ionization_Penalty>
2.83174e-06

> <r_epik_Ionization_Penalty_Charging>
0

> <r_epik_Ionization_Penalty_Neutral>
2.83174e-06

> <r_epik_State_Penalty>
-0

> <r_epik_Charging_Adjusted_Penalty>
0

> <i_epik_Tot_Q>
0

> <i_epik_Tot_abs_Q>
0

> <r_epik_Metal_State_Penalty>
-0

> <b_epik_Metal_Only>
0

> <s_lp_Force_Field>
OPLS_2005

> <r_lp_Energy>
26.5221

> <b_lp_Chiralities_Consistent>
1

> <s_lp_Variant>
AV-unprocessed.smi:3101-4

> <Gold.Version>
5.8.1

> <Gold.Id.Protein>
6NUR|6NUR_protein|mol2

> <Gold.PLP.Fitness>
39.8688

> <Gold.PLP.PLP>
-29.5331

> <Gold.PLP.part.hbond>
-2.7751

> <Gold.PLP.part.metal>
0.0000

> <Gold.PLP.part.buried>
-2.8580

> <Gold.PLP.part.nonpolar>
-25.1583

> <Gold.PLP.part.repulsive>
0.1998

> <Gold.PLP.ligand.clash>
0.0000

> <Gold.PLP.ligand.torsion>
0.8737

> <Gold.PLP.Chemscore.Hbond>
2.0270

> <Gold.PLP.Chemscore.CHOScore>
2.0000

> <Gold.PLP.Chemscore.Metal>
0.0000

> <Gold.Chemscore.Hbonds>
donor molecule, donor type, donor heavy atom, donor atom, acceptor molecule, acceptor atom, score
      P1  H  7989  7998       L1    15  0.23
      P1  H  7997  8008       L1     8  1.00
      P1  H 10752 10765       L1    12  0.58
      L1  C    13    27       P1  7949  1.00
      L1  C    14    28       P1  7948  0.05
      L1  C    14    28       P1  7957  1.00

> <Gold.PLP.Chemscore.Internal.Correction>
0.0022

> <Gold.Rescore>
     Score         DG    S(hbond)    S(metal)    S(lipo)     H(rot)  DE(clash)    DE(int)     intcor
     14.94     -17.24       1.55        0.00      78.16       1.00       0.04       2.26       ----

> <Gold.Chemscore.Fitness>
14.9408

> <Gold.Chemscore.DG>
-17.2367

> <Gold.Chemscore.ZeroCoef>
-5.4800

> <Gold.Chemscore.Hbond>
1.5484

> <Gold.Chemscore.Metal>
0.0000

> <Gold.Chemscore.Lipo>
78.1627

> <Gold.Chemscore.Internal_Hbond>
0.0000

> <Gold.Chemscore.DEClash>
0.0402

> <Gold.Chemscore.DEInternal>
2.2557

> <Gold.Chemscore.Rot>
1.0000

> <Gold.Chemscore.Internal.Correction>
   9.000000E+99

> <Gold.Chemscore.Hbonds>
donor molecule, donor type, donor heavy atom, donor atom, acceptor molecule, acceptor atom, score
      P1  H  7989  7998       L1    15  0.01
      P1  H  7997  8008       L1     8  0.93
      P1  H 10752 10765       L1    12  0.08

> <Gold.Chemscore.Hbond.Weighted>
-5.1717

> <Gold.Chemscore.Metal.Weighted>
-0.0000

> <Gold.Chemscore.Lipo.Weighted>
-9.1450

> <Gold.Chemscore.Internal_Hbond.Weighted>
0.0000

> <Gold.Chemscore.DEClash.Weighted>
0.0402

> <Gold.Chemscore.DEInternal.Weighted>
2.2557

> <Gold.Chemscore.Rot.Weighted>
2.5600

> <Gold.Chemscore.Internal.Correction.Weighted>
   9.000000E+99

> <Gold.Protein.RotatedTorsions>
[ 6907 6896 6895 6894 ] final  -56.33 input  -60.11 | X-H torsion
[ 7974 7965 7964 7962 ] final   23.04 input  175.53 | X-H torsion
[ 8008 7997 7996 7995 ] final  -78.98 input   59.86 | X-H torsion
[ 10167 10162 10161 10158 ] final  -90.80 input  -65.29 | X-H torsion
[ 10718 10713 10712 10709 ] final  138.56 input   66.30 | X-H torsion
[ 10763 10752 10751 10750 ] final -161.40 input  -60.55 | X-H torsion
[ 11005 11000 10999 10996 ] final   56.87 input  -57.11 | X-H torsion

> <Gold.Protein.ActiveResidues>
 VAL166  LYS551  ARG553  GLY616  TRP617  ASP618  TYR619  PRO620  LYS621  CYS622 
 ASP623  PHE694  ASN695  SER759  ASP760  ASP761  ALA762  ILE779  LEU786  VAL792 
 PHE793  MET794  SER795  GLU796  ALA797  LYS798  CYS799  TRP800  GLU811  SER814 

> <Gold.Protein.RotatedAtoms>
  150.8176  134.7367  159.6743 H   0  0  0  0  0  0  0  0  0  0  0  0  # atno 6907 bound_to 6896
  152.4294  134.5803  159.9956 H   0  0  0  0  0  0  0  0  0  0  0  0  # atno 6908 bound_to 6896
  151.5995  133.3320  159.3080 H   0  0  0  0  0  0  0  0  0  0  0  0  # atno 6909 bound_to 6896
  146.2002  139.7800  142.8767 H   0  0  0  0  0  0  0  0  0  0  0  0  # atno 7974 bound_to 7965
  154.5741  140.0685  156.9008 H   0  0  0  0  0  0  0  0  0  0  0  0  # atno 8008 bound_to 7997
  155.2580  140.3356  155.4257 H   0  0  0  0  0  0  0  0  0  0  0  0  # atno 8009 bound_to 7997
  156.2141  140.1771  156.7614 H   0  0  0  0  0  0  0  0  0  0  0  0  # atno 8010 bound_to 7997
  140.3512  143.2890  151.9723 H   0  0  0  0  0  0  0  0  0  0  0  0  # atno 10167 bound_to 10162
  157.4240  131.1041  151.0322 H   0  0  0  0  0  0  0  0  0  0  0  0  # atno 10718 bound_to 10713
  154.7307  135.3046  154.8896 H   0  0  0  0  0  0  0  0  0  0  0  0  # atno 10763 bound_to 10752
  153.9740  135.6738  153.4752 H   0  0  0  0  0  0  0  0  0  0  0  0  # atno 10764 bound_to 10752
  153.0915  135.4957  154.8620 H   0  0  0  0  0  0  0  0  0  0  0  0  # atno 10765 bound_to 10752
  140.0496  134.5756  155.9280 H   0  0  0  0  0  0  0  0  0  0  0  0  # atno 11005 bound_to 11000
  145.3509  141.0307  143.3339 LP  0  0  0  0  0  0  0  0  0  0  0  0  # atno 17320 bound_to 7965
  144.8667  139.5098  143.6787 LP  0  0  0  0  0  0  0  0  0  0  0  0  # atno 17321 bound_to 7965
  139.4826  144.6074  151.7496 LP  0  0  0  0  0  0  0  0  0  0  0  0  # atno 17342 bound_to 10162
  140.5217  144.0869  150.6024 LP  0  0  0  0  0  0  0  0  0  0  0  0  # atno 17343 bound_to 10162
  157.1242  130.6075  149.5513 LP  0  0  0  0  0  0  0  0  0  0  0  0  # atno 17370 bound_to 10713
  155.9890  130.4936  150.7195 LP  0  0  0  0  0  0  0  0  0  0  0  0  # atno 17371 bound_to 10713
  141.1924  133.6575  156.5499 LP  0  0  0  0  0  0  0  0  0  0  0  0  # atno 17394 bound_to 11000
  140.3938  134.7416  157.4738 LP  0  0  0  0  0  0  0  0  0  0  0  0  # atno 17395 bound_to 11000

$$$$
