AV-unprocessed.smi:1036|AV-procd|sdf|4518|dock3
  -GOLD-   22720 2533D 1   1.00000     0.00000
 Structure written by MMmdl.
 41 43  0  0  0  0  0  0  0  0  1 V2000
  153.3669  136.2178  159.8760 O   0  0  0  0  0  0  0  0  0  0  0  0
  153.2805  137.3909  159.0972 C   0  0  0  0  0  0  0  0  0  0  0  0
  152.3360  138.3962  159.7713 C   0  0  0  0  0  0  0  0  0  0  0  0
  151.9885  139.4995  158.8941 N   0  0  0  0  0  0  0  0  0  0  0  0
  151.9937  140.8761  159.0868 C   0  0  0  0  0  0  0  0  0  0  0  0
  152.3600  141.4615  160.2255 N   0  0  0  0  0  0  0  0  0  0  0  0
  152.2011  142.8026  159.9312 C   0  0  0  0  0  0  0  0  0  0  0  0
  152.4275  143.9497  160.7252 C   0  0  0  0  0  0  0  0  0  0  0  0
  152.1921  145.2379  160.2015 C   0  0  0  0  0  0  0  0  0  0  0  0
  151.7272  145.3979  158.8800 C   0  0  0  0  0  0  0  0  0  0  0  0
  151.4955  144.2688  158.0713 C   0  0  0  0  0  0  0  0  0  0  0  0
  151.7323  142.9853  158.5980 C   0  0  0  0  0  0  0  0  0  0  0  0
  151.6141  141.6992  158.0796 N   0  0  0  0  0  0  0  0  0  0  0  0
  151.1804  141.3531  156.7321 C   0  0  0  0  0  0  0  0  0  0  0  0
  149.8425  140.5880  156.7318 C   0  0  2  0  0  0  0  0  0  0  0  0
  150.1226  139.2156  156.9203 O   0  0  0  0  0  0  0  0  0  0  0  0
  149.0242  140.8457  155.4713 C   0  0  0  0  0  0  0  0  0  0  0  0
  148.0747  141.8916  155.4386 C   0  0  0  0  0  0  0  0  0  0  0  0
  147.3141  142.1270  154.2776 C   0  0  0  0  0  0  0  0  0  0  0  0
  146.4068  143.1312  154.2556 F   0  0  0  0  0  0  0  0  0  0  0  0
  147.4922  141.3147  153.1422 C   0  0  0  0  0  0  0  0  0  0  0  0
  148.4276  140.2634  153.1708 C   0  0  0  0  0  0  0  0  0  0  0  0
  149.1920  140.0279  154.3300 C   0  0  0  0  0  0  0  0  0  0  0  0
  150.0824  139.0071  154.3414 F   0  0  0  0  0  0  0  0  0  0  0  0
  154.1599  136.2576  160.3884 H   0  0  0  0  0  0  0  0  0  0  0  0
  154.2830  137.8153  159.0387 H   0  0  0  0  0  0  0  0  0  0  0  0
  152.9730  137.1550  158.0776 H   0  0  0  0  0  0  0  0  0  0  0  0
  151.4323  137.9088  160.1384 H   0  0  0  0  0  0  0  0  0  0  0  0
  152.8333  138.8236  160.6426 H   0  0  0  0  0  0  0  0  0  0  0  0
  151.6795  139.2055  157.9789 H   0  0  0  0  0  0  0  0  0  0  0  0
  152.7832  143.8384  161.7388 H   0  0  0  0  0  0  0  0  0  0  0  0
  152.3690  146.1078  160.8169 H   0  0  0  0  0  0  0  0  0  0  0  0
  151.5490  146.3884  158.4873 H   0  0  0  0  0  0  0  0  0  0  0  0
  151.1410  144.3879  157.0581 H   0  0  0  0  0  0  0  0  0  0  0  0
  151.1157  142.2513  156.1172 H   0  0  0  0  0  0  0  0  0  0  0  0
  151.9611  140.7370  156.2836 H   0  0  0  0  0  0  0  0  0  0  0  0
  149.2583  140.8940  157.6001 H   0  0  0  0  0  0  0  0  0  0  0  0
  151.0568  139.0886  156.8535 H   0  0  0  0  0  0  0  0  0  0  0  0
  147.9237  142.5171  156.3060 H   0  0  0  0  0  0  0  0  0  0  0  0
  146.9063  141.4929  152.2526 H   0  0  0  0  0  0  0  0  0  0  0  0
  148.5584  139.6352  152.3021 H   0  0  0  0  0  0  0  0  0  0  0  0
  1  2  1  0  0  0  0
  1 25  1  0  0  0  0
  2  3  1  0  0  0  0
  2 26  1  0  0  0  0
  2 27  1  0  0  0  0
  3  4  1  0  0  0  0
  3 28  1  0  0  0  0
  3 29  1  0  0  0  0
  4  5  1  0  0  0  0
  4 30  1  0  0  0  0
  5 13  1  0  0  0  0
  5  6  2  0  0  0  0
  6  7  1  0  0  0  0
  7 12  2  0  0  0  0
  7  8  1  0  0  0  0
  8  9  2  0  0  0  0
  8 31  1  0  0  0  0
  9 10  1  0  0  0  0
  9 32  1  0  0  0  0
 10 11  2  0  0  0  0
 10 33  1  0  0  0  0
 11 12  1  0  0  0  0
 11 34  1  0  0  0  0
 12 13  1  0  0  0  0
 13 14  1  0  0  0  0
 14 15  1  0  0  0  0
 14 35  1  0  0  0  0
 14 36  1  0  0  0  0
 15 16  1  0  0  0  0
 15 17  1  0  0  0  0
 15 37  1  0  0  0  0
 16 38  1  0  0  0  0
 17 23  1  0  0  0  0
 17 18  2  0  0  0  0
 18 19  1  0  0  0  0
 18 39  1  0  0  0  0
 19 20  1  0  0  0  0
 19 21  2  0  0  0  0
 21 22  1  0  0  0  0
 21 40  1  0  0  0  0
 22 23  2  0  0  0  0
 22 41  1  0  0  0  0
 23 24  1  0  0  0  0
M  END
> <s_m_source_file>
AV-unprocessed.smi

> <i_m_source_file_index>
1036

> <i_lp_mmshare_version>
43012

> <i_f3d_flags>
0

> <s_epik_input>
W09IXVtDSDJdW0NIMl1bTkhdYyhuMSluKGMoYzEyKVtjSF1bY0hdW2NIXVtjSF0yKVtDSDJdW0NASF0oW09IXSljM1tjSF1jKEYpW2NIXVtjSF1jM0Y=

> <s_epik_cmdline>
J2VwaWtfcHl0aG9uJywgJy1waCcsICc3LjAnLCAnLXRuJywgJzgnLCAnLW1hJywgJzIwMCcsICctbWV0YWxfYmluZGluZycsICctaW1hZScsICc8aW5maWxlLm1hZT4nLCAnLW9tYWUnLCAnPG91dGZpbGUubWFlPic=

> <r_epik_Ionization_Penalty>
1.30972

> <r_epik_Ionization_Penalty_Charging>
0

> <r_epik_Ionization_Penalty_Neutral>
1.30972

> <r_epik_State_Penalty>
1.38438

> <r_epik_Charging_Adjusted_Penalty>
1.38438

> <i_epik_Tot_Q>
0

> <i_epik_Tot_abs_Q>
0

> <r_epik_Metal_State_Penalty>
0.00551145

> <b_epik_Metal_Only>
0

> <s_lp_Force_Field>
OPLS_2005

> <r_lp_Energy>
9.11105

> <b_lp_Chiralities_Consistent>
1

> <s_lp_Variant>
AV-unprocessed.smi:1036-3

> <Gold.Version>
5.8.1

> <Gold.Id.Protein>
6NUR|6NUR_protein|mol2

> <Gold.PLP.Fitness>
48.7938

> <Gold.PLP.PLP>
-48.1364

> <Gold.PLP.part.hbond>
-1.0000

> <Gold.PLP.part.metal>
0.0000

> <Gold.PLP.part.buried>
-0.8592

> <Gold.PLP.part.nonpolar>
-45.3978

> <Gold.PLP.part.repulsive>
0.1083

> <Gold.PLP.ligand.clash>
0.0000

> <Gold.PLP.ligand.torsion>
1.1955

> <Gold.PLP.Chemscore.Hbond>
1.0000

> <Gold.PLP.Chemscore.CHOScore>
0.0000

> <Gold.PLP.Chemscore.Metal>
0.0000

> <Gold.Chemscore.Hbonds>
donor molecule, donor type, donor heavy atom, donor atom, acceptor molecule, acceptor atom, score
      P1  H  6896  6909       L1     1  1.00

> <Gold.PLP.Chemscore.Internal.Correction>
0.0484

> <Gold.Rescore>
     Score         DG    S(hbond)    S(metal)    S(lipo)     H(rot)  DE(clash)    DE(int)     intcor
      9.71     -15.88       0.98        0.00     131.27       3.22       2.01       4.15       ----

> <Gold.Chemscore.Fitness>
9.7147

> <Gold.Chemscore.DG>
-15.8789

> <Gold.Chemscore.ZeroCoef>
-5.4800

> <Gold.Chemscore.Hbond>
0.9827

> <Gold.Chemscore.Metal>
0.0000

> <Gold.Chemscore.Lipo>
131.2679

> <Gold.Chemscore.Internal_Hbond>
0.0000

> <Gold.Chemscore.DEClash>
2.0108

> <Gold.Chemscore.DEInternal>
4.1534

> <Gold.Chemscore.Rot>
3.2194

> <Gold.Chemscore.Internal.Correction>
   9.000000E+99

> <Gold.Chemscore.Hbonds>
donor molecule, donor type, donor heavy atom, donor atom, acceptor molecule, acceptor atom, score
      P1  H  6896  6909       L1     1  0.98

> <Gold.Chemscore.Hbond.Weighted>
-3.2822

> <Gold.Chemscore.Metal.Weighted>
-0.0000

> <Gold.Chemscore.Lipo.Weighted>
-15.3583

> <Gold.Chemscore.Internal_Hbond.Weighted>
0.0000

> <Gold.Chemscore.DEClash.Weighted>
2.0108

> <Gold.Chemscore.DEInternal.Weighted>
4.1534

> <Gold.Chemscore.Rot.Weighted>
8.2416

> <Gold.Chemscore.Internal.Correction.Weighted>
   9.000000E+99

> <Gold.Protein.RotatedTorsions>
[ 6907 6896 6895 6894 ] final  165.18 input  -60.11 | X-H torsion
[ 7974 7965 7964 7962 ] final  176.73 input  175.53 | X-H torsion
[ 8008 7997 7996 7995 ] final   30.43 input   59.86 | X-H torsion
[ 10167 10162 10161 10158 ] final  150.17 input  -65.29 | X-H torsion
[ 10718 10713 10712 10709 ] final  -63.94 input   66.30 | X-H torsion
[ 10763 10752 10751 10750 ] final -178.13 input  -60.55 | X-H torsion
[ 11005 11000 10999 10996 ] final  -53.42 input  -57.11 | X-H torsion

> <Gold.Protein.ActiveResidues>
 VAL166  LYS551  ARG553  GLY616  TRP617  ASP618  TYR619  PRO620  LYS621  CYS622 
 ASP623  PHE694  ASN695  SER759  ASP760  ASP761  ALA762  ILE779  LEU786  VAL792 
 PHE793  MET794  SER795  GLU796  ALA797  LYS798  CYS799  TRP800  GLU811  SER814 

> <Gold.Protein.RotatedAtoms>
  151.8985  133.3532  159.3822 H   0  0  0  0  0  0  0  0  0  0  0  0  # atno 6907 bound_to 6896
  150.7086  134.4852  159.5499 H   0  0  0  0  0  0  0  0  0  0  0  0  # atno 6908 bound_to 6896
  152.2436  134.8204  160.0507 H   0  0  0  0  0  0  0  0  0  0  0  0  # atno 6909 bound_to 6896
  144.7179  140.0141  143.6440 H   0  0  0  0  0  0  0  0  0  0  0  0  # atno 7974 bound_to 7965
  155.0903  140.3219  155.4575 H   0  0  0  0  0  0  0  0  0  0  0  0  # atno 8008 bound_to 7997
  156.2744  140.2079  156.5977 H   0  0  0  0  0  0  0  0  0  0  0  0  # atno 8009 bound_to 7997
  154.6908  140.0516  157.0349 H   0  0  0  0  0  0  0  0  0  0  0  0  # atno 8010 bound_to 7997
  139.4853  144.5543  151.7345 H   0  0  0  0  0  0  0  0  0  0  0  0  # atno 10167 bound_to 10162
  156.0760  130.4227  150.1349 H   0  0  0  0  0  0  0  0  0  0  0  0  # atno 10718 bound_to 10713
  154.5515  135.2813  155.1004 H   0  0  0  0  0  0  0  0  0  0  0  0  # atno 10763 bound_to 10752
  154.2448  135.6350  153.5223 H   0  0  0  0  0  0  0  0  0  0  0  0  # atno 10764 bound_to 10752
  153.0004  135.5568  154.6082 H   0  0  0  0  0  0  0  0  0  0  0  0  # atno 10765 bound_to 10752
  141.0975  133.6622  156.4170 H   0  0  0  0  0  0  0  0  0  0  0  0  # atno 11005 bound_to 11000
  146.0235  139.3271  143.0799 LP  0  0  0  0  0  0  0  0  0  0  0  0  # atno 17320 bound_to 7965
  145.8540  140.9513  143.0735 LP  0  0  0  0  0  0  0  0  0  0  0  0  # atno 17321 bound_to 7965
  140.5102  144.1036  150.5993 LP  0  0  0  0  0  0  0  0  0  0  0  0  # atno 17342 bound_to 10162
  140.3959  143.2728  152.0005 LP  0  0  0  0  0  0  0  0  0  0  0  0  # atno 17343 bound_to 10162
  156.9390  130.9738  151.3519 LP  0  0  0  0  0  0  0  0  0  0  0  0  # atno 17370 bound_to 10713
  157.5855  130.8406  149.8583 LP  0  0  0  0  0  0  0  0  0  0  0  0  # atno 17371 bound_to 10713
  140.5104  134.6401  157.5282 LP  0  0  0  0  0  0  0  0  0  0  0  0  # atno 17394 bound_to 11000
  139.9816  134.7128  155.9849 LP  0  0  0  0  0  0  0  0  0  0  0  0  # atno 17395 bound_to 11000

$$$$
