#       Name:                AV-unprocessed.smi:1714
#       Creating user name   scv26
#       Creation time:       Fri Mar 27 08:11:15 2020


#       File generated by GOLD software.
#

@<TRIPOS>MOLECULE
AV-unprocessed.smi:1714
    51    52     1
SMALL
NO_CHARGES


@<TRIPOS>ATOM
      1 ****        -2.8960   4.4212  -1.0138 C.3            1 S1                 0.0000
      2 ****        -2.8474   4.2892   0.4999 C.ar           1 S1                 0.0000
      3 ****        -3.3500   5.3371   1.3004 C.ar           1 S1                 0.0000
      4 ****        -3.3056   5.2133   2.6994 C.ar           1 S1                 0.0000
      5 ****        -2.7574   4.0388   3.2426 C.ar           1 S1                 0.0000
      6 ****        -2.2763   3.0322   2.4852 N.ar           1 S1                 0.0000
      7 ****        -2.3126   3.1352   1.1329 C.ar           1 S1                 0.0000
      8 ****        -1.8248   2.1118   0.2719 N.am           1 S1                 0.0000
      9 ****        -1.3138   0.9131   0.6034 C.2            1 S1                 0.0000
     10 ****        -1.1729   0.4889   1.7507 O.2            1 S1                 0.0000
     11 ****        -0.9648   0.2168  -0.4888 N.am           1 S1                 0.0000
     12 ****        -0.4015  -1.1339  -0.4931 C.3            1 S1                 0.0000
     13 ****         1.1525  -1.1822  -0.6251 C.3            1 S1                 0.0000
     14 ****         1.5349  -0.4449  -1.9359 C.3            1 S1                 0.0000
     15 ****         1.8321  -0.4372   0.5503 C.3            1 S1                 0.0000
     16 ****         1.5824  -2.6295  -0.6704 N.4            1 S1                 1.0000
     17 ****         2.9257  -2.9032  -1.2587 C.3            1 S1                 0.0000
     18 ****         3.1748  -4.4175  -1.3799 C.3            1 S1                 0.0000
     19 ****         3.0315  -5.0417  -0.1128 O.3            1 S1                 0.0000
     20 ****         1.7204  -4.8735   0.4053 C.3            1 S1                 0.0000
     21 ****         1.4484  -3.3759   0.6144 C.3            1 S1                 0.0000
     22 ****        -3.2964   5.3894  -1.3156 H              1 S1                 0.0000
     23 ****        -3.5320   3.6465  -1.4427 H              1 S1                 0.0000
     24 ****        -1.8967   4.3262  -1.4394 H              1 S1                 0.0000
     25 ****        -3.7661   6.2268   0.8509 H              1 S1                 0.0000
     26 ****        -3.6818   5.9977   3.3391 H              1 S1                 0.0000
     27 ****        -2.7040   3.9027   4.3126 H              1 S1                 0.0000
     28 ****        -1.8822   2.3168  -0.7145 H              1 S1                 0.0000
     29 ****        -1.1139   0.6474  -1.3898 H              1 S1                 0.0000
     30 ****        -0.7497  -1.6538   0.3981 H              1 S1                 0.0000
     31 ****        -0.8521  -1.6654  -1.3322 H              1 S1                 0.0000
     32 ****         1.1398   0.5706  -1.9659 H              1 S1                 0.0000
     33 ****         1.1524  -0.9662  -2.8142 H              1 S1                 0.0000
     34 ****         2.6138  -0.3367  -2.0480 H              1 S1                 0.0000
     35 ****         1.6330   0.6340   0.5121 H              1 S1                 0.0000
     36 ****         2.9155  -0.5548   0.5310 H              1 S1                 0.0000
     37 ****         1.4755  -0.7875   1.5192 H              1 S1                 0.0000
     38 ****         3.0178  -2.4900  -2.2615 H              1 S1                 0.0000
     39 ****         3.7022  -2.4457  -0.6446 H              1 S1                 0.0000
     40 ****         2.4868  -4.8679  -2.0975 H              1 S1                 0.0000
     41 ****         4.1832  -4.6021  -1.7502 H              1 S1                 0.0000
     42 ****         0.9837  -5.3170  -0.2666 H              1 S1                 0.0000
     43 ****         1.6473  -5.4050   1.3544 H              1 S1                 0.0000
     44 ****         2.1569  -2.9909   1.3485 H              1 S1                 0.0000
     45 ****         0.4558  -3.2670   1.0453 H              1 S1                 0.0000
     46 ****         0.9312  -3.0669  -1.3066 H              1 S1                 0.0000
     47 ****        -1.8952   2.2150   2.9175 LP             1 S1                 0.0000
     48 ****        -1.4492   1.0521   2.5295 LP             1 S1                 0.0000
     49 ****        -0.7821  -0.4188   1.9037 LP             1 S1                 0.0000
     50 ****         3.6871  -4.6370   0.5247 LP             1 S1                 0.0000
     51 ****         3.2199  -6.0191  -0.2090 LP             1 S1                 0.0000
@<TRIPOS>BOND
    1    1    2 1     
    2    1   22 1     
    3    1   23 1     
    4    1   24 1     
    5    2    7 ar    
    6    2    3 ar    
    7    3    4 ar    
    8    3   25 1     
    9    4    5 ar    
   10    4   26 1     
   11    5    6 ar    
   12    5   27 1     
   13    6    7 ar    
   14    7    8 1     
   15    8    9 am    
   16    8   28 1     
   17    9   10 2     
   18    9   11 am    
   19   11   12 1     
   20   11   29 1     
   21   12   13 1     
   22   12   30 1     
   23   12   31 1     
   24   13   14 1     
   25   13   15 1     
   26   13   16 1     
   27   14   32 1     
   28   14   33 1     
   29   14   34 1     
   30   15   35 1     
   31   15   36 1     
   32   15   37 1     
   33   16   21 1     
   34   16   17 1     
   35   16   46 1     
   36   17   18 1     
   37   17   38 1     
   38   17   39 1     
   39   18   19 1     
   40   18   40 1     
   41   18   41 1     
   42   19   20 1     
   43   20   21 1     
   44   20   42 1     
   45   20   43 1     
   46   21   44 1     
   47   21   45 1     
   48    6   47 1     
   49   10   48 1     
   50   10   49 1     
   51   19   50 1     
   52   19   51 1     
@<TRIPOS>SUBSTRUCTURE
      1 S1             1
@<TRIPOS>SET
LONE_PAIRS      STATIC     ATOMS    <user>   **** ""
5 47 48 49 50 51
DONOR_HYDROGENS      STATIC     ATOMS    <user>   **** ""
3 28 29 46
ATOM$BLUE        STATIC     ATOMS    COLORGROUP SYSTEM
5 47 48 49 50 51
ATOM$RED        STATIC     ATOMS    COLORGROUP SYSTEM
3 28 29 46
