AV-unprocessed.smi:238|AV-procd|sdf|1819|dock3
  -GOLD-   2262020413D 1   1.00000     0.00000
 Structure written by MMmdl.
 52 54  0  0  0  0  0  0  0  0  1 V2000
  151.9050  139.4563  155.8852 C   0  0  0  0  0  0  0  0  0  0  0  0
  151.1204  140.3573  155.1129 O   0  0  0  0  0  0  0  0  0  0  0  0
  149.6945  140.2488  155.1885 C   0  0  0  0  0  0  0  0  0  0  0  0
  149.3404  140.6659  156.6275 C   0  0  0  0  0  0  0  0  0  0  0  0
  149.0094  141.2392  154.2212 C   0  0  0  0  0  0  0  0  0  0  0  0
  149.2295  138.8000  154.8604 C   0  0  0  0  0  0  0  0  0  0  0  0
  147.7844  138.5689  154.9395 N   0  0  0  0  0  0  0  0  0  0  0  0
  147.1475  138.3389  156.2332 C   0  0  0  0  0  0  0  0  0  0  0  0
  147.1295  138.1619  153.8238 C   0  0  0  0  0  0  0  0  0  0  0  0
  147.2833  138.8723  152.6756 N   0  0  0  0  0  0  0  0  0  0  0  0
  146.6211  138.5198  151.5706 C   0  0  0  0  0  0  0  0  0  0  0  0
  145.7775  137.5017  151.3930 N   0  0  0  0  0  0  0  0  0  0  0  0
  145.6391  136.7668  152.5337 C   0  0  0  0  0  0  0  0  0  0  0  0
  146.2711  137.0263  153.7831 C   0  0  0  0  0  0  0  0  0  0  0  0
  145.8890  136.0646  154.7101 N   0  0  0  0  0  0  0  0  0  0  0  0
  145.0588  135.3000  154.0561 C   0  0  0  0  0  0  0  0  0  0  0  0
  144.8745  135.6285  152.7306 N   0  0  0  0  0  0  0  0  0  0  0  0
  144.0019  134.9865  151.7836 C   0  0  0  0  0  0  0  0  0  0  0  0
  143.7846  133.4673  151.7913 C   0  0  0  0  0  0  0  0  0  0  0  0
  144.7510  133.3154  150.5966 C   0  0  0  0  0  0  0  0  0  0  0  0
  146.2160  133.0090  150.9692 C   0  0  0  0  0  0  0  0  0  0  0  0
  146.3838  131.6563  151.3428 O   0  0  0  0  0  0  0  0  0  0  0  0
  144.2965  132.3411  149.4970 C   0  0  0  0  0  0  0  0  0  0  0  0
  142.9058  132.0988  149.5671 O   0  0  0  0  0  0  0  0  0  0  0  0
  144.4449  134.8037  150.3268 C   0  0  0  0  0  0  0  0  0  0  0  0
  152.9430  139.7887  155.8738 H   0  0  0  0  0  0  0  0  0  0  0  0
  151.8816  138.4502  155.4667 H   0  0  0  0  0  0  0  0  0  0  0  0
  151.5857  139.4071  156.9245 H   0  0  0  0  0  0  0  0  0  0  0  0
  148.2774  140.5344  156.8318 H   0  0  0  0  0  0  0  0  0  0  0  0
  149.5831  141.7146  156.8023 H   0  0  0  0  0  0  0  0  0  0  0  0
  149.9009  140.0894  157.3627 H   0  0  0  0  0  0  0  0  0  0  0  0
  147.9300  141.2531  154.3766 H   0  0  0  0  0  0  0  0  0  0  0  0
  149.1742  140.9735  153.1768 H   0  0  0  0  0  0  0  0  0  0  0  0
  149.3740  142.2562  154.3692 H   0  0  0  0  0  0  0  0  0  0  0  0
  149.5374  138.5625  153.8418 H   0  0  0  0  0  0  0  0  0  0  0  0
  149.7582  138.0780  155.4795 H   0  0  0  0  0  0  0  0  0  0  0  0
  146.1461  138.7707  156.2419 H   0  0  0  0  0  0  0  0  0  0  0  0
  147.7180  138.8069  157.0358 H   0  0  0  0  0  0  0  0  0  0  0  0
  147.0606  137.2758  156.4568 H   0  0  0  0  0  0  0  0  0  0  0  0
  146.7902  139.1433  150.7052 H   0  0  0  0  0  0  0  0  0  0  0  0
  144.5656  134.4670  154.5339 H   0  0  0  0  0  0  0  0  0  0  0  0
  143.0539  135.5224  151.8455 H   0  0  0  0  0  0  0  0  0  0  0  0
  144.0968  132.9448  152.6948 H   0  0  0  0  0  0  0  0  0  0  0  0
  142.7564  133.2025  151.5386 H   0  0  0  0  0  0  0  0  0  0  0  0
  146.8926  133.2314  150.1439 H   0  0  0  0  0  0  0  0  0  0  0  0
  146.5489  133.6271  151.8029 H   0  0  0  0  0  0  0  0  0  0  0  0
  147.1502  131.3177  150.9054 H   0  0  0  0  0  0  0  0  0  0  0  0
  144.5418  132.7149  148.5026 H   0  0  0  0  0  0  0  0  0  0  0  0
  144.8053  131.3816  149.5958 H   0  0  0  0  0  0  0  0  0  0  0  0
  142.4525  132.9226  149.4719 H   0  0  0  0  0  0  0  0  0  0  0  0
  143.6217  134.9486  149.6249 H   0  0  0  0  0  0  0  0  0  0  0  0
  145.3143  135.3890  150.0267 H   0  0  0  0  0  0  0  0  0  0  0  0
  1  2  1  0  0  0  0
  1 26  1  0  0  0  0
  1 27  1  0  0  0  0
  1 28  1  0  0  0  0
  2  3  1  0  0  0  0
  3  4  1  0  0  0  0
  3  5  1  0  0  0  0
  3  6  1  0  0  0  0
  4 29  1  0  0  0  0
  4 30  1  0  0  0  0
  4 31  1  0  0  0  0
  5 32  1  0  0  0  0
  5 33  1  0  0  0  0
  5 34  1  0  0  0  0
  6  7  1  0  0  0  0
  6 35  1  0  0  0  0
  6 36  1  0  0  0  0
  7  8  1  0  0  0  0
  7  9  1  0  0  0  0
  8 37  1  0  0  0  0
  8 38  1  0  0  0  0
  8 39  1  0  0  0  0
  9 14  1  0  0  0  0
  9 10  2  0  0  0  0
 10 11  1  0  0  0  0
 11 12  2  0  0  0  0
 11 40  1  0  0  0  0
 12 13  1  0  0  0  0
 13 17  1  0  0  0  0
 13 14  2  0  0  0  0
 14 15  1  0  0  0  0
 15 16  2  0  0  0  0
 16 17  1  0  0  0  0
 16 41  1  0  0  0  0
 17 18  1  0  0  0  0
 18 25  1  0  0  0  0
 18 19  1  0  0  0  0
 18 42  1  0  0  0  0
 19 20  1  0  0  0  0
 19 43  1  0  0  0  0
 19 44  1  0  0  0  0
 20 21  1  0  0  0  0
 20 23  1  0  0  0  0
 20 25  1  0  0  0  0
 21 22  1  0  0  0  0
 21 45  1  0  0  0  0
 21 46  1  0  0  0  0
 22 47  1  0  0  0  0
 23 24  1  0  0  0  0
 23 48  1  0  0  0  0
 23 49  1  0  0  0  0
 24 50  1  0  0  0  0
 25 51  1  0  0  0  0
 25 52  1  0  0  0  0
M  END
> <s_m_source_file>
AV-unprocessed.smi

> <i_m_source_file_index>
238

> <i_lp_mmshare_version>
43012

> <i_f3d_flags>
0

> <s_epik_input>
W0NIM11PQyhbQ0gzXSkoW0NIM10pW0NIMl1OKFtDSDNdKWMobltjSF1uMSljKGMxMiluW2NIXW4yW0NIXShbQ0gyXTMpW0NIMl1DMyhbQ0gyXVtPSF0pW0NIMl1bT0hd

> <s_epik_cmdline>
J2VwaWtfcHl0aG9uJywgJy1waCcsICc3LjAnLCAnLXRuJywgJzgnLCAnLW1hJywgJzIwMCcsICctbWV0YWxfYmluZGluZycsICctaW1hZScsICc8aW5maWxlLm1hZT4nLCAnLW9tYWUnLCAnPG91dGZpbGUubWFlPic=

> <r_lp_tautomer_probability>
1

> <r_epik_Ionization_Penalty>
0.00209421

> <r_epik_Ionization_Penalty_Charging>
0

> <r_epik_Ionization_Penalty_Neutral>
0.00209421

> <r_epik_State_Penalty>
0.00129171

> <r_epik_Charging_Adjusted_Penalty>
0.00129171

> <i_epik_Tot_Q>
0

> <i_epik_Tot_abs_Q>
0

> <r_epik_Metal_State_Penalty>
-0

> <b_epik_Metal_Only>
0

> <s_lp_Force_Field>
OPLS_2005

> <r_lp_Energy>
43.4617

> <b_lp_Chiralities_Consistent>
1

> <s_lp_Variant>
AV-unprocessed.smi:238-1

> <Gold.Version>
5.8.1

> <Gold.Id.Protein>
6NUR|6NUR_protein|mol2

> <Gold.PLP.Fitness>
45.1982

> <Gold.PLP.PLP>
-38.1823

> <Gold.PLP.part.hbond>
-4.4918

> <Gold.PLP.part.metal>
0.0000

> <Gold.PLP.part.buried>
-7.7151

> <Gold.PLP.part.nonpolar>
-30.5003

> <Gold.PLP.part.repulsive>
4.0362

> <Gold.PLP.ligand.clash>
0.0000

> <Gold.PLP.ligand.torsion>
2.0937

> <Gold.PLP.Chemscore.Hbond>
3.4383

> <Gold.PLP.Chemscore.CHOScore>
0.0000

> <Gold.PLP.Chemscore.Metal>
0.0000

> <Gold.Chemscore.Hbonds>
donor molecule, donor type, donor heavy atom, donor atom, acceptor molecule, acceptor atom, score
      L1  H    22    47       P1 10747  1.00
      L1  H    24    50       P1 10186  0.88
      P1  H  7989  7998       L1     2  1.00
      P1  H 10785 10796       L1    24  0.36

> <Gold.PLP.Chemscore.Internal.Correction>
0.8885

> <Gold.Rescore>
     Score         DG    S(hbond)    S(metal)    S(lipo)     H(rot)  DE(clash)    DE(int)     intcor
      9.85     -14.39       2.77        0.00      76.55       3.63       1.61       2.93       ----

> <Gold.Chemscore.Fitness>
9.8537

> <Gold.Chemscore.DG>
-14.3901

> <Gold.Chemscore.ZeroCoef>
-5.4800

> <Gold.Chemscore.Hbond>
2.7653

> <Gold.Chemscore.Metal>
0.0000

> <Gold.Chemscore.Lipo>
76.5535

> <Gold.Chemscore.Internal_Hbond>
0.0000

> <Gold.Chemscore.DEClash>
1.6088

> <Gold.Chemscore.DEInternal>
2.9275

> <Gold.Chemscore.Rot>
3.6261

> <Gold.Chemscore.Internal.Correction>
   9.000000E+99

> <Gold.Chemscore.Hbonds>
donor molecule, donor type, donor heavy atom, donor atom, acceptor molecule, acceptor atom, score
      L1  H    22    47       P1 10747  0.97
      L1  H    24    50       P1 10186  0.85
      P1  H  7989  7998       L1     2  0.75
      P1  H 10785 10796       L1    24  0.02

> <Gold.Chemscore.Hbond.Weighted>
-9.2362

> <Gold.Chemscore.Metal.Weighted>
-0.0000

> <Gold.Chemscore.Lipo.Weighted>
-8.9568

> <Gold.Chemscore.Internal_Hbond.Weighted>
0.0000

> <Gold.Chemscore.DEClash.Weighted>
1.6088

> <Gold.Chemscore.DEInternal.Weighted>
2.9275

> <Gold.Chemscore.Rot.Weighted>
9.2829

> <Gold.Chemscore.Internal.Correction.Weighted>
   9.000000E+99

> <Gold.Protein.RotatedTorsions>
[ 6907 6896 6895 6894 ] final -161.33 input  -60.11 | X-H torsion
[ 7974 7965 7964 7962 ] final  137.72 input  175.53 | X-H torsion
[ 8008 7997 7996 7995 ] final   50.71 input   59.86 | X-H torsion
[ 10167 10162 10161 10158 ] final  -39.92 input  -65.29 | X-H torsion
[ 10718 10713 10712 10709 ] final -161.83 input   66.30 | X-H torsion
[ 10763 10752 10751 10750 ] final  -69.42 input  -60.55 | X-H torsion
[ 11005 11000 10999 10996 ] final -148.83 input  -57.11 | X-H torsion

> <Gold.Protein.ActiveResidues>
 VAL166  LYS551  ARG553  GLY616  TRP617  ASP618  TYR619  PRO620  LYS621  CYS622 
 ASP623  PHE694  ASN695  SER759  ASP760  ASP761  ALA762  ILE779  LEU786  VAL792 
 PHE793  MET794  SER795  GLU796  ALA797  LYS798  CYS799  TRP800  GLU811  SER814 

> <Gold.Protein.RotatedAtoms>
  151.3630  133.3882  159.2691 H   0  0  0  0  0  0  0  0  0  0  0  0  # atno 6907 bound_to 6896
  150.9711  134.9084  159.7799 H   0  0  0  0  0  0  0  0  0  0  0  0  # atno 6908 bound_to 6896
  152.5184  134.3592  159.9331 H   0  0  0  0  0  0  0  0  0  0  0  0  # atno 6909 bound_to 6896
  144.9441  139.4896  143.5557 H   0  0  0  0  0  0  0  0  0  0  0  0  # atno 7974 bound_to 7965
  155.4233  140.3447  155.4273 H   0  0  0  0  0  0  0  0  0  0  0  0  # atno 8008 bound_to 7997
  156.1380  140.1533  156.8995 H   0  0  0  0  0  0  0  0  0  0  0  0  # atno 8009 bound_to 7997
  154.4948  140.0831  156.7652 H   0  0  0  0  0  0  0  0  0  0  0  0  # atno 8010 bound_to 7997
  140.7050  143.3184  151.2851 H   0  0  0  0  0  0  0  0  0  0  0  0  # atno 10167 bound_to 10162
  156.6018  130.8814  151.2915 H   0  0  0  0  0  0  0  0  0  0  0  0  # atno 10718 bound_to 10713
  154.4031  135.6026  153.5909 H   0  0  0  0  0  0  0  0  0  0  0  0  # atno 10763 bound_to 10752
  152.9788  135.5911  154.4160 H   0  0  0  0  0  0  0  0  0  0  0  0  # atno 10764 bound_to 10752
  154.3961  135.2842  155.2103 H   0  0  0  0  0  0  0  0  0  0  0  0  # atno 10765 bound_to 10752
  140.7571  134.3341  157.5111 H   0  0  0  0  0  0  0  0  0  0  0  0  # atno 11005 bound_to 11000
  146.3297  139.8481  142.8878 LP  0  0  0  0  0  0  0  0  0  0  0  0  # atno 17320 bound_to 7965
  145.2945  141.0177  143.3644 LP  0  0  0  0  0  0  0  0  0  0  0  0  # atno 17321 bound_to 7965
  139.6631  144.0154  152.2705 LP  0  0  0  0  0  0  0  0  0  0  0  0  # atno 17342 bound_to 10162
  139.9728  144.6482  150.7973 LP  0  0  0  0  0  0  0  0  0  0  0  0  # atno 17343 bound_to 10162
  157.7277  130.9647  150.1712 LP  0  0  0  0  0  0  0  0  0  0  0  0  # atno 17370 bound_to 10713
  156.2463  130.3696  149.8282 LP  0  0  0  0  0  0  0  0  0  0  0  0  # atno 17371 bound_to 10713
  139.8777  134.9178  156.3188 LP  0  0  0  0  0  0  0  0  0  0  0  0  # atno 17394 bound_to 11000
  140.9698  133.7335  156.0518 LP  0  0  0  0  0  0  0  0  0  0  0  0  # atno 17395 bound_to 11000

$$$$
