AV-unprocessed.smi:725|AV-procd|sdf|3509|dock4
  -GOLD-   22720 0503D 1   1.00000     0.00000
 Structure written by MMmdl.
 47 48  0  0  0  0  0  0  0  0  1 V2000
  153.5011  143.5305  163.5254 C   0  0  0  0  0  0  0  0  0  0  0  0
  153.0775  143.1119  162.1130 C   0  0  0  0  0  0  0  0  0  0  0  0
  152.1784  144.1655  161.4356 C   0  0  0  0  0  0  0  0  0  0  0  0
  151.7579  143.8666  159.9742 C   0  0  2  0  0  0  0  0  0  0  0  0
  152.4739  144.7906  158.9653 C   0  0  0  0  0  0  0  0  0  0  0  0
  150.3640  144.0925  159.8796 O   0  0  0  0  0  0  0  0  0  0  0  0
  151.9911  142.3609  159.6869 C   0  0  0  0  0  0  0  0  0  0  0  0
  151.3816  141.9024  158.4397 N   0  0  0  0  0  0  0  0  0  0  0  0
  151.8490  140.9203  157.6514 C   0  0  0  0  0  0  0  0  0  0  0  0
  152.8660  140.2719  157.8995 O   0  0  0  0  0  0  0  0  0  0  0  0
  151.0150  140.6346  156.4300 C   0  0  0  0  0  0  0  0  0  0  0  0
  150.2599  141.6800  155.8487 C   0  0  0  0  0  0  0  0  0  0  0  0
  149.5154  141.4347  154.6819 C   0  0  0  0  0  0  0  0  0  0  0  0
  149.5580  140.1454  154.1258 C   0  0  0  0  0  0  0  0  0  0  0  0
  150.2736  139.1361  154.6608 N   0  0  0  0  0  0  0  0  0  0  0  0
  150.9932  139.3598  155.7889 C   0  0  0  0  0  0  0  0  0  0  0  0
  151.6860  138.2541  156.3220 N   0  0  0  0  0  0  0  0  0  0  0  0
  153.1293  138.1984  156.1124 C   0  0  0  0  0  0  0  0  0  0  0  0
  153.7366  137.0699  156.9633 C   0  0  0  0  0  0  0  0  0  0  0  0
  153.0918  135.8376  156.6530 O   0  0  0  0  0  0  0  0  0  0  0  0
  151.6947  135.8784  156.9315 C   0  0  0  0  0  0  0  0  0  0  0  0
  151.0294  136.9748  156.0824 C   0  0  0  0  0  0  0  0  0  0  0  0
  154.1320  142.7686  163.9834 H   0  0  0  0  0  0  0  0  0  0  0  0
  152.6340  143.6759  164.1698 H   0  0  0  0  0  0  0  0  0  0  0  0
  154.0661  144.4628  163.5073 H   0  0  0  0  0  0  0  0  0  0  0  0
  153.9716  142.9388  161.5139 H   0  0  0  0  0  0  0  0  0  0  0  0
  152.5574  142.1568  162.1785 H   0  0  0  0  0  0  0  0  0  0  0  0
  151.2816  144.2952  162.0429 H   0  0  0  0  0  0  0  0  0  0  0  0
  152.6939  145.1268  161.4638 H   0  0  0  0  0  0  0  0  0  0  0  0
  153.5539  144.6462  159.0017 H   0  0  0  0  0  0  0  0  0  0  0  0
  152.2729  145.8431  159.1617 H   0  0  0  0  0  0  0  0  0  0  0  0
  152.1508  144.6061  157.9408 H   0  0  0  0  0  0  0  0  0  0  0  0
  149.9625  143.8335  160.6946 H   0  0  0  0  0  0  0  0  0  0  0  0
  153.0621  142.1517  159.6735 H   0  0  0  0  0  0  0  0  0  0  0  0
  151.5872  141.7556  160.4995 H   0  0  0  0  0  0  0  0  0  0  0  0
  150.5298  142.3654  158.1581 H   0  0  0  0  0  0  0  0  0  0  0  0
  150.2545  142.6696  156.2826 H   0  0  0  0  0  0  0  0  0  0  0  0
  148.9324  142.2181  154.2207 H   0  0  0  0  0  0  0  0  0  0  0  0
  149.0027  139.9175  153.2280 H   0  0  0  0  0  0  0  0  0  0  0  0
  153.3430  138.0192  155.0577 H   0  0  0  0  0  0  0  0  0  0  0  0
  153.5808  139.1544  156.3802 H   0  0  0  0  0  0  0  0  0  0  0  0
  154.8027  136.9757  156.7573 H   0  0  0  0  0  0  0  0  0  0  0  0
  153.6345  137.2875  158.0279 H   0  0  0  0  0  0  0  0  0  0  0  0
  151.2575  134.9070  156.7008 H   0  0  0  0  0  0  0  0  0  0  0  0
  151.5303  136.0581  157.9953 H   0  0  0  0  0  0  0  0  0  0  0  0
  149.9668  137.0332  156.3191 H   0  0  0  0  0  0  0  0  0  0  0  0
  151.1071  136.7270  155.0230 H   0  0  0  0  0  0  0  0  0  0  0  0
  1  2  1  0  0  0  0
  1 23  1  0  0  0  0
  1 24  1  0  0  0  0
  1 25  1  0  0  0  0
  2  3  1  0  0  0  0
  2 26  1  0  0  0  0
  2 27  1  0  0  0  0
  3  4  1  0  0  0  0
  3 28  1  0  0  0  0
  3 29  1  0  0  0  0
  4  5  1  0  0  0  0
  4  6  1  0  0  0  0
  4  7  1  0  0  0  0
  5 30  1  0  0  0  0
  5 31  1  0  0  0  0
  5 32  1  0  0  0  0
  6 33  1  0  0  0  0
  7  8  1  0  0  0  0
  7 34  1  0  0  0  0
  7 35  1  0  0  0  0
  8  9  1  0  0  0  0
  8 36  1  0  0  0  0
  9 10  2  0  0  0  0
  9 11  1  0  0  0  0
 11 16  1  0  0  0  0
 11 12  2  0  0  0  0
 12 13  1  0  0  0  0
 12 37  1  0  0  0  0
 13 14  2  0  0  0  0
 13 38  1  0  0  0  0
 14 15  1  0  0  0  0
 14 39  1  0  0  0  0
 15 16  2  0  0  0  0
 16 17  1  0  0  0  0
 17 22  1  0  0  0  0
 17 18  1  0  0  0  0
 18 19  1  0  0  0  0
 18 40  1  0  0  0  0
 18 41  1  0  0  0  0
 19 20  1  0  0  0  0
 19 42  1  0  0  0  0
 19 43  1  0  0  0  0
 20 21  1  0  0  0  0
 21 22  1  0  0  0  0
 21 44  1  0  0  0  0
 21 45  1  0  0  0  0
 22 46  1  0  0  0  0
 22 47  1  0  0  0  0
M  END
> <s_m_source_file>
AV-unprocessed.smi

> <i_m_source_file_index>
725

> <i_lp_mmshare_version>
43012

> <i_f3d_flags>
0

> <s_epik_input>
W0NIM11bQ0gyXVtDSDJdW0NAQF0oW0NIM10pKFtPSF0pW0NIMl1bTkhdQyg9TyljMVtjSF1bY0hdW2NIXW5jMU4yW0NIMl1bQ0gyXU9bQ0gyXVtDSDJdMg==

> <s_epik_cmdline>
J2VwaWtfcHl0aG9uJywgJy1waCcsICc3LjAnLCAnLXRuJywgJzgnLCAnLW1hJywgJzIwMCcsICctbWV0YWxfYmluZGluZycsICctaW1hZScsICc8aW5maWxlLm1hZT4nLCAnLW9tYWUnLCAnPG91dGZpbGUubWFlPic=

> <r_lp_tautomer_probability>
1

> <r_epik_Ionization_Penalty>
1.23446e-05

> <r_epik_Ionization_Penalty_Charging>
0

> <r_epik_Ionization_Penalty_Neutral>
1.23446e-05

> <r_epik_State_Penalty>
-0

> <r_epik_Charging_Adjusted_Penalty>
0

> <i_epik_Tot_Q>
0

> <i_epik_Tot_abs_Q>
0

> <r_epik_Metal_State_Penalty>
-0

> <b_epik_Metal_Only>
0

> <s_lp_Force_Field>
OPLS_2005

> <r_lp_Energy>
29.6434

> <b_lp_Chiralities_Consistent>
1

> <s_lp_Variant>
AV-unprocessed.smi:725-2

> <Gold.Version>
5.8.1

> <Gold.Id.Protein>
6NUR|6NUR_protein|mol2

> <Gold.PLP.Fitness>
45.5080

> <Gold.PLP.PLP>
-41.0950

> <Gold.PLP.part.hbond>
-2.0000

> <Gold.PLP.part.metal>
0.0000

> <Gold.PLP.part.buried>
-1.4167

> <Gold.PLP.part.nonpolar>
-36.5239

> <Gold.PLP.part.repulsive>
0.2128

> <Gold.PLP.ligand.clash>
0.0011

> <Gold.PLP.ligand.torsion>
2.1340

> <Gold.PLP.Chemscore.Hbond>
1.7993

> <Gold.PLP.Chemscore.CHOScore>
0.9919

> <Gold.PLP.Chemscore.Metal>
0.0000

> <Gold.Chemscore.Hbonds>
donor molecule, donor type, donor heavy atom, donor atom, acceptor molecule, acceptor atom, score
      P1  H  7997  8008       L1    10  0.94
      P1  H 10752 10763       L1    20  0.72
      L1  C    14    39       P1  7957  1.00

> <Gold.PLP.Chemscore.Internal.Correction>
0.3085

> <Gold.Rescore>
     Score         DG    S(hbond)    S(metal)    S(lipo)     H(rot)  DE(clash)    DE(int)     intcor
     12.74     -18.30       1.21        0.00     123.14       2.19       0.86       4.70       ----

> <Gold.Chemscore.Fitness>
12.7405

> <Gold.Chemscore.DG>
-18.3009

> <Gold.Chemscore.ZeroCoef>
-5.4800

> <Gold.Chemscore.Hbond>
1.2062

> <Gold.Chemscore.Metal>
0.0000

> <Gold.Chemscore.Lipo>
123.1360

> <Gold.Chemscore.Internal_Hbond>
0.0000

> <Gold.Chemscore.DEClash>
0.8623

> <Gold.Chemscore.DEInternal>
4.6980

> <Gold.Chemscore.Rot>
2.1933

> <Gold.Chemscore.Internal.Correction>
   9.000000E+99

> <Gold.Chemscore.Hbonds>
donor molecule, donor type, donor heavy atom, donor atom, acceptor molecule, acceptor atom, score
      P1  H  7997  8008       L1    10  0.92
      P1  H 10752 10763       L1    20  0.27

> <Gold.Chemscore.Hbond.Weighted>
-4.0288

> <Gold.Chemscore.Metal.Weighted>
-0.0000

> <Gold.Chemscore.Lipo.Weighted>
-14.4069

> <Gold.Chemscore.Internal_Hbond.Weighted>
0.0000

> <Gold.Chemscore.DEClash.Weighted>
0.8623

> <Gold.Chemscore.DEInternal.Weighted>
4.6980

> <Gold.Chemscore.Rot.Weighted>
5.6149

> <Gold.Chemscore.Internal.Correction.Weighted>
   9.000000E+99

> <Gold.Protein.RotatedTorsions>
[ 6907 6896 6895 6894 ] final  -14.97 input  -60.11 | X-H torsion
[ 7974 7965 7964 7962 ] final  113.66 input  175.53 | X-H torsion
[ 8008 7997 7996 7995 ] final  -75.69 input   59.86 | X-H torsion
[ 10167 10162 10161 10158 ] final -132.09 input  -65.29 | X-H torsion
[ 10718 10713 10712 10709 ] final  -93.70 input   66.30 | X-H torsion
[ 10763 10752 10751 10750 ] final   87.72 input  -60.55 | X-H torsion
[ 11005 11000 10999 10996 ] final  -61.35 input  -57.11 | X-H torsion

> <Gold.Protein.ActiveResidues>
 VAL166  LYS551  ARG553  GLY616  TRP617  ASP618  TYR619  PRO620  LYS621  CYS622 
 ASP623  PHE694  ASN695  SER759  ASP760  ASP761  ALA762  ILE779  LEU786  VAL792 
 PHE793  MET794  SER795  GLU796  ALA797  LYS798  CYS799  TRP800  GLU811  SER814 

> <Gold.Protein.RotatedAtoms>
  151.3311  135.0842  159.9338 H   0  0  0  0  0  0  0  0  0  0  0  0  # atno 6907 bound_to 6896
  152.5234  133.9542  159.7696 H   0  0  0  0  0  0  0  0  0  0  0  0  # atno 6908 bound_to 6896
  150.9881  133.6125  159.2742 H   0  0  0  0  0  0  0  0  0  0  0  0  # atno 6909 bound_to 6896
  145.2142  139.2892  143.4252 H   0  0  0  0  0  0  0  0  0  0  0  0  # atno 7974 bound_to 7965
  154.5439  140.0740  156.8556 H   0  0  0  0  0  0  0  0  0  0  0  0  # atno 8008 bound_to 7997
  155.3126  140.3391  155.4225 H   0  0  0  0  0  0  0  0  0  0  0  0  # atno 8009 bound_to 7997
  156.1900  140.1682  156.8097 H   0  0  0  0  0  0  0  0  0  0  0  0  # atno 8010 bound_to 7997
  139.9122  143.6481  152.2573 H   0  0  0  0  0  0  0  0  0  0  0  0  # atno 10167 bound_to 10162
  156.0017  130.5037  150.5815 H   0  0  0  0  0  0  0  0  0  0  0  0  # atno 10718 bound_to 10713
  153.1696  135.4533  154.9884 H   0  0  0  0  0  0  0  0  0  0  0  0  # atno 10763 bound_to 10752
  154.7956  135.3236  154.7676 H   0  0  0  0  0  0  0  0  0  0  0  0  # atno 10764 bound_to 10752
  153.8154  135.6951  153.4889 H   0  0  0  0  0  0  0  0  0  0  0  0  # atno 10765 bound_to 10752
  141.1321  133.6629  156.5362 H   0  0  0  0  0  0  0  0  0  0  0  0  # atno 11005 bound_to 11000
  146.3391  140.2427  142.8596 LP  0  0  0  0  0  0  0  0  0  0  0  0  # atno 17320 bound_to 7965
  144.9827  140.8474  143.5387 LP  0  0  0  0  0  0  0  0  0  0  0  0  # atno 17321 bound_to 7965
  139.6933  144.7644  151.1401 LP  0  0  0  0  0  0  0  0  0  0  0  0  # atno 17342 bound_to 10162
  140.7682  143.5559  150.9153 LP  0  0  0  0  0  0  0  0  0  0  0  0  # atno 17343 bound_to 10162
  157.3694  131.0763  151.1570 LP  0  0  0  0  0  0  0  0  0  0  0  0  # atno 17370 bound_to 10713
  157.2328  130.6533  149.5857 LP  0  0  0  0  0  0  0  0  0  0  0  0  # atno 17371 bound_to 10713
  140.4176  134.7216  157.4871 LP  0  0  0  0  0  0  0  0  0  0  0  0  # atno 17394 bound_to 11000
  140.0383  134.6305  155.9014 LP  0  0  0  0  0  0  0  0  0  0  0  0  # atno 17395 bound_to 11000

$$$$
