#       Name:                AV-unprocessed.smi:672
#       Creating user name   scv26
#       Creation time:       Fri Mar 27 00:24:59 2020


#       File generated by GOLD software.
#

@<TRIPOS>MOLECULE
AV-unprocessed.smi:672
    40    41     1
SMALL
NO_CHARGES


@<TRIPOS>ATOM
      1 ****        -7.0599   2.2067  -0.2412 C.3            1 S1                 0.0000
      2 ****        -6.2454   2.2197   1.0567 C.3            1 S1                 0.0000
      3 ****        -4.9207   1.5488   0.9089 C.2            1 S1                 0.0000
      4 ****        -4.7479   0.2361   1.1072 N.2            1 S1                 0.0000
      5 ****        -3.4372  -0.1619   0.8835 N.2            1 S1                 0.0000
      6 ****        -2.6613   0.8635   0.5063 C.2            1 S1                 0.0000
      7 ****        -1.2783   0.7400   0.2099 N.am           1 S1                 0.0000
      8 ****        -0.5120  -0.3640   0.2504 C.2            1 S1                 0.0000
      9 ****        -0.9012  -1.4916   0.5552 O.2            1 S1                 0.0000
     10 ****         0.7555  -0.0858  -0.0867 N.am           1 S1                 0.0000
     11 ****         1.8402  -1.0618  -0.1531 C.3            1 S1                 0.0000
     12 ****         2.4256  -1.3622   1.2410 C.3            1 S1                 0.0000
     13 ****         3.8440  -0.7883   1.2391 C.3            1 S1                 0.0000
     14 ****         4.2911  -0.8384  -0.2219 C.3            1 S1                 0.0000
     15 ****         4.9615  -2.4755  -0.6478 S.3            1 S1                 0.0000
     16 ****         5.7567  -2.1014  -2.2335 C.3            1 S1                 0.0000
     17 ****         3.0084  -0.5256  -1.0017 C.3            1 S1                 0.0000
     18 ****        -3.4770   2.4134   0.3940 S.3            1 S1                 0.0000
     19 ****        -8.0194   2.7054  -0.1029 H              1 S1                 0.0000
     20 ****        -7.2585   1.1863  -0.5701 H              1 S1                 0.0000
     21 ****        -6.5294   2.7207  -1.0433 H              1 S1                 0.0000
     22 ****        -6.0824   3.2474   1.3822 H              1 S1                 0.0000
     23 ****        -6.8051   1.7258   1.8520 H              1 S1                 0.0000
     24 ****        -0.8169   1.5954  -0.0621 H              1 S1                 0.0000
     25 ****         0.9880   0.8683  -0.3202 H              1 S1                 0.0000
     26 ****         1.4723  -1.9891  -0.5965 H              1 S1                 0.0000
     27 ****         1.8288  -0.9585   2.0602 H              1 S1                 0.0000
     28 ****         2.4723  -2.4423   1.3854 H              1 S1                 0.0000
     29 ****         3.8114   0.2504   1.5704 H              1 S1                 0.0000
     30 ****         4.5152  -1.3238   1.9113 H              1 S1                 0.0000
     31 ****         5.0663  -0.0953  -0.4120 H              1 S1                 0.0000
     32 ****         6.2347  -2.9959  -2.6323 H              1 S1                 0.0000
     33 ****         6.5180  -1.3320  -2.1054 H              1 S1                 0.0000
     34 ****         5.0258  -1.7500  -2.9612 H              1 S1                 0.0000
     35 ****         3.0073  -0.9428  -2.0086 H              1 S1                 0.0000
     36 ****         2.9287   0.5572  -1.1119 H              1 S1                 0.0000
     37 ****        -5.4795  -0.3865   1.3847 LP             1 S1                 0.0000
     38 ****        -3.1110  -1.1011   0.9909 LP             1 S1                 0.0000
     39 ****        -1.8594  -1.6408   0.7993 LP             1 S1                 0.0000
     40 ****        -0.2591  -2.2582   0.5586 LP             1 S1                 0.0000
@<TRIPOS>BOND
    1    1    2 1     
    2    1   19 1     
    3    1   20 1     
    4    1   21 1     
    5    2    3 1     
    6    2   22 1     
    7    2   23 1     
    8    3   18 1     
    9    3    4 2     
   10    4    5 1     
   11    5    6 2     
   12    6    7 1     
   13    6   18 1     
   14    7    8 am    
   15    7   24 1     
   16    8    9 2     
   17    8   10 am    
   18   10   11 1     
   19   10   25 1     
   20   11   17 1     
   21   11   12 1     
   22   11   26 1     
   23   12   13 1     
   24   12   27 1     
   25   12   28 1     
   26   13   14 1     
   27   13   29 1     
   28   13   30 1     
   29   14   15 1     
   30   14   17 1     
   31   14   31 1     
   32   15   16 1     
   33   16   32 1     
   34   16   33 1     
   35   16   34 1     
   36   17   35 1     
   37   17   36 1     
   38    4   37 1     
   39    5   38 1     
   40    9   39 1     
   41    9   40 1     
@<TRIPOS>SUBSTRUCTURE
      1 S1             1
@<TRIPOS>SET
LONE_PAIRS      STATIC     ATOMS    <user>   **** ""
4 37 38 39 40
DONOR_HYDROGENS      STATIC     ATOMS    <user>   **** ""
2 24 25
ATOM$BLUE        STATIC     ATOMS    COLORGROUP SYSTEM
4 37 38 39 40
ATOM$RED        STATIC     ATOMS    COLORGROUP SYSTEM
2 24 25
