#       Name:                AV-unprocessed.smi:332
#       Creating user name   scv26
#       Creation time:       Thu Mar 26 22:26:53 2020


#       File generated by GOLD software.
#

@<TRIPOS>MOLECULE
AV-unprocessed.smi:332
    46    48     1
SMALL
NO_CHARGES


@<TRIPOS>ATOM
      1 ****        -1.3168  -0.8203  -2.8089 C.3            1 S1                 0.0000
      2 ****        -0.9714   0.0056  -1.5581 C.3            1 S1                 0.0000
      3 ****         0.4755   0.0728  -1.3867 N.am           1 S1                 0.0000
      4 ****         1.3043   0.9477  -1.9802 C.2            1 S1                 0.0000
      5 ****         0.9291   1.7540  -2.8302 O.2            1 S1                 0.0000
      6 ****         2.7802   0.9441  -1.5456 C.3            1 S1                 0.0000
      7 ****         3.0567   0.1669  -0.3228 N.am           1 S1                 0.0000
      8 ****         3.5344  -1.1479  -0.4924 C.2            1 S1                 0.0000
      9 ****         3.8011  -1.9465   0.5531 C.2            1 S1                 0.0000
     10 ****         3.5870  -1.4257   1.8825 C.2            1 S1                 0.0000
     11 ****         3.1260  -0.1711   2.0562 C.2            1 S1                 0.0000
     12 ****         2.8288   0.7040   0.9165 C.2            1 S1                 0.0000
     13 ****         2.3917   1.8453   1.0656 O.2            1 S1                 0.0000
     14 ****        -1.6069  -0.5857  -0.2781 C.3            1 S1                 0.0000
     15 ****        -3.1436  -0.4500  -0.1964 C.3            1 S1                 0.0000
     16 ****        -3.3626   0.1575   1.2020 C.3            1 S1                 0.0000
     17 ****        -2.9373   1.6376   1.1809 C.3            1 S1                 0.0000
     18 ****        -1.4016   1.5479   1.1208 C.3            1 S1                 0.0000
     19 ****        -1.1516   0.0270   1.0718 C.3            1 S1                 0.0000
     20 ****        -2.2397  -0.4823   2.0107 C.3            1 S1                 0.0000
     21 ****        -2.3945  -0.8667  -2.9661 H              1 S1                 0.0000
     22 ****        -0.9492  -1.8435  -2.7241 H              1 S1                 0.0000
     23 ****        -0.8776  -0.3822  -3.7055 H              1 S1                 0.0000
     24 ****        -1.3541   1.0169  -1.7050 H              1 S1                 0.0000
     25 ****         0.8747  -0.5579  -0.7065 H              1 S1                 0.0000
     26 ****         3.3746   0.5655  -2.3780 H              1 S1                 0.0000
     27 ****         3.1067   1.9772  -1.4137 H              1 S1                 0.0000
     28 ****         3.6600  -1.4631  -1.5182 H              1 S1                 0.0000
     29 ****         4.1621  -2.9534   0.4034 H              1 S1                 0.0000
     30 ****         3.7971  -2.0450   2.7420 H              1 S1                 0.0000
     31 ****         2.9700   0.2011   3.0583 H              1 S1                 0.0000
     32 ****        -1.3581  -1.6483  -0.2453 H              1 S1                 0.0000
     33 ****        -3.5603   0.1829  -0.9809 H              1 S1                 0.0000
     34 ****        -3.6175  -1.4292  -0.2761 H              1 S1                 0.0000
     35 ****        -4.3662  -0.0031   1.5965 H              1 S1                 0.0000
     36 ****        -3.3556   2.1768   0.3301 H              1 S1                 0.0000
     37 ****        -3.2561   2.1490   2.0899 H              1 S1                 0.0000
     38 ****        -0.9780   2.0847   0.2725 H              1 S1                 0.0000
     39 ****        -0.9625   1.9746   2.0235 H              1 S1                 0.0000
     40 ****        -0.1397  -0.2566   1.3629 H              1 S1                 0.0000
     41 ****        -2.1568  -0.0884   3.0252 H              1 S1                 0.0000
     42 ****        -2.3025  -1.5711   2.0542 H              1 S1                 0.0000
     43 ****        -0.0314   1.7775  -3.1076 LP             1 S1                 0.0000
     44 ****         1.5846   2.3859  -3.2437 LP             1 S1                 0.0000
     45 ****         2.1911   2.4122   0.2666 LP             1 S1                 0.0000
     46 ****         2.2372   2.2053   1.9857 LP             1 S1                 0.0000
@<TRIPOS>BOND
    1    1    2 1     
    2    1   21 1     
    3    1   22 1     
    4    1   23 1     
    5    2    3 1     
    6    2   14 1     
    7    2   24 1     
    8    3    4 am    
    9    3   25 1     
   10    4    5 2     
   11    4    6 1     
   12    6    7 1     
   13    6   26 1     
   14    6   27 1     
   15    7   12 am    
   16    7    8 1     
   17    8    9 2     
   18    8   28 1     
   19    9   10 1     
   20    9   29 1     
   21   10   11 2     
   22   10   30 1     
   23   11   12 1     
   24   11   31 1     
   25   12   13 2     
   26   14   19 1     
   27   14   15 1     
   28   14   32 1     
   29   15   16 1     
   30   15   33 1     
   31   15   34 1     
   32   16   20 1     
   33   16   17 1     
   34   16   35 1     
   35   17   18 1     
   36   17   36 1     
   37   17   37 1     
   38   18   19 1     
   39   18   38 1     
   40   18   39 1     
   41   19   20 1     
   42   19   40 1     
   43   20   41 1     
   44   20   42 1     
   45    5   43 1     
   46    5   44 1     
   47   13   45 1     
   48   13   46 1     
@<TRIPOS>SUBSTRUCTURE
      1 S1             1
@<TRIPOS>SET
LONE_PAIRS      STATIC     ATOMS    <user>   **** ""
4 43 44 45 46
DONOR_HYDROGENS      STATIC     ATOMS    <user>   **** ""
1 25
ATOM$BLUE        STATIC     ATOMS    COLORGROUP SYSTEM
4 43 44 45 46
ATOM$RED        STATIC     ATOMS    COLORGROUP SYSTEM
1 25
