#       Name:                AV-unprocessed.smi:1619
#       Creating user name   scv26
#       Creation time:       Fri Mar 27 07:15:04 2020


#       File generated by GOLD software.
#

@<TRIPOS>MOLECULE
AV-unprocessed.smi:1619
    47    49     1
SMALL
NO_CHARGES


@<TRIPOS>ATOM
      1 ****        -2.1235   3.9270   2.8334 C.3            1 S1                 0.0000
      2 ****        -2.0767   2.6348   2.0371 C.ar           1 S1                 0.0000
      3 ****        -2.6696   2.5960   0.7552 C.ar           1 S1                 0.0000
      4 ****        -2.6496   1.4139  -0.0165 C.ar           1 S1                 0.0000
      5 ****        -3.1600   1.1547  -1.2767 N.2            1 S1                 0.0000
      6 ****        -2.8279  -0.1217  -1.4438 C.2            1 S1                 0.0000
      7 ****        -2.1492  -0.7183  -0.4445 N.pl3          1 S1                 0.0000
      8 ****        -1.6786  -2.0910  -0.4040 C.3            1 S1                 0.0000
      9 ****        -0.1420  -2.1971  -0.4725 C.3            1 S1                 0.0000
     10 ****         0.1961  -3.5690  -0.4880 O.3            1 S1                 0.0000
     11 ****         0.4710  -1.5185  -1.7171 C.3            1 S1                 0.0000
     12 ****         1.9525  -1.5428  -1.6952 N.4            1 S1                 1.0000
     13 ****         2.5827  -1.1948  -2.9840 C.3            1 S1                 0.0000
     14 ****         3.9931  -0.7434  -2.6209 C.3            1 S1                 0.0000
     15 ****         3.7830  -0.0007  -1.3051 C.3            1 S1                 0.0000
     16 ****         2.5866  -0.7036  -0.6489 C.3            1 S1                 0.0000
     17 ****        -2.0143   0.2619   0.5332 C.ar           1 S1                 0.0000
     18 ****        -1.4223   0.2876   1.8084 C.ar           1 S1                 0.0000
     19 ****        -1.4500   1.4776   2.5654 C.ar           1 S1                 0.0000
     20 ****        -0.8059   1.4962   3.9406 C.3            1 S1                 0.0000
     21 ****        -2.6557   4.7096   2.2921 H              1 S1                 0.0000
     22 ****        -1.1149   4.2873   3.0360 H              1 S1                 0.0000
     23 ****        -2.6340   3.7724   3.7841 H              1 S1                 0.0000
     24 ****        -3.1479   3.4772   0.3532 H              1 S1                 0.0000
     25 ****        -3.0866  -0.6518  -2.3490 H              1 S1                 0.0000
     26 ****        -2.0511  -2.5506   0.5126 H              1 S1                 0.0000
     27 ****        -2.1323  -2.6360  -1.2335 H              1 S1                 0.0000
     28 ****         0.2782  -1.7595   0.4331 H              1 S1                 0.0000
     29 ****        -0.1694  -3.9790   0.2818 H              1 S1                 0.0000
     30 ****         0.1166  -2.0255  -2.6160 H              1 S1                 0.0000
     31 ****         0.1454  -0.4806  -1.7993 H              1 S1                 0.0000
     32 ****         2.5758  -2.0365  -3.6770 H              1 S1                 0.0000
     33 ****         2.0417  -0.3685  -3.4487 H              1 S1                 0.0000
     34 ****         4.6318  -1.6129  -2.4596 H              1 S1                 0.0000
     35 ****         4.4532  -0.1234  -3.3912 H              1 S1                 0.0000
     36 ****         4.6725  -0.0058  -0.6743 H              1 S1                 0.0000
     37 ****         3.5289   1.0403  -1.5103 H              1 S1                 0.0000
     38 ****         1.8939   0.0321  -0.2366 H              1 S1                 0.0000
     39 ****         2.9088  -1.3481   0.1697 H              1 S1                 0.0000
     40 ****        -0.9520  -0.6011   2.2024 H              1 S1                 0.0000
     41 ****        -0.3366   0.5399   4.1736 H              1 S1                 0.0000
     42 ****        -1.5523   1.6992   4.7090 H              1 S1                 0.0000
     43 ****        -0.0362   2.2666   3.9932 H              1 S1                 0.0000
     44 ****         2.2282  -2.4952  -1.5007 H              1 S1                 0.0000
     45 ****        -3.6497   1.7665  -1.8980 LP             1 S1                 0.0000
     46 ****         1.1909  -3.6707  -0.4836 LP             1 S1                 0.0000
     47 ****        -0.1793  -3.9991  -1.3090 LP             1 S1                 0.0000
@<TRIPOS>BOND
    1    1    2 1     
    2    1   21 1     
    3    1   22 1     
    4    1   23 1     
    5    2   19 ar    
    6    2    3 ar    
    7    3    4 ar    
    8    3   24 1     
    9    4   17 ar    
   10    4    5 1     
   11    5    6 2     
   12    6    7 1     
   13    6   25 1     
   14    7    8 1     
   15    7   17 1     
   16    8    9 1     
   17    8   26 1     
   18    8   27 1     
   19    9   10 1     
   20    9   11 1     
   21    9   28 1     
   22   10   29 1     
   23   11   12 1     
   24   11   30 1     
   25   11   31 1     
   26   12   16 1     
   27   12   13 1     
   28   12   44 1     
   29   13   14 1     
   30   13   32 1     
   31   13   33 1     
   32   14   15 1     
   33   14   34 1     
   34   14   35 1     
   35   15   16 1     
   36   15   36 1     
   37   15   37 1     
   38   16   38 1     
   39   16   39 1     
   40   17   18 ar    
   41   18   19 ar    
   42   18   40 1     
   43   19   20 1     
   44   20   41 1     
   45   20   42 1     
   46   20   43 1     
   47    5   45 1     
   48   10   46 1     
   49   10   47 1     
@<TRIPOS>SUBSTRUCTURE
      1 S1             1
@<TRIPOS>SET
LONE_PAIRS      STATIC     ATOMS    <user>   **** ""
3 45 46 47
DONOR_HYDROGENS      STATIC     ATOMS    <user>   **** ""
2 29 44
ATOM$BLUE        STATIC     ATOMS    COLORGROUP SYSTEM
3 45 46 47
ATOM$RED        STATIC     ATOMS    COLORGROUP SYSTEM
2 29 44
