#       Name:                AV-unprocessed.smi:1091
#       Creating user name   scv26
#       Creation time:       Fri Mar 27 03:27:21 2020


#       File generated by GOLD software.
#

@<TRIPOS>MOLECULE
AV-unprocessed.smi:1091
    43    44     1
SMALL
NO_CHARGES


@<TRIPOS>ATOM
      1 ****        -0.9493   2.4928   0.8083 O.2            1 S1                 0.0000
      2 ****        -1.3180   1.3910   0.4084 C.2            1 S1                 0.0000
      3 ****        -0.4919   0.3900   0.0456 N.am           1 S1                 0.0000
      4 ****         0.9285   0.3660   0.0415 C.ar           1 S1                 0.0000
      5 ****         1.5666  -0.8905   0.0487 C.ar           1 S1                 0.0000
      6 ****         2.9730  -0.9473   0.0333 C.ar           1 S1                 0.0000
      7 ****         3.7003   0.2588   0.0023 C.ar           1 S1                 0.0000
      8 ****         5.0784   0.1981  -0.0051 O.3            1 S1                 0.0000
      9 ****         5.8129   1.4196  -0.0153 C.3            1 S1                 0.0000
     10 ****         7.3137   1.1065   0.0007 C.3            1 S1                 0.0000
     11 ****         8.0023   2.2474  -0.0018 F              1 S1                 0.0000
     12 ****         7.6294   0.4190   1.0981 F              1 S1                 0.0000
     13 ****         7.6490   0.4022  -1.0800 F              1 S1                 0.0000
     14 ****         3.0964   1.4725  -0.0237 N.ar           1 S1                 0.0000
     15 ****         1.7471   1.5205  -0.0077 C.ar           1 S1                 0.0000
     16 ****        -2.6260   1.0855   0.3243 N.am           1 S1                 0.0000
     17 ****        -3.7846   1.9263   0.6370 C.3            1 S1                 0.0000
     18 ****        -4.9792   1.0234   0.9979 C.3            1 S1                 0.0000
     19 ****        -6.2148   1.8278   1.4278 C.3            1 S1                 0.0000
     20 ****        -6.8148   2.8825   0.0803 S.3            1 S1                 0.0000
     21 ****        -5.2865   3.8046  -0.2402 C.3            1 S1                 0.0000
     22 ****        -4.1168   2.8584  -0.5482 C.3            1 S1                 0.0000
     23 ****        -0.9395  -0.4830  -0.1926 H              1 S1                 0.0000
     24 ****         0.9879  -1.8024   0.0723 H              1 S1                 0.0000
     25 ****         3.4845  -1.8983   0.0470 H              1 S1                 0.0000
     26 ****         5.5683   1.9993  -0.9070 H              1 S1                 0.0000
     27 ****         5.5556   2.0228   0.8572 H              1 S1                 0.0000
     28 ****         1.3327   2.5151  -0.0551 H              1 S1                 0.0000
     29 ****        -2.8425   0.1482   0.0168 H              1 S1                 0.0000
     30 ****        -3.5567   2.5332   1.5150 H              1 S1                 0.0000
     31 ****        -5.2352   0.3840   0.1518 H              1 S1                 0.0000
     32 ****        -4.6959   0.3545   1.8117 H              1 S1                 0.0000
     33 ****        -7.0181   1.1541   1.7261 H              1 S1                 0.0000
     34 ****        -5.9825   2.4507   2.2923 H              1 S1                 0.0000
     35 ****        -5.4570   4.4787  -1.0795 H              1 S1                 0.0000
     36 ****        -5.0562   4.4253   0.6264 H              1 S1                 0.0000
     37 ****        -3.2436   3.4593  -0.8041 H              1 S1                 0.0000
     38 ****        -4.3476   2.2669  -1.4351 H              1 S1                 0.0000
     39 ****         0.0268   2.6967   0.8828 LP             1 S1                 0.0000
     40 ****        -1.6254   3.1855   1.0594 LP             1 S1                 0.0000
     41 ****         5.3469  -0.3147  -0.8205 LP             1 S1                 0.0000
     42 ****         5.3560  -0.3066   0.8124 LP             1 S1                 0.0000
     43 ****         3.6378   2.3127  -0.0540 LP             1 S1                 0.0000
@<TRIPOS>BOND
    1    1    2 2     
    2    2    3 am    
    3    2   16 am    
    4    3    4 1     
    5    3   23 1     
    6    4   15 ar    
    7    4    5 ar    
    8    5    6 ar    
    9    5   24 1     
   10    6    7 ar    
   11    6   25 1     
   12    7    8 1     
   13    7   14 ar    
   14    8    9 1     
   15    9   10 1     
   16    9   26 1     
   17    9   27 1     
   18   10   11 1     
   19   10   12 1     
   20   10   13 1     
   21   14   15 ar    
   22   15   28 1     
   23   16   17 1     
   24   16   29 1     
   25   17   22 1     
   26   17   18 1     
   27   17   30 1     
   28   18   19 1     
   29   18   31 1     
   30   18   32 1     
   31   19   20 1     
   32   19   33 1     
   33   19   34 1     
   34   20   21 1     
   35   21   22 1     
   36   21   35 1     
   37   21   36 1     
   38   22   37 1     
   39   22   38 1     
   40    1   39 1     
   41    1   40 1     
   42    8   41 1     
   43    8   42 1     
   44   14   43 1     
@<TRIPOS>SUBSTRUCTURE
      1 S1             1
@<TRIPOS>SET
LONE_PAIRS      STATIC     ATOMS    <user>   **** ""
5 39 40 41 42 43
DONOR_HYDROGENS      STATIC     ATOMS    <user>   **** ""
2 23 29
ATOM$BLUE        STATIC     ATOMS    COLORGROUP SYSTEM
5 39 40 41 42 43
ATOM$RED        STATIC     ATOMS    COLORGROUP SYSTEM
2 23 29
