AV-unprocessed.smi:1534|AV-procd|sdf|6167|dock8
  -GOLD-   22720 6313D 1   1.00000     0.00000
 Structure written by MMmdl.
 36 37  0  0  0  0  0  0  0  0  1 V2000
  146.3854  138.5780  154.4644 O   0  0  0  0  0  0  0  0  0  0  0  0
  147.1277  137.8513  153.8069 C   0  0  0  0  0  0  0  0  0  0  0  0
  146.6920  137.0371  152.8308 N   0  0  0  0  0  0  0  0  0  0  0  0
  145.2957  136.8556  152.4531 C   0  0  0  0  0  0  0  0  0  0  0  0
  144.7230  135.5567  153.0443 C   0  0  0  0  0  0  0  0  0  0  0  0
  144.9582  134.3592  152.1440 C   0  0  0  0  0  0  0  0  0  0  0  0
  143.8711  133.6407  151.6017 C   0  0  0  0  0  0  0  0  0  0  0  0
  144.1441  132.5360  150.7721 C   0  0  0  0  0  0  0  0  0  0  0  0
  145.4862  132.1953  150.5162 C   0  0  0  0  0  0  0  0  0  0  0  0
  146.5001  132.9782  151.1037 C   0  0  0  0  0  0  0  0  0  0  0  0
  146.2493  134.0388  151.9016 N   0  0  0  0  0  0  0  0  0  0  0  0
  148.4547  137.8123  154.0223 N   0  0  0  0  0  0  0  0  0  0  0  0
  149.2341  138.5696  155.0029 C   0  0  1  0  0  0  0  0  0  0  0  0
  150.0969  137.6269  155.8628 C   0  0  0  0  0  0  0  0  0  0  0  0
  151.1484  138.4584  156.6078 C   0  0  0  0  0  0  0  0  0  0  0  0
  151.5195  139.8952  155.5321 S   0  0  0  0  0  0  0  0  0  0  0  0
  151.2315  141.1317  156.2743 O   0  0  0  0  0  0  0  0  0  0  0  0
  152.8158  139.6947  154.8673 O   0  0  0  0  0  0  0  0  0  0  0  0
  150.1761  139.5813  154.3278 C   0  0  0  0  0  0  0  0  0  0  0  0
  147.3735  136.4819  152.3344 H   0  0  0  0  0  0  0  0  0  0  0  0
  144.7034  137.7154  152.7710 H   0  0  0  0  0  0  0  0  0  0  0  0
  145.2421  136.8259  151.3644 H   0  0  0  0  0  0  0  0  0  0  0  0
  145.1737  135.3593  154.0182 H   0  0  0  0  0  0  0  0  0  0  0  0
  143.6516  135.6635  153.2199 H   0  0  0  0  0  0  0  0  0  0  0  0
  142.8519  133.9276  151.8156 H   0  0  0  0  0  0  0  0  0  0  0  0
  143.3387  131.9609  150.3400 H   0  0  0  0  0  0  0  0  0  0  0  0
  145.7331  131.3548  149.8848 H   0  0  0  0  0  0  0  0  0  0  0  0
  147.5402  132.7461  150.9282 H   0  0  0  0  0  0  0  0  0  0  0  0
  148.9871  137.2019  153.4192 H   0  0  0  0  0  0  0  0  0  0  0  0
  148.5624  139.1052  155.6764 H   0  0  0  0  0  0  0  0  0  0  0  0
  149.4910  137.0390  156.5529 H   0  0  0  0  0  0  0  0  0  0  0  0
  150.6129  136.9193  155.2120 H   0  0  0  0  0  0  0  0  0  0  0  0
  150.7467  138.8376  157.5476 H   0  0  0  0  0  0  0  0  0  0  0  0
  152.0602  137.8999  156.8195 H   0  0  0  0  0  0  0  0  0  0  0  0
  150.6287  139.1599  153.4294 H   0  0  0  0  0  0  0  0  0  0  0  0
  149.6863  140.5186  154.0627 H   0  0  0  0  0  0  0  0  0  0  0  0
  1  2  2  0  0  0  0
  2  3  1  0  0  0  0
  2 12  1  0  0  0  0
  3  4  1  0  0  0  0
  3 20  1  0  0  0  0
  4  5  1  0  0  0  0
  4 21  1  0  0  0  0
  4 22  1  0  0  0  0
  5  6  1  0  0  0  0
  5 23  1  0  0  0  0
  5 24  1  0  0  0  0
  6 11  1  0  0  0  0
  6  7  2  0  0  0  0
  7  8  1  0  0  0  0
  7 25  1  0  0  0  0
  8  9  2  0  0  0  0
  8 26  1  0  0  0  0
  9 10  1  0  0  0  0
  9 27  1  0  0  0  0
 10 11  2  0  0  0  0
 10 28  1  0  0  0  0
 12 13  1  0  0  0  0
 12 29  1  0  0  0  0
 13 19  1  0  0  0  0
 13 14  1  0  0  0  0
 13 30  1  0  0  0  0
 14 15  1  0  0  0  0
 14 31  1  0  0  0  0
 14 32  1  0  0  0  0
 15 16  1  0  0  0  0
 15 33  1  0  0  0  0
 15 34  1  0  0  0  0
 16 17  2  0  0  0  0
 16 18  2  0  0  0  0
 16 19  1  0  0  0  0
 19 35  1  0  0  0  0
 19 36  1  0  0  0  0
M  END
> <s_m_source_file>
AV-unprocessed.smi

> <i_m_source_file_index>
1534

> <i_lp_mmshare_version>
43012

> <i_f3d_flags>
0

> <s_epik_input>
Tz1TMSg9TylbQ0gyXVtDSDJdW0NASF0oW0NIMl0xKVtOSF1DKD1PKVtOSF1bQ0gyXVtDSDJdYzJbY0hdW2NIXVtjSF1bY0hdbjI=

> <s_epik_cmdline>
J2VwaWtfcHl0aG9uJywgJy1waCcsICc3LjAnLCAnLXRuJywgJzgnLCAnLW1hJywgJzIwMCcsICctbWV0YWxfYmluZGluZycsICctaW1hZScsICc8aW5maWxlLm1hZT4nLCAnLW9tYWUnLCAnPG91dGZpbGUubWFlPic=

> <r_epik_Ionization_Penalty>
0.0423605

> <r_epik_Ionization_Penalty_Charging>
0

> <r_epik_Ionization_Penalty_Neutral>
0.0423605

> <r_epik_State_Penalty>
0.0357408

> <r_epik_Charging_Adjusted_Penalty>
0.0357408

> <i_epik_Tot_Q>
0

> <i_epik_Tot_abs_Q>
0

> <r_epik_Metal_State_Penalty>
0.033344

> <b_epik_Metal_Only>
0

> <s_lp_Force_Field>
OPLS_2005

> <r_lp_Energy>
9.82399

> <b_lp_Chiralities_Consistent>
1

> <s_lp_Variant>
AV-unprocessed.smi:1534-2

> <Gold.Version>
5.8.1

> <Gold.Id.Protein>
6NUR|6NUR_protein|mol2

> <Gold.PLP.Fitness>
39.4540

> <Gold.PLP.PLP>
-28.2268

> <Gold.PLP.part.hbond>
-4.0000

> <Gold.PLP.part.metal>
0.0000

> <Gold.PLP.part.buried>
-4.5511

> <Gold.PLP.part.nonpolar>
-20.5888

> <Gold.PLP.part.repulsive>
0.3432

> <Gold.PLP.ligand.clash>
0.0000

> <Gold.PLP.ligand.torsion>
0.3469

> <Gold.PLP.Chemscore.Hbond>
2.9680

> <Gold.PLP.Chemscore.CHOScore>
1.0000

> <Gold.PLP.Chemscore.Metal>
0.0000

> <Gold.Chemscore.Hbonds>
donor molecule, donor type, donor heavy atom, donor atom, acceptor molecule, acceptor atom, score
      L1  H     3    20       P1  7948  1.00
      L1  H    12    29       P1  7948  0.91
      P1  H  7997  8008       L1    18  1.00
      L1  C    10    28       P1 10747  1.00

> <Gold.PLP.Chemscore.Internal.Correction>
0.0170

> <Gold.Rescore>
     Score         DG    S(hbond)    S(metal)    S(lipo)     H(rot)  DE(clash)    DE(int)     intcor
     17.79     -18.24       2.87        0.00      65.21       1.73       0.14       0.32       ----

> <Gold.Chemscore.Fitness>
17.7870

> <Gold.Chemscore.DG>
-18.2396

> <Gold.Chemscore.ZeroCoef>
-5.4800

> <Gold.Chemscore.Hbond>
2.8655

> <Gold.Chemscore.Metal>
0.0000

> <Gold.Chemscore.Lipo>
65.2122

> <Gold.Chemscore.Internal_Hbond>
0.0000

> <Gold.Chemscore.DEClash>
0.1351

> <Gold.Chemscore.DEInternal>
0.3176

> <Gold.Chemscore.Rot>
1.7348

> <Gold.Chemscore.Internal.Correction>
   9.000000E+99

> <Gold.Chemscore.Hbonds>
donor molecule, donor type, donor heavy atom, donor atom, acceptor molecule, acceptor atom, score
      L1  H     3    20       P1  7948  0.94
      L1  H    12    29       P1  7948  0.90
      P1  H  7997  8008       L1    18  0.93

> <Gold.Chemscore.Hbond.Weighted>
-9.5707

> <Gold.Chemscore.Metal.Weighted>
-0.0000

> <Gold.Chemscore.Lipo.Weighted>
-7.6298

> <Gold.Chemscore.Internal_Hbond.Weighted>
0.0000

> <Gold.Chemscore.DEClash.Weighted>
0.1351

> <Gold.Chemscore.DEInternal.Weighted>
0.3176

> <Gold.Chemscore.Rot.Weighted>
4.4410

> <Gold.Chemscore.Internal.Correction.Weighted>
   9.000000E+99

> <Gold.Protein.RotatedTorsions>
[ 6907 6896 6895 6894 ] final   43.65 input  -60.11 | X-H torsion
[ 7974 7965 7964 7962 ] final   57.22 input  175.53 | X-H torsion
[ 8008 7997 7996 7995 ] final  -13.17 input   59.86 | X-H torsion
[ 10167 10162 10161 10158 ] final   94.60 input  -65.29 | X-H torsion
[ 10718 10713 10712 10709 ] final -123.99 input   66.30 | X-H torsion
[ 10763 10752 10751 10750 ] final -158.82 input  -60.55 | X-H torsion
[ 11005 11000 10999 10996 ] final -164.64 input  -57.11 | X-H torsion

> <Gold.Protein.ActiveResidues>
 VAL166  LYS551  ARG553  GLY616  TRP617  ASP618  TYR619  PRO620  LYS621  CYS622 
 ASP623  PHE694  ASN695  SER759  ASP760  ASP761  ALA762  ILE779  LEU786  VAL792 
 PHE793  MET794  SER795  GLU796  ALA797  LYS798  CYS799  TRP800  GLU811  SER814 

> <Gold.Protein.RotatedAtoms>
  152.2229  134.8396  160.0483 H   0  0  0  0  0  0  0  0  0  0  0  0  # atno 6907 bound_to 6896
  151.9173  133.3571  159.3892 H   0  0  0  0  0  0  0  0  0  0  0  0  # atno 6908 bound_to 6896
  150.7005  134.4597  159.5419 H   0  0  0  0  0  0  0  0  0  0  0  0  # atno 6909 bound_to 6896
  145.9314  139.3811  143.0419 H   0  0  0  0  0  0  0  0  0  0  0  0  # atno 7974 bound_to 7965
  154.5315  140.2256  155.8797 H   0  0  0  0  0  0  0  0  0  0  0  0  # atno 8008 bound_to 7997
  156.1768  140.3109  155.9038 H   0  0  0  0  0  0  0  0  0  0  0  0  # atno 8009 bound_to 7997
  155.3442  140.0452  157.3036 H   0  0  0  0  0  0  0  0  0  0  0  0  # atno 8010 bound_to 7997
  139.8068  144.6791  150.9693 H   0  0  0  0  0  0  0  0  0  0  0  0  # atno 10167 bound_to 10162
  156.1549  130.6561  150.9967 H   0  0  0  0  0  0  0  0  0  0  0  0  # atno 10718 bound_to 10713
  154.7526  135.3096  154.8530 H   0  0  0  0  0  0  0  0  0  0  0  0  # atno 10763 bound_to 10752
  153.9313  135.6785  153.4749 H   0  0  0  0  0  0  0  0  0  0  0  0  # atno 10764 bound_to 10752
  153.1122  135.4861  154.8983 H   0  0  0  0  0  0  0  0  0  0  0  0  # atno 10765 bound_to 10752
  140.5846  134.5107  157.5184 H   0  0  0  0  0  0  0  0  0  0  0  0  # atno 11005 bound_to 11000
  145.8421  140.9575  143.0794 LP  0  0  0  0  0  0  0  0  0  0  0  0  # atno 17320 bound_to 7965
  144.6765  140.0297  143.7483 LP  0  0  0  0  0  0  0  0  0  0  0  0  # atno 17321 bound_to 7965
  140.7819  143.4226  151.0818 LP  0  0  0  0  0  0  0  0  0  0  0  0  # atno 17342 bound_to 10162
  139.7894  143.8240  152.3149 LP  0  0  0  0  0  0  0  0  0  0  0  0  # atno 17343 bound_to 10162
  157.6687  131.0866  150.7665 LP  0  0  0  0  0  0  0  0  0  0  0  0  # atno 17370 bound_to 10713
  156.7731  130.4835  149.5414 LP  0  0  0  0  0  0  0  0  0  0  0  0  # atno 17371 bound_to 10713
  139.9302  134.7979  156.0954 LP  0  0  0  0  0  0  0  0  0  0  0  0  # atno 17394 bound_to 11000
  141.0974  133.6690  156.2677 LP  0  0  0  0  0  0  0  0  0  0  0  0  # atno 17395 bound_to 11000

$$$$
