AV-unprocessed.smi:2083|AV-procd|sdf|8512|dock3
  -GOLD-   2272011223D 1   1.00000     0.00000
 Structure written by MMmdl.
 44 45  0  0  0  0  0  0  0  0  3 V2000
  151.6087  145.5667  159.9469 C   0  0  0  0  0  0  0  0  0  0  0  0
  151.2545  144.3298  159.1942 C   0  0  0  0  0  0  0  0  0  0  0  0
  151.4377  143.9507  157.8943 C   0  0  0  0  0  0  0  0  0  0  0  0
  150.8630  142.6526  157.8539 C   0  0  0  0  0  0  0  0  0  0  0  0
  150.8561  141.9015  156.6490 N   0  0  0  0  0  0  0  0  0  0  0  0
  150.6893  140.5768  156.4831 C   0  0  0  0  0  0  0  0  0  0  0  0
  150.4994  139.8428  157.4605 O   0  0  0  0  0  0  0  0  0  0  0  0
  150.7628  140.2069  155.1743 N   0  5  0  0  0  0  0  0  0  0  0  0
  149.9610  139.1483  154.5581 C   0  0  0  0  0  0  0  0  0  0  0  0
  148.7910  139.7412  153.7239 C   0  0  2  0  0  0  0  0  0  0  0  0
  148.0419  140.9069  154.4176 C   0  0  0  0  0  0  0  0  0  0  0  0
  147.8730  138.6542  153.2595 N   0  3  2  0  0  0  0  0  0  0  0  0
  146.9840  139.0748  152.1435 C   0  0  0  0  0  0  0  0  0  0  0  0
  146.2595  137.8648  151.5318 C   0  0  0  0  0  0  0  0  0  0  0  0
  145.4757  137.0895  152.5986 C   0  0  0  0  0  0  0  0  0  0  0  0
  146.4030  136.6902  153.7588 C   0  0  2  0  0  0  0  0  0  0  0  0
  145.6384  135.9320  154.8530 C   0  0  0  0  0  0  0  0  0  0  0  0
  147.1081  137.9384  154.3242 C   0  0  0  0  0  0  0  0  0  0  0  0
  150.3741  142.2735  159.0255 N   0  0  0  0  0  0  0  0  0  0  0  0
  150.6225  143.3461  159.8902 O   0  0  0  0  0  0  0  0  0  0  0  0
  151.4050  146.4548  159.3486 H   0  0  0  0  0  0  0  0  0  0  0  0
  152.6672  145.5689  160.2069 H   0  0  0  0  0  0  0  0  0  0  0  0
  151.0333  145.6428  160.8697 H   0  0  0  0  0  0  0  0  0  0  0  0
  151.9072  144.5132  157.1010 H   0  0  0  0  0  0  0  0  0  0  0  0
  150.9972  142.4338  155.8032 H   0  0  0  0  0  0  0  0  0  0  0  0
  150.5691  138.5142  153.9108 H   0  0  0  0  0  0  0  0  0  0  0  0
  149.5529  138.4734  155.3107 H   0  0  0  0  0  0  0  0  0  0  0  0
  149.2495  140.1608  152.8273 H   0  0  0  0  0  0  0  0  0  0  0  0
  148.7003  141.7570  154.6045 H   0  0  0  0  0  0  0  0  0  0  0  0
  147.6057  140.6194  155.3758 H   0  0  0  0  0  0  0  0  0  0  0  0
  147.2327  141.2763  153.7874 H   0  0  0  0  0  0  0  0  0  0  0  0
  146.2613  139.8075  152.5055 H   0  0  0  0  0  0  0  0  0  0  0  0
  147.5669  139.5627  151.3613 H   0  0  0  0  0  0  0  0  0  0  0  0
  145.5851  138.1947  150.7411 H   0  0  0  0  0  0  0  0  0  0  0  0
  146.9880  137.2036  151.0600 H   0  0  0  0  0  0  0  0  0  0  0  0
  144.6565  137.7060  152.9713 H   0  0  0  0  0  0  0  0  0  0  0  0
  145.0217  136.2031  152.1540 H   0  0  0  0  0  0  0  0  0  0  0  0
  147.1685  136.0183  153.3668 H   0  0  0  0  0  0  0  0  0  0  0  0
  144.8550  136.5508  155.2917 H   0  0  0  0  0  0  0  0  0  0  0  0
  146.3071  135.6224  155.6567 H   0  0  0  0  0  0  0  0  0  0  0  0
  145.1680  135.0334  154.4526 H   0  0  0  0  0  0  0  0  0  0  0  0
  147.7764  137.6348  155.1304 H   0  0  0  0  0  0  0  0  0  0  0  0
  146.3675  138.6079  154.7640 H   0  0  0  0  0  0  0  0  0  0  0  0
  148.4913  137.9663  152.8533 H   0  0  0  0  0  0  0  0  0  0  0  0
  1  2  1  0  0  0  0
  1 21  1  0  0  0  0
  1 22  1  0  0  0  0
  1 23  1  0  0  0  0
  2 20  1  0  0  0  0
  2  3  2  0  0  0  0
  3  4  1  0  0  0  0
  3 24  1  0  0  0  0
  4  5  1  0  0  0  0
  4 19  2  0  0  0  0
  5  6  1  0  0  0  0
  5 25  1  0  0  0  0
  6  7  2  0  0  0  0
  6  8  1  0  0  0  0
  8  9  1  0  0  0  0
  9 10  1  0  0  0  0
  9 26  1  0  0  0  0
  9 27  1  0  0  0  0
 10 11  1  0  0  0  0
 10 12  1  0  0  0  0
 10 28  1  0  0  0  0
 11 29  1  0  0  0  0
 11 30  1  0  0  0  0
 11 31  1  0  0  0  0
 12 18  1  0  0  0  0
 12 13  1  0  0  0  0
 12 44  1  0  0  0  0
 13 14  1  0  0  0  0
 13 32  1  0  0  0  0
 13 33  1  0  0  0  0
 14 15  1  0  0  0  0
 14 34  1  0  0  0  0
 14 35  1  0  0  0  0
 15 16  1  0  0  0  0
 15 36  1  0  0  0  0
 15 37  1  0  0  0  0
 16 17  1  0  0  0  0
 16 18  1  0  0  0  0
 16 38  1  0  0  0  0
 17 39  1  0  0  0  0
 17 40  1  0  0  0  0
 17 41  1  0  0  0  0
 18 42  1  0  0  0  0
 18 43  1  0  0  0  0
 19 20  1  0  0  0  0
M  CHG  1   8  -1
M  CHG  1  12   1
M  END
> <s_m_source_file>
AV-unprocessed.smi

> <i_m_source_file_index>
2083

> <i_lp_mmshare_version>
43012

> <i_f3d_flags>
0

> <s_epik_input>
W0NIM11jMVtjSF1jKG5vMSlbTkhdQyg9TylbTkhdW0NIMl1bQ0BIXShbQ0gzXSlOMltDSDJdW0NIMl1bQ0gyXVtDQEBIXShbQ0gzXSlbQ0gyXTI=

> <s_epik_cmdline>
J2VwaWtfcHl0aG9uJywgJy1waCcsICc3LjAnLCAnLXRuJywgJzgnLCAnLW1hJywgJzIwMCcsICctbWV0YWxfYmluZGluZycsICctaW1hZScsICc8aW5maWxlLm1hZT4nLCAnLW9tYWUnLCAnPG91dGZpbGUubWFlPic=

> <r_epik_Ionization_Penalty>
6.76934

> <r_epik_Ionization_Penalty_Charging>
6.76934

> <r_epik_Ionization_Penalty_Neutral>
5.77849e-06

> <r_epik_State_Penalty>
6.79457

> <r_epik_Charging_Adjusted_Penalty>
13.5639

> <i_epik_Tot_Q>
0

> <i_epik_Tot_abs_Q>
2

> <r_epik_Metal_State_Penalty>
2.72837

> <b_epik_Metal_Only>
1

> <s_lp_Force_Field>
OPLS_2005

> <r_lp_Energy>
16.9315

> <b_lp_Chiralities_Consistent>
1

> <s_lp_Variant>
AV-unprocessed.smi:2083-23

> <Gold.Version>
5.8.1

> <Gold.Id.Protein>
6NUR|6NUR_protein|mol2

> <Gold.PLP.Fitness>
43.5769

> <Gold.PLP.PLP>
-35.6888

> <Gold.PLP.part.hbond>
-3.3610

> <Gold.PLP.part.metal>
0.0000

> <Gold.PLP.part.buried>
2.6226

> <Gold.PLP.part.nonpolar>
-35.2131

> <Gold.PLP.part.repulsive>
0.2713

> <Gold.PLP.ligand.clash>
0.0000

> <Gold.PLP.ligand.torsion>
0.6357

> <Gold.PLP.Chemscore.Hbond>
3.0000

> <Gold.PLP.Chemscore.CHOScore>
0.0000

> <Gold.PLP.Chemscore.Metal>
0.0000

> <Gold.Chemscore.Hbonds>
donor molecule, donor type, donor heavy atom, donor atom, acceptor molecule, acceptor atom, score
      L1  H    12    44       P1  7948  2.00
      P1  H  7989  7998       L1     8  0.90

> <Gold.PLP.Chemscore.Internal.Correction>
0.1596

> <Gold.Rescore>
     Score         DG    S(hbond)    S(metal)    S(lipo)     H(rot)  DE(clash)    DE(int)     intcor
     13.79     -17.57       1.90        0.00      82.42       1.52       1.72       2.07       ----

> <Gold.Chemscore.Fitness>
13.7898

> <Gold.Chemscore.DG>
-17.5739

> <Gold.Chemscore.ZeroCoef>
-5.4800

> <Gold.Chemscore.Hbond>
1.8981

> <Gold.Chemscore.Metal>
0.0000

> <Gold.Chemscore.Lipo>
82.4191

> <Gold.Chemscore.Internal_Hbond>
0.0000

> <Gold.Chemscore.DEClash>
1.7183

> <Gold.Chemscore.DEInternal>
2.0659

> <Gold.Chemscore.Rot>
1.5190

> <Gold.Chemscore.Internal.Correction>
   9.000000E+99

> <Gold.Chemscore.Hbonds>
donor molecule, donor type, donor heavy atom, donor atom, acceptor molecule, acceptor atom, score
      L1  H    12    44       P1  7948  0.92
      P1  H  7989  7998       L1     8  0.17

> <Gold.Chemscore.Hbond.Weighted>
-6.3395

> <Gold.Chemscore.Metal.Weighted>
-0.0000

> <Gold.Chemscore.Lipo.Weighted>
-9.6430

> <Gold.Chemscore.Internal_Hbond.Weighted>
0.0000

> <Gold.Chemscore.DEClash.Weighted>
1.7183

> <Gold.Chemscore.DEInternal.Weighted>
2.0659

> <Gold.Chemscore.Rot.Weighted>
3.8886

> <Gold.Chemscore.Internal.Correction.Weighted>
   9.000000E+99

> <Gold.Protein.RotatedTorsions>
[ 6907 6896 6895 6894 ] final   -7.88 input  -60.11 | X-H torsion
[ 7974 7965 7964 7962 ] final  -14.84 input  175.53 | X-H torsion
[ 8008 7997 7996 7995 ] final -179.10 input   59.86 | X-H torsion
[ 10167 10162 10161 10158 ] final   96.38 input  -65.29 | X-H torsion
[ 10718 10713 10712 10709 ] final -175.67 input   66.30 | X-H torsion
[ 10763 10752 10751 10750 ] final   92.86 input  -60.55 | X-H torsion
[ 11005 11000 10999 10996 ] final  -90.75 input  -57.11 | X-H torsion

> <Gold.Protein.ActiveResidues>
 VAL166  LYS551  ARG553  GLY616  TRP617  ASP618  TYR619  PRO620  LYS621  CYS622 
 ASP623  PHE694  ASN695  SER759  ASP760  ASP761  ALA762  ILE779  LEU786  VAL792 
 PHE793  MET794  SER795  GLU796  ALA797  LYS798  CYS799  TRP800  GLU811  SER814 

> <Gold.Protein.RotatedAtoms>
  151.4426  135.1022  159.9674 H   0  0  0  0  0  0  0  0  0  0  0  0  # atno 6907 bound_to 6896
  152.4917  133.8515  159.7214 H   0  0  0  0  0  0  0  0  0  0  0  0  # atno 6908 bound_to 6896
  150.9078  133.6977  159.2890 H   0  0  0  0  0  0  0  0  0  0  0  0  # atno 6909 bound_to 6896
  146.2057  140.3406  142.8408 H   0  0  0  0  0  0  0  0  0  0  0  0  # atno 7974 bound_to 7965
  156.0265  140.1272  157.0303 H   0  0  0  0  0  0  0  0  0  0  0  0  # atno 8008 bound_to 7997
  154.4332  140.1058  156.6109 H   0  0  0  0  0  0  0  0  0  0  0  0  # atno 8009 bound_to 7997
  155.5869  140.3469  155.4558 H   0  0  0  0  0  0  0  0  0  0  0  0  # atno 8010 bound_to 7997
  139.7900  144.6856  150.9906 H   0  0  0  0  0  0  0  0  0  0  0  0  # atno 10167 bound_to 10162
  156.8033  130.9560  151.3118 H   0  0  0  0  0  0  0  0  0  0  0  0  # atno 10718 bound_to 10713
  153.2239  135.4346  155.0519 H   0  0  0  0  0  0  0  0  0  0  0  0  # atno 10763 bound_to 10752
  154.8263  135.3363  154.6887 H   0  0  0  0  0  0  0  0  0  0  0  0  # atno 10764 bound_to 10752
  153.7318  135.7010  153.5043 H   0  0  0  0  0  0  0  0  0  0  0  0  # atno 10765 bound_to 10752
  141.1559  133.7712  156.9782 H   0  0  0  0  0  0  0  0  0  0  0  0  # atno 11005 bound_to 11000
  144.8788  140.7372  143.6000 LP  0  0  0  0  0  0  0  0  0  0  0  0  # atno 17320 bound_to 7965
  145.3326  139.1755  143.4528 LP  0  0  0  0  0  0  0  0  0  0  0  0  # atno 17321 bound_to 7965
  140.7820  143.4391  151.0578 LP  0  0  0  0  0  0  0  0  0  0  0  0  # atno 17342 bound_to 10162
  139.8068  143.8006  152.3168 LP  0  0  0  0  0  0  0  0  0  0  0  0  # atno 17343 bound_to 10162
  157.6543  130.8911  149.9696 LP  0  0  0  0  0  0  0  0  0  0  0  0  # atno 17370 bound_to 10713
  156.1088  130.3651  150.0086 LP  0  0  0  0  0  0  0  0  0  0  0  0  # atno 17371 bound_to 10713
  140.1083  134.9492  157.2028 LP  0  0  0  0  0  0  0  0  0  0  0  0  # atno 17394 bound_to 11000
  140.3227  134.2898  155.7243 LP  0  0  0  0  0  0  0  0  0  0  0  0  # atno 17395 bound_to 11000

$$$$
