AV-unprocessed.smi:2790|AV-procd|sdf|10768|dock1
  -GOLD-   2272015203D 1   1.00000     0.00000
 Structure written by MMmdl.
 45 46  0  0  0  0  0  0  0  0  1 V2000
  152.2102  144.0958  161.2159 C   0  0  0  0  0  0  0  0  0  0  0  0
  152.9745  142.9150  160.8155 N   0  0  0  0  0  0  0  0  0  0  0  0
  153.4139  142.1913  162.0032 C   0  0  0  0  0  0  0  0  0  0  0  0
  152.2060  142.0055  159.9342 C   0  0  0  0  0  0  0  0  0  0  0  0
  151.8278  142.6000  158.5724 C   0  0  0  0  0  0  0  0  0  0  0  0
  152.1012  143.7709  158.3103 O   0  0  0  0  0  0  0  0  0  0  0  0
  151.1941  141.7817  157.7213 N   0  0  0  0  0  0  0  0  0  0  0  0
  150.7750  142.1391  156.3704 C   0  0  0  0  0  0  0  0  0  0  0  0
  149.8639  141.0581  155.7351 C   0  0  0  0  0  0  0  0  0  0  0  0
  150.7411  139.8560  155.3099 C   0  0  0  0  0  0  0  0  0  0  0  0
  152.1275  139.7824  155.5964 C   0  0  0  0  0  0  0  0  0  0  0  0
  152.8541  138.6418  155.2018 C   0  0  0  0  0  0  0  0  0  0  0  0
  152.2991  137.5895  154.5678 N   0  0  0  0  0  0  0  0  0  0  0  0
  150.9769  137.6430  154.3114 C   0  0  0  0  0  0  0  0  0  0  0  0
  150.1622  138.7370  154.6632 C   0  0  0  0  0  0  0  0  0  0  0  0
  148.7953  140.6431  156.7878 C   0  0  0  0  0  0  0  0  0  0  0  0
  147.7409  139.6740  156.2242 C   0  0  0  0  0  0  0  0  0  0  0  0
  147.0039  140.3034  155.0341 C   0  0  0  0  0  0  0  0  0  0  0  0
  147.9924  140.7697  153.9570 C   0  0  0  0  0  0  0  0  0  0  0  0
  149.0742  141.6965  154.5500 C   0  0  0  0  0  0  0  0  0  0  0  0
  151.9484  144.7177  160.3596 H   0  0  0  0  0  0  0  0  0  0  0  0
  152.7957  144.7224  161.8897 H   0  0  0  0  0  0  0  0  0  0  0  0
  151.2885  143.8174  161.7290 H   0  0  0  0  0  0  0  0  0  0  0  0
  154.0255  141.3314  161.7274 H   0  0  0  0  0  0  0  0  0  0  0  0
  152.5675  141.8325  162.5913 H   0  0  0  0  0  0  0  0  0  0  0  0
  154.0248  142.8304  162.6419 H   0  0  0  0  0  0  0  0  0  0  0  0
  152.7916  141.1046  159.7450 H   0  0  0  0  0  0  0  0  0  0  0  0
  151.2957  141.6830  160.4434 H   0  0  0  0  0  0  0  0  0  0  0  0
  151.0067  140.8364  158.0244 H   0  0  0  0  0  0  0  0  0  0  0  0
  150.2490  143.0938  156.4196 H   0  0  0  0  0  0  0  0  0  0  0  0
  151.6559  142.3039  155.7471 H   0  0  0  0  0  0  0  0  0  0  0  0
  152.6521  140.5706  156.1123 H   0  0  0  0  0  0  0  0  0  0  0  0
  153.9117  138.5717  155.4079 H   0  0  0  0  0  0  0  0  0  0  0  0
  150.5508  136.7827  153.8168 H   0  0  0  0  0  0  0  0  0  0  0  0
  149.1073  138.6937  154.4425 H   0  0  0  0  0  0  0  0  0  0  0  0
  149.2502  140.2159  157.6802 H   0  0  0  0  0  0  0  0  0  0  0  0
  148.2765  141.5354  157.1421 H   0  0  0  0  0  0  0  0  0  0  0  0
  148.2129  138.7396  155.9182 H   0  0  0  0  0  0  0  0  0  0  0  0
  147.0237  139.4147  157.0036 H   0  0  0  0  0  0  0  0  0  0  0  0
  146.2970  139.5899  154.6098 H   0  0  0  0  0  0  0  0  0  0  0  0
  146.4150  141.1542  155.3795 H   0  0  0  0  0  0  0  0  0  0  0  0
  148.4476  139.8999  153.4845 H   0  0  0  0  0  0  0  0  0  0  0  0
  147.4530  141.2933  153.1673 H   0  0  0  0  0  0  0  0  0  0  0  0
  148.5748  142.5993  154.9054 H   0  0  0  0  0  0  0  0  0  0  0  0
  149.7421  142.0452  153.7628 H   0  0  0  0  0  0  0  0  0  0  0  0
  1  2  1  0  0  0  0
  1 21  1  0  0  0  0
  1 22  1  0  0  0  0
  1 23  1  0  0  0  0
  2  3  1  0  0  0  0
  2  4  1  0  0  0  0
  3 24  1  0  0  0  0
  3 25  1  0  0  0  0
  3 26  1  0  0  0  0
  4  5  1  0  0  0  0
  4 27  1  0  0  0  0
  4 28  1  0  0  0  0
  5  6  2  0  0  0  0
  5  7  1  0  0  0  0
  7  8  1  0  0  0  0
  7 29  1  0  0  0  0
  8  9  1  0  0  0  0
  8 30  1  0  0  0  0
  8 31  1  0  0  0  0
  9 20  1  0  0  0  0
  9 10  1  0  0  0  0
  9 16  1  0  0  0  0
 10 15  1  0  0  0  0
 10 11  2  0  0  0  0
 11 12  1  0  0  0  0
 11 32  1  0  0  0  0
 12 13  2  0  0  0  0
 12 33  1  0  0  0  0
 13 14  1  0  0  0  0
 14 15  2  0  0  0  0
 14 34  1  0  0  0  0
 15 35  1  0  0  0  0
 16 17  1  0  0  0  0
 16 36  1  0  0  0  0
 16 37  1  0  0  0  0
 17 18  1  0  0  0  0
 17 38  1  0  0  0  0
 17 39  1  0  0  0  0
 18 19  1  0  0  0  0
 18 40  1  0  0  0  0
 18 41  1  0  0  0  0
 19 20  1  0  0  0  0
 19 42  1  0  0  0  0
 19 43  1  0  0  0  0
 20 44  1  0  0  0  0
 20 45  1  0  0  0  0
M  END
> <s_m_source_file>
AV-unprocessed.smi

> <i_m_source_file_index>
2790

> <i_lp_mmshare_version>
43012

> <i_f3d_flags>
0

> <s_epik_input>
W0NIM11OKFtDSDNdKVtDSDJdQyg9TylbTkhdW0NIMl1DMShbQ0gyXVtDSDJdW0NIMl1bQ0gyXVtDSDJdMSljMltjSF1bY0hdbltjSF1bY0hdMg==

> <s_epik_cmdline>
J2VwaWtfcHl0aG9uJywgJy1waCcsICc3LjAnLCAnLXRuJywgJzgnLCAnLW1hJywgJzIwMCcsICctbWV0YWxfYmluZGluZycsICctaW1hZScsICc8aW5maWxlLm1hZT4nLCAnLW9tYWUnLCAnPG91dGZpbGUubWFlPic=

> <r_epik_Ionization_Penalty>
1.73486

> <r_epik_Ionization_Penalty_Charging>
0

> <r_epik_Ionization_Penalty_Neutral>
1.73486

> <r_epik_State_Penalty>
1.84779

> <r_epik_Charging_Adjusted_Penalty>
1.84779

> <i_epik_Tot_Q>
0

> <i_epik_Tot_abs_Q>
0

> <r_epik_Metal_State_Penalty>
1.83713

> <b_epik_Metal_Only>
0

> <s_lp_Force_Field>
OPLS_2005

> <r_lp_Energy>
21.958

> <b_lp_Chiralities_Consistent>
1

> <s_lp_Variant>
AV-unprocessed.smi:2790-3

> <Gold.Version>
5.8.1

> <Gold.Id.Protein>
6NUR|6NUR_protein|mol2

> <Gold.PLP.Fitness>
45.9450

> <Gold.PLP.PLP>
-41.3225

> <Gold.PLP.part.hbond>
-1.0000

> <Gold.PLP.part.metal>
0.0000

> <Gold.PLP.part.buried>
-3.9738

> <Gold.PLP.part.nonpolar>
-36.8058

> <Gold.PLP.part.repulsive>
0.2117

> <Gold.PLP.ligand.clash>
0.0000

> <Gold.PLP.ligand.torsion>
0.3252

> <Gold.PLP.Chemscore.Hbond>
0.6864

> <Gold.PLP.Chemscore.CHOScore>
1.0437

> <Gold.PLP.Chemscore.Metal>
0.0000

> <Gold.Chemscore.Hbonds>
donor molecule, donor type, donor heavy atom, donor atom, acceptor molecule, acceptor atom, score
      P1  H 10752 10765       L1    13  0.69
      L1  C    14    34       P1  7948  0.55
      L1  C    14    34       P1  7949  0.50

> <Gold.PLP.Chemscore.Internal.Correction>
0.0825

> <Gold.Rescore>
     Score         DG    S(hbond)    S(metal)    S(lipo)     H(rot)  DE(clash)    DE(int)     intcor
     14.86     -16.38       0.89        0.00     101.63       1.55       0.01       1.52       ----

> <Gold.Chemscore.Fitness>
14.8607

> <Gold.Chemscore.DG>
-16.3843

> <Gold.Chemscore.ZeroCoef>
-5.4800

> <Gold.Chemscore.Hbond>
0.8930

> <Gold.Chemscore.Metal>
0.0000

> <Gold.Chemscore.Lipo>
101.6331

> <Gold.Chemscore.Internal_Hbond>
0.0000

> <Gold.Chemscore.DEClash>
0.0069

> <Gold.Chemscore.DEInternal>
1.5166

> <Gold.Chemscore.Rot>
1.5505

> <Gold.Chemscore.Internal.Correction>
   9.000000E+99

> <Gold.Chemscore.Hbonds>
donor molecule, donor type, donor heavy atom, donor atom, acceptor molecule, acceptor atom, score
      P1  H 10752 10765       L1    13  0.48

> <Gold.Chemscore.Hbond.Weighted>
-2.9825

> <Gold.Chemscore.Metal.Weighted>
-0.0000

> <Gold.Chemscore.Lipo.Weighted>
-11.8911

> <Gold.Chemscore.Internal_Hbond.Weighted>
0.0000

> <Gold.Chemscore.DEClash.Weighted>
0.0069

> <Gold.Chemscore.DEInternal.Weighted>
1.5166

> <Gold.Chemscore.Rot.Weighted>
3.9693

> <Gold.Chemscore.Internal.Correction.Weighted>
   9.000000E+99

> <Gold.Protein.RotatedTorsions>
[ 6907 6896 6895 6894 ] final -126.55 input  -60.11 | X-H torsion
[ 7974 7965 7964 7962 ] final -144.78 input  175.53 | X-H torsion
[ 8008 7997 7996 7995 ] final   -9.19 input   59.86 | X-H torsion
[ 10167 10162 10161 10158 ] final  116.64 input  -65.29 | X-H torsion
[ 10718 10713 10712 10709 ] final -121.45 input   66.30 | X-H torsion
[ 10763 10752 10751 10750 ] final  167.50 input  -60.55 | X-H torsion
[ 11005 11000 10999 10996 ] final  -45.26 input  -57.11 | X-H torsion

> <Gold.Protein.ActiveResidues>
 VAL166  LYS551  ARG553  GLY616  TRP617  ASP618  TYR619  PRO620  LYS621  CYS622 
 ASP623  PHE694  ASN695  SER759  ASP760  ASP761  ALA762  ILE779  LEU786  VAL792 
 PHE793  MET794  SER795  GLU796  ALA797  LYS798  CYS799  TRP800  GLU811  SER814 

> <Gold.Protein.RotatedAtoms>
  150.8980  133.7155  159.2886 H   0  0  0  0  0  0  0  0  0  0  0  0  # atno 6907 bound_to 6896
  151.4683  135.1042  159.9754 H   0  0  0  0  0  0  0  0  0  0  0  0  # atno 6908 bound_to 6896
  152.4860  133.8327  159.7167 H   0  0  0  0  0  0  0  0  0  0  0  0  # atno 6909 bound_to 6896
  144.8273  140.5666  143.5538 H   0  0  0  0  0  0  0  0  0  0  0  0  # atno 7974 bound_to 7965
  154.5670  140.2361  155.8249 H   0  0  0  0  0  0  0  0  0  0  0  0  # atno 8008 bound_to 7997
  156.2076  140.3035  155.9619 H   0  0  0  0  0  0  0  0  0  0  0  0  # atno 8009 bound_to 7997
  155.2783  140.0421  157.3004 H   0  0  0  0  0  0  0  0  0  0  0  0  # atno 8010 bound_to 7997
  139.6233  144.7104  151.2587 H   0  0  0  0  0  0  0  0  0  0  0  0  # atno 10167 bound_to 10162
  156.1338  130.6415  150.9664 H   0  0  0  0  0  0  0  0  0  0  0  0  # atno 10718 bound_to 10713
  154.3547  135.2753  155.2352 H   0  0  0  0  0  0  0  0  0  0  0  0  # atno 10763 bound_to 10752
  154.4566  135.5917  153.6231 H   0  0  0  0  0  0  0  0  0  0  0  0  # atno 10764 bound_to 10752
  152.9847  135.6055  154.3761 H   0  0  0  0  0  0  0  0  0  0  0  0  # atno 10765 bound_to 10752
  141.0504  133.6745  156.2989 H   0  0  0  0  0  0  0  0  0  0  0  0  # atno 11005 bound_to 11000
  145.4972  139.1485  143.3677 LP  0  0  0  0  0  0  0  0  0  0  0  0  # atno 17320 bound_to 7965
  146.2578  140.5111  142.8866 LP  0  0  0  0  0  0  0  0  0  0  0  0  # atno 17321 bound_to 7965
  140.7395  143.6614  150.8161 LP  0  0  0  0  0  0  0  0  0  0  0  0  # atno 17342 bound_to 10162
  140.0228  143.5524  152.2793 LP  0  0  0  0  0  0  0  0  0  0  0  0  # atno 17343 bound_to 10162
  157.6513  131.0896  150.8044 LP  0  0  0  0  0  0  0  0  0  0  0  0  # atno 17370 bound_to 10713
  156.8126  130.4957  149.5354 LP  0  0  0  0  0  0  0  0  0  0  0  0  # atno 17371 bound_to 10713
  140.6066  134.5501  157.5526 LP  0  0  0  0  0  0  0  0  0  0  0  0  # atno 17394 bound_to 11000
  139.9346  134.7900  156.0838 LP  0  0  0  0  0  0  0  0  0  0  0  0  # atno 17395 bound_to 11000

$$$$
