AV-unprocessed.smi:1208|AV-procd|sdf|5067|dock6
  -GOLD-   22720 4113D 1   1.00000     0.00000
 Structure written by MMmdl.
 36 37  0  0  0  0  0  0  0  0  1 V2000
  150.1471  142.1782  157.7337 C   0  0  0  0  0  0  0  0  0  0  0  0
  151.6350  141.9853  158.0691 C   0  0  2  0  0  0  0  0  0  0  0  0
  151.8390  140.6813  158.6913 N   0  0  0  0  0  0  0  0  0  0  0  0
  152.4098  139.6087  158.1176 C   0  0  0  0  0  0  0  0  0  0  0  0
  152.8103  139.6077  156.9544 O   0  0  0  0  0  0  0  0  0  0  0  0
  152.5699  138.3354  158.9670 C   0  0  0  0  0  0  0  0  0  0  0  0
  153.3288  138.5190  160.2153 N   0  0  0  0  0  0  0  0  0  0  0  0
  153.5600  139.8459  160.5457 N   0  0  0  0  0  0  0  0  0  0  0  0
  154.1918  140.1397  161.6314 C   0  0  0  0  0  0  0  0  0  0  0  0
  154.3944  141.4662  161.9228 O   0  0  0  0  0  0  0  0  0  0  0  0
  154.6746  139.1052  162.5194 C   0  0  0  0  0  0  0  0  0  0  0  0
  154.4452  137.8156  162.1888 C   0  0  0  0  0  0  0  0  0  0  0  0
  153.7247  137.4473  160.9688 C   0  0  0  0  0  0  0  0  0  0  0  0
  153.4843  136.2825  160.6540 O   0  0  0  0  0  0  0  0  0  0  0  0
  152.1602  143.0878  159.0086 C   0  0  1  0  0  0  0  0  0  0  0  0
  152.0804  144.5056  158.4385 C   0  0  0  0  0  0  0  0  0  0  0  0
  152.0918  145.3396  159.6985 C   0  0  0  0  0  0  0  0  0  0  0  0
  151.2478  144.4915  160.6464 C   0  0  0  0  0  0  0  0  0  0  0  0
  151.3861  143.1428  160.2042 O   0  0  0  0  0  0  0  0  0  0  0  0
  153.5386  141.8155  162.1179 H   0  0  0  0  0  0  0  0  0  0  0  0
  149.9740  143.1418  157.2541 H   0  0  0  0  0  0  0  0  0  0  0  0
  149.5293  142.1376  158.6312 H   0  0  0  0  0  0  0  0  0  0  0  0
  149.7925  141.4060  157.0504 H   0  0  0  0  0  0  0  0  0  0  0  0
  152.2105  142.0286  157.1426 H   0  0  0  0  0  0  0  0  0  0  0  0
  151.5376  140.5895  159.6506 H   0  0  0  0  0  0  0  0  0  0  0  0
  151.5791  137.9297  159.1776 H   0  0  0  0  0  0  0  0  0  0  0  0
  153.0615  137.5819  158.3493 H   0  0  0  0  0  0  0  0  0  0  0  0
  155.2061  139.3661  163.4228 H   0  0  0  0  0  0  0  0  0  0  0  0
  154.8006  137.0326  162.8421 H   0  0  0  0  0  0  0  0  0  0  0  0
  153.1942  142.8804  159.2902 H   0  0  0  0  0  0  0  0  0  0  0  0
  152.9036  144.7423  157.7633 H   0  0  0  0  0  0  0  0  0  0  0  0
  151.1425  144.6527  157.9011 H   0  0  0  0  0  0  0  0  0  0  0  0
  153.1106  145.4270  160.0780 H   0  0  0  0  0  0  0  0  0  0  0  0
  151.6929  146.3438  159.5540 H   0  0  0  0  0  0  0  0  0  0  0  0
  151.5590  144.6019  161.6853 H   0  0  0  0  0  0  0  0  0  0  0  0
  150.1958  144.7709  160.5768 H   0  0  0  0  0  0  0  0  0  0  0  0
  1  2  1  0  0  0  0
  1 21  1  0  0  0  0
  1 22  1  0  0  0  0
  1 23  1  0  0  0  0
  2  3  1  0  0  0  0
  2 15  1  0  0  0  0
  2 24  1  0  0  0  0
  3  4  1  0  0  0  0
  3 25  1  0  0  0  0
  4  5  2  0  0  0  0
  4  6  1  0  0  0  0
  6 26  1  0  0  0  0
  6 27  1  0  0  0  0
  6  7  1  0  0  0  0
  7  8  1  0  0  0  0
  7 13  1  0  0  0  0
  8  9  2  0  0  0  0
  9 10  1  0  0  0  0
  9 11  1  0  0  0  0
 10 20  1  0  0  0  0
 11 28  1  0  0  0  0
 11 12  2  0  0  0  0
 12 29  1  0  0  0  0
 12 13  1  0  0  0  0
 13 14  2  0  0  0  0
 15 19  1  0  0  0  0
 15 16  1  0  0  0  0
 15 30  1  0  0  0  0
 16 17  1  0  0  0  0
 16 31  1  0  0  0  0
 16 32  1  0  0  0  0
 17 18  1  0  0  0  0
 17 33  1  0  0  0  0
 17 34  1  0  0  0  0
 18 19  1  0  0  0  0
 18 35  1  0  0  0  0
 18 36  1  0  0  0  0
M  END
> <s_m_source_file>
AV-unprocessed.smi

> <i_m_source_file_index>
1208

> <i_lp_mmshare_version>
43012

> <i_f3d_flags>
0

> <s_epik_input>
TzFbQ0gyXVtDSDJdW0NIMl1bQ0BIXTFbQ0BIXShbQ0gzXSlbTkhdQyg9TylbQ0gyXW4yW25IXWMoPU8pW2NIXVtjSF1jMj1P

> <s_epik_cmdline>
J2VwaWtfcHl0aG9uJywgJy1waCcsICc3LjAnLCAnLXRuJywgJzgnLCAnLW1hJywgJzIwMCcsICctbWV0YWxfYmluZGluZycsICctaW1hZScsICc8aW5maWxlLm1hZT4nLCAnLW9tYWUnLCAnPG91dGZpbGUubWFlPic=

> <r_lp_tautomer_probability>
0.9996

> <r_epik_Ionization_Penalty>
2.12735

> <r_epik_Ionization_Penalty_Charging>
3.86665e-08

> <r_epik_Ionization_Penalty_Neutral>
2.12735

> <r_epik_State_Penalty>
1.70441

> <r_epik_Charging_Adjusted_Penalty>
1.70441

> <i_epik_Tot_Q>
0

> <i_epik_Tot_abs_Q>
0

> <r_epik_Metal_State_Penalty>
1.70441

> <b_epik_Metal_Only>
0

> <s_lp_Force_Field>
OPLS_2005

> <r_lp_Energy>
27.2877

> <b_lp_Chiralities_Consistent>
1

> <s_lp_Variant>
AV-unprocessed.smi:1208-7

> <Gold.Version>
5.8.1

> <Gold.Id.Protein>
6NUR|6NUR_protein|mol2

> <Gold.PLP.Fitness>
41.8876

> <Gold.PLP.PLP>
-36.3836

> <Gold.PLP.part.hbond>
-3.6090

> <Gold.PLP.part.metal>
0.0000

> <Gold.PLP.part.buried>
-5.3976

> <Gold.PLP.part.nonpolar>
-26.9464

> <Gold.PLP.part.repulsive>
0.1680

> <Gold.PLP.ligand.clash>
0.0000

> <Gold.PLP.ligand.torsion>
0.2550

> <Gold.PLP.Chemscore.Hbond>
2.0000

> <Gold.PLP.Chemscore.CHOScore>
0.0000

> <Gold.PLP.Chemscore.Metal>
0.0000

> <Gold.Chemscore.Hbonds>
donor molecule, donor type, donor heavy atom, donor atom, acceptor molecule, acceptor atom, score
      P1  H  6896  6909       L1    14  1.00
      P1  H  7997  8010       L1     5  1.00

> <Gold.PLP.Chemscore.Internal.Correction>
0.0141

> <Gold.Rescore>
     Score         DG    S(hbond)    S(metal)    S(lipo)     H(rot)  DE(clash)    DE(int)     intcor
     12.77     -14.73       1.94        0.00      81.23       2.63       0.06       1.90       ----

> <Gold.Chemscore.Fitness>
12.7726

> <Gold.Chemscore.DG>
-14.7297

> <Gold.Chemscore.ZeroCoef>
-5.4800

> <Gold.Chemscore.Hbond>
1.9369

> <Gold.Chemscore.Metal>
0.0000

> <Gold.Chemscore.Lipo>
81.2328

> <Gold.Chemscore.Internal_Hbond>
0.0000

> <Gold.Chemscore.DEClash>
0.0608

> <Gold.Chemscore.DEInternal>
1.8963

> <Gold.Chemscore.Rot>
2.6264

> <Gold.Chemscore.Internal.Correction>
   9.000000E+99

> <Gold.Chemscore.Hbonds>
donor molecule, donor type, donor heavy atom, donor atom, acceptor molecule, acceptor atom, score
      P1  H  6896  6909       L1    14  0.99
      P1  H  7997  8010       L1     5  0.88

> <Gold.Chemscore.Hbond.Weighted>
-6.4692

> <Gold.Chemscore.Metal.Weighted>
-0.0000

> <Gold.Chemscore.Lipo.Weighted>
-9.5042

> <Gold.Chemscore.Internal_Hbond.Weighted>
0.0000

> <Gold.Chemscore.DEClash.Weighted>
0.0608

> <Gold.Chemscore.DEInternal.Weighted>
1.8963

> <Gold.Chemscore.Rot.Weighted>
6.7237

> <Gold.Chemscore.Internal.Correction.Weighted>
   9.000000E+99

> <Gold.Protein.RotatedTorsions>
[ 6907 6896 6895 6894 ] final  167.02 input  -60.11 | X-H torsion
[ 7974 7965 7964 7962 ] final  100.14 input  175.53 | X-H torsion
[ 8008 7997 7996 7995 ] final   50.01 input   59.86 | X-H torsion
[ 10167 10162 10161 10158 ] final -120.10 input  -65.29 | X-H torsion
[ 10718 10713 10712 10709 ] final  -18.23 input   66.30 | X-H torsion
[ 10763 10752 10751 10750 ] final   31.96 input  -60.55 | X-H torsion
[ 11005 11000 10999 10996 ] final  -89.82 input  -57.11 | X-H torsion

> <Gold.Protein.ActiveResidues>
 VAL166  LYS551  ARG553  GLY616  TRP617  ASP618  TYR619  PRO620  LYS621  CYS622 
 ASP623  PHE694  ASN695  SER759  ASP760  ASP761  ALA762  ILE779  LEU786  VAL792 
 PHE793  MET794  SER795  GLU796  ALA797  LYS798  CYS799  TRP800  GLU811  SER814 

> <Gold.Protein.RotatedAtoms>
  151.8698  133.3473  159.3730 H   0  0  0  0  0  0  0  0  0  0  0  0  # atno 6907 bound_to 6896
  150.7156  134.5123  159.5623 H   0  0  0  0  0  0  0  0  0  0  0  0  # atno 6908 bound_to 6896
  152.2654  134.7990  160.0474 H   0  0  0  0  0  0  0  0  0  0  0  0  # atno 6909 bound_to 6896
  145.3895  139.2365  143.3360 H   0  0  0  0  0  0  0  0  0  0  0  0  # atno 7974 bound_to 7965
  155.4117  140.3442  155.4264 H   0  0  0  0  0  0  0  0  0  0  0  0  # atno 8008 bound_to 7997
  156.1444  140.1552  156.8901 H   0  0  0  0  0  0  0  0  0  0  0  0  # atno 8009 bound_to 7997
  154.4998  140.0818  156.7755 H   0  0  0  0  0  0  0  0  0  0  0  0  # atno 8010 bound_to 7997
  140.0395  143.5168  152.2137 H   0  0  0  0  0  0  0  0  0  0  0  0  # atno 10167 bound_to 10162
  156.5624  130.4729  149.6400 H   0  0  0  0  0  0  0  0  0  0  0  0  # atno 10718 bound_to 10713
  153.0287  135.6425  154.1281 H   0  0  0  0  0  0  0  0  0  0  0  0  # atno 10763 bound_to 10752
  154.1006  135.2860  155.3254 H   0  0  0  0  0  0  0  0  0  0  0  0  # atno 10764 bound_to 10752
  154.6401  135.5462  153.7842 H   0  0  0  0  0  0  0  0  0  0  0  0  # atno 10765 bound_to 10752
  141.1577  133.7654  156.9649 H   0  0  0  0  0  0  0  0  0  0  0  0  # atno 11005 bound_to 11000
  146.2804  140.4575  142.8778 LP  0  0  0  0  0  0  0  0  0  0  0  0  # atno 17320 bound_to 7965
  144.8450  140.6916  143.6205 LP  0  0  0  0  0  0  0  0  0  0  0  0  # atno 17321 bound_to 7965
  139.6023  144.7586  151.3143 LP  0  0  0  0  0  0  0  0  0  0  0  0  # atno 17342 bound_to 10162
  140.7266  143.6985  150.7864 LP  0  0  0  0  0  0  0  0  0  0  0  0  # atno 17343 bound_to 10162
  156.2787  130.7058  151.1876 LP  0  0  0  0  0  0  0  0  0  0  0  0  # atno 17370 bound_to 10713
  157.7365  131.0561  150.5407 LP  0  0  0  0  0  0  0  0  0  0  0  0  # atno 17371 bound_to 10713
  140.1168  134.9442  157.2145 LP  0  0  0  0  0  0  0  0  0  0  0  0  # atno 17394 bound_to 11000
  140.3123  134.3009  155.7264 LP  0  0  0  0  0  0  0  0  0  0  0  0  # atno 17395 bound_to 11000

$$$$
