AV-unprocessed.smi:1878|AV-procd|sdf|7629|dock7
  -GOLD-   22720 9353D 1   1.00000     0.00000
 Structure written by MMmdl.
 35 36  0  0  0  0  0  0  0  0  3 V2000
  150.4887  140.6690  156.6732 O   0  0  0  0  0  0  0  0  0  0  0  0
  150.1884  141.8397  156.4124 C   0  0  0  0  0  0  0  0  0  0  0  0
  150.7183  142.9710  156.9477 N   0  5  0  0  0  0  0  0  0  0  0  0
  150.4751  143.4347  158.3169 C   0  0  0  0  0  0  0  0  0  0  0  0
  151.7652  143.9996  158.9402 C   0  0  0  0  0  0  0  0  0  0  0  0
  152.7017  143.0507  158.9421 F   0  0  0  0  0  0  0  0  0  0  0  0
  152.2161  145.0371  158.2329 F   0  0  0  0  0  0  0  0  0  0  0  0
  151.5523  144.3857  160.1994 F   0  0  0  0  0  0  0  0  0  0  0  0
  149.2171  142.1108  155.5221 N   0  0  0  0  0  0  0  0  0  0  0  0
  148.4391  141.2134  154.7428 C   0  0  0  0  0  0  0  0  0  0  0  0
  148.9573  139.9214  154.5137 C   0  0  0  0  0  0  0  0  0  0  0  0
  148.2128  138.9931  153.7576 C   0  0  0  0  0  0  0  0  0  0  0  0
  146.9461  139.3681  153.2519 C   0  0  0  0  0  0  0  0  0  0  0  0
  146.1310  138.5277  152.4810 N   0  0  0  0  0  0  0  0  0  0  0  0
  145.7733  137.2569  153.0890 C   0  0  0  0  0  0  0  0  0  0  0  0
  145.2450  136.3948  151.9401 C   0  0  0  0  0  0  0  0  0  0  0  0
  145.8629  137.0049  150.6758 C   0  0  0  0  0  0  0  0  0  0  0  0
  146.6734  138.2056  151.1724 C   0  0  0  0  0  0  0  0  0  0  0  0
  146.4782  140.6093  153.5063 N   0  3  0  0  0  0  0  0  0  0  0  0
  147.1599  141.5282  154.2241 C   0  0  0  0  0  0  0  0  0  0  0  0
  149.7050  144.2072  158.3431 H   0  0  0  0  0  0  0  0  0  0  0  0
  150.1034  142.6279  158.9504 H   0  0  0  0  0  0  0  0  0  0  0  0
  148.9694  143.0863  155.4429 H   0  0  0  0  0  0  0  0  0  0  0  0
  149.9248  139.6441  154.9063 H   0  0  0  0  0  0  0  0  0  0  0  0
  148.6186  138.0103  153.5688 H   0  0  0  0  0  0  0  0  0  0  0  0
  146.6447  136.7822  153.5409 H   0  0  0  0  0  0  0  0  0  0  0  0
  145.0218  137.3915  153.8676 H   0  0  0  0  0  0  0  0  0  0  0  0
  145.5087  135.3446  152.0683 H   0  0  0  0  0  0  0  0  0  0  0  0
  144.1575  136.4603  151.8885 H   0  0  0  0  0  0  0  0  0  0  0  0
  146.4907  136.2945  150.1370 H   0  0  0  0  0  0  0  0  0  0  0  0
  145.0742  137.3322  149.9973 H   0  0  0  0  0  0  0  0  0  0  0  0
  146.5913  139.0545  150.4930 H   0  0  0  0  0  0  0  0  0  0  0  0
  147.7285  137.9401  151.2544 H   0  0  0  0  0  0  0  0  0  0  0  0
  146.6495  142.4697  154.3618 H   0  0  0  0  0  0  0  0  0  0  0  0
  145.5610  140.8661  153.1411 H   0  0  0  0  0  0  0  0  0  0  0  0
  1  2  2  0  0  0  0
  2  3  1  0  0  0  0
  2  9  1  0  0  0  0
  3  4  1  0  0  0  0
  4  5  1  0  0  0  0
  4 21  1  0  0  0  0
  4 22  1  0  0  0  0
  5  6  1  0  0  0  0
  5  7  1  0  0  0  0
  5  8  1  0  0  0  0
  9 10  1  0  0  0  0
  9 23  1  0  0  0  0
 10 20  1  0  0  0  0
 10 11  2  0  0  0  0
 11 12  1  0  0  0  0
 11 24  1  0  0  0  0
 12 13  2  0  0  0  0
 12 25  1  0  0  0  0
 13 14  1  0  0  0  0
 13 19  1  0  0  0  0
 14 18  1  0  0  0  0
 14 15  1  0  0  0  0
 15 16  1  0  0  0  0
 15 26  1  0  0  0  0
 15 27  1  0  0  0  0
 16 17  1  0  0  0  0
 16 28  1  0  0  0  0
 16 29  1  0  0  0  0
 17 18  1  0  0  0  0
 17 30  1  0  0  0  0
 17 31  1  0  0  0  0
 18 32  1  0  0  0  0
 18 33  1  0  0  0  0
 19 20  2  0  0  0  0
 19 35  1  0  0  0  0
 20 34  1  0  0  0  0
M  CHG  1   3  -1
M  CHG  1  19   1
M  END
> <s_m_source_file>
AV-unprocessed.smi

> <i_m_source_file_index>
1878

> <i_lp_mmshare_version>
43012

> <i_f3d_flags>
0

> <s_epik_input>
RkMoRikoRilbQ0gyXVtOSF1DKD1PKVtOSF1jMVtjSF1bY0hdYyhuW2NIXTEpTjJbQ0gyXVtDSDJdW0NIMl1bQ0gyXTI=

> <s_epik_cmdline>
J2VwaWtfcHl0aG9uJywgJy1waCcsICc3LjAnLCAnLXRuJywgJzgnLCAnLW1hJywgJzIwMCcsICctbWV0YWxfYmluZGluZycsICctaW1hZScsICc8aW5maWxlLm1hZT4nLCAnLW9tYWUnLCAnPG91dGZpbGUubWFlPic=

> <r_lp_tautomer_probability>
0.999994

> <r_epik_Ionization_Penalty>
8.03425

> <r_epik_Ionization_Penalty_Charging>
8.03425

> <r_epik_Ionization_Penalty_Neutral>
2.43273e-06

> <r_epik_State_Penalty>
7.63947

> <r_epik_Charging_Adjusted_Penalty>
15.6737

> <i_epik_Tot_Q>
0

> <i_epik_Tot_abs_Q>
2

> <r_epik_Metal_State_Penalty>
3.63831

> <b_epik_Metal_Only>
1

> <s_lp_Force_Field>
OPLS_2005

> <r_lp_Energy>
42.9348

> <b_lp_Chiralities_Consistent>
1

> <s_lp_Variant>
AV-unprocessed.smi:1878-4

> <Gold.Version>
5.8.1

> <Gold.Id.Protein>
6NUR|6NUR_protein|mol2

> <Gold.PLP.Fitness>
44.3823

> <Gold.PLP.PLP>
-37.5715

> <Gold.PLP.part.hbond>
-2.0000

> <Gold.PLP.part.metal>
0.0000

> <Gold.PLP.part.buried>
2.9406

> <Gold.PLP.part.nonpolar>
-42.3818

> <Gold.PLP.part.repulsive>
1.9088

> <Gold.PLP.ligand.clash>
0.0000

> <Gold.PLP.ligand.torsion>
0.9948

> <Gold.PLP.Chemscore.Hbond>
2.9175

> <Gold.PLP.Chemscore.CHOScore>
0.0000

> <Gold.PLP.Chemscore.Metal>
0.0000

> <Gold.Chemscore.Hbonds>
donor molecule, donor type, donor heavy atom, donor atom, acceptor molecule, acceptor atom, score
      L1  H     9    23       P1  8028  1.00
      L1  H    19    35       P1 10175  2.00

> <Gold.PLP.Chemscore.Internal.Correction>
0.0480

> <Gold.Rescore>
     Score         DG    S(hbond)    S(metal)    S(lipo)     H(rot)  DE(clash)    DE(int)     intcor
     11.86     -15.99       1.89        0.00      64.99       1.33       1.70       2.42       ----

> <Gold.Chemscore.Fitness>
11.8645

> <Gold.Chemscore.DG>
-15.9875

> <Gold.Chemscore.ZeroCoef>
-5.4800

> <Gold.Chemscore.Hbond>
1.8901

> <Gold.Chemscore.Metal>
0.0000

> <Gold.Chemscore.Lipo>
64.9886

> <Gold.Chemscore.Internal_Hbond>
0.0000

> <Gold.Chemscore.DEClash>
1.6994

> <Gold.Chemscore.DEInternal>
2.4236

> <Gold.Chemscore.Rot>
1.3317

> <Gold.Chemscore.Internal.Correction>
   9.000000E+99

> <Gold.Chemscore.Hbonds>
donor molecule, donor type, donor heavy atom, donor atom, acceptor molecule, acceptor atom, score
      L1  H     9    23       P1  8028  1.00
      L1  H    19    35       P1 10175  0.51

> <Gold.Chemscore.Hbond.Weighted>
-6.3130

> <Gold.Chemscore.Metal.Weighted>
-0.0000

> <Gold.Chemscore.Lipo.Weighted>
-7.6037

> <Gold.Chemscore.Internal_Hbond.Weighted>
0.0000

> <Gold.Chemscore.DEClash.Weighted>
1.6994

> <Gold.Chemscore.DEInternal.Weighted>
2.4236

> <Gold.Chemscore.Rot.Weighted>
3.4092

> <Gold.Chemscore.Internal.Correction.Weighted>
   9.000000E+99

> <Gold.Protein.RotatedTorsions>
[ 6907 6896 6895 6894 ] final -175.31 input  -60.11 | X-H torsion
[ 7974 7965 7964 7962 ] final  -91.25 input  175.53 | X-H torsion
[ 8008 7997 7996 7995 ] final   61.37 input   59.86 | X-H torsion
[ 10167 10162 10161 10158 ] final   84.40 input  -65.29 | X-H torsion
[ 10718 10713 10712 10709 ] final  105.01 input   66.30 | X-H torsion
[ 10763 10752 10751 10750 ] final  -52.03 input  -60.55 | X-H torsion
[ 11005 11000 10999 10996 ] final  164.47 input  -57.11 | X-H torsion

> <Gold.Protein.ActiveResidues>
 VAL166  LYS551  ARG553  GLY616  TRP617  ASP618  TYR619  PRO620  LYS621  CYS622 
 ASP623  PHE694  ASN695  SER759  ASP760  ASP761  ALA762  ILE779  LEU786  VAL792 
 PHE793  MET794  SER795  GLU796  ALA797  LYS798  CYS799  TRP800  GLU811  SER814 

> <Gold.Protein.RotatedAtoms>
  151.5865  133.3371  159.3018 H   0  0  0  0  0  0  0  0  0  0  0  0  # atno 6907 bound_to 6896
  150.8284  134.7529  159.6844 H   0  0  0  0  0  0  0  0  0  0  0  0  # atno 6908 bound_to 6896
  152.4371  134.5672  159.9962 H   0  0  0  0  0  0  0  0  0  0  0  0  # atno 6909 bound_to 6896
  145.4156  140.9548  143.2209 H   0  0  0  0  0  0  0  0  0  0  0  0  # atno 7974 bound_to 7965
  155.5973  140.3493  155.4583 H   0  0  0  0  0  0  0  0  0  0  0  0  # atno 8008 bound_to 7997
  156.0256  140.1263  157.0337 H   0  0  0  0  0  0  0  0  0  0  0  0  # atno 8009 bound_to 7997
  154.4332  140.1054  156.6011 H   0  0  0  0  0  0  0  0  0  0  0  0  # atno 8010 bound_to 7997
  139.9085  144.6286  150.8562 H   0  0  0  0  0  0  0  0  0  0  0  0  # atno 10167 bound_to 10162
  157.6720  131.0817  150.5792 H   0  0  0  0  0  0  0  0  0  0  0  0  # atno 10718 bound_to 10713
  154.1361  135.6512  153.4932 H   0  0  0  0  0  0  0  0  0  0  0  0  # atno 10763 bound_to 10752
  153.0180  135.5304  154.6952 H   0  0  0  0  0  0  0  0  0  0  0  0  # atno 10764 bound_to 10752
  154.6200  135.2963  155.0307 H   0  0  0  0  0  0  0  0  0  0  0  0  # atno 10765 bound_to 10752
  140.2462  134.8012  157.3458 H   0  0  0  0  0  0  0  0  0  0  0  0  # atno 11005 bound_to 11000
  144.8279  139.5678  143.6957 LP  0  0  0  0  0  0  0  0  0  0  0  0  # atno 17320 bound_to 7965
  146.2683  139.6572  142.9314 LP  0  0  0  0  0  0  0  0  0  0  0  0  # atno 17321 bound_to 7965
  140.7691  143.3383  151.2261 LP  0  0  0  0  0  0  0  0  0  0  0  0  # atno 17342 bound_to 10162
  139.6963  143.9607  152.2884 LP  0  0  0  0  0  0  0  0  0  0  0  0  # atno 17343 bound_to 10162
  156.6093  130.4375  149.5865 LP  0  0  0  0  0  0  0  0  0  0  0  0  # atno 17370 bound_to 10713
  156.2444  130.6870  151.1586 LP  0  0  0  0  0  0  0  0  0  0  0  0  # atno 17371 bound_to 10713
  140.1603  134.4737  155.7899 LP  0  0  0  0  0  0  0  0  0  0  0  0  # atno 17394 bound_to 11000
  141.2206  133.6898  156.7533 LP  0  0  0  0  0  0  0  0  0  0  0  0  # atno 17395 bound_to 11000

$$$$
