AV-unprocessed.smi:2078|AV-procd|sdf|8464|dock2
  -GOLD-   2272011163D 1   1.00000     0.00000
 Structure written by MMmdl.
 42 43  0  0  0  0  0  0  0  0  2 V2000
  150.1131  134.8627  155.2968 C   0  0  0  0  0  0  0  0  0  0  0  0
  150.9259  135.6657  156.2545 C   0  0  0  0  0  0  0  0  0  0  0  0
  150.6789  136.8229  156.9385 C   0  0  0  0  0  0  0  0  0  0  0  0
  151.8811  137.0268  157.6666 C   0  0  0  0  0  0  0  0  0  0  0  0
  152.0339  138.1490  158.5202 N   0  0  0  0  0  0  0  0  0  0  0  0
  153.1291  138.9110  158.6813 C   0  0  0  0  0  0  0  0  0  0  0  0
  154.2016  138.7477  158.0987 O   0  0  0  0  0  0  0  0  0  0  0  0
  152.9173  139.8909  159.5721 N   0  0  0  0  0  0  0  0  0  0  0  0
  153.9061  140.8908  159.9577 C   0  0  0  0  0  0  0  0  0  0  0  0
  153.3186  141.9189  160.9443 C   0  0  0  0  0  0  0  0  0  0  0  0
  152.6013  143.0171  160.2499 N   0  3  2  0  0  0  0  0  0  0  0  0
  153.2895  143.4724  159.0126 C   0  0  0  0  0  0  0  0  0  0  0  0
  152.4373  144.5013  158.2531 C   0  0  0  0  0  0  0  0  0  0  0  0
  152.0787  145.6918  159.1537 C   0  0  0  0  0  0  0  0  0  0  0  0
  151.4239  145.2227  160.4664 C   0  0  1  0  0  0  0  0  0  0  0  0
  149.9731  144.7473  160.2728 C   0  0  0  0  0  0  0  0  0  0  0  0
  152.2993  144.1561  161.1571 C   0  0  0  0  0  0  0  0  0  0  0  0
  152.7801  136.0793  157.4487 N   0  0  0  0  0  0  0  0  0  0  0  0
  152.1729  135.2024  156.5422 O   0  0  0  0  0  0  0  0  0  0  0  0
  149.1129  134.6858  155.6926 H   0  0  0  0  0  0  0  0  0  0  0  0
  150.5750  133.8938  155.1049 H   0  0  0  0  0  0  0  0  0  0  0  0
  150.0136  135.3838  154.3446 H   0  0  0  0  0  0  0  0  0  0  0  0
  149.7818  137.4241  156.9181 H   0  0  0  0  0  0  0  0  0  0  0  0
  151.2210  138.3984  159.0637 H   0  0  0  0  0  0  0  0  0  0  0  0
  152.0067  139.9563  160.0036 H   0  0  0  0  0  0  0  0  0  0  0  0
  154.7784  140.3862  160.3741 H   0  0  0  0  0  0  0  0  0  0  0  0
  154.2448  141.3973  159.0534 H   0  0  0  0  0  0  0  0  0  0  0  0
  152.6259  141.3924  161.6025 H   0  0  0  0  0  0  0  0  0  0  0  0
  154.0926  142.3397  161.5882 H   0  0  0  0  0  0  0  0  0  0  0  0
  154.2572  143.9052  159.2717 H   0  0  0  0  0  0  0  0  0  0  0  0
  153.4902  142.6284  158.3539 H   0  0  0  0  0  0  0  0  0  0  0  0
  152.9778  144.8533  157.3737 H   0  0  0  0  0  0  0  0  0  0  0  0
  151.5289  144.0257  157.8821 H   0  0  0  0  0  0  0  0  0  0  0  0
  152.9879  146.2482  159.3856 H   0  0  0  0  0  0  0  0  0  0  0  0
  151.4239  146.3849  158.6241 H   0  0  0  0  0  0  0  0  0  0  0  0
  151.3767  146.0865  161.1311 H   0  0  0  0  0  0  0  0  0  0  0  0
  149.9142  143.8634  159.6377 H   0  0  0  0  0  0  0  0  0  0  0  0
  149.3632  145.5262  159.8139 H   0  0  0  0  0  0  0  0  0  0  0  0
  149.5144  144.4952  161.2295 H   0  0  0  0  0  0  0  0  0  0  0  0
  151.7915  143.7964  162.0531 H   0  0  0  0  0  0  0  0  0  0  0  0
  153.2375  144.6035  161.4899 H   0  0  0  0  0  0  0  0  0  0  0  0
  151.7070  142.6405  159.9695 H   0  0  0  0  0  0  0  0  0  0  0  0
  1  2  1  0  0  0  0
  1 20  1  0  0  0  0
  1 21  1  0  0  0  0
  1 22  1  0  0  0  0
  2 19  1  0  0  0  0
  2  3  2  0  0  0  0
  3  4  1  0  0  0  0
  3 23  1  0  0  0  0
  4  5  1  0  0  0  0
  4 18  2  0  0  0  0
  5  6  1  0  0  0  0
  5 24  1  0  0  0  0
  6  7  2  0  0  0  0
  6  8  1  0  0  0  0
  8  9  1  0  0  0  0
  8 25  1  0  0  0  0
  9 10  1  0  0  0  0
  9 26  1  0  0  0  0
  9 27  1  0  0  0  0
 10 11  1  0  0  0  0
 10 28  1  0  0  0  0
 10 29  1  0  0  0  0
 11 17  1  0  0  0  0
 11 12  1  0  0  0  0
 11 42  1  0  0  0  0
 12 13  1  0  0  0  0
 12 30  1  0  0  0  0
 12 31  1  0  0  0  0
 13 14  1  0  0  0  0
 13 32  1  0  0  0  0
 13 33  1  0  0  0  0
 14 15  1  0  0  0  0
 14 34  1  0  0  0  0
 14 35  1  0  0  0  0
 15 16  1  0  0  0  0
 15 17  1  0  0  0  0
 15 36  1  0  0  0  0
 16 37  1  0  0  0  0
 16 38  1  0  0  0  0
 16 39  1  0  0  0  0
 17 40  1  0  0  0  0
 17 41  1  0  0  0  0
 18 19  1  0  0  0  0
M  CHG  1  11   1
M  END
> <s_m_source_file>
AV-unprocessed.smi

> <i_m_source_file_index>
2078

> <i_lp_mmshare_version>
43012

> <i_f3d_flags>
0

> <s_epik_input>
W0NIM11jMVtjSF1jKG5vMSlbTkhdQyg9TylbTkhdW0NIMl1bQ0gyXU4yW0NIMl1bQ0gyXVtDSDJdW0NAQEhdKFtDSDNdKVtDSDJdMg==

> <s_epik_cmdline>
J2VwaWtfcHl0aG9uJywgJy1waCcsICc3LjAnLCAnLXRuJywgJzgnLCAnLW1hJywgJzIwMCcsICctbWV0YWxfYmluZGluZycsICctaW1hZScsICc8aW5maWxlLm1hZT4nLCAnLW9tYWUnLCAnPG91dGZpbGUubWFlPic=

> <r_epik_Ionization_Penalty>
0.00216453

> <r_epik_Ionization_Penalty_Charging>
0.00212879

> <r_epik_Ionization_Penalty_Neutral>
3.57418e-05

> <r_epik_State_Penalty>
0.00146033

> <r_epik_Charging_Adjusted_Penalty>
0.00358912

> <i_epik_Tot_Q>
1

> <i_epik_Tot_abs_Q>
1

> <r_epik_Metal_State_Penalty>
0.0215827

> <b_epik_Metal_Only>
0

> <s_lp_Force_Field>
OPLS_2005

> <r_lp_Energy>
15.3902

> <b_lp_Chiralities_Consistent>
1

> <s_lp_Variant>
AV-unprocessed.smi:2078-2

> <Gold.Version>
5.8.1

> <Gold.Id.Protein>
6NUR|6NUR_protein|mol2

> <Gold.PLP.Fitness>
44.1271

> <Gold.PLP.PLP>
-39.2827

> <Gold.PLP.part.hbond>
-2.5946

> <Gold.PLP.part.metal>
0.0000

> <Gold.PLP.part.buried>
-5.2736

> <Gold.PLP.part.nonpolar>
-31.2349

> <Gold.PLP.part.repulsive>
0.2615

> <Gold.PLP.ligand.clash>
0.0000

> <Gold.PLP.ligand.torsion>
0.5857

> <Gold.PLP.Chemscore.Hbond>
2.0000

> <Gold.PLP.Chemscore.CHOScore>
0.0000

> <Gold.PLP.Chemscore.Metal>
0.0000

> <Gold.Chemscore.Hbonds>
donor molecule, donor type, donor heavy atom, donor atom, acceptor molecule, acceptor atom, score
      P1  H  7997  8009       L1     7  1.00
      P1  H 10752 10765       L1    19  0.95

> <Gold.PLP.Chemscore.Internal.Correction>
0.0158

> <Gold.Rescore>
     Score         DG    S(hbond)    S(metal)    S(lipo)     H(rot)  DE(clash)    DE(int)     intcor
     17.94     -19.59       1.81        0.00     103.34       1.57       0.11       1.54       ----

> <Gold.Chemscore.Fitness>
17.9439

> <Gold.Chemscore.DG>
-19.5929

> <Gold.Chemscore.ZeroCoef>
-5.4800

> <Gold.Chemscore.Hbond>
1.8085

> <Gold.Chemscore.Metal>
0.0000

> <Gold.Chemscore.Lipo>
103.3414

> <Gold.Chemscore.Internal_Hbond>
0.0000

> <Gold.Chemscore.DEClash>
0.1081

> <Gold.Chemscore.DEInternal>
1.5409

> <Gold.Chemscore.Rot>
1.5697

> <Gold.Chemscore.Internal.Correction>
   9.000000E+99

> <Gold.Chemscore.Hbonds>
donor molecule, donor type, donor heavy atom, donor atom, acceptor molecule, acceptor atom, score
      P1  H  7997  8009       L1     7  0.97
      P1  H 10752 10765       L1    19  0.18

> <Gold.Chemscore.Hbond.Weighted>
-6.0404

> <Gold.Chemscore.Metal.Weighted>
-0.0000

> <Gold.Chemscore.Lipo.Weighted>
-12.0909

> <Gold.Chemscore.Internal_Hbond.Weighted>
0.0000

> <Gold.Chemscore.DEClash.Weighted>
0.1081

> <Gold.Chemscore.DEInternal.Weighted>
1.5409

> <Gold.Chemscore.Rot.Weighted>
4.0185

> <Gold.Chemscore.Internal.Correction.Weighted>
   9.000000E+99

> <Gold.Protein.RotatedTorsions>
[ 6907 6896 6895 6894 ] final  -80.52 input  -60.11 | X-H torsion
[ 7974 7965 7964 7962 ] final -115.44 input  175.53 | X-H torsion
[ 8008 7997 7996 7995 ] final  130.67 input   59.86 | X-H torsion
[ 10167 10162 10161 10158 ] final  -98.43 input  -65.29 | X-H torsion
[ 10718 10713 10712 10709 ] final  136.39 input   66.30 | X-H torsion
[ 10763 10752 10751 10750 ] final -139.03 input  -60.55 | X-H torsion
[ 11005 11000 10999 10996 ] final  -22.83 input  -57.11 | X-H torsion

> <Gold.Protein.ActiveResidues>
 VAL166  LYS551  ARG553  GLY616  TRP617  ASP618  TYR619  PRO620  LYS621  CYS622 
 ASP623  PHE694  ASN695  SER759  ASP760  ASP761  ALA762  ILE779  LEU786  VAL792 
 PHE793  MET794  SER795  GLU796  ALA797  LYS798  CYS799  TRP800  GLU811  SER814 

> <Gold.Protein.RotatedAtoms>
  150.6928  134.3957  159.5095 H   0  0  0  0  0  0  0  0  0  0  0  0  # atno 6907 bound_to 6896
  152.1738  134.8809  160.0541 H   0  0  0  0  0  0  0  0  0  0  0  0  # atno 6908 bound_to 6896
  151.9825  133.3728  159.4150 H   0  0  0  0  0  0  0  0  0  0  0  0  # atno 6909 bound_to 6896
  145.1084  140.8596  143.3884 H   0  0  0  0  0  0  0  0  0  0  0  0  # atno 7974 bound_to 7965
  156.2958  140.2590  156.2801 H   0  0  0  0  0  0  0  0  0  0  0  0  # atno 8008 bound_to 7997
  154.9611  140.0392  157.2209 H   0  0  0  0  0  0  0  0  0  0  0  0  # atno 8009 bound_to 7997
  154.7946  140.2818  155.5971 H   0  0  0  0  0  0  0  0  0  0  0  0  # atno 8010 bound_to 7997
  140.2730  143.3331  152.0516 H   0  0  0  0  0  0  0  0  0  0  0  0  # atno 10167 bound_to 10162
  157.4471  131.1063  151.0076 H   0  0  0  0  0  0  0  0  0  0  0  0  # atno 10718 bound_to 10713
  154.8620  135.3594  154.5481 H   0  0  0  0  0  0  0  0  0  0  0  0  # atno 10763 bound_to 10752
  153.6100  135.7009  153.5355 H   0  0  0  0  0  0  0  0  0  0  0  0  # atno 10764 bound_to 10752
  153.3217  135.4149  155.1383 H   0  0  0  0  0  0  0  0  0  0  0  0  # atno 10765 bound_to 10752
  140.8694  133.7731  156.0168 H   0  0  0  0  0  0  0  0  0  0  0  0  # atno 11005 bound_to 11000
  145.0875  139.2914  143.5752 LP  0  0  0  0  0  0  0  0  0  0  0  0  # atno 17320 bound_to 7965
  146.3527  140.0401  142.8643 LP  0  0  0  0  0  0  0  0  0  0  0  0  # atno 17321 bound_to 7965
  139.4983  144.6643  151.6392 LP  0  0  0  0  0  0  0  0  0  0  0  0  # atno 17342 bound_to 10162
  140.5874  143.9840  150.6304 LP  0  0  0  0  0  0  0  0  0  0  0  0  # atno 17343 bound_to 10162
  157.0919  130.5946  149.5441 LP  0  0  0  0  0  0  0  0  0  0  0  0  # atno 17370 bound_to 10713
  155.9972  130.5043  150.7524 LP  0  0  0  0  0  0  0  0  0  0  0  0  # atno 17371 bound_to 10713
  140.8591  134.2862  157.5242 LP  0  0  0  0  0  0  0  0  0  0  0  0  # atno 17394 bound_to 11000
  139.8711  134.9508  156.4068 LP  0  0  0  0  0  0  0  0  0  0  0  0  # atno 17395 bound_to 11000

$$$$
