AV-unprocessed.smi:2557|AV-procd|sdf|10027|dock9
  -GOLD-   2272014 73D 1   1.00000     0.00000
 Structure written by MMmdl.
 38 40  0  0  0  0  0  0  0  0  2 V2000
  151.9025  137.0090  154.1446 O   0  5  0  0  0  0  0  0  0  0  0  0
  151.2556  137.3097  155.1757 C   0  0  0  0  0  0  0  0  0  0  0  0
  151.2824  138.4339  156.0047 C   0  0  0  0  0  0  0  0  0  0  0  0
  152.1737  139.5717  155.7264 C   0  0  0  0  0  0  0  0  0  0  0  0
  152.9651  139.6517  154.7877 O   0  0  0  0  0  0  0  0  0  0  0  0
  152.0724  140.5840  156.6094 N   0  0  0  0  0  0  0  0  0  0  0  0
  151.2000  140.5766  157.6998 C   0  0  0  0  0  0  0  0  0  0  0  0
  151.3211  141.8598  158.5232 C   0  0  0  0  0  0  0  0  0  0  0  0
  151.1553  143.1210  157.6449 C   0  0  0  0  0  0  0  0  0  0  0  0
  151.2322  144.4092  158.4815 C   0  0  0  0  0  0  0  0  0  0  0  0
  152.5362  144.4744  159.2911 C   0  0  0  0  0  0  0  0  0  0  0  0
  152.6992  143.2290  160.1754 C   0  0  0  0  0  0  0  0  0  0  0  0
  152.6347  141.9423  159.3367 C   0  0  0  0  0  0  0  0  0  0  0  0
  150.3961  139.6014  157.9986 N   0  0  0  0  0  0  0  0  0  0  0  0
  150.4423  138.5305  157.1369 N   0  0  0  0  0  0  0  0  0  0  0  0
  150.3710  136.1822  155.5284 C   0  0  0  0  0  0  0  0  0  0  0  0
  150.8936  134.8876  155.7412 C   0  0  0  0  0  0  0  0  0  0  0  0
  150.0064  133.8430  156.0668 C   0  0  0  0  0  0  0  0  0  0  0  0
  148.6721  134.0117  156.1846 N   0  0  0  0  0  0  0  0  0  0  0  0
  148.1745  135.2491  155.9731 C   0  0  0  0  0  0  0  0  0  0  0  0
  148.9747  136.3600  155.6424 C   0  0  0  0  0  0  0  0  0  0  0  0
  150.5010  141.8545  159.2438 H   0  0  0  0  0  0  0  0  0  0  0  0
  151.9309  143.1411  156.8776 H   0  0  0  0  0  0  0  0  0  0  0  0
  150.2016  143.0976  157.1161 H   0  0  0  0  0  0  0  0  0  0  0  0
  151.1553  145.2804  157.8302 H   0  0  0  0  0  0  0  0  0  0  0  0
  150.3792  144.4548  159.1597 H   0  0  0  0  0  0  0  0  0  0  0  0
  153.3858  144.5534  158.6116 H   0  0  0  0  0  0  0  0  0  0  0  0
  152.5480  145.3738  159.9074 H   0  0  0  0  0  0  0  0  0  0  0  0
  153.6472  143.2755  160.7121 H   0  0  0  0  0  0  0  0  0  0  0  0
  151.9150  143.2123  160.9333 H   0  0  0  0  0  0  0  0  0  0  0  0
  152.7249  141.0773  159.9954 H   0  0  0  0  0  0  0  0  0  0  0  0
  153.4950  141.9137  158.6660 H   0  0  0  0  0  0  0  0  0  0  0  0
  149.8135  137.7674  157.3626 H   0  0  0  0  0  0  0  0  0  0  0  0
  151.9542  134.7019  155.6567 H   0  0  0  0  0  0  0  0  0  0  0  0
  150.3791  132.8437  156.2368 H   0  0  0  0  0  0  0  0  0  0  0  0
  147.1044  135.3573  156.0702 H   0  0  0  0  0  0  0  0  0  0  0  0
  148.5284  137.3305  155.4816 H   0  0  0  0  0  0  0  0  0  0  0  0
  152.6628  141.3899  156.4672 H   0  0  0  0  0  0  0  0  0  0  0  0
  1  2  1  0  0  0  0
  2  3  2  0  0  0  0
  2 16  1  0  0  0  0
  3 15  1  0  0  0  0
  3  4  1  0  0  0  0
  4  5  2  0  0  0  0
  4  6  1  0  0  0  0
  6  7  1  0  0  0  0
  6 38  1  0  0  0  0
  7  8  1  0  0  0  0
  7 14  2  0  0  0  0
  8 13  1  0  0  0  0
  8  9  1  0  0  0  0
  8 22  1  0  0  0  0
  9 10  1  0  0  0  0
  9 23  1  0  0  0  0
  9 24  1  0  0  0  0
 10 11  1  0  0  0  0
 10 25  1  0  0  0  0
 10 26  1  0  0  0  0
 11 12  1  0  0  0  0
 11 27  1  0  0  0  0
 11 28  1  0  0  0  0
 12 13  1  0  0  0  0
 12 29  1  0  0  0  0
 12 30  1  0  0  0  0
 13 31  1  0  0  0  0
 13 32  1  0  0  0  0
 14 15  1  0  0  0  0
 15 33  1  0  0  0  0
 16 21  1  0  0  0  0
 16 17  2  0  0  0  0
 17 18  1  0  0  0  0
 17 34  1  0  0  0  0
 18 19  2  0  0  0  0
 18 35  1  0  0  0  0
 19 20  1  0  0  0  0
 20 21  2  0  0  0  0
 20 36  1  0  0  0  0
 21 37  1  0  0  0  0
M  CHG  1   1  -1
M  END
> <s_m_source_file>
AV-unprocessed.smi

> <i_m_source_file_index>
2557

> <i_lp_mmshare_version>
43012

> <i_f3d_flags>
0

> <s_epik_input>
W2NIXTFbY0hdbltjSF1bY0hdYzFDKD1PKUMyPUMoW09IXSlOPUMoW05IXVtOSF0yKVtDSF0zW0NIMl1bQ0gyXVtDSDJdW0NIMl1bQ0gyXTM=

> <s_epik_cmdline>
J2VwaWtfcHl0aG9uJywgJy1waCcsICc3LjAnLCAnLXRuJywgJzgnLCAnLW1hJywgJzIwMCcsICctbWV0YWxfYmluZGluZycsICctaW1hZScsICc8aW5maWxlLm1hZT4nLCAnLW9tYWUnLCAnPG91dGZpbGUubWFlPic=

> <r_epik_Ionization_Penalty>
0.0900605

> <r_epik_Ionization_Penalty_Charging>
0.000501436

> <r_epik_Ionization_Penalty_Neutral>
0.0895591

> <r_epik_State_Penalty>
0.142021

> <r_epik_Charging_Adjusted_Penalty>
0.142522

> <i_epik_Tot_Q>
-1

> <i_epik_Tot_abs_Q>
1

> <r_epik_Metal_State_Penalty>
0.0730028

> <b_epik_Metal_Only>
0

> <s_epik_Chemistry_Notes>
This compound has an imine and may undergo hydrolysis.

> <s_lp_Force_Field>
OPLS_2005

> <r_lp_Energy>
31.0156

> <b_lp_Chiralities_Consistent>
1

> <s_lp_Variant>
AV-unprocessed.smi:2557-1

> <Gold.Version>
5.8.1

> <Gold.Id.Protein>
6NUR|6NUR_protein|mol2

> <Gold.PLP.Fitness>
44.1853

> <Gold.PLP.PLP>
-34.6303

> <Gold.PLP.part.hbond>
-3.0000

> <Gold.PLP.part.metal>
0.0000

> <Gold.PLP.part.buried>
-5.0769

> <Gold.PLP.part.nonpolar>
-27.8222

> <Gold.PLP.part.repulsive>
0.6274

> <Gold.PLP.ligand.clash>
0.0000

> <Gold.PLP.ligand.torsion>
1.2625

> <Gold.PLP.Chemscore.Hbond>
3.3143

> <Gold.PLP.Chemscore.CHOScore>
0.0000

> <Gold.PLP.Chemscore.Metal>
0.0000

> <Gold.Chemscore.Hbonds>
donor molecule, donor type, donor heavy atom, donor atom, acceptor molecule, acceptor atom, score
      P1  H  7989  7998       L1     5  0.22
      P1  H  7997  8009       L1     5  1.00
      P1  H 10752 10763       L1     1  2.00

> <Gold.PLP.Chemscore.Internal.Correction>
2.1371

> <Gold.Rescore>
     Score         DG    S(hbond)    S(metal)    S(lipo)     H(rot)  DE(clash)    DE(int)     intcor
     17.44     -18.94       1.66        0.00      89.64       1.00       0.05       1.45       ----

> <Gold.Chemscore.Fitness>
17.4413

> <Gold.Chemscore.DG>
-18.9371

> <Gold.Chemscore.ZeroCoef>
-5.4800

> <Gold.Chemscore.Hbond>
1.6556

> <Gold.Chemscore.Metal>
0.0000

> <Gold.Chemscore.Lipo>
89.6363

> <Gold.Chemscore.Internal_Hbond>
0.0000

> <Gold.Chemscore.DEClash>
0.0500

> <Gold.Chemscore.DEInternal>
1.4458

> <Gold.Chemscore.Rot>
1.0000

> <Gold.Chemscore.Internal.Correction>
   9.000000E+99

> <Gold.Chemscore.Hbonds>
donor molecule, donor type, donor heavy atom, donor atom, acceptor molecule, acceptor atom, score
      P1  H  7989  7998       L1     5  0.04
      P1  H  7997  8009       L1     5  0.25
      P1  H 10752 10763       L1     1  0.95

> <Gold.Chemscore.Hbond.Weighted>
-5.5297

> <Gold.Chemscore.Metal.Weighted>
-0.0000

> <Gold.Chemscore.Lipo.Weighted>
-10.4875

> <Gold.Chemscore.Internal_Hbond.Weighted>
0.0000

> <Gold.Chemscore.DEClash.Weighted>
0.0500

> <Gold.Chemscore.DEInternal.Weighted>
1.4458

> <Gold.Chemscore.Rot.Weighted>
2.5600

> <Gold.Chemscore.Internal.Correction.Weighted>
   9.000000E+99

> <Gold.Protein.RotatedTorsions>
[ 6907 6896 6895 6894 ] final  168.17 input  -60.11 | X-H torsion
[ 7974 7965 7964 7962 ] final   -0.25 input  175.53 | X-H torsion
[ 8008 7997 7996 7995 ] final -125.31 input   59.86 | X-H torsion
[ 10167 10162 10161 10158 ] final -175.91 input  -65.29 | X-H torsion
[ 10718 10713 10712 10709 ] final  -40.61 input   66.30 | X-H torsion
[ 10763 10752 10751 10750 ] final   36.87 input  -60.55 | X-H torsion
[ 11005 11000 10999 10996 ] final  -48.20 input  -57.11 | X-H torsion

> <Gold.Protein.ActiveResidues>
 VAL166  LYS551  ARG553  GLY616  TRP617  ASP618  TYR619  PRO620  LYS621  CYS622 
 ASP623  PHE694  ASN695  SER759  ASP760  ASP761  ALA762  ILE779  LEU786  VAL792 
 PHE793  MET794  SER795  GLU796  ALA797  LYS798  CYS799  TRP800  GLU811  SER814 

> <Gold.Protein.RotatedAtoms>
  151.8519  133.3441  159.3675 H   0  0  0  0  0  0  0  0  0  0  0  0  # atno 6907 bound_to 6896
  150.7204  134.5291  159.5701 H   0  0  0  0  0  0  0  0  0  0  0  0  # atno 6908 bound_to 6896
  152.2786  134.7854  160.0452 H   0  0  0  0  0  0  0  0  0  0  0  0  # atno 6909 bound_to 6896
  146.2429  140.1241  142.8339 H   0  0  0  0  0  0  0  0  0  0  0  0  # atno 7974 bound_to 7965
  155.2112  140.0419  157.2933 H   0  0  0  0  0  0  0  0  0  0  0  0  # atno 8008 bound_to 7997
  154.6010  140.2452  155.7763 H   0  0  0  0  0  0  0  0  0  0  0  0  # atno 8009 bound_to 7997
  156.2321  140.2934  156.0225 H   0  0  0  0  0  0  0  0  0  0  0  0  # atno 8010 bound_to 7997
  139.5557  144.1996  152.1154 H   0  0  0  0  0  0  0  0  0  0  0  0  # atno 10167 bound_to 10162
  156.2794  130.4215  149.8353 H   0  0  0  0  0  0  0  0  0  0  0  0  # atno 10718 bound_to 10713
  153.0060  135.6294  154.2054 H   0  0  0  0  0  0  0  0  0  0  0  0  # atno 10763 bound_to 10752
  154.1797  135.2814  155.3057 H   0  0  0  0  0  0  0  0  0  0  0  0  # atno 10764 bound_to 10752
  154.5844  135.5637  153.7276 H   0  0  0  0  0  0  0  0  0  0  0  0  # atno 10765 bound_to 10752
  141.0687  133.6686  156.3407 H   0  0  0  0  0  0  0  0  0  0  0  0  # atno 11005 bound_to 11000
  145.0381  140.8924  143.5069 LP  0  0  0  0  0  0  0  0  0  0  0  0  # atno 17320 bound_to 7965
  145.1317  139.2628  143.5536 LP  0  0  0  0  0  0  0  0  0  0  0  0  # atno 17321 bound_to 7965
  140.1500  144.5123  150.6693 LP  0  0  0  0  0  0  0  0  0  0  0  0  # atno 17342 bound_to 10162
  140.6829  143.2335  151.5337 LP  0  0  0  0  0  0  0  0  0  0  0  0  # atno 17343 bound_to 10162
  156.5806  130.8464  151.3382 LP  0  0  0  0  0  0  0  0  0  0  0  0  # atno 17370 bound_to 10713
  157.7309  130.9693  150.1857 LP  0  0  0  0  0  0  0  0  0  0  0  0  # atno 17371 bound_to 10713
  140.5720  134.5831  157.5459 LP  0  0  0  0  0  0  0  0  0  0  0  0  # atno 17394 bound_to 11000
  139.9501  134.7631  156.0468 LP  0  0  0  0  0  0  0  0  0  0  0  0  # atno 17395 bound_to 11000

$$$$
