#       Name:                AV-unprocessed.smi:1100
#       Creating user name   scv26
#       Creation time:       Fri Mar 27 03:29:47 2020


#       File generated by GOLD software.
#

@<TRIPOS>MOLECULE
AV-unprocessed.smi:1100
    50    51     1
SMALL
NO_CHARGES


@<TRIPOS>ATOM
      1 ****        -1.7589   1.3343   1.5115 C.3            1 S1                 0.0000
      2 ****        -1.0869  -0.0179   1.8621 C.3            1 S1                 0.0000
      3 ****         0.4585   0.1739   1.8745 C.3            1 S1                 0.0000
      4 ****         0.9847   0.7450   0.6372 N.am           1 S1                 0.0000
      5 ****         1.1183   0.0851  -0.5222 C.2            1 S1                 0.0000
      6 ****         0.8342  -1.1047  -0.6555 O.2            1 S1                 0.0000
      7 ****         1.5753   0.9028  -1.4881 N.am           1 S1                 0.0000
      8 ****         1.8497   0.6168  -2.8329 C.2            1 S1                 0.0000
      9 ****         1.8383  -0.7098  -3.4327 C.2            1 S1                 0.0000
     10 ****         2.1165  -0.8786  -4.7407 C.2            1 S1                 0.0000
     11 ****         2.4409   0.2534  -5.6122 C.2            1 S1                 0.0000
     12 ****         2.6935   0.1110  -6.8089 O.2            1 S1                 0.0000
     13 ****         2.4479   1.4771  -5.0095 N.am           1 S1                 0.0000
     14 ****         2.7649   2.6734  -5.7933 C.3            1 S1                 0.0000
     15 ****         2.1598   1.6461  -3.6423 C.2            1 S1                 0.0000
     16 ****        -1.6140  -0.6115   3.1132 N.3            1 S1                 0.0000
     17 ****        -3.0697  -0.7962   3.0767 C.3            1 S1                 0.0000
     18 ****        -3.6251  -1.4424   4.3575 C.3            1 S1                 0.0000
     19 ****        -2.9820  -2.6889   4.5821 O.3            1 S1                 0.0000
     20 ****        -1.5738  -2.5462   4.7053 C.3            1 S1                 0.0000
     21 ****        -1.0020  -1.9082   3.4270 C.3            1 S1                 0.0000
     22 ****        -1.3376   1.7897   0.6163 H              1 S1                 0.0000
     23 ****        -1.6512   2.0517   2.3256 H              1 S1                 0.0000
     24 ****        -2.8208   1.2240   1.2967 H              1 S1                 0.0000
     25 ****        -1.3179  -0.7051   1.0467 H              1 S1                 0.0000
     26 ****         0.7433   0.8302   2.6974 H              1 S1                 0.0000
     27 ****         0.9854  -0.7660   2.0337 H              1 S1                 0.0000
     28 ****         1.2413   1.7210   0.6615 H              1 S1                 0.0000
     29 ****         1.7317   1.8636  -1.2211 H              1 S1                 0.0000
     30 ****         1.6229  -1.5925  -2.8533 H              1 S1                 0.0000
     31 ****         2.1063  -1.8748  -5.1578 H              1 S1                 0.0000
     32 ****         2.6704   3.5935  -5.2157 H              1 S1                 0.0000
     33 ****         2.0958   2.7615  -6.6506 H              1 S1                 0.0000
     34 ****         3.7892   2.6237  -6.1655 H              1 S1                 0.0000
     35 ****         2.2007   2.6684  -3.2942 H              1 S1                 0.0000
     36 ****        -3.5754   0.1606   2.9593 H              1 S1                 0.0000
     37 ****        -3.3431  -1.4079   2.2156 H              1 S1                 0.0000
     38 ****        -3.4781  -0.7869   5.2173 H              1 S1                 0.0000
     39 ****        -4.6982  -1.6088   4.2620 H              1 S1                 0.0000
     40 ****        -1.3367  -1.9386   5.5801 H              1 S1                 0.0000
     41 ****        -1.1303  -3.5285   4.8685 H              1 S1                 0.0000
     42 ****        -1.1361  -2.5938   2.5889 H              1 S1                 0.0000
     43 ****         0.0696  -1.8015   3.5817 H              1 S1                 0.0000
     44 ****         0.4852  -1.6257   0.1234 LP             1 S1                 0.0000
     45 ****         0.9523  -1.5506  -1.5428 LP             1 S1                 0.0000
     46 ****         2.6815  -0.8017  -7.2173 LP             1 S1                 0.0000
     47 ****         2.9106   0.9081  -7.3724 LP             1 S1                 0.0000
     48 ****        -1.3762   0.0495   3.8249 LP             1 S1                 0.0000
     49 ****        -3.1789  -3.2970   3.8131 LP             1 S1                 0.0000
     50 ****        -3.3409  -3.0902   5.4248 LP             1 S1                 0.0000
@<TRIPOS>BOND
    1    1    2 1     
    2    1   22 1     
    3    1   23 1     
    4    1   24 1     
    5    2    3 1     
    6    2   16 1     
    7    2   25 1     
    8    3    4 1     
    9    3   26 1     
   10    3   27 1     
   11    4    5 am    
   12    4   28 1     
   13    5    6 2     
   14    5    7 am    
   15    7    8 1     
   16    7   29 1     
   17    8   15 2     
   18    8    9 1     
   19    9   10 2     
   20    9   30 1     
   21   10   11 1     
   22   10   31 1     
   23   11   12 2     
   24   11   13 am    
   25   13   14 1     
   26   13   15 1     
   27   14   32 1     
   28   14   33 1     
   29   14   34 1     
   30   15   35 1     
   31   16   21 1     
   32   16   17 1     
   33   17   18 1     
   34   17   36 1     
   35   17   37 1     
   36   18   19 1     
   37   18   38 1     
   38   18   39 1     
   39   19   20 1     
   40   20   21 1     
   41   20   40 1     
   42   20   41 1     
   43   21   42 1     
   44   21   43 1     
   45    6   44 1     
   46    6   45 1     
   47   12   46 1     
   48   12   47 1     
   49   16   48 1     
   50   19   49 1     
   51   19   50 1     
@<TRIPOS>SUBSTRUCTURE
      1 S1             1
@<TRIPOS>SET
LONE_PAIRS      STATIC     ATOMS    <user>   **** ""
7 44 45 46 47 48 49 50
DONOR_HYDROGENS      STATIC     ATOMS    <user>   **** ""
2 28 29
ATOM$BLUE        STATIC     ATOMS    COLORGROUP SYSTEM
7 44 45 46 47 48 49 50
ATOM$RED        STATIC     ATOMS    COLORGROUP SYSTEM
2 28 29
