AV-unprocessed.smi:2797|AV-procd|sdf|10783|dock6
  -GOLD-   2272015213D 1   1.00000     0.00000
 Structure written by MMmdl.
 37 38  0  0  0  0  0  0  0  0  1 V2000
  147.7249  141.6996  153.8760 C   0  0  0  0  0  0  0  0  0  0  0  0
  147.3052  140.6175  154.6990 O   0  0  0  0  0  0  0  0  0  0  0  0
  147.5404  139.2924  154.2094 C   0  0  0  0  0  0  0  0  0  0  0  0
  146.7874  139.0310  152.8981 C   0  0  0  0  0  0  0  0  0  0  0  0
  146.9696  137.6529  152.4530 N   0  0  0  0  0  0  0  0  0  0  0  0
  145.9876  136.7876  152.1644 C   0  0  0  0  0  0  0  0  0  0  0  0
  144.7914  137.0484  152.2871 O   0  0  0  0  0  0  0  0  0  0  0  0
  146.4885  135.6121  151.7477 N   0  0  0  0  0  0  0  0  0  0  0  0
  145.7931  134.4394  151.3391 C   0  0  0  0  0  0  0  0  0  0  0  0
  144.6181  134.4639  150.5497 C   0  0  0  0  0  0  0  0  0  0  0  0
  144.0219  133.2416  150.1853 C   0  0  0  0  0  0  0  0  0  0  0  0
  144.5169  132.0390  150.5420 N   0  0  0  0  0  0  0  0  0  0  0  0
  145.6465  132.0111  151.2825 C   0  0  0  0  0  0  0  0  0  0  0  0
  146.1601  130.6301  151.6442 C   0  0  0  0  0  0  0  0  0  0  0  0
  146.3252  133.1795  151.7019 C   0  0  0  0  0  0  0  0  0  0  0  0
  147.7743  133.0682  152.6446 Cl  0  0  0  0  0  0  0  0  0  0  0  0
  149.0678  139.0884  154.2146 C   0  0  0  0  0  0  0  0  0  0  0  0
  148.9615  138.5378  155.6379 C   0  0  0  0  0  0  0  0  0  0  0  0
  147.4922  138.2376  155.3373 C   0  0  0  0  0  0  0  0  0  0  0  0
  147.4998  142.6359  154.3860 H   0  0  0  0  0  0  0  0  0  0  0  0
  147.2030  141.7205  152.9208 H   0  0  0  0  0  0  0  0  0  0  0  0
  148.7964  141.6888  153.6852 H   0  0  0  0  0  0  0  0  0  0  0  0
  145.7179  139.1751  153.0528 H   0  0  0  0  0  0  0  0  0  0  0  0
  147.0601  139.7475  152.1232 H   0  0  0  0  0  0  0  0  0  0  0  0
  147.9224  137.3441  152.3286 H   0  0  0  0  0  0  0  0  0  0  0  0
  147.4934  135.5229  151.7827 H   0  0  0  0  0  0  0  0  0  0  0  0
  144.1727  135.3850  150.2073 H   0  0  0  0  0  0  0  0  0  0  0  0
  143.1251  133.2302  149.5837 H   0  0  0  0  0  0  0  0  0  0  0  0
  146.2137  130.5167  152.7272 H   0  0  0  0  0  0  0  0  0  0  0  0
  147.1574  130.4775  151.2311 H   0  0  0  0  0  0  0  0  0  0  0  0
  145.5099  129.8450  151.2554 H   0  0  0  0  0  0  0  0  0  0  0  0
  149.3960  138.3316  153.5001 H   0  0  0  0  0  0  0  0  0  0  0  0
  149.6558  140.0021  154.1210 H   0  0  0  0  0  0  0  0  0  0  0  0
  149.5771  137.6603  155.8374 H   0  0  0  0  0  0  0  0  0  0  0  0
  149.0888  139.3076  156.4008 H   0  0  0  0  0  0  0  0  0  0  0  0
  146.8161  138.4359  156.1674 H   0  0  0  0  0  0  0  0  0  0  0  0
  147.3496  137.2253  154.9557 H   0  0  0  0  0  0  0  0  0  0  0  0
  1  2  1  0  0  0  0
  1 20  1  0  0  0  0
  1 21  1  0  0  0  0
  1 22  1  0  0  0  0
  2  3  1  0  0  0  0
  3 19  1  0  0  0  0
  3  4  1  0  0  0  0
  3 17  1  0  0  0  0
  4  5  1  0  0  0  0
  4 23  1  0  0  0  0
  4 24  1  0  0  0  0
  5  6  1  0  0  0  0
  5 25  1  0  0  0  0
  6  7  2  0  0  0  0
  6  8  1  0  0  0  0
  8  9  1  0  0  0  0
  8 26  1  0  0  0  0
  9 15  1  0  0  0  0
  9 10  2  0  0  0  0
 10 11  1  0  0  0  0
 10 27  1  0  0  0  0
 11 12  2  0  0  0  0
 11 28  1  0  0  0  0
 12 13  1  0  0  0  0
 13 14  1  0  0  0  0
 13 15  2  0  0  0  0
 14 29  1  0  0  0  0
 14 30  1  0  0  0  0
 14 31  1  0  0  0  0
 15 16  1  0  0  0  0
 17 18  1  0  0  0  0
 17 32  1  0  0  0  0
 17 33  1  0  0  0  0
 18 19  1  0  0  0  0
 18 34  1  0  0  0  0
 18 35  1  0  0  0  0
 19 36  1  0  0  0  0
 19 37  1  0  0  0  0
M  END
> <s_m_source_file>
AV-unprocessed.smi

> <i_m_source_file_index>
2797

> <i_lp_mmshare_version>
43012

> <i_f3d_flags>
0

> <s_epik_input>
W0NIMl0xW0NIMl1bQ0gyXUMxKE9bQ0gzXSlbQ0gyXVtOSF1DKD1PKVtOSF1jMltjSF1bY0hdbmMoW0NIM10pYzJDbA==

> <s_epik_cmdline>
J2VwaWtfcHl0aG9uJywgJy1waCcsICc3LjAnLCAnLXRuJywgJzgnLCAnLW1hJywgJzIwMCcsICctbWV0YWxfYmluZGluZycsICctaW1hZScsICc8aW5maWxlLm1hZT4nLCAnLW9tYWUnLCAnPG91dGZpbGUubWFlPic=

> <r_epik_Ionization_Penalty>
0.0099818

> <r_epik_Ionization_Penalty_Charging>
0

> <r_epik_Ionization_Penalty_Neutral>
0.0099818

> <r_epik_State_Penalty>
0.00758124

> <r_epik_Charging_Adjusted_Penalty>
0.00758124

> <i_epik_Tot_Q>
0

> <i_epik_Tot_abs_Q>
0

> <r_epik_Metal_State_Penalty>
0.00745574

> <b_epik_Metal_Only>
0

> <s_lp_Force_Field>
OPLS_2005

> <r_lp_Energy>
22.2651

> <b_lp_Chiralities_Consistent>
1

> <s_lp_Variant>
AV-unprocessed.smi:2797-1

> <Gold.Version>
5.8.1

> <Gold.Id.Protein>
6NUR|6NUR_protein|mol2

> <Gold.PLP.Fitness>
38.1210

> <Gold.PLP.PLP>
-29.8231

> <Gold.PLP.part.hbond>
-1.8206

> <Gold.PLP.part.metal>
0.0000

> <Gold.PLP.part.buried>
-3.8321

> <Gold.PLP.part.nonpolar>
-24.6701

> <Gold.PLP.part.repulsive>
1.0524

> <Gold.PLP.ligand.clash>
0.0000

> <Gold.PLP.ligand.torsion>
0.4899

> <Gold.PLP.Chemscore.Hbond>
2.0000

> <Gold.PLP.Chemscore.CHOScore>
1.0000

> <Gold.PLP.Chemscore.Metal>
0.0000

> <Gold.Chemscore.Hbonds>
donor molecule, donor type, donor heavy atom, donor atom, acceptor molecule, acceptor atom, score
      L1  H     5    25       P1  7948  1.00
      L1  H     8    26       P1  7948  1.00
      L1  C    11    28       P1 10186  1.00

> <Gold.PLP.Chemscore.Internal.Correction>
0.2776

> <Gold.Rescore>
     Score         DG    S(hbond)    S(metal)    S(lipo)     H(rot)  DE(clash)    DE(int)     intcor
     16.44     -17.42       1.94        0.00      77.59       1.41       0.43       0.55       ----

> <Gold.Chemscore.Fitness>
16.4378

> <Gold.Chemscore.DG>
-17.4155

> <Gold.Chemscore.ZeroCoef>
-5.4800

> <Gold.Chemscore.Hbond>
1.9356

> <Gold.Chemscore.Metal>
0.0000

> <Gold.Chemscore.Lipo>
77.5919

> <Gold.Chemscore.Internal_Hbond>
0.0000

> <Gold.Chemscore.DEClash>
0.4260

> <Gold.Chemscore.DEInternal>
0.5518

> <Gold.Chemscore.Rot>
1.4092

> <Gold.Chemscore.Internal.Correction>
   9.000000E+99

> <Gold.Chemscore.Hbonds>
donor molecule, donor type, donor heavy atom, donor atom, acceptor molecule, acceptor atom, score
      L1  H     5    25       P1  7948  0.91
      L1  H     8    26       P1  7948  0.92

> <Gold.Chemscore.Hbond.Weighted>
-6.4648

> <Gold.Chemscore.Metal.Weighted>
-0.0000

> <Gold.Chemscore.Lipo.Weighted>
-9.0782

> <Gold.Chemscore.Internal_Hbond.Weighted>
0.0000

> <Gold.Chemscore.DEClash.Weighted>
0.4260

> <Gold.Chemscore.DEInternal.Weighted>
0.5518

> <Gold.Chemscore.Rot.Weighted>
3.6075

> <Gold.Chemscore.Internal.Correction.Weighted>
   9.000000E+99

> <Gold.Protein.RotatedTorsions>
[ 6907 6896 6895 6894 ] final -123.72 input  -60.11 | X-H torsion
[ 7974 7965 7964 7962 ] final   71.52 input  175.53 | X-H torsion
[ 8008 7997 7996 7995 ] final  -54.76 input   59.86 | X-H torsion
[ 10167 10162 10161 10158 ] final   90.25 input  -65.29 | X-H torsion
[ 10718 10713 10712 10709 ] final  -78.84 input   66.30 | X-H torsion
[ 10763 10752 10751 10750 ] final  159.46 input  -60.55 | X-H torsion
[ 11005 11000 10999 10996 ] final  -31.64 input  -57.11 | X-H torsion

> <Gold.Protein.ActiveResidues>
 VAL166  LYS551  ARG553  GLY616  TRP617  ASP618  TYR619  PRO620  LYS621  CYS622 
 ASP623  PHE694  ASN695  SER759  ASP760  ASP761  ALA762  ILE779  LEU786  VAL792 
 PHE793  MET794  SER795  GLU796  ALA797  LYS798  CYS799  TRP800  GLU811  SER814 

> <Gold.Protein.RotatedAtoms>
  150.8698  133.7522  159.2964 H   0  0  0  0  0  0  0  0  0  0  0  0  # atno 6907 bound_to 6896
  151.5138  135.1064  159.9870 H   0  0  0  0  0  0  0  0  0  0  0  0  # atno 6908 bound_to 6896
  152.4687  133.7935  159.6970 H   0  0  0  0  0  0  0  0  0  0  0  0  # atno 6909 bound_to 6896
  145.7648  139.2817  143.1355 H   0  0  0  0  0  0  0  0  0  0  0  0  # atno 7974 bound_to 7965
  154.4173  140.1169  156.5367 H   0  0  0  0  0  0  0  0  0  0  0  0  # atno 8008 bound_to 7997
  155.6550  140.3496  155.4742 H   0  0  0  0  0  0  0  0  0  0  0  0  # atno 8009 bound_to 7997
  155.9761  140.1151  157.0758 H   0  0  0  0  0  0  0  0  0  0  0  0  # atno 8010 bound_to 7997
  139.8492  144.6602  150.9190 H   0  0  0  0  0  0  0  0  0  0  0  0  # atno 10167 bound_to 10162
  156.0107  130.4529  150.3558 H   0  0  0  0  0  0  0  0  0  0  0  0  # atno 10718 bound_to 10713
  154.2321  135.2778  155.2886 H   0  0  0  0  0  0  0  0  0  0  0  0  # atno 10763 bound_to 10752
  154.5615  135.5645  153.7015 H   0  0  0  0  0  0  0  0  0  0  0  0  # atno 10764 bound_to 10752
  153.0018  135.6299  154.2463 H   0  0  0  0  0  0  0  0  0  0  0  0  # atno 10765 bound_to 10752
  140.9485  133.7235  156.1184 H   0  0  0  0  0  0  0  0  0  0  0  0  # atno 11005 bound_to 11000
  146.0228  140.8332  142.9915 LP  0  0  0  0  0  0  0  0  0  0  0  0  # atno 17320 bound_to 7965
  144.6823  140.2654  143.7313 LP  0  0  0  0  0  0  0  0  0  0  0  0  # atno 17321 bound_to 7965
  140.7789  143.3843  151.1422 LP  0  0  0  0  0  0  0  0  0  0  0  0  # atno 17342 bound_to 10162
  139.7482  143.8819  152.3069 LP  0  0  0  0  0  0  0  0  0  0  0  0  # atno 17343 bound_to 10162
  157.1649  131.0354  151.2823 LP  0  0  0  0  0  0  0  0  0  0  0  0  # atno 17370 bound_to 10713
  157.4279  130.7474  149.6966 LP  0  0  0  0  0  0  0  0  0  0  0  0  # atno 17371 bound_to 10713
  140.7635  134.3912  157.5521 LP  0  0  0  0  0  0  0  0  0  0  0  0  # atno 17394 bound_to 11000
  139.8840  134.8976  156.2728 LP  0  0  0  0  0  0  0  0  0  0  0  0  # atno 17395 bound_to 11000

$$$$
