AV-unprocessed.smi:2224|AV-procd|sdf|8992|dock4
  -GOLD-   2272012203D 1   1.00000     0.00000
 Structure written by MMmdl.
 44 46  0  0  0  0  0  0  0  0  1 V2000
  145.2175  132.2505  150.3590 C   0  0  0  0  0  0  0  0  0  0  0  0
  144.8692  133.3744  151.3122 C   0  0  0  0  0  0  0  0  0  0  0  0
  143.5537  133.5380  151.7865 C   0  0  0  0  0  0  0  0  0  0  0  0
  143.2938  134.6027  152.6714 C   0  0  0  0  0  0  0  0  0  0  0  0
  141.9013  134.8384  153.2178 C   0  0  0  0  0  0  0  0  0  0  0  0
  144.2449  135.4692  153.0809 N   0  0  0  0  0  0  0  0  0  0  0  0
  145.5158  135.3213  152.6312 C   0  0  0  0  0  0  0  0  0  0  0  0
  146.5866  136.1785  152.9999 N   0  0  0  0  0  0  0  0  0  0  0  0
  146.6982  136.9414  154.1017 C   0  0  0  0  0  0  0  0  0  0  0  0
  145.8692  137.0094  155.0098 O   0  0  0  0  0  0  0  0  0  0  0  0
  147.8406  137.6420  154.0945 N   0  0  0  0  0  0  0  0  0  0  0  0
  148.2492  138.5729  155.1522 C   0  0  1  0  0  0  0  0  0  0  0  0
  149.7422  138.4794  155.4786 C   0  0  1  0  0  0  0  0  0  0  0  0
  150.8254  137.4905  155.2402 C   0  0  0  0  0  0  0  0  0  0  0  0
  151.9364  138.5078  154.8618 C   0  0  0  0  0  0  0  0  0  0  0  0
  151.2707  139.7876  154.7064 O   0  0  0  0  0  0  0  0  0  0  0  0
  149.9530  139.4417  154.3282 C   0  0  2  0  0  0  0  0  0  0  0  0
  148.5743  140.0454  154.6778 C   0  0  0  0  0  0  0  0  0  0  0  0
  147.7777  140.5922  153.4878 C   0  0  0  0  0  0  0  0  0  0  0  0
  148.5432  141.1530  155.7464 C   0  0  0  0  0  0  0  0  0  0  0  0
  145.8615  134.2787  151.7422 C   0  0  0  0  0  0  0  0  0  0  0  0
  144.3290  131.6920  150.0628 H   0  0  0  0  0  0  0  0  0  0  0  0
  145.9144  131.5577  150.8312 H   0  0  0  0  0  0  0  0  0  0  0  0
  145.6848  132.6492  149.4584 H   0  0  0  0  0  0  0  0  0  0  0  0
  142.7651  132.8659  151.4805 H   0  0  0  0  0  0  0  0  0  0  0  0
  141.2432  133.9975  152.9968 H   0  0  0  0  0  0  0  0  0  0  0  0
  141.4696  135.7361  152.7746 H   0  0  0  0  0  0  0  0  0  0  0  0
  141.9318  134.9691  154.3000 H   0  0  0  0  0  0  0  0  0  0  0  0
  147.3513  136.2239  152.3429 H   0  0  0  0  0  0  0  0  0  0  0  0
  148.4698  137.5298  153.3133 H   0  0  0  0  0  0  0  0  0  0  0  0
  147.6194  138.5343  156.0428 H   0  0  0  0  0  0  0  0  0  0  0  0
  149.9079  138.9444  156.4535 H   0  0  0  0  0  0  0  0  0  0  0  0
  151.0728  136.9084  156.1283 H   0  0  0  0  0  0  0  0  0  0  0  0
  150.5935  136.8123  154.4180 H   0  0  0  0  0  0  0  0  0  0  0  0
  152.6991  138.5859  155.6370 H   0  0  0  0  0  0  0  0  0  0  0  0
  152.4276  138.2187  153.9318 H   0  0  0  0  0  0  0  0  0  0  0  0
  149.9539  138.9656  153.3422 H   0  0  0  0  0  0  0  0  0  0  0  0
  148.1449  141.5701  153.1750 H   0  0  0  0  0  0  0  0  0  0  0  0
  146.7205  140.6996  153.7319 H   0  0  0  0  0  0  0  0  0  0  0  0
  147.8433  139.9400  152.6168 H   0  0  0  0  0  0  0  0  0  0  0  0
  149.0926  142.0347  155.4155 H   0  0  0  0  0  0  0  0  0  0  0  0
  148.9761  140.8518  156.6987 H   0  0  0  0  0  0  0  0  0  0  0  0
  147.5213  141.4685  155.9597 H   0  0  0  0  0  0  0  0  0  0  0  0
  146.8776  134.1714  151.3907 H   0  0  0  0  0  0  0  0  0  0  0  0
  1  2  1  0  0  0  0
  1 22  1  0  0  0  0
  1 23  1  0  0  0  0
  1 24  1  0  0  0  0
  2 21  1  0  0  0  0
  2  3  2  0  0  0  0
  3  4  1  0  0  0  0
  3 25  1  0  0  0  0
  4  5  1  0  0  0  0
  4  6  2  0  0  0  0
  5 26  1  0  0  0  0
  5 27  1  0  0  0  0
  5 28  1  0  0  0  0
  6  7  1  0  0  0  0
  7  8  1  0  0  0  0
  7 21  2  0  0  0  0
  8  9  1  0  0  0  0
  8 29  1  0  0  0  0
  9 10  2  0  0  0  0
  9 11  1  0  0  0  0
 11 12  1  0  0  0  0
 11 30  1  0  0  0  0
 12 18  1  0  0  0  0
 12 13  1  0  0  0  0
 12 31  1  0  0  0  0
 13 17  1  0  0  0  0
 13 14  1  0  0  0  0
 13 32  1  0  0  0  0
 14 15  1  0  0  0  0
 14 33  1  0  0  0  0
 14 34  1  0  0  0  0
 15 16  1  0  0  0  0
 15 35  1  0  0  0  0
 15 36  1  0  0  0  0
 16 17  1  0  0  0  0
 17 18  1  0  0  0  0
 17 37  1  0  0  0  0
 18 19  1  0  0  0  0
 18 20  1  0  0  0  0
 19 38  1  0  0  0  0
 19 39  1  0  0  0  0
 19 40  1  0  0  0  0
 20 41  1  0  0  0  0
 20 42  1  0  0  0  0
 20 43  1  0  0  0  0
 21 44  1  0  0  0  0
M  END
> <s_m_source_file>
AV-unprocessed.smi

> <i_m_source_file_index>
2224

> <i_lp_mmshare_version>
43012

> <i_f3d_flags>
0

> <s_epik_input>
W0NIM11jMVtjSF1jKFtDSDNdKW5jKFtjSF0xKVtOSF1DKD1PKVtOSF1bQ0BIXTJDKFtDSDNdKShbQ0gzXSlbQ0BIXShbQ0BASF0yMylPW0NIMl1bQ0gyXTM=

> <s_epik_cmdline>
J2VwaWtfcHl0aG9uJywgJy1waCcsICc3LjAnLCAnLXRuJywgJzgnLCAnLW1hJywgJzIwMCcsICctbWV0YWxfYmluZGluZycsICctaW1hZScsICc8aW5maWxlLm1hZT4nLCAnLW9tYWUnLCAnPG91dGZpbGUubWFlPic=

> <r_lp_tautomer_probability>
1

> <r_epik_Ionization_Penalty>
0.000276544

> <r_epik_Ionization_Penalty_Charging>
0

> <r_epik_Ionization_Penalty_Neutral>
0.000276544

> <r_epik_State_Penalty>
-0

> <r_epik_Charging_Adjusted_Penalty>
0

> <i_epik_Tot_Q>
0

> <i_epik_Tot_abs_Q>
0

> <r_epik_Metal_State_Penalty>
-0

> <b_epik_Metal_Only>
0

> <s_lp_Force_Field>
OPLS_2005

> <r_lp_Energy>
64.3875

> <b_lp_Chiralities_Consistent>
1

> <s_lp_Variant>
AV-unprocessed.smi:2224-2

> <Gold.Version>
5.8.1

> <Gold.Id.Protein>
6NUR|6NUR_protein|mol2

> <Gold.PLP.Fitness>
41.7495

> <Gold.PLP.PLP>
-33.6782

> <Gold.PLP.part.hbond>
-3.0000

> <Gold.PLP.part.metal>
0.0000

> <Gold.PLP.part.buried>
-4.8167

> <Gold.PLP.part.nonpolar>
-26.6480

> <Gold.PLP.part.repulsive>
0.1894

> <Gold.PLP.ligand.clash>
0.0000

> <Gold.PLP.ligand.torsion>
0.2698

> <Gold.PLP.Chemscore.Hbond>
2.7840

> <Gold.PLP.Chemscore.CHOScore>
0.0000

> <Gold.PLP.Chemscore.Metal>
0.0000

> <Gold.Chemscore.Hbonds>
donor molecule, donor type, donor heavy atom, donor atom, acceptor molecule, acceptor atom, score
      L1  H     8    29       P1  7948  1.00
      L1  H    11    30       P1  7948  0.85
      P1  H  7989  7998       L1    16  1.00

> <Gold.PLP.Chemscore.Internal.Correction>
0.2588

> <Gold.Rescore>
     Score         DG    S(hbond)    S(metal)    S(lipo)     H(rot)  DE(clash)    DE(int)     intcor
     20.69     -22.12       2.78        0.00      84.83       1.00       0.06       1.36       ----

> <Gold.Chemscore.Fitness>
20.6934

> <Gold.Chemscore.DG>
-22.1218

> <Gold.Chemscore.ZeroCoef>
-5.4800

> <Gold.Chemscore.Hbond>
2.7776

> <Gold.Chemscore.Metal>
0.0000

> <Gold.Chemscore.Lipo>
84.8260

> <Gold.Chemscore.Internal_Hbond>
0.0000

> <Gold.Chemscore.DEClash>
0.0639

> <Gold.Chemscore.DEInternal>
1.3645

> <Gold.Chemscore.Rot>
1.0000

> <Gold.Chemscore.Internal.Correction>
   9.000000E+99

> <Gold.Chemscore.Hbonds>
donor molecule, donor type, donor heavy atom, donor atom, acceptor molecule, acceptor atom, score
      L1  H     8    29       P1  7948  0.99
      L1  H    11    30       P1  7948  0.80
      P1  H  7989  7998       L1    16  0.25

> <Gold.Chemscore.Hbond.Weighted>
-9.2772

> <Gold.Chemscore.Metal.Weighted>
-0.0000

> <Gold.Chemscore.Lipo.Weighted>
-9.9246

> <Gold.Chemscore.Internal_Hbond.Weighted>
0.0000

> <Gold.Chemscore.DEClash.Weighted>
0.0639

> <Gold.Chemscore.DEInternal.Weighted>
1.3645

> <Gold.Chemscore.Rot.Weighted>
2.5600

> <Gold.Chemscore.Internal.Correction.Weighted>
   9.000000E+99

> <Gold.Protein.RotatedTorsions>
[ 6907 6896 6895 6894 ] final  158.83 input  -60.11 | X-H torsion
[ 7974 7965 7964 7962 ] final  159.70 input  175.53 | X-H torsion
[ 8008 7997 7996 7995 ] final   82.67 input   59.86 | X-H torsion
[ 10167 10162 10161 10158 ] final    8.08 input  -65.29 | X-H torsion
[ 10718 10713 10712 10709 ] final   -3.76 input   66.30 | X-H torsion
[ 10763 10752 10751 10750 ] final   46.90 input  -60.55 | X-H torsion
[ 11005 11000 10999 10996 ] final  113.07 input  -57.11 | X-H torsion

> <Gold.Protein.ActiveResidues>
 VAL166  LYS551  ARG553  GLY616  TRP617  ASP618  TYR619  PRO620  LYS621  CYS622 
 ASP623  PHE694  ASN695  SER759  ASP760  ASP761  ALA762  ILE779  LEU786  VAL792 
 PHE793  MET794  SER795  GLU796  ALA797  LYS798  CYS799  TRP800  GLU811  SER814 

> <Gold.Protein.RotatedAtoms>
  151.9946  133.3803  159.4157 H   0  0  0  0  0  0  0  0  0  0  0  0  # atno 6907 bound_to 6896
  150.6917  134.3900  159.5081 H   0  0  0  0  0  0  0  0  0  0  0  0  # atno 6908 bound_to 6896
  152.1638  134.8890  160.0590 H   0  0  0  0  0  0  0  0  0  0  0  0  # atno 6909 bound_to 6896
  144.7776  139.7654  143.6272 H   0  0  0  0  0  0  0  0  0  0  0  0  # atno 7974 bound_to 7965
  155.9137  140.3426  155.6119 H   0  0  0  0  0  0  0  0  0  0  0  0  # atno 8008 bound_to 7997
  155.7356  140.0801  157.2288 H   0  0  0  0  0  0  0  0  0  0  0  0  # atno 8009 bound_to 7997
  154.4059  140.1580  156.2546 H   0  0  0  0  0  0  0  0  0  0  0  0  # atno 8010 bound_to 7997
  140.6335  143.7939  150.7327 H   0  0  0  0  0  0  0  0  0  0  0  0  # atno 10167 bound_to 10162
  156.7713  130.5301  149.5767 H   0  0  0  0  0  0  0  0  0  0  0  0  # atno 10718 bound_to 10713
  152.9805  135.5993  154.3674 H   0  0  0  0  0  0  0  0  0  0  0  0  # atno 10763 bound_to 10752
  154.3351  135.2768  155.2454 H   0  0  0  0  0  0  0  0  0  0  0  0  # atno 10764 bound_to 10752
  154.4560  135.5978  153.6279 H   0  0  0  0  0  0  0  0  0  0  0  0  # atno 10765 bound_to 10752
  139.8943  134.9542  156.6683 H   0  0  0  0  0  0  0  0  0  0  0  0  # atno 11005 bound_to 11000
  146.1965  139.5234  142.9771 LP  0  0  0  0  0  0  0  0  0  0  0  0  # atno 17320 bound_to 7965
  145.6142  141.0334  143.1950 LP  0  0  0  0  0  0  0  0  0  0  0  0  # atno 17321 bound_to 7965
  140.1556  143.4320  152.2102 LP  0  0  0  0  0  0  0  0  0  0  0  0  # atno 17342 bound_to 10162
  139.5547  144.7364  151.4329 LP  0  0  0  0  0  0  0  0  0  0  0  0  # atno 17343 bound_to 10162
  156.1276  130.6155  151.0287 LP  0  0  0  0  0  0  0  0  0  0  0  0  # atno 17370 bound_to 10713
  157.6690  131.0865  150.7659 LP  0  0  0  0  0  0  0  0  0  0  0  0  # atno 17371 bound_to 10713
  140.7393  133.8991  155.8266 LP  0  0  0  0  0  0  0  0  0  0  0  0  # atno 17394 bound_to 11000
  141.0090  134.1046  157.4240 LP  0  0  0  0  0  0  0  0  0  0  0  0  # atno 17395 bound_to 11000

$$$$
