AV-unprocessed.smi:72|AV-procd|sdf|735|dock7
  -GOLD-   2262017 63D 1   1.00000     0.00000
 Structure written by MMmdl.
 28 29  0  0  0  0  0  0  0  0  2 V2000
  154.0886  138.1974  155.7143 N   0  0  0  0  0  0  0  0  0  0  0  0
  152.8655  138.4689  155.5721 C   0  0  0  0  0  0  0  0  0  0  0  0
  151.9915  137.5346  154.8960 N   0  0  0  0  0  0  0  0  0  0  0  0
  150.7375  137.8505  154.7871 C   0  0  0  0  0  0  0  0  0  0  0  0
  150.2087  139.0928  155.3330 N   0  0  0  0  0  0  0  0  0  0  0  0
  148.7428  139.4502  155.1886 C   0  0  2  0  0  0  0  0  0  0  0  0
  148.0517  138.3482  154.6878 O   0  0  0  0  0  0  0  0  0  0  0  0
  146.9499  138.8149  153.9248 C   0  0  2  0  0  0  0  0  0  0  0  0
  146.4611  137.7093  152.9763 C   0  0  0  0  0  0  0  0  0  0  0  0
  145.7605  138.2742  151.8886 O   0  0  0  0  0  0  0  0  0  0  0  0
  147.5412  140.0272  153.1976 C   0  0  1  0  0  0  0  0  0  0  0  0
  146.5218  140.9442  152.8545 O   0  0  0  0  0  0  0  0  0  0  0  0
  148.4873  140.6350  154.2286 C   0  0  2  0  0  0  0  0  0  0  0  0
  149.6479  141.1425  153.5947 O   0  0  0  0  0  0  0  0  0  0  0  0
  151.0941  140.0054  155.9644 C   0  0  0  0  0  0  0  0  0  0  0  0
  150.6349  141.0716  156.3742 O   0  0  0  0  0  0  0  0  0  0  0  0
  152.4096  139.6682  156.0745 N   0  5  0  0  0  0  0  0  0  0  0  0
  148.3666  139.6371  156.1956 H   0  0  0  0  0  0  0  0  0  0  0  0
  146.1563  139.1371  154.6029 H   0  0  0  0  0  0  0  0  0  0  0  0
  148.0864  139.7047  152.3087 H   0  0  0  0  0  0  0  0  0  0  0  0
  148.0077  141.4289  154.8033 H   0  0  0  0  0  0  0  0  0  0  0  0
  154.5950  138.9246  156.1979 H   0  0  0  0  0  0  0  0  0  0  0  0
  150.0088  137.2166  154.2805 H   0  0  0  0  0  0  0  0  0  0  0  0
  147.3122  137.1645  152.5667 H   0  0  0  0  0  0  0  0  0  0  0  0
  145.8350  136.9857  153.4994 H   0  0  0  0  0  0  0  0  0  0  0  0
  145.1431  138.9058  152.2246 H   0  0  0  0  0  0  0  0  0  0  0  0
  145.7489  140.4529  152.6206 H   0  0  0  0  0  0  0  0  0  0  0  0
  149.6533  140.8403  152.6988 H   0  0  0  0  0  0  0  0  0  0  0  0
  1  2  2  0  0  0  0
  1 22  1  0  0  0  0
  2 17  1  0  0  0  0
  2  3  1  0  0  0  0
  3  4  2  0  0  0  0
  4  5  1  0  0  0  0
  4 23  1  0  0  0  0
  5  6  1  0  0  0  0
  5 15  1  0  0  0  0
  6 18  1  0  0  0  0
  6 13  1  0  0  0  0
  6  7  1  0  0  0  0
  7  8  1  0  0  0  0
  8 19  1  0  0  0  0
  8  9  1  0  0  0  0
  8 11  1  0  0  0  0
  9 10  1  0  0  0  0
  9 24  1  0  0  0  0
  9 25  1  0  0  0  0
 10 26  1  0  0  0  0
 11 20  1  0  0  0  0
 11 12  1  0  0  0  0
 11 13  1  0  0  0  0
 12 27  1  0  0  0  0
 13 21  1  0  0  0  0
 13 14  1  0  0  0  0
 14 28  1  0  0  0  0
 15 16  2  0  0  0  0
 15 17  1  0  0  0  0
M  CHG  1  17  -1
M  END
> <s_m_source_file>
AV-unprocessed.smi

> <i_m_source_file_index>
72

> <i_lp_mmshare_version>
43012

> <i_f3d_flags>
0

> <s_epik_input>
W05IMl1jMW5bY0hdbihjKD1PKW4xKVtDQEBIXTJPW0NASF0oW0NIMl1bT0hdKVtDQEBIXShbT0hdKVtDQEhdMltPSF0=

> <s_epik_cmdline>
J2VwaWtfcHl0aG9uJywgJy1waCcsICc3LjAnLCAnLXRuJywgJzgnLCAnLW1hJywgJzIwMCcsICctbWV0YWxfYmluZGluZycsICctaW1hZScsICc8aW5maWxlLm1hZT4nLCAnLW9tYWUnLCAnPG91dGZpbGUubWFlPic=

> <r_lp_tautomer_probability>
7.17554e-07

> <r_epik_Ionization_Penalty>
12.8705

> <r_epik_Ionization_Penalty_Charging>
5.64144

> <r_epik_Ionization_Penalty_Neutral>
7.22905

> <r_epik_State_Penalty>
3.30104

> <r_epik_Charging_Adjusted_Penalty>
8.94249

> <i_epik_Tot_Q>
-1

> <i_epik_Tot_abs_Q>
1

> <r_epik_Metal_State_Penalty>
0.529074

> <b_epik_Metal_Only>
1

> <s_epik_Chemistry_Notes>
This compound contains an acetal/aminal-like group ( X-CH(R)-Y where X, Y are N, S, or O) that may be acid/base labile, releasing an aldehyde.

> <s_lp_Force_Field>
OPLS_2005

> <r_lp_Energy>
36.8699

> <b_lp_Chiralities_Consistent>
1

> <s_lp_Variant>
AV-unprocessed.smi:72-73

> <Gold.Version>
5.8.1

> <Gold.Id.Protein>
6NUR|6NUR_protein|mol2

> <Gold.PLP.Fitness>
50.3749

> <Gold.PLP.PLP>
-29.7106

> <Gold.PLP.part.hbond>
-9.9799

> <Gold.PLP.part.metal>
0.0000

> <Gold.PLP.part.buried>
-1.6115

> <Gold.PLP.part.nonpolar>
-19.9333

> <Gold.PLP.part.repulsive>
0.3421

> <Gold.PLP.ligand.clash>
0.0001

> <Gold.PLP.ligand.torsion>
0.3217

> <Gold.PLP.Chemscore.Hbond>
5.9536

> <Gold.PLP.Chemscore.CHOScore>
1.0500

> <Gold.PLP.Chemscore.Metal>
0.0000

> <Gold.Chemscore.Hbonds>
donor molecule, donor type, donor heavy atom, donor atom, acceptor molecule, acceptor atom, score
      L1  H    10    26       P1 10175  0.71
      L1  H    12    27       P1 10175  0.84
      L1  H    14    28       P1  7957  1.00
      P1  H  7989  7998       L1    14  0.05
      P1  H  7997  8008       L1    17  0.70
      P1  H 10752 10763       L1     3  0.33
      L1  C     4    23       P1  7948  0.37

> <Gold.PLP.Chemscore.Internal.Correction>
0.2970

> <Gold.Rescore>
     Score         DG    S(hbond)    S(metal)    S(lipo)     H(rot)  DE(clash)    DE(int)     intcor
      8.24      -9.42       3.47        0.00      23.14       4.04       0.54       0.64       ----

> <Gold.Chemscore.Fitness>
8.2393

> <Gold.Chemscore.DG>
-9.4188

> <Gold.Chemscore.ZeroCoef>
-5.4800

> <Gold.Chemscore.Hbond>
3.4654

> <Gold.Chemscore.Metal>
0.0000

> <Gold.Chemscore.Lipo>
23.1415

> <Gold.Chemscore.Internal_Hbond>
0.0000

> <Gold.Chemscore.DEClash>
0.5371

> <Gold.Chemscore.DEInternal>
0.6425

> <Gold.Chemscore.Rot>
4.0403

> <Gold.Chemscore.Internal.Correction>
   9.000000E+99

> <Gold.Chemscore.Hbonds>
donor molecule, donor type, donor heavy atom, donor atom, acceptor molecule, acceptor atom, score
      L1  H    10    26       P1 10175  0.71
      L1  H    12    27       P1 10175  0.51
      L1  H    14    28       P1  7957  1.00
      P1  H  7997  8008       L1    17  0.01
      P1  H 10752 10763       L1     3  0.31

> <Gold.Chemscore.Hbond.Weighted>
-11.5744

> <Gold.Chemscore.Metal.Weighted>
-0.0000

> <Gold.Chemscore.Lipo.Weighted>
-2.7076

> <Gold.Chemscore.Internal_Hbond.Weighted>
0.0000

> <Gold.Chemscore.DEClash.Weighted>
0.5371

> <Gold.Chemscore.DEInternal.Weighted>
0.6425

> <Gold.Chemscore.Rot.Weighted>
10.3431

> <Gold.Chemscore.Internal.Correction.Weighted>
   9.000000E+99

> <Gold.Protein.RotatedTorsions>
[ 6907 6896 6895 6894 ] final  117.48 input  -60.11 | X-H torsion
[ 7974 7965 7964 7962 ] final -113.75 input  175.53 | X-H torsion
[ 8008 7997 7996 7995 ] final  -48.83 input   59.86 | X-H torsion
[ 10167 10162 10161 10158 ] final  132.06 input  -65.29 | X-H torsion
[ 10718 10713 10712 10709 ] final  -60.54 input   66.30 | X-H torsion
[ 10763 10752 10751 10750 ] final   29.66 input  -60.55 | X-H torsion
[ 11005 11000 10999 10996 ] final -135.91 input  -57.11 | X-H torsion

> <Gold.Protein.ActiveResidues>
 VAL166  LYS551  ARG553  GLY616  TRP617  ASP618  TYR619  PRO620  LYS621  CYS622 
 ASP623  PHE694  ASN695  SER759  ASP760  ASP761  ALA762  ILE779  LEU786  VAL792 
 PHE793  MET794  SER795  GLU796  ALA797  LYS798  CYS799  TRP800  GLU811  SER814 

> <Gold.Protein.RotatedAtoms>
  152.4609  133.7820  159.6855 H   0  0  0  0  0  0  0  0  0  0  0  0  # atno 6907 bound_to 6896
  150.8553  133.7715  159.3017 H   0  0  0  0  0  0  0  0  0  0  0  0  # atno 6908 bound_to 6896
  151.5298  135.1071  159.9951 H   0  0  0  0  0  0  0  0  0  0  0  0  # atno 6909 bound_to 6896
  145.1283  140.8709  143.3773 H   0  0  0  0  0  0  0  0  0  0  0  0  # atno 7974 bound_to 7965
  154.4034  140.1312  156.4403 H   0  0  0  0  0  0  0  0  0  0  0  0  # atno 8008 bound_to 7997
  155.7465  140.3489  155.5109 H   0  0  0  0  0  0  0  0  0  0  0  0  # atno 8009 bound_to 7997
  155.8990  140.1016  157.1354 H   0  0  0  0  0  0  0  0  0  0  0  0  # atno 8010 bound_to 7997
  139.5356  144.6679  151.4797 H   0  0  0  0  0  0  0  0  0  0  0  0  # atno 10167 bound_to 10162
  156.0984  130.4189  150.0868 H   0  0  0  0  0  0  0  0  0  0  0  0  # atno 10718 bound_to 10713
  153.0417  135.6483  154.0925 H   0  0  0  0  0  0  0  0  0  0  0  0  # atno 10763 bound_to 10752
  154.0630  135.2886  155.3323 H   0  0  0  0  0  0  0  0  0  0  0  0  # atno 10764 bound_to 10752
  154.6645  135.5379  153.8124 H   0  0  0  0  0  0  0  0  0  0  0  0  # atno 10765 bound_to 10752
  140.8854  134.1879  157.4563 H   0  0  0  0  0  0  0  0  0  0  0  0  # atno 11005 bound_to 11000
  145.0664  139.3065  143.5854 LP  0  0  0  0  0  0  0  0  0  0  0  0  # atno 17320 bound_to 7965
  146.3516  140.0123  142.8666 LP  0  0  0  0  0  0  0  0  0  0  0  0  # atno 17321 bound_to 7965
  140.6561  143.8597  150.6836 LP  0  0  0  0  0  0  0  0  0  0  0  0  # atno 17342 bound_to 10162
  140.1977  143.3985  152.1815 LP  0  0  0  0  0  0  0  0  0  0  0  0  # atno 17343 bound_to 10162
  156.8861  130.9573  151.3594 LP  0  0  0  0  0  0  0  0  0  0  0  0  # atno 17370 bound_to 10713
  157.6149  130.8611  149.9012 LP  0  0  0  0  0  0  0  0  0  0  0  0  # atno 17371 bound_to 10713
  139.8724  134.9835  156.5202 LP  0  0  0  0  0  0  0  0  0  0  0  0  # atno 17394 bound_to 11000
  140.8411  133.8204  155.9076 LP  0  0  0  0  0  0  0  0  0  0  0  0  # atno 17395 bound_to 11000

$$$$
