AV-unprocessed.smi:2477|AV-procd|sdf|9762|dock8
  -GOLD-   2272013403D 1   1.00000     0.00000
 Structure written by MMmdl.
 51 53  0  0  0  0  0  0  0  0  1 V2000
  144.1696  143.7729  162.7212 C   0  0  0  0  0  0  0  0  0  0  0  0
  144.4186  144.0962  161.3139 N   0  0  0  0  0  0  0  0  0  0  0  0
  143.4000  144.7592  160.6089 C   0  0  0  0  0  0  0  0  0  0  0  0
  143.5419  145.0962  159.3195 C   0  0  0  0  0  0  0  0  0  0  0  0
  144.7792  144.7633  158.6552 C   0  0  0  0  0  0  0  0  0  0  0  0
  145.7726  144.1154  159.3145 C   0  0  0  0  0  0  0  0  0  0  0  0
  147.0104  143.7596  158.7509 N   0  0  0  0  0  0  0  0  0  0  0  0
  147.4599  142.5519  158.3646 C   0  0  0  0  0  0  0  0  0  0  0  0
  146.8390  141.4922  158.4406 O   0  0  0  0  0  0  0  0  0  0  0  0
  148.7182  142.6376  157.9087 N   0  0  0  0  0  0  0  0  0  0  0  0
  149.5470  141.5105  157.4877 C   0  0  1  0  0  0  0  0  0  0  0  0
  149.1161  141.0734  156.0741 C   0  0  0  0  0  0  0  0  0  0  0  0
  149.9945  139.9313  155.5398 C   0  0  0  0  0  0  0  0  0  0  0  0
  151.4810  140.3161  155.5644 C   0  0  0  0  0  0  0  0  0  0  0  0
  151.9154  140.7427  156.9743 C   0  0  0  0  0  0  0  0  0  0  0  0
  151.0460  141.8943  157.5090 C   0  0  2  0  0  0  0  0  0  0  0  0
  151.4598  142.1434  158.8479 O   0  0  0  0  0  0  0  0  0  0  0  0
  152.6823  142.8613  158.9758 C   0  0  0  0  0  0  0  0  0  0  0  0
  153.0503  143.0323  160.4523 C   0  0  0  0  0  0  0  0  0  0  0  0
  152.1543  144.1714  160.9460 C   0  0  0  0  0  0  0  0  0  0  0  0
  151.8395  145.0310  159.7117 C   0  0  0  0  0  0  0  0  0  0  0  0
  152.4411  144.2963  158.5060 C   0  0  0  0  0  0  0  0  0  0  0  0
  145.6068  143.7499  160.7350 C   0  0  0  0  0  0  0  0  0  0  0  0
  146.4822  143.1643  161.3775 O   0  0  0  0  0  0  0  0  0  0  0  0
  143.2009  144.1308  163.0714 H   0  0  0  0  0  0  0  0  0  0  0  0
  144.9306  144.2238  163.3598 H   0  0  0  0  0  0  0  0  0  0  0  0
  144.1929  142.6931  162.8745 H   0  0  0  0  0  0  0  0  0  0  0  0
  142.5056  144.9738  161.1753 H   0  0  0  0  0  0  0  0  0  0  0  0
  142.7498  145.6046  158.7902 H   0  0  0  0  0  0  0  0  0  0  0  0
  144.8788  145.0662  157.6259 H   0  0  0  0  0  0  0  0  0  0  0  0
  147.6664  144.5234  158.6738 H   0  0  0  0  0  0  0  0  0  0  0  0
  149.1509  143.5493  157.8845 H   0  0  0  0  0  0  0  0  0  0  0  0
  149.3907  140.6645  158.1601 H   0  0  0  0  0  0  0  0  0  0  0  0
  148.0722  140.7578  156.0833 H   0  0  0  0  0  0  0  0  0  0  0  0
  149.1753  141.9218  155.3902 H   0  0  0  0  0  0  0  0  0  0  0  0
  149.8377  139.0370  156.1442 H   0  0  0  0  0  0  0  0  0  0  0  0
  149.6936  139.6749  154.5237 H   0  0  0  0  0  0  0  0  0  0  0  0
  152.0881  139.4759  155.2262 H   0  0  0  0  0  0  0  0  0  0  0  0
  151.6614  141.1315  154.8628 H   0  0  0  0  0  0  0  0  0  0  0  0
  151.8463  139.8879  157.6486 H   0  0  0  0  0  0  0  0  0  0  0  0
  152.9637  141.0423  156.9638 H   0  0  0  0  0  0  0  0  0  0  0  0
  151.2065  142.7669  156.8720 H   0  0  0  0  0  0  0  0  0  0  0  0
  153.4775  142.3898  158.3965 H   0  0  0  0  0  0  0  0  0  0  0  0
  152.9328  142.1206  161.0385 H   0  0  0  0  0  0  0  0  0  0  0  0
  154.0950  143.3366  160.5289 H   0  0  0  0  0  0  0  0  0  0  0  0
  151.2280  143.7597  161.3486 H   0  0  0  0  0  0  0  0  0  0  0  0
  152.6292  144.7463  161.7414 H   0  0  0  0  0  0  0  0  0  0  0  0
  150.7598  145.1346  159.5963 H   0  0  0  0  0  0  0  0  0  0  0  0
  152.2561  146.0346  159.8026 H   0  0  0  0  0  0  0  0  0  0  0  0
  153.3973  144.7532  158.2480 H   0  0  0  0  0  0  0  0  0  0  0  0
  151.8074  144.3486  157.6199 H   0  0  0  0  0  0  0  0  0  0  0  0
  1  2  1  0  0  0  0
  1 25  1  0  0  0  0
  1 26  1  0  0  0  0
  1 27  1  0  0  0  0
  2 23  1  0  0  0  0
  2  3  1  0  0  0  0
  3  4  2  0  0  0  0
  3 28  1  0  0  0  0
  4  5  1  0  0  0  0
  4 29  1  0  0  0  0
  5  6  2  0  0  0  0
  5 30  1  0  0  0  0
  6  7  1  0  0  0  0
  6 23  1  0  0  0  0
  7  8  1  0  0  0  0
  7 31  1  0  0  0  0
  8  9  2  0  0  0  0
  8 10  1  0  0  0  0
 10 11  1  0  0  0  0
 10 32  1  0  0  0  0
 11 16  1  0  0  0  0
 11 12  1  0  0  0  0
 11 33  1  0  0  0  0
 12 13  1  0  0  0  0
 12 34  1  0  0  0  0
 12 35  1  0  0  0  0
 13 14  1  0  0  0  0
 13 36  1  0  0  0  0
 13 37  1  0  0  0  0
 14 15  1  0  0  0  0
 14 38  1  0  0  0  0
 14 39  1  0  0  0  0
 15 16  1  0  0  0  0
 15 40  1  0  0  0  0
 15 41  1  0  0  0  0
 16 17  1  0  0  0  0
 16 42  1  0  0  0  0
 17 18  1  0  0  0  0
 18 22  1  0  0  0  0
 18 19  1  0  0  0  0
 18 43  1  0  0  0  0
 19 20  1  0  0  0  0
 19 44  1  0  0  0  0
 19 45  1  0  0  0  0
 20 21  1  0  0  0  0
 20 46  1  0  0  0  0
 20 47  1  0  0  0  0
 21 22  1  0  0  0  0
 21 48  1  0  0  0  0
 21 49  1  0  0  0  0
 22 50  1  0  0  0  0
 22 51  1  0  0  0  0
 23 24  2  0  0  0  0
M  END
> <s_m_source_file>
AV-unprocessed.smi

> <i_m_source_file_index>
2477

> <i_lp_mmshare_version>
43012

> <i_f3d_flags>
0

> <s_epik_input>
W0NIM11uMVtjSF1bY0hdW2NIXWMoYzE9TylbTkhdQyg9TylbTkhdW0NAQEhdMltDSDJdW0NIMl1bQ0gyXVtDSDJdW0NASF0yT1tDSF0zW0NIMl1bQ0gyXVtDSDJdW0NIMl0z

> <s_epik_cmdline>
J2VwaWtfcHl0aG9uJywgJy1waCcsICc3LjAnLCAnLXRuJywgJzgnLCAnLW1hJywgJzIwMCcsICctbWV0YWxfYmluZGluZycsICctaW1hZScsICc8aW5maWxlLm1hZT4nLCAnLW9tYWUnLCAnPG91dGZpbGUubWFlPic=

> <r_lp_tautomer_probability>
1

> <r_epik_Ionization_Penalty>
2.40753e-05

> <r_epik_Ionization_Penalty_Charging>
4.84018e-06

> <r_epik_Ionization_Penalty_Neutral>
1.92352e-05

> <r_epik_State_Penalty>
-0

> <r_epik_Charging_Adjusted_Penalty>
4.84018e-06

> <i_epik_Tot_Q>
0

> <i_epik_Tot_abs_Q>
0

> <r_epik_Metal_State_Penalty>
-0

> <b_epik_Metal_Only>
0

> <s_lp_Force_Field>
OPLS_2005

> <r_lp_Energy>
41.4138

> <b_lp_Chiralities_Consistent>
1

> <s_lp_Variant>
AV-unprocessed.smi:2477-4

> <Gold.Version>
5.8.1

> <Gold.Id.Protein>
6NUR|6NUR_protein|mol2

> <Gold.PLP.Fitness>
51.3550

> <Gold.PLP.PLP>
-48.7167

> <Gold.PLP.part.hbond>
-4.1426

> <Gold.PLP.part.metal>
0.0000

> <Gold.PLP.part.buried>
-5.1801

> <Gold.PLP.part.nonpolar>
-38.7898

> <Gold.PLP.part.repulsive>
0.2313

> <Gold.PLP.ligand.clash>
0.0000

> <Gold.PLP.ligand.torsion>
1.1268

> <Gold.PLP.Chemscore.Hbond>
1.6136

> <Gold.PLP.Chemscore.CHOScore>
0.0000

> <Gold.PLP.Chemscore.Metal>
0.0000

> <Gold.Chemscore.Hbonds>
donor molecule, donor type, donor heavy atom, donor atom, acceptor molecule, acceptor atom, score
      L1  H     7    31       P1  8029  0.61
      P1  H  6933  6944       L1    24  0.62
      P1  H  6934  6946       L1     9  0.11

> <Gold.PLP.Chemscore.Internal.Correction>
0.0511

> <Gold.Rescore>
     Score         DG    S(hbond)    S(metal)    S(lipo)     H(rot)  DE(clash)    DE(int)     intcor
     21.19     -22.54       1.91        0.00     121.05       1.36       0.18       1.17       ----

> <Gold.Chemscore.Fitness>
21.1921

> <Gold.Chemscore.DG>
-22.5392

> <Gold.Chemscore.ZeroCoef>
-5.4800

> <Gold.Chemscore.Hbond>
1.9068

> <Gold.Chemscore.Metal>
0.0000

> <Gold.Chemscore.Lipo>
121.0492

> <Gold.Chemscore.Internal_Hbond>
0.0000

> <Gold.Chemscore.DEClash>
0.1801

> <Gold.Chemscore.DEInternal>
1.1671

> <Gold.Chemscore.Rot>
1.3564

> <Gold.Chemscore.Internal.Correction>
   9.000000E+99

> <Gold.Chemscore.Hbonds>
donor molecule, donor type, donor heavy atom, donor atom, acceptor molecule, acceptor atom, score
      L1  H     7    31       P1  8029  0.58
      P1  H  6933  6944       L1    24  0.62
      P1  H  6934  6946       L1     9  0.07

> <Gold.Chemscore.Hbond.Weighted>
-6.3689

> <Gold.Chemscore.Metal.Weighted>
-0.0000

> <Gold.Chemscore.Lipo.Weighted>
-14.1628

> <Gold.Chemscore.Internal_Hbond.Weighted>
0.0000

> <Gold.Chemscore.DEClash.Weighted>
0.1801

> <Gold.Chemscore.DEInternal.Weighted>
1.1671

> <Gold.Chemscore.Rot.Weighted>
3.4724

> <Gold.Chemscore.Internal.Correction.Weighted>
   9.000000E+99

> <Gold.Protein.RotatedTorsions>
[ 6907 6896 6895 6894 ] final  109.72 input  -60.11 | X-H torsion
[ 7974 7965 7964 7962 ] final -144.55 input  175.53 | X-H torsion
[ 8008 7997 7996 7995 ] final -105.65 input   59.86 | X-H torsion
[ 10167 10162 10161 10158 ] final -155.84 input  -65.29 | X-H torsion
[ 10718 10713 10712 10709 ] final  -52.82 input   66.30 | X-H torsion
[ 10763 10752 10751 10750 ] final -176.27 input  -60.55 | X-H torsion
[ 11005 11000 10999 10996 ] final   69.06 input  -57.11 | X-H torsion

> <Gold.Protein.ActiveResidues>
 VAL166  LYS551  ARG553  GLY616  TRP617  ASP618  TYR619  PRO620  LYS621  CYS622 
 ASP623  PHE694  ASN695  SER759  ASP760  ASP761  ALA762  ILE779  LEU786  VAL792 
 PHE793  MET794  SER795  GLU796  ALA797  LYS798  CYS799  TRP800  GLU811  SER814 

> <Gold.Protein.RotatedAtoms>
  152.5054  133.8904  159.7390 H   0  0  0  0  0  0  0  0  0  0  0  0  # atno 6907 bound_to 6896
  150.9344  133.6720  159.2810 H   0  0  0  0  0  0  0  0  0  0  0  0  # atno 6908 bound_to 6896
  151.4053  135.0982  159.9621 H   0  0  0  0  0  0  0  0  0  0  0  0  # atno 6909 bound_to 6896
  144.8290  140.5696  143.5528 H   0  0  0  0  0  0  0  0  0  0  0  0  # atno 7974 bound_to 7965
  154.9029  140.0412  157.1903 H   0  0  0  0  0  0  0  0  0  0  0  0  # atno 8008 bound_to 7997
  154.8426  140.2916  155.5629 H   0  0  0  0  0  0  0  0  0  0  0  0  # atno 8009 bound_to 7997
  156.2993  140.2480  156.3371 H   0  0  0  0  0  0  0  0  0  0  0  0  # atno 8010 bound_to 7997
  139.6898  143.9439  152.2379 H   0  0  0  0  0  0  0  0  0  0  0  0  # atno 10167 bound_to 10162
  156.1588  130.4150  149.9826 H   0  0  0  0  0  0  0  0  0  0  0  0  # atno 10718 bound_to 10713
  154.5744  135.2830  155.0795 H   0  0  0  0  0  0  0  0  0  0  0  0  # atno 10763 bound_to 10752
  154.2156  135.6400  153.5132 H   0  0  0  0  0  0  0  0  0  0  0  0  # atno 10764 bound_to 10752
  153.0068  135.5502  154.6377 H   0  0  0  0  0  0  0  0  0  0  0  0  # atno 10765 bound_to 10752
  139.9675  134.6956  156.0515 H   0  0  0  0  0  0  0  0  0  0  0  0  # atno 11005 bound_to 11000
  145.4938  139.1487  143.3695 LP  0  0  0  0  0  0  0  0  0  0  0  0  # atno 17320 bound_to 7965
  146.2594  140.5076  142.8860 LP  0  0  0  0  0  0  0  0  0  0  0  0  # atno 17321 bound_to 7965
  139.9252  144.6775  150.8420 LP  0  0  0  0  0  0  0  0  0  0  0  0  # atno 17342 bound_to 10162
  140.7679  143.3347  151.2335 LP  0  0  0  0  0  0  0  0  0  0  0  0  # atno 17343 bound_to 10162
  156.7662  130.9169  151.3643 LP  0  0  0  0  0  0  0  0  0  0  0  0  # atno 17370 bound_to 10713
  157.6716  130.9056  150.0053 LP  0  0  0  0  0  0  0  0  0  0  0  0  # atno 17371 bound_to 10713
  141.1355  133.6576  156.3581 LP  0  0  0  0  0  0  0  0  0  0  0  0  # atno 17394 bound_to 11000
  140.5365  134.6162  157.5366 LP  0  0  0  0  0  0  0  0  0  0  0  0  # atno 17395 bound_to 11000

$$$$
