AV-unprocessed.smi:1645|AV-procd|sdf|6611|dock3
  -GOLD-   22720 7313D 1   1.00000     0.00000
 Structure written by MMmdl.
 56 59  0  0  0  0  0  0  0  0  3 V2000
  146.9803  139.8427  153.9752 O   0  0  0  0  0  0  0  0  0  0  0  0
  147.8343  139.1327  153.4449 C   0  0  0  0  0  0  0  0  0  0  0  0
  149.1381  139.1137  153.7697 N   0  0  0  0  0  0  0  0  0  0  0  0
  149.8055  139.8912  154.7533 C   0  0  0  0  0  0  0  0  0  0  0  0
  151.0076  139.4933  155.3902 C   0  0  0  0  0  0  0  0  0  0  0  0
  151.5852  140.3305  156.3664 C   0  0  0  0  0  0  0  0  0  0  0  0
  150.9512  141.5491  156.6995 C   0  0  0  0  0  0  0  0  0  0  0  0
  151.4541  142.4433  157.6533 N   0  0  0  0  0  0  0  0  0  0  0  0
  151.9426  143.6882  157.0653 C   0  0  0  0  0  0  0  0  0  0  0  0
  152.6497  144.5527  158.1234 C   0  0  0  0  0  0  0  0  0  0  0  0
  151.7339  144.7967  159.3337 C   0  0  0  0  0  0  0  0  0  0  0  0
  151.2246  143.4586  159.8933 C   0  0  0  0  0  0  0  0  0  0  0  0
  150.5546  142.6210  158.7905 C   0  0  0  0  0  0  0  0  0  0  0  0
  149.7987  141.8842  156.0795 N   0  3  0  0  0  0  0  0  0  0  0  0
  149.2115  141.1103  155.1415 C   0  0  0  0  0  0  0  0  0  0  0  0
  147.5583  138.2500  152.4747 N   0  0  0  0  0  0  0  0  0  0  0  0
  146.2274  138.0223  151.9167 C   0  0  1  0  0  0  0  0  0  0  0  0
  146.2067  136.9723  150.7980 C   0  0  0  0  0  0  0  0  0  0  0  0
  144.8212  136.3087  150.8988 C   0  0  0  0  0  0  0  0  0  0  0  0
  144.1418  136.9442  152.0503 N   0  3  1  0  0  0  0  0  0  0  0  0
  143.0876  136.1421  152.7224 C   0  0  0  0  0  0  0  0  0  0  0  0
  143.6656  135.0751  153.6669 C   0  0  0  0  0  0  0  0  0  0  0  0
  144.6375  135.7088  154.6674 C   0  0  0  0  0  0  0  0  0  0  0  0
  145.7564  136.4314  153.9101 C   0  0  0  0  0  0  0  0  0  0  0  0
  145.1967  137.4950  152.9300 C   0  0  1  0  0  0  0  0  0  0  0  0
  149.7031  138.4136  153.3110 H   0  0  0  0  0  0  0  0  0  0  0  0
  151.4911  138.5567  155.1587 H   0  0  0  0  0  0  0  0  0  0  0  0
  152.5028  140.0343  156.8538 H   0  0  0  0  0  0  0  0  0  0  0  0
  152.6313  143.4645  156.2493 H   0  0  0  0  0  0  0  0  0  0  0  0
  151.1070  144.2425  156.6357 H   0  0  0  0  0  0  0  0  0  0  0  0
  153.5631  144.0543  158.4511 H   0  0  0  0  0  0  0  0  0  0  0  0
  152.9552  145.5035  157.6858 H   0  0  0  0  0  0  0  0  0  0  0  0
  152.2685  145.3502  160.1062 H   0  0  0  0  0  0  0  0  0  0  0  0
  150.8869  145.4154  159.0343 H   0  0  0  0  0  0  0  0  0  0  0  0
  152.0590  142.9000  160.3201 H   0  0  0  0  0  0  0  0  0  0  0  0
  150.5211  143.6353  160.7073 H   0  0  0  0  0  0  0  0  0  0  0  0
  149.6396  143.1134  158.4584 H   0  0  0  0  0  0  0  0  0  0  0  0
  150.2672  141.6468  159.1885 H   0  0  0  0  0  0  0  0  0  0  0  0
  148.2914  141.4953  154.7261 H   0  0  0  0  0  0  0  0  0  0  0  0
  148.3151  137.6992  152.0961 H   0  0  0  0  0  0  0  0  0  0  0  0
  145.8546  138.9600  151.4986 H   0  0  0  0  0  0  0  0  0  0  0  0
  146.3768  137.4234  149.8199 H   0  0  0  0  0  0  0  0  0  0  0  0
  146.9837  136.2221  150.9525 H   0  0  0  0  0  0  0  0  0  0  0  0
  144.2320  136.4530  149.9928 H   0  0  0  0  0  0  0  0  0  0  0  0
  144.9339  135.2352  151.0546 H   0  0  0  0  0  0  0  0  0  0  0  0
  142.4626  136.8268  153.2973 H   0  0  0  0  0  0  0  0  0  0  0  0
  142.4381  135.6857  151.9746 H   0  0  0  0  0  0  0  0  0  0  0  0
  142.8559  134.5763  154.2002 H   0  0  0  0  0  0  0  0  0  0  0  0
  144.1771  134.3010  153.0939 H   0  0  0  0  0  0  0  0  0  0  0  0
  144.1069  136.4124  155.3103 H   0  0  0  0  0  0  0  0  0  0  0  0
  145.0585  134.9429  155.3195 H   0  0  0  0  0  0  0  0  0  0  0  0
  146.4336  136.8987  154.6258 H   0  0  0  0  0  0  0  0  0  0  0  0
  146.3483  135.6927  153.3681 H   0  0  0  0  0  0  0  0  0  0  0  0
  144.7763  138.3186  153.5088 H   0  0  0  0  0  0  0  0  0  0  0  0
  143.6743  137.7496  151.6592 H   0  0  0  0  0  0  0  0  0  0  0  0
  149.3500  142.7650  156.3331 H   0  0  0  0  0  0  0  0  0  0  0  0
  1  2  2  0  0  0  0
  2  3  1  0  0  0  0
  2 16  1  0  0  0  0
  3  4  1  0  0  0  0
  3 26  1  0  0  0  0
  4 15  1  0  0  0  0
  4  5  2  0  0  0  0
  5  6  1  0  0  0  0
  5 27  1  0  0  0  0
  6  7  2  0  0  0  0
  6 28  1  0  0  0  0
  7  8  1  0  0  0  0
  7 14  1  0  0  0  0
  8 13  1  0  0  0  0
  8  9  1  0  0  0  0
  9 10  1  0  0  0  0
  9 29  1  0  0  0  0
  9 30  1  0  0  0  0
 10 11  1  0  0  0  0
 10 31  1  0  0  0  0
 10 32  1  0  0  0  0
 11 12  1  0  0  0  0
 11 33  1  0  0  0  0
 11 34  1  0  0  0  0
 12 13  1  0  0  0  0
 12 35  1  0  0  0  0
 12 36  1  0  0  0  0
 13 37  1  0  0  0  0
 13 38  1  0  0  0  0
 14 15  2  0  0  0  0
 14 56  1  0  0  0  0
 15 39  1  0  0  0  0
 16 17  1  0  0  0  0
 16 40  1  0  0  0  0
 17 25  1  0  0  0  0
 17 18  1  0  0  0  0
 17 41  1  0  0  0  0
 18 19  1  0  0  0  0
 18 42  1  0  0  0  0
 18 43  1  0  0  0  0
 19 20  1  0  0  0  0
 19 44  1  0  0  0  0
 19 45  1  0  0  0  0
 20 25  1  0  0  0  0
 20 21  1  0  0  0  0
 20 55  1  0  0  0  0
 21 22  1  0  0  0  0
 21 46  1  0  0  0  0
 21 47  1  0  0  0  0
 22 23  1  0  0  0  0
 22 48  1  0  0  0  0
 22 49  1  0  0  0  0
 23 24  1  0  0  0  0
 23 50  1  0  0  0  0
 23 51  1  0  0  0  0
 24 25  1  0  0  0  0
 24 52  1  0  0  0  0
 24 53  1  0  0  0  0
 25 54  1  0  0  0  0
M  CHG  1  14   1
M  CHG  1  20   1
M  END
> <s_m_source_file>
AV-unprocessed.smi

> <i_m_source_file_index>
1645

> <i_lp_mmshare_version>
43012

> <i_f3d_flags>
0

> <s_epik_input>
W0NIMl0xW0NIMl1bQ0gyXVtDSDJdW0NASF0oTjEyKVtDQEBIXShbQ0gyXVtDSDJdMilbTkhdQyg9TylbTkhdYzNbY0hdW2NIXWMobltjSF0zKU40W0NIMl1bQ0gyXVtDSDJdW0NIMl1bQ0gyXTQ=

> <s_epik_cmdline>
J2VwaWtfcHl0aG9uJywgJy1waCcsICc3LjAnLCAnLXRuJywgJzgnLCAnLW1hJywgJzIwMCcsICctbWV0YWxfYmluZGluZycsICctaW1hZScsICc8aW5maWxlLm1hZT4nLCAnLW9tYWUnLCAnPG91dGZpbGUubWFlPic=

> <r_lp_tautomer_probability>
0.999994

> <r_epik_Ionization_Penalty>
1.26838

> <r_epik_Ionization_Penalty_Charging>
1.26836

> <r_epik_Ionization_Penalty_Neutral>
1.95562e-05

> <r_epik_State_Penalty>
1.33841

> <r_epik_Charging_Adjusted_Penalty>
2.60677

> <i_epik_Tot_Q>
2

> <i_epik_Tot_abs_Q>
2

> <r_epik_Metal_State_Penalty>
1.40601

> <b_epik_Metal_Only>
0

> <s_lp_Force_Field>
OPLS_2005

> <r_lp_Energy>
62.3043

> <b_lp_Chiralities_Consistent>
1

> <s_lp_Variant>
AV-unprocessed.smi:1645-12

> <Gold.Version>
5.8.1

> <Gold.Id.Protein>
6NUR|6NUR_protein|mol2

> <Gold.PLP.Fitness>
53.8823

> <Gold.PLP.PLP>
-43.2029

> <Gold.PLP.part.hbond>
-4.9597

> <Gold.PLP.part.metal>
0.0000

> <Gold.PLP.part.buried>
1.4815

> <Gold.PLP.part.nonpolar>
-40.5812

> <Gold.PLP.part.repulsive>
0.5463

> <Gold.PLP.ligand.clash>
0.0000

> <Gold.PLP.ligand.torsion>
0.2173

> <Gold.PLP.Chemscore.Hbond>
3.6560

> <Gold.PLP.Chemscore.CHOScore>
0.0000

> <Gold.PLP.Chemscore.Metal>
0.0000

> <Gold.Chemscore.Hbonds>
donor molecule, donor type, donor heavy atom, donor atom, acceptor molecule, acceptor atom, score
      L1  H    14    56       P1  8028  1.40
      L1  H    16    40       P1  7948  0.99
      L1  H    20    55       P1 10171  0.61

> <Gold.PLP.Chemscore.Internal.Correction>
0.1461

> <Gold.Rescore>
     Score         DG    S(hbond)    S(metal)    S(lipo)     H(rot)  DE(clash)    DE(int)     intcor
     19.92     -25.55       2.53        0.00     125.13       1.18       3.56       2.08       ----

> <Gold.Chemscore.Fitness>
19.9187

> <Gold.Chemscore.DG>
-25.5501

> <Gold.Chemscore.ZeroCoef>
-5.4800

> <Gold.Chemscore.Hbond>
2.5329

> <Gold.Chemscore.Metal>
0.0000

> <Gold.Chemscore.Lipo>
125.1254

> <Gold.Chemscore.Internal_Hbond>
0.0000

> <Gold.Chemscore.DEClash>
3.5556

> <Gold.Chemscore.DEInternal>
2.0758

> <Gold.Chemscore.Rot>
1.1833

> <Gold.Chemscore.Internal.Correction>
   9.000000E+99

> <Gold.Chemscore.Hbonds>
donor molecule, donor type, donor heavy atom, donor atom, acceptor molecule, acceptor atom, score
      L1  H    14    56       P1  8028  0.68
      L1  H    16    40       P1  7948  0.91
      L1  H    20    55       P1 10171  0.55

> <Gold.Chemscore.Hbond.Weighted>
-8.4598

> <Gold.Chemscore.Metal.Weighted>
-0.0000

> <Gold.Chemscore.Lipo.Weighted>
-14.6397

> <Gold.Chemscore.Internal_Hbond.Weighted>
0.0000

> <Gold.Chemscore.DEClash.Weighted>
3.5556

> <Gold.Chemscore.DEInternal.Weighted>
2.0758

> <Gold.Chemscore.Rot.Weighted>
3.0293

> <Gold.Chemscore.Internal.Correction.Weighted>
   9.000000E+99

> <Gold.Protein.RotatedTorsions>
[ 6907 6896 6895 6894 ] final   22.00 input  -60.11 | X-H torsion
[ 7974 7965 7964 7962 ] final  134.50 input  175.53 | X-H torsion
[ 8008 7997 7996 7995 ] final  -91.88 input   59.86 | X-H torsion
[ 10167 10162 10161 10158 ] final  -29.70 input  -65.29 | X-H torsion
[ 10718 10713 10712 10709 ] final   11.00 input   66.30 | X-H torsion
[ 10763 10752 10751 10750 ] final  -16.25 input  -60.55 | X-H torsion
[ 11005 11000 10999 10996 ] final   30.06 input  -57.11 | X-H torsion

> <Gold.Protein.ActiveResidues>
 VAL166  LYS551  ARG553  GLY616  TRP617  ASP618  TYR619  PRO620  LYS621  CYS622 
 ASP623  PHE694  ASN695  SER759  ASP760  ASP761  ALA762  ILE779  LEU786  VAL792 
 PHE793  MET794  SER795  GLU796  ALA797  LYS798  CYS799  TRP800  GLU811  SER814 

> <Gold.Protein.RotatedAtoms>
  151.9204  135.0301  160.0521 H   0  0  0  0  0  0  0  0  0  0  0  0  # atno 6907 bound_to 6896
  152.2204  133.4975  159.5168 H   0  0  0  0  0  0  0  0  0  0  0  0  # atno 6908 bound_to 6896
  150.6998  134.1266  159.4097 H   0  0  0  0  0  0  0  0  0  0  0  0  # atno 6909 bound_to 6896
  144.9757  139.4557  143.5411 H   0  0  0  0  0  0  0  0  0  0  0  0  # atno 7974 bound_to 7965
  154.7162  140.0515  157.0597 H   0  0  0  0  0  0  0  0  0  0  0  0  # atno 8008 bound_to 7997
  155.0488  140.3177  155.4680 H   0  0  0  0  0  0  0  0  0  0  0  0  # atno 8009 bound_to 7997
  156.2804  140.2119  156.5613 H   0  0  0  0  0  0  0  0  0  0  0  0  # atno 8010 bound_to 7997
  140.7257  143.3907  151.1435 H   0  0  0  0  0  0  0  0  0  0  0  0  # atno 10167 bound_to 10162
  156.9892  130.6036  149.5684 H   0  0  0  0  0  0  0  0  0  0  0  0  # atno 10718 bound_to 10713
  153.5557  135.7011  153.5570 H   0  0  0  0  0  0  0  0  0  0  0  0  # atno 10763 bound_to 10752
  153.3475  135.4004  155.1620 H   0  0  0  0  0  0  0  0  0  0  0  0  # atno 10764 bound_to 10752
  154.8655  135.3757  154.5071 H   0  0  0  0  0  0  0  0  0  0  0  0  # atno 10765 bound_to 10752
  140.2984  134.2785  155.7759 H   0  0  0  0  0  0  0  0  0  0  0  0  # atno 11005 bound_to 11000
  146.3395  139.8999  142.8796 LP  0  0  0  0  0  0  0  0  0  0  0  0  # atno 17320 bound_to 7965
  145.2493  141.0038  143.3890 LP  0  0  0  0  0  0  0  0  0  0  0  0  # atno 17321 bound_to 7965
  139.7512  143.8776  152.3077 LP  0  0  0  0  0  0  0  0  0  0  0  0  # atno 17342 bound_to 10162
  139.8630  144.7107  150.9076 LP  0  0  0  0  0  0  0  0  0  0  0  0  # atno 17343 bound_to 10162
  156.0214  130.5308  150.8285 LP  0  0  0  0  0  0  0  0  0  0  0  0  # atno 17370 bound_to 10713
  157.5471  131.0942  150.9748 LP  0  0  0  0  0  0  0  0  0  0  0  0  # atno 17371 bound_to 10713
  141.2133  133.7630  156.9730 LP  0  0  0  0  0  0  0  0  0  0  0  0  # atno 17394 bound_to 11000
  140.1132  134.9464  157.2095 LP  0  0  0  0  0  0  0  0  0  0  0  0  # atno 17395 bound_to 11000

$$$$
