AV-unprocessed.smi:867|AV-procd|sdf|3995|dock10
  -GOLD-   22720 1473D 1   1.00000     0.00000
 Structure written by MMmdl.
 53 56  0  0  0  0  0  0  0  0  2 V2000
  150.2860  140.1126  154.3097 O   0  0  0  0  0  0  0  0  0  0  0  0
  149.4631  140.9723  154.6266 C   0  0  0  0  0  0  0  0  0  0  0  0
  149.6973  141.8644  155.6039 N   0  0  0  0  0  0  0  0  0  0  0  0
  150.9268  141.9557  156.3824 C   0  0  0  0  0  0  0  0  0  0  0  0
  150.7289  141.4267  157.8116 C   0  0  0  0  0  0  0  0  0  0  0  0
  151.1815  142.4277  158.8559 C   0  0  0  0  0  0  0  0  0  0  0  0
  152.1789  142.0925  159.7944 C   0  0  0  0  0  0  0  0  0  0  0  0
  152.5632  143.0544  160.7484 C   0  0  0  0  0  0  0  0  0  0  0  0
  151.9313  144.3138  160.7234 C   0  0  0  0  0  0  0  0  0  0  0  0
  150.9738  144.6452  159.8305 N   0  0  0  0  0  0  0  0  0  0  0  0
  150.6114  143.7170  158.9188 C   0  0  0  0  0  0  0  0  0  0  0  0
  148.2250  141.0491  154.0789 N   0  0  0  0  0  0  0  0  0  0  0  0
  147.4334  139.9197  153.5765 C   0  0  0  0  0  0  0  0  0  0  0  0
  146.3004  139.6020  154.5726 C   0  0  0  0  0  0  0  0  0  0  0  0
  145.4570  140.7978  154.8691 N   0  3  0  0  0  0  0  0  0  0  0  0
  144.3675  140.5610  155.8663 C   0  0  1  0  0  0  0  0  0  0  0  0
  144.9267  140.4379  157.3092 C   0  0  0  0  0  0  0  0  0  0  0  0
  144.1192  141.4771  158.1040 C   0  0  2  0  0  0  0  0  0  0  0  0
  142.6634  141.0028  158.2409 C   0  0  0  0  0  0  0  0  0  0  0  0
  142.1194  141.1870  156.8140 C   0  0  0  0  0  0  0  0  0  0  0  0
  143.3431  141.7187  156.0405 C   0  0  1  0  0  0  0  0  0  0  0  0
  143.9996  142.6075  157.0907 C   0  0  0  0  0  0  0  0  0  0  0  0
  146.2852  141.9858  155.2317 C   0  0  0  0  0  0  0  0  0  0  0  0
  147.3942  142.2475  154.1999 C   0  0  0  0  0  0  0  0  0  0  0  0
  148.9647  142.5198  155.8335 H   0  0  0  0  0  0  0  0  0  0  0  0
  151.6928  141.3708  155.8723 H   0  0  0  0  0  0  0  0  0  0  0  0
  151.2850  142.9865  156.4007 H   0  0  0  0  0  0  0  0  0  0  0  0
  149.6790  141.1870  157.9856 H   0  0  0  0  0  0  0  0  0  0  0  0
  151.2836  140.4971  157.9469 H   0  0  0  0  0  0  0  0  0  0  0  0
  152.6405  141.1159  159.7861 H   0  0  0  0  0  0  0  0  0  0  0  0
  153.3231  142.8323  161.4826 H   0  0  0  0  0  0  0  0  0  0  0  0
  152.2015  145.0746  161.4407 H   0  0  0  0  0  0  0  0  0  0  0  0
  149.8413  144.0116  158.2210 H   0  0  0  0  0  0  0  0  0  0  0  0
  147.0102  140.1890  152.6075 H   0  0  0  0  0  0  0  0  0  0  0  0
  148.0186  139.0178  153.3965 H   0  0  0  0  0  0  0  0  0  0  0  0
  145.7019  138.8088  154.1300 H   0  0  0  0  0  0  0  0  0  0  0  0
  146.7188  139.2143  155.5029 H   0  0  0  0  0  0  0  0  0  0  0  0
  143.8405  139.6500  155.5771 H   0  0  0  0  0  0  0  0  0  0  0  0
  144.8177  139.4301  157.7118 H   0  0  0  0  0  0  0  0  0  0  0  0
  145.9841  140.7008  157.3608 H   0  0  0  0  0  0  0  0  0  0  0  0
  144.5791  141.7556  159.0527 H   0  0  0  0  0  0  0  0  0  0  0  0
  142.5955  139.9700  158.5847 H   0  0  0  0  0  0  0  0  0  0  0  0
  142.1137  141.6283  158.9454 H   0  0  0  0  0  0  0  0  0  0  0  0
  141.7286  140.2596  156.3933 H   0  0  0  0  0  0  0  0  0  0  0  0
  141.3106  141.9190  156.8077 H   0  0  0  0  0  0  0  0  0  0  0  0
  143.0334  142.2320  155.1332 H   0  0  0  0  0  0  0  0  0  0  0  0
  143.3599  143.4247  157.4290 H   0  0  0  0  0  0  0  0  0  0  0  0
  144.9624  143.0131  156.7751 H   0  0  0  0  0  0  0  0  0  0  0  0
  145.6666  142.8788  155.3145 H   0  0  0  0  0  0  0  0  0  0  0  0
  146.7330  141.8265  156.2141 H   0  0  0  0  0  0  0  0  0  0  0  0
  147.9710  143.1294  154.4840 H   0  0  0  0  0  0  0  0  0  0  0  0
  146.9560  142.4833  153.2290 H   0  0  0  0  0  0  0  0  0  0  0  0
  144.9986  141.0283  153.9991 H   0  0  0  0  0  0  0  0  0  0  0  0
  1  2  2  0  0  0  0
  2  3  1  0  0  0  0
  2 12  1  0  0  0  0
  3  4  1  0  0  0  0
  3 25  1  0  0  0  0
  4  5  1  0  0  0  0
  4 26  1  0  0  0  0
  4 27  1  0  0  0  0
  5  6  1  0  0  0  0
  5 28  1  0  0  0  0
  5 29  1  0  0  0  0
  6 11  1  0  0  0  0
  6  7  2  0  0  0  0
  7  8  1  0  0  0  0
  7 30  1  0  0  0  0
  8  9  2  0  0  0  0
  8 31  1  0  0  0  0
  9 10  1  0  0  0  0
  9 32  1  0  0  0  0
 10 11  2  0  0  0  0
 11 33  1  0  0  0  0
 12 24  1  0  0  0  0
 12 13  1  0  0  0  0
 13 14  1  0  0  0  0
 13 34  1  0  0  0  0
 13 35  1  0  0  0  0
 14 15  1  0  0  0  0
 14 36  1  0  0  0  0
 14 37  1  0  0  0  0
 15 16  1  0  0  0  0
 15 23  1  0  0  0  0
 15 53  1  0  0  0  0
 16 21  1  0  0  0  0
 16 17  1  0  0  0  0
 16 38  1  0  0  0  0
 17 18  1  0  0  0  0
 17 39  1  0  0  0  0
 17 40  1  0  0  0  0
 18 22  1  0  0  0  0
 18 19  1  0  0  0  0
 18 41  1  0  0  0  0
 19 20  1  0  0  0  0
 19 42  1  0  0  0  0
 19 43  1  0  0  0  0
 20 21  1  0  0  0  0
 20 44  1  0  0  0  0
 20 45  1  0  0  0  0
 21 22  1  0  0  0  0
 21 46  1  0  0  0  0
 22 47  1  0  0  0  0
 22 48  1  0  0  0  0
 23 24  1  0  0  0  0
 23 49  1  0  0  0  0
 23 50  1  0  0  0  0
 24 51  1  0  0  0  0
 24 52  1  0  0  0  0
M  CHG  1  15   1
M  END
> <s_m_source_file>
AV-unprocessed.smi

> <i_m_source_file_index>
867

> <i_lp_mmshare_version>
43012

> <i_f3d_flags>
0

> <s_epik_input>
W0NIMl0xW0NIMl1bQ0BASF0oW0NIMl0yKVtDQEBIXShbQ0gyXVtDQEhdMTIpTihbQ0gyXVtDSDJdMylbQ0gyXVtDSDJdTjNDKD1PKVtOSF1bQ0gyXVtDSDJdYzRbY0hdW2NIXVtjSF1uW2NIXTQ=

> <s_epik_cmdline>
J2VwaWtfcHl0aG9uJywgJy1waCcsICc3LjAnLCAnLXRuJywgJzgnLCAnLW1hJywgJzIwMCcsICctbWV0YWxfYmluZGluZycsICctaW1hZScsICc8aW5maWxlLm1hZT4nLCAnLW9tYWUnLCAnPG91dGZpbGUubWFlPic=

> <r_epik_Ionization_Penalty>
0.0161279

> <r_epik_Ionization_Penalty_Charging>
0.00262064

> <r_epik_Ionization_Penalty_Neutral>
0.0135072

> <r_epik_State_Penalty>
0.0104914

> <r_epik_Charging_Adjusted_Penalty>
0.013112

> <i_epik_Tot_Q>
1

> <i_epik_Tot_abs_Q>
1

> <r_epik_Metal_State_Penalty>
0.0102536

> <b_epik_Metal_Only>
0

> <s_lp_Force_Field>
OPLS_2005

> <r_lp_Energy>
96.0256

> <b_lp_Chiralities_Consistent>
1

> <s_lp_Variant>
AV-unprocessed.smi:867-2

> <Gold.Version>
5.8.1

> <Gold.Id.Protein>
6NUR|6NUR_protein|mol2

> <Gold.PLP.Fitness>
52.1437

> <Gold.PLP.PLP>
-40.0054

> <Gold.PLP.part.hbond>
-3.0000

> <Gold.PLP.part.metal>
0.0000

> <Gold.PLP.part.buried>
-7.2738

> <Gold.PLP.part.nonpolar>
-31.1966

> <Gold.PLP.part.repulsive>
0.4295

> <Gold.PLP.ligand.clash>
0.9277

> <Gold.PLP.ligand.torsion>
0.7999

> <Gold.PLP.Chemscore.Hbond>
3.7040

> <Gold.PLP.Chemscore.CHOScore>
1.1416

> <Gold.PLP.Chemscore.Metal>
0.0000

> <Gold.Chemscore.Hbonds>
donor molecule, donor type, donor heavy atom, donor atom, acceptor molecule, acceptor atom, score
      L1  H     3    25       P1  8028  0.35
      L1  H    15    53       P1 10175  1.77
      P1  H  7989  7998       L1     1  1.00
      L1  C    11    33       P1  8028  0.30
      L1  C    11    33       P1  8029  0.06

> <Gold.PLP.Chemscore.Internal.Correction>
0.1290

> <Gold.Rescore>
     Score         DG    S(hbond)    S(metal)    S(lipo)     H(rot)  DE(clash)    DE(int)     intcor
     19.23     -20.85       2.34        0.00      94.50       1.37       0.55       1.07       ----

> <Gold.Chemscore.Fitness>
19.2284

> <Gold.Chemscore.DG>
-20.8528

> <Gold.Chemscore.ZeroCoef>
-5.4800

> <Gold.Chemscore.Hbond>
2.3447

> <Gold.Chemscore.Metal>
0.0000

> <Gold.Chemscore.Lipo>
94.5008

> <Gold.Chemscore.Internal_Hbond>
0.0000

> <Gold.Chemscore.DEClash>
0.5510

> <Gold.Chemscore.DEInternal>
1.0733

> <Gold.Chemscore.Rot>
1.3731

> <Gold.Chemscore.Internal.Correction>
   9.000000E+99

> <Gold.Chemscore.Hbonds>
donor molecule, donor type, donor heavy atom, donor atom, acceptor molecule, acceptor atom, score
      L1  H     3    25       P1  8028  0.35
      L1  H    15    53       P1 10175  0.69
      P1  H  7989  7998       L1     1  0.68

> <Gold.Chemscore.Hbond.Weighted>
-7.8314

> <Gold.Chemscore.Metal.Weighted>
-0.0000

> <Gold.Chemscore.Lipo.Weighted>
-11.0566

> <Gold.Chemscore.Internal_Hbond.Weighted>
0.0000

> <Gold.Chemscore.DEClash.Weighted>
0.5510

> <Gold.Chemscore.DEInternal.Weighted>
1.0733

> <Gold.Chemscore.Rot.Weighted>
3.5152

> <Gold.Chemscore.Internal.Correction.Weighted>
   9.000000E+99

> <Gold.Protein.RotatedTorsions>
[ 6907 6896 6895 6894 ] final -109.15 input  -60.11 | X-H torsion
[ 7974 7965 7964 7962 ] final -105.62 input  175.53 | X-H torsion
[ 8008 7997 7996 7995 ] final -149.10 input   59.86 | X-H torsion
[ 10167 10162 10161 10158 ] final  -55.00 input  -65.29 | X-H torsion
[ 10718 10713 10712 10709 ] final  -86.49 input   66.30 | X-H torsion
[ 10763 10752 10751 10750 ] final -165.13 input  -60.55 | X-H torsion
[ 11005 11000 10999 10996 ] final -162.66 input  -57.11 | X-H torsion

> <Gold.Protein.ActiveResidues>
 VAL166  LYS551  ARG553  GLY616  TRP617  ASP618  TYR619  PRO620  LYS621  CYS622 
 ASP623  PHE694  ASN695  SER759  ASP760  ASP761  ALA762  ILE779  LEU786  VAL792 
 PHE793  MET794  SER795  GLU796  ALA797  LYS798  CYS799  TRP800  GLU811  SER814 

> <Gold.Protein.RotatedAtoms>
  150.7544  133.9571  159.3503 H   0  0  0  0  0  0  0  0  0  0  0  0  # atno 6907 bound_to 6896
  151.7494  135.0834  160.0338 H   0  0  0  0  0  0  0  0  0  0  0  0  # atno 6908 bound_to 6896
  152.3476  133.6104  159.5957 H   0  0  0  0  0  0  0  0  0  0  0  0  # atno 6909 bound_to 6896
  145.2282  140.9160  143.3220 H   0  0  0  0  0  0  0  0  0  0  0  0  # atno 7974 bound_to 7965
  155.6023  140.0663  157.2729 H   0  0  0  0  0  0  0  0  0  0  0  0  # atno 8008 bound_to 7997
  154.4275  140.1816  156.1233 H   0  0  0  0  0  0  0  0  0  0  0  0  # atno 8009 bound_to 7997
  156.0150  140.3323  155.6983 H   0  0  0  0  0  0  0  0  0  0  0  0  # atno 8010 bound_to 7997
  140.6399  143.2502  151.5017 H   0  0  0  0  0  0  0  0  0  0  0  0  # atno 10167 bound_to 10162
  155.9989  130.4767  150.4723 H   0  0  0  0  0  0  0  0  0  0  0  0  # atno 10718 bound_to 10713
  154.6961  135.2979  154.9409 H   0  0  0  0  0  0  0  0  0  0  0  0  # atno 10763 bound_to 10752
  154.0356  135.6664  153.4789 H   0  0  0  0  0  0  0  0  0  0  0  0  # atno 10764 bound_to 10752
  153.0647  135.5095  154.8080 H   0  0  0  0  0  0  0  0  0  0  0  0  # atno 10765 bound_to 10752
  140.6068  134.4890  157.5211 H   0  0  0  0  0  0  0  0  0  0  0  0  # atno 11005 bound_to 11000
  144.9702  139.3888  143.6313 LP  0  0  0  0  0  0  0  0  0  0  0  0  # atno 17320 bound_to 7965
  146.3359  139.8795  142.8826 LP  0  0  0  0  0  0  0  0  0  0  0  0  # atno 17321 bound_to 7965
  139.5609  144.2160  152.1689 LP  0  0  0  0  0  0  0  0  0  0  0  0  # atno 17342 bound_to 10162
  140.1427  144.5187  150.6734 LP  0  0  0  0  0  0  0  0  0  0  0  0  # atno 17343 bound_to 10162
  157.2737  131.0592  151.2243 LP  0  0  0  0  0  0  0  0  0  0  0  0  # atno 17370 bound_to 10713
  157.3314  130.6987  149.6327 LP  0  0  0  0  0  0  0  0  0  0  0  0  # atno 17371 bound_to 10713
  139.9209  134.8151  156.1215 LP  0  0  0  0  0  0  0  0  0  0  0  0  # atno 17394 bound_to 11000
  141.0835  133.6744  156.2386 LP  0  0  0  0  0  0  0  0  0  0  0  0  # atno 17395 bound_to 11000

$$$$
