AV-unprocessed.smi:1232|AV-procd|sdf|5170|dock6
  -GOLD-   22720 4243D 1   1.00000     0.00000
 Structure written by MMmdl.
 53 54  0  0  0  0  0  0  0  0  1 V2000
  149.1310  133.8126  154.2525 C   0  0  0  0  0  0  0  0  0  0  0  0
  147.6509  133.9421  153.9099 C   0  0  0  0  0  0  0  0  0  0  0  0
  146.8462  133.1279  154.3590 O   0  0  0  0  0  0  0  0  0  0  0  0
  147.3208  134.9701  153.1075 N   0  0  0  0  0  0  0  0  0  0  0  0
  145.9910  135.3768  152.6313 C   0  0  1  0  0  0  0  0  0  0  0  0
  145.8448  136.9097  152.6345 C   0  0  0  0  0  0  0  0  0  0  0  0
  144.7293  137.4307  152.6437 O   0  0  0  0  0  0  0  0  0  0  0  0
  146.9827  137.6223  152.6487 N   0  0  0  0  0  0  0  0  0  0  0  0
  147.0558  139.0797  152.6683 C   0  0  0  0  0  0  0  0  0  0  0  0
  148.0238  139.6493  153.6962 C   0  0  0  0  0  0  0  0  0  0  0  0
  147.8262  140.9108  154.2956 C   0  0  0  0  0  0  0  0  0  0  0  0
  148.7660  141.3770  155.2343 C   0  0  0  0  0  0  0  0  0  0  0  0
  149.8848  140.5704  155.5524 C   0  0  0  0  0  0  0  0  0  0  0  0
  150.8388  141.0146  156.4945 N   0  0  0  0  0  0  0  0  0  0  0  0
  151.2567  140.0813  157.5391 C   0  0  0  0  0  0  0  0  0  0  0  0
  152.4909  140.6223  158.2791 C   0  0  0  0  0  0  0  0  0  0  0  0
  152.2158  141.9260  158.7804 O   0  0  0  0  0  0  0  0  0  0  0  0
  151.9225  142.8509  157.7370 C   0  0  2  0  0  0  0  0  0  0  0  0
  151.7339  144.2371  158.3625 C   0  0  0  0  0  0  0  0  0  0  0  0
  150.6649  142.3820  156.9792 C   0  0  0  0  0  0  0  0  0  0  0  0
  150.0779  139.3649  154.9622 N   0  0  0  0  0  0  0  0  0  0  0  0
  149.1734  138.9223  154.0636 C   0  0  0  0  0  0  0  0  0  0  0  0
  145.5282  134.6608  151.3235 C   0  0  0  0  0  0  0  0  0  0  0  0
  144.1589  135.1595  150.8211 C   0  0  0  0  0  0  0  0  0  0  0  0
  145.4794  133.1289  151.4858 C   0  0  0  0  0  0  0  0  0  0  0  0
  149.7455  133.9216  153.3583 H   0  0  0  0  0  0  0  0  0  0  0  0
  149.3422  132.8378  154.6931 H   0  0  0  0  0  0  0  0  0  0  0  0
  149.4209  134.5823  154.9683 H   0  0  0  0  0  0  0  0  0  0  0  0
  148.0832  135.5546  152.7978 H   0  0  0  0  0  0  0  0  0  0  0  0
  145.3239  135.0164  153.4164 H   0  0  0  0  0  0  0  0  0  0  0  0
  147.8586  137.1198  152.6511 H   0  0  0  0  0  0  0  0  0  0  0  0
  147.3149  139.4456  151.6732 H   0  0  0  0  0  0  0  0  0  0  0  0
  146.0603  139.4659  152.8880 H   0  0  0  0  0  0  0  0  0  0  0  0
  146.9721  141.5207  154.0417 H   0  0  0  0  0  0  0  0  0  0  0  0
  148.6251  142.3481  155.6844 H   0  0  0  0  0  0  0  0  0  0  0  0
  150.4351  139.9344  158.2419 H   0  0  0  0  0  0  0  0  0  0  0  0
  151.4945  139.1089  157.1058 H   0  0  0  0  0  0  0  0  0  0  0  0
  152.7447  139.9677  159.1128 H   0  0  0  0  0  0  0  0  0  0  0  0
  153.3598  140.6493  157.6196 H   0  0  0  0  0  0  0  0  0  0  0  0
  152.7693  142.8940  157.0495 H   0  0  0  0  0  0  0  0  0  0  0  0
  151.5174  144.9855  157.6000 H   0  0  0  0  0  0  0  0  0  0  0  0
  152.6342  144.5518  158.8907 H   0  0  0  0  0  0  0  0  0  0  0  0
  150.9104  144.2387  159.0770 H   0  0  0  0  0  0  0  0  0  0  0  0
  150.4655  143.0757  156.1638 H   0  0  0  0  0  0  0  0  0  0  0  0
  149.7960  142.4112  157.6382 H   0  0  0  0  0  0  0  0  0  0  0  0
  149.3755  137.9557  153.6261 H   0  0  0  0  0  0  0  0  0  0  0  0
  146.2391  134.8833  150.5282 H   0  0  0  0  0  0  0  0  0  0  0  0
  143.3857  135.0243  151.5778 H   0  0  0  0  0  0  0  0  0  0  0  0
  143.8471  134.6151  149.9294 H   0  0  0  0  0  0  0  0  0  0  0  0
  144.1837  136.2155  150.5514 H   0  0  0  0  0  0  0  0  0  0  0  0
  144.7832  132.8372  152.2725 H   0  0  0  0  0  0  0  0  0  0  0  0
  146.4549  132.7119  151.7339 H   0  0  0  0  0  0  0  0  0  0  0  0
  145.1551  132.6473  150.5631 H   0  0  0  0  0  0  0  0  0  0  0  0
  1  2  1  0  0  0  0
  1 26  1  0  0  0  0
  1 27  1  0  0  0  0
  1 28  1  0  0  0  0
  2  3  2  0  0  0  0
  2  4  1  0  0  0  0
  4  5  1  0  0  0  0
  4 29  1  0  0  0  0
  5  6  1  0  0  0  0
  5 23  1  0  0  0  0
  5 30  1  0  0  0  0
  6  7  2  0  0  0  0
  6  8  1  0  0  0  0
  8  9  1  0  0  0  0
  8 31  1  0  0  0  0
  9 10  1  0  0  0  0
  9 32  1  0  0  0  0
  9 33  1  0  0  0  0
 10 22  1  0  0  0  0
 10 11  2  0  0  0  0
 11 12  1  0  0  0  0
 11 34  1  0  0  0  0
 12 13  2  0  0  0  0
 12 35  1  0  0  0  0
 13 14  1  0  0  0  0
 13 21  1  0  0  0  0
 14 20  1  0  0  0  0
 14 15  1  0  0  0  0
 15 16  1  0  0  0  0
 15 36  1  0  0  0  0
 15 37  1  0  0  0  0
 16 17  1  0  0  0  0
 16 38  1  0  0  0  0
 16 39  1  0  0  0  0
 17 18  1  0  0  0  0
 18 19  1  0  0  0  0
 18 20  1  0  0  0  0
 18 40  1  0  0  0  0
 19 41  1  0  0  0  0
 19 42  1  0  0  0  0
 19 43  1  0  0  0  0
 20 44  1  0  0  0  0
 20 45  1  0  0  0  0
 21 22  2  0  0  0  0
 22 46  1  0  0  0  0
 23 24  1  0  0  0  0
 23 25  1  0  0  0  0
 23 47  1  0  0  0  0
 24 48  1  0  0  0  0
 24 49  1  0  0  0  0
 24 50  1  0  0  0  0
 25 51  1  0  0  0  0
 25 52  1  0  0  0  0
 25 53  1  0  0  0  0
M  END
> <s_m_source_file>
AV-unprocessed.smi

> <i_m_source_file_index>
1232

> <i_lp_mmshare_version>
43012

> <i_f3d_flags>
0

> <s_epik_input>
W0NIM11DKD1PKVtOSF1bQ0BASF0oW0NIXShbQ0gzXSlbQ0gzXSlDKD1PKVtOSF1bQ0gyXWMxW2NIXVtjSF1jKG5bY0hdMSlOMltDSDJdW0NIMl1PW0NAQEhdKFtDSDNdKVtDSDJdMg==

> <s_epik_cmdline>
J2VwaWtfcHl0aG9uJywgJy1waCcsICc3LjAnLCAnLXRuJywgJzgnLCAnLW1hJywgJzIwMCcsICctbWV0YWxfYmluZGluZycsICctaW1hZScsICc8aW5maWxlLm1hZT4nLCAnLW9tYWUnLCAnPG91dGZpbGUubWFlPic=

> <r_lp_tautomer_probability>
1

> <r_epik_Ionization_Penalty>
0.00557618

> <r_epik_Ionization_Penalty_Charging>
0

> <r_epik_Ionization_Penalty_Neutral>
0.00557618

> <r_epik_State_Penalty>
0.00408363

> <r_epik_Charging_Adjusted_Penalty>
0.00408363

> <i_epik_Tot_Q>
0

> <i_epik_Tot_abs_Q>
0

> <r_epik_Metal_State_Penalty>
-0

> <b_epik_Metal_Only>
0

> <s_lp_Force_Field>
OPLS_2005

> <r_lp_Energy>
20.9167

> <b_lp_Chiralities_Consistent>
1

> <s_lp_Variant>
AV-unprocessed.smi:1232-4

> <Gold.Version>
5.8.1

> <Gold.Id.Protein>
6NUR|6NUR_protein|mol2

> <Gold.PLP.Fitness>
45.4486

> <Gold.PLP.PLP>
-38.5916

> <Gold.PLP.part.hbond>
-1.8415

> <Gold.PLP.part.metal>
0.0000

> <Gold.PLP.part.buried>
-3.7664

> <Gold.PLP.part.nonpolar>
-33.7888

> <Gold.PLP.part.repulsive>
0.5903

> <Gold.PLP.ligand.clash>
0.0000

> <Gold.PLP.ligand.torsion>
1.3637

> <Gold.PLP.Chemscore.Hbond>
1.9280

> <Gold.PLP.Chemscore.CHOScore>
1.0000

> <Gold.PLP.Chemscore.Metal>
0.0000

> <Gold.Chemscore.Hbonds>
donor molecule, donor type, donor heavy atom, donor atom, acceptor molecule, acceptor atom, score
      L1  H     4    29       P1  7948  0.75
      L1  H     8    31       P1  7948  0.98
      L1  C    22    46       P1  7948  1.00

> <Gold.PLP.Chemscore.Internal.Correction>
0.8004

> <Gold.Rescore>
     Score         DG    S(hbond)    S(metal)    S(lipo)     H(rot)  DE(clash)    DE(int)     intcor
     16.41     -18.21       1.93        0.00     100.30       2.13       0.34       1.46       ----

> <Gold.Chemscore.Fitness>
16.4056

> <Gold.Chemscore.DG>
-18.2093

> <Gold.Chemscore.ZeroCoef>
-5.4800

> <Gold.Chemscore.Hbond>
1.9315

> <Gold.Chemscore.Metal>
0.0000

> <Gold.Chemscore.Lipo>
100.3009

> <Gold.Chemscore.Internal_Hbond>
0.0000

> <Gold.Chemscore.DEClash>
0.3424

> <Gold.Chemscore.DEInternal>
1.4613

> <Gold.Chemscore.Rot>
2.1317

> <Gold.Chemscore.Internal.Correction>
   9.000000E+99

> <Gold.Chemscore.Hbonds>
donor molecule, donor type, donor heavy atom, donor atom, acceptor molecule, acceptor atom, score
      L1  H     4    29       P1  7948  0.74
      L1  H     8    31       P1  7948  0.92

> <Gold.Chemscore.Hbond.Weighted>
-6.4513

> <Gold.Chemscore.Metal.Weighted>
-0.0000

> <Gold.Chemscore.Lipo.Weighted>
-11.7352

> <Gold.Chemscore.Internal_Hbond.Weighted>
0.0000

> <Gold.Chemscore.DEClash.Weighted>
0.3424

> <Gold.Chemscore.DEInternal.Weighted>
1.4613

> <Gold.Chemscore.Rot.Weighted>
5.4572

> <Gold.Chemscore.Internal.Correction.Weighted>
   9.000000E+99

> <Gold.Protein.RotatedTorsions>
[ 6907 6896 6895 6894 ] final  128.66 input  -60.11 | X-H torsion
[ 7974 7965 7964 7962 ] final   26.67 input  175.53 | X-H torsion
[ 8008 7997 7996 7995 ] final   -8.63 input   59.86 | X-H torsion
[ 10167 10162 10161 10158 ] final -169.68 input  -65.29 | X-H torsion
[ 10718 10713 10712 10709 ] final -170.66 input   66.30 | X-H torsion
[ 10763 10752 10751 10750 ] final   86.71 input  -60.55 | X-H torsion
[ 11005 11000 10999 10996 ] final -168.28 input  -57.11 | X-H torsion

> <Gold.Protein.ActiveResidues>
 VAL166  LYS551  ARG553  GLY616  TRP617  ASP618  TYR619  PRO620  LYS621  CYS622 
 ASP623  PHE694  ASN695  SER759  ASP760  ASP761  ALA762  ILE779  LEU786  VAL792 
 PHE793  MET794  SER795  GLU796  ALA797  LYS798  CYS799  TRP800  GLU811  SER814 

> <Gold.Protein.RotatedAtoms>
  152.3698  133.6404  159.6078 H   0  0  0  0  0  0  0  0  0  0  0  0  # atno 6907 bound_to 6896
  150.7660  133.9288  159.3429 H   0  0  0  0  0  0  0  0  0  0  0  0  # atno 6908 bound_to 6896
  151.7113  135.0913  160.0319 H   0  0  0  0  0  0  0  0  0  0  0  0  # atno 6909 bound_to 6896
  146.1825  139.7296  142.8890 H   0  0  0  0  0  0  0  0  0  0  0  0  # atno 7974 bound_to 7965
  154.5723  140.2376  155.8174 H   0  0  0  0  0  0  0  0  0  0  0  0  # atno 8008 bound_to 7997
  156.2116  140.3024  155.9703 H   0  0  0  0  0  0  0  0  0  0  0  0  # atno 8009 bound_to 7997
  155.2690  140.0417  157.2995 H   0  0  0  0  0  0  0  0  0  0  0  0  # atno 8010 bound_to 7997
  139.5908  144.1218  152.1631 H   0  0  0  0  0  0  0  0  0  0  0  0  # atno 10167 bound_to 10162
  156.7294  130.9300  151.3103 H   0  0  0  0  0  0  0  0  0  0  0  0  # atno 10718 bound_to 10713
  153.1597  135.4570  154.9754 H   0  0  0  0  0  0  0  0  0  0  0  0  # atno 10763 bound_to 10752
  154.7888  135.3213  154.7827 H   0  0  0  0  0  0  0  0  0  0  0  0  # atno 10764 bound_to 10752
  153.8319  135.6938  153.4868 H   0  0  0  0  0  0  0  0  0  0  0  0  # atno 10765 bound_to 10752
  140.5438  134.5496  157.5106 H   0  0  0  0  0  0  0  0  0  0  0  0  # atno 11005 bound_to 11000
  145.4034  141.0388  143.3057 LP  0  0  0  0  0  0  0  0  0  0  0  0  # atno 17320 bound_to 7965
  144.8340  139.5581  143.6931 LP  0  0  0  0  0  0  0  0  0  0  0  0  # atno 17321 bound_to 7965
  140.0792  144.5715  150.7135 LP  0  0  0  0  0  0  0  0  0  0  0  0  # atno 17342 bound_to 10162
  140.7171  143.2554  151.4399 LP  0  0  0  0  0  0  0  0  0  0  0  0  # atno 17343 bound_to 10162
  157.6865  130.9191  150.0400 LP  0  0  0  0  0  0  0  0  0  0  0  0  # atno 17370 bound_to 10713
  156.1539  130.3643  149.9397 LP  0  0  0  0  0  0  0  0  0  0  0  0  # atno 17371 bound_to 10713
  139.9490  134.7650  156.0493 LP  0  0  0  0  0  0  0  0  0  0  0  0  # atno 17394 bound_to 11000
  141.1212  133.6612  156.3219 LP  0  0  0  0  0  0  0  0  0  0  0  0  # atno 17395 bound_to 11000

$$$$
