#       Name:                AV-unprocessed.smi:3282
#       Creating user name   scv26
#       Creation time:       Fri Mar 27 18:48:33 2020


#       File generated by GOLD software.
#

@<TRIPOS>MOLECULE
AV-unprocessed.smi:3282
    41    42     1
SMALL
NO_CHARGES


@<TRIPOS>ATOM
      1 ****        -1.8987   5.2181   0.2794 C.3            1 S1                 0.0000
      2 ****        -1.3565   3.7933   0.0814 C.3            1 S1                 0.0000
      3 ****         0.1621   3.6729   0.2931 C.2            1 S1                 0.0000
      4 ****         0.8344   4.6839   0.5024 O.2            1 S1                 0.0000
      5 ****         0.7164   2.4436   0.2430 N.am           1 S1                 0.0000
      6 ****         2.1411   2.1930   0.4440 C.3            1 S1                 0.0000
      7 ****         2.2912   0.6753   0.5466 C.3            1 S1                 0.0000
      8 ****         1.0779   0.1164  -0.1916 C.3            1 S1                 0.0000
      9 ****         0.6641  -1.1733   0.3522 N.am           1 S1                 0.0000
     10 ****        -0.2004  -2.0167  -0.2314 C.2            1 S1                 0.0000
     11 ****        -0.7250  -1.7626  -1.3204 O.2            1 S1                 0.0000
     12 ****        -0.3507  -3.1631   0.5307 N.2            1 S1                 0.0000
     13 ****        -0.5076  -4.2926  -0.0866 C.2            1 S1                 0.0000
     14 ****        -0.6959  -5.5471   0.4710 N.pl3          1 S1                 0.0000
     15 ****        -0.8010  -6.4533  -0.5478 C.2            1 S1                 0.0000
     16 ****        -0.6832  -5.7981  -1.6992 C.2            1 S1                 0.0000
     17 ****        -0.5013  -4.4709  -1.4514 O.3            1 S1                 0.0000
     18 ****         0.0007   1.1956  -0.0147 C.3            1 S1                 0.0000
     19 ****        -2.9781   5.2424   0.1299 H              1 S1                 0.0000
     20 ****        -1.4536   5.9170  -0.4299 H              1 S1                 0.0000
     21 ****        -1.6984   5.5843   1.2871 H              1 S1                 0.0000
     22 ****        -1.8659   3.1223   0.7738 H              1 S1                 0.0000
     23 ****        -1.5989   3.4555  -0.9266 H              1 S1                 0.0000
     24 ****         2.6916   2.5736  -0.4176 H              1 S1                 0.0000
     25 ****         2.5237   2.6901   1.3369 H              1 S1                 0.0000
     26 ****         3.2359   0.3178   0.1357 H              1 S1                 0.0000
     27 ****         2.2580   0.3861   1.5984 H              1 S1                 0.0000
     28 ****         1.3268   0.0215  -1.2502 H              1 S1                 0.0000
     29 ****         1.0682  -1.4475   1.2361 H              1 S1                 0.0000
     30 ****        -0.7487  -5.7958   1.4484 H              1 S1                 0.0000
     31 ****        -0.9524  -7.5009  -0.3335 H              1 S1                 0.0000
     32 ****        -0.7046  -6.1171  -2.7309 H              1 S1                 0.0000
     33 ****        -0.6379   0.9773   0.8430 H              1 S1                 0.0000
     34 ****        -0.6323   1.2588  -0.9008 H              1 S1                 0.0000
     35 ****         0.3925   5.5804   0.5343 LP             1 S1                 0.0000
     36 ****         1.8219   4.6080   0.6403 LP             1 S1                 0.0000
     37 ****        -0.5088  -0.9078  -1.7922 LP             1 S1                 0.0000
     38 ****        -1.3659  -2.4117  -1.7302 LP             1 S1                 0.0000
     39 ****        -0.3386  -3.1210   1.5297 LP             1 S1                 0.0000
     40 ****         0.3746  -4.1712  -1.8295 LP             1 S1                 0.0000
     41 ****        -1.2419  -3.9427  -1.8668 LP             1 S1                 0.0000
@<TRIPOS>BOND
    1    1    2 1     
    2    1   19 1     
    3    1   20 1     
    4    1   21 1     
    5    2    3 1     
    6    2   22 1     
    7    2   23 1     
    8    3    4 2     
    9    3    5 am    
   10    5   18 1     
   11    5    6 1     
   12    6    7 1     
   13    6   24 1     
   14    6   25 1     
   15    7    8 1     
   16    7   26 1     
   17    7   27 1     
   18    8    9 1     
   19    8   18 1     
   20    8   28 1     
   21    9   29 1     
   22    9   10 am    
   23   10   12 1     
   24   10   11 2     
   25   12   13 2     
   26   13   17 1     
   27   13   14 1     
   28   14   30 1     
   29   14   15 1     
   30   15   31 1     
   31   15   16 2     
   32   16   32 1     
   33   16   17 1     
   34   18   33 1     
   35   18   34 1     
   36    4   35 1     
   37    4   36 1     
   38   11   37 1     
   39   11   38 1     
   40   12   39 1     
   41   17   40 1     
   42   17   41 1     
@<TRIPOS>SUBSTRUCTURE
      1 S1             1
@<TRIPOS>SET
LONE_PAIRS      STATIC     ATOMS    <user>   **** ""
7 35 36 37 38 39 40 41
DONOR_HYDROGENS      STATIC     ATOMS    <user>   **** ""
2 29 30
ATOM$BLUE        STATIC     ATOMS    COLORGROUP SYSTEM
7 35 36 37 38 39 40 41
ATOM$RED        STATIC     ATOMS    COLORGROUP SYSTEM
2 29 30
