AV-unprocessed.smi:1084|AV-procd|sdf|4717|dock1
  -GOLD-   22720 3243D 1   1.00000     0.00000
 Structure written by MMmdl.
 52 54  0  0  0  0  0  0  0  0  1 V2000
  145.5940  135.3312  151.1517 C   0  0  0  0  0  0  0  0  0  0  0  0
  145.1496  136.4064  152.1761 C   0  0  1  0  0  0  0  0  0  0  0  0
  145.7336  137.7830  151.7432 C   0  0  0  0  0  0  0  0  0  0  0  0
  147.0550  138.0569  152.3023 N   0  0  0  0  0  0  0  0  0  0  0  0
  147.3034  138.9044  153.3109 C   0  0  0  0  0  0  0  0  0  0  0  0
  146.4279  139.5539  153.8822 O   0  0  0  0  0  0  0  0  0  0  0  0
  148.6119  138.9246  153.6167 N   0  0  0  0  0  0  0  0  0  0  0  0
  149.2772  139.6982  154.6057 C   0  0  0  0  0  0  0  0  0  0  0  0
  150.5129  139.2309  155.0915 C   0  0  0  0  0  0  0  0  0  0  0  0
  151.2057  139.9847  156.0575 C   0  0  0  0  0  0  0  0  0  0  0  0
  150.6490  141.2067  156.5130 C   0  0  0  0  0  0  0  0  0  0  0  0
  151.2861  142.0081  157.4891 N   0  0  0  0  0  0  0  0  0  0  0  0
  151.6866  143.3543  157.0779 C   0  0  0  0  0  0  0  0  0  0  0  0
  152.0320  144.2168  158.3036 C   0  0  0  0  0  0  0  0  0  0  0  0
  153.0142  143.5590  159.0954 O   0  0  0  0  0  0  0  0  0  0  0  0
  152.5355  142.3159  159.5951 C   0  0  0  0  0  0  0  0  0  0  0  0
  152.2114  141.3722  158.4244 C   0  0  0  0  0  0  0  0  0  0  0  0
  149.4657  141.6591  156.0315 N   0  0  0  0  0  0  0  0  0  0  0  0
  148.8029  140.9325  155.1074 C   0  0  0  0  0  0  0  0  0  0  0  0
  143.6823  136.4314  152.3808 N   0  0  0  0  0  0  0  0  0  0  0  0
  143.1673  135.1665  152.9184 C   0  0  0  0  0  0  0  0  0  0  0  0
  141.6483  135.1933  153.1612 C   0  0  0  0  0  0  0  0  0  0  0  0
  141.3229  136.2623  154.0383 O   0  0  0  0  0  0  0  0  0  0  0  0
  141.7345  137.5195  153.5207 C   0  0  0  0  0  0  0  0  0  0  0  0
  143.2540  137.5103  153.2791 C   0  0  0  0  0  0  0  0  0  0  0  0
  146.6674  135.3494  150.9677 H   0  0  0  0  0  0  0  0  0  0  0  0
  145.0950  135.4709  150.1924 H   0  0  0  0  0  0  0  0  0  0  0  0
  145.3847  134.3198  151.4972 H   0  0  0  0  0  0  0  0  0  0  0  0
  145.6128  136.1458  153.1291 H   0  0  0  0  0  0  0  0  0  0  0  0
  145.8102  137.8273  150.6564 H   0  0  0  0  0  0  0  0  0  0  0  0
  145.0925  138.6122  152.0394 H   0  0  0  0  0  0  0  0  0  0  0  0
  147.8329  137.5589  151.8949 H   0  0  0  0  0  0  0  0  0  0  0  0
  149.1953  138.2719  153.1142 H   0  0  0  0  0  0  0  0  0  0  0  0
  150.9290  138.3010  154.7321 H   0  0  0  0  0  0  0  0  0  0  0  0
  152.1520  139.6117  156.4180 H   0  0  0  0  0  0  0  0  0  0  0  0
  152.5529  143.2763  156.4198 H   0  0  0  0  0  0  0  0  0  0  0  0
  150.9008  143.8557  156.5131 H   0  0  0  0  0  0  0  0  0  0  0  0
  152.4230  145.1825  157.9832 H   0  0  0  0  0  0  0  0  0  0  0  0
  151.1413  144.4177  158.9011 H   0  0  0  0  0  0  0  0  0  0  0  0
  153.2994  141.8715  160.2331 H   0  0  0  0  0  0  0  0  0  0  0  0
  151.6551  142.4770  160.2193 H   0  0  0  0  0  0  0  0  0  0  0  0
  151.7763  140.4576  158.8280 H   0  0  0  0  0  0  0  0  0  0  0  0
  153.1261  141.0998  157.8966 H   0  0  0  0  0  0  0  0  0  0  0  0
  147.8843  141.3780  154.7591 H   0  0  0  0  0  0  0  0  0  0  0  0
  143.3640  134.3476  152.2288 H   0  0  0  0  0  0  0  0  0  0  0  0
  143.6785  134.9257  153.8517 H   0  0  0  0  0  0  0  0  0  0  0  0
  141.1081  135.3058  152.2199 H   0  0  0  0  0  0  0  0  0  0  0  0
  141.3197  134.2546  153.6076 H   0  0  0  0  0  0  0  0  0  0  0  0
  141.1977  137.7348  152.5953 H   0  0  0  0  0  0  0  0  0  0  0  0
  141.4696  138.3012  154.2329 H   0  0  0  0  0  0  0  0  0  0  0  0
  143.7729  137.4238  154.2350 H   0  0  0  0  0  0  0  0  0  0  0  0
  143.5106  138.4832  152.8656 H   0  0  0  0  0  0  0  0  0  0  0  0
  1  2  1  0  0  0  0
  1 26  1  0  0  0  0
  1 27  1  0  0  0  0
  1 28  1  0  0  0  0
  2  3  1  0  0  0  0
  2 20  1  0  0  0  0
  2 29  1  0  0  0  0
  3  4  1  0  0  0  0
  3 30  1  0  0  0  0
  3 31  1  0  0  0  0
  4  5  1  0  0  0  0
  4 32  1  0  0  0  0
  5  6  2  0  0  0  0
  5  7  1  0  0  0  0
  7  8  1  0  0  0  0
  7 33  1  0  0  0  0
  8 19  1  0  0  0  0
  8  9  2  0  0  0  0
  9 10  1  0  0  0  0
  9 34  1  0  0  0  0
 10 11  2  0  0  0  0
 10 35  1  0  0  0  0
 11 12  1  0  0  0  0
 11 18  1  0  0  0  0
 12 17  1  0  0  0  0
 12 13  1  0  0  0  0
 13 14  1  0  0  0  0
 13 36  1  0  0  0  0
 13 37  1  0  0  0  0
 14 15  1  0  0  0  0
 14 38  1  0  0  0  0
 14 39  1  0  0  0  0
 15 16  1  0  0  0  0
 16 17  1  0  0  0  0
 16 40  1  0  0  0  0
 16 41  1  0  0  0  0
 17 42  1  0  0  0  0
 17 43  1  0  0  0  0
 18 19  2  0  0  0  0
 19 44  1  0  0  0  0
 20 25  1  0  0  0  0
 20 21  1  0  0  0  0
 21 22  1  0  0  0  0
 21 45  1  0  0  0  0
 21 46  1  0  0  0  0
 22 23  1  0  0  0  0
 22 47  1  0  0  0  0
 22 48  1  0  0  0  0
 23 24  1  0  0  0  0
 24 25  1  0  0  0  0
 24 49  1  0  0  0  0
 24 50  1  0  0  0  0
 25 51  1  0  0  0  0
 25 52  1  0  0  0  0
M  END
> <s_m_source_file>
AV-unprocessed.smi

> <i_m_source_file_index>
1084

> <i_lp_mmshare_version>
43012

> <i_f3d_flags>
0

> <s_epik_input>
W0NIMl0xW0NIMl1PW0NIMl1bQ0gyXU4xW0NASF0oW0NIM10pW0NIMl1bTkhdQyg9TylbTkhdYzJbY0hdW2NIXWMobltjSF0yKU4zW0NIMl1bQ0gyXU9bQ0gyXVtDSDJdMw==

> <s_epik_cmdline>
J2VwaWtfcHl0aG9uJywgJy1waCcsICc3LjAnLCAnLXRuJywgJzgnLCAnLW1hJywgJzIwMCcsICctbWV0YWxfYmluZGluZycsICctaW1hZScsICc8aW5maWxlLm1hZT4nLCAnLW9tYWUnLCAnPG91dGZpbGUubWFlPic=

> <r_lp_tautomer_probability>
1

> <r_epik_Ionization_Penalty>
0.268053

> <r_epik_Ionization_Penalty_Charging>
0

> <r_epik_Ionization_Penalty_Neutral>
0.268053

> <r_epik_State_Penalty>
0.269834

> <r_epik_Charging_Adjusted_Penalty>
0.269834

> <i_epik_Tot_Q>
0

> <i_epik_Tot_abs_Q>
0

> <r_epik_Metal_State_Penalty>
0.268436

> <b_epik_Metal_Only>
0

> <s_lp_Force_Field>
OPLS_2005

> <r_lp_Energy>
45.5603

> <b_lp_Chiralities_Consistent>
1

> <s_lp_Variant>
AV-unprocessed.smi:1084-2

> <Gold.Version>
5.8.1

> <Gold.Id.Protein>
6NUR|6NUR_protein|mol2

> <Gold.PLP.Fitness>
46.8048

> <Gold.PLP.PLP>
-45.8405

> <Gold.PLP.part.hbond>
-2.8703

> <Gold.PLP.part.metal>
0.0000

> <Gold.PLP.part.buried>
-6.0292

> <Gold.PLP.part.nonpolar>
-38.2493

> <Gold.PLP.part.repulsive>
0.7508

> <Gold.PLP.ligand.clash>
0.0000

> <Gold.PLP.ligand.torsion>
1.0343

> <Gold.PLP.Chemscore.Hbond>
0.8256

> <Gold.PLP.Chemscore.CHOScore>
0.0000

> <Gold.PLP.Chemscore.Metal>
0.0000

> <Gold.Chemscore.Hbonds>
donor molecule, donor type, donor heavy atom, donor atom, acceptor molecule, acceptor atom, score
      L1  H     4    32       P1  7948  1.00
      L1  H     7    33       P1  7948  0.12

> <Gold.PLP.Chemscore.Internal.Correction>
0.5561

> <Gold.Rescore>
     Score         DG    S(hbond)    S(metal)    S(lipo)     H(rot)  DE(clash)    DE(int)     intcor
     12.61     -15.60       0.80        0.00      99.24       1.62       0.30       2.69       ----

> <Gold.Chemscore.Fitness>
12.6141

> <Gold.Chemscore.DG>
-15.5982

> <Gold.Chemscore.ZeroCoef>
-5.4800

> <Gold.Chemscore.Hbond>
0.7954

> <Gold.Chemscore.Metal>
0.0000

> <Gold.Chemscore.Lipo>
99.2434

> <Gold.Chemscore.Internal_Hbond>
0.0000

> <Gold.Chemscore.DEClash>
0.2953

> <Gold.Chemscore.DEInternal>
2.6887

> <Gold.Chemscore.Rot>
1.6211

> <Gold.Chemscore.Internal.Correction>
   9.000000E+99

> <Gold.Chemscore.Hbonds>
donor molecule, donor type, donor heavy atom, donor atom, acceptor molecule, acceptor atom, score
      L1  H     4    32       P1  7948  0.98
      L1  H     7    33       P1  7948  0.12

> <Gold.Chemscore.Hbond.Weighted>
-2.6568

> <Gold.Chemscore.Metal.Weighted>
-0.0000

> <Gold.Chemscore.Lipo.Weighted>
-11.6115

> <Gold.Chemscore.Internal_Hbond.Weighted>
0.0000

> <Gold.Chemscore.DEClash.Weighted>
0.2953

> <Gold.Chemscore.DEInternal.Weighted>
2.6887

> <Gold.Chemscore.Rot.Weighted>
4.1501

> <Gold.Chemscore.Internal.Correction.Weighted>
   9.000000E+99

> <Gold.Protein.RotatedTorsions>
[ 6907 6896 6895 6894 ] final   67.52 input  -60.11 | X-H torsion
[ 7974 7965 7964 7962 ] final   26.89 input  175.53 | X-H torsion
[ 8008 7997 7996 7995 ] final -139.68 input   59.86 | X-H torsion
[ 10167 10162 10161 10158 ] final   73.19 input  -65.29 | X-H torsion
[ 10718 10713 10712 10709 ] final  122.34 input   66.30 | X-H torsion
[ 10763 10752 10751 10750 ] final   96.53 input  -60.55 | X-H torsion
[ 11005 11000 10999 10996 ] final   53.06 input  -57.11 | X-H torsion

> <Gold.Protein.ActiveResidues>
 VAL166  LYS551  ARG553  GLY616  TRP617  ASP618  TYR619  PRO620  LYS621  CYS622 
 ASP623  PHE694  ASN695  SER759  ASP760  ASP761  ALA762  ILE779  LEU786  VAL792 
 PHE793  MET794  SER795  GLU796  ALA797  LYS798  CYS799  TRP800  GLU811  SER814 

> <Gold.Protein.RotatedAtoms>
  152.4557  134.5296  159.9806 H   0  0  0  0  0  0  0  0  0  0  0  0  # atno 6907 bound_to 6896
  151.5357  133.3435  159.2934 H   0  0  0  0  0  0  0  0  0  0  0  0  # atno 6908 bound_to 6896
  150.8501  134.7854  159.7065 H   0  0  0  0  0  0  0  0  0  0  0  0  # atno 6909 bound_to 6896
  146.1814  139.7267  142.8898 H   0  0  0  0  0  0  0  0  0  0  0  0  # atno 7974 bound_to 7965
  155.4489  140.0537  157.3003 H   0  0  0  0  0  0  0  0  0  0  0  0  # atno 8008 bound_to 7997
  154.4786  140.2071  155.9775 H   0  0  0  0  0  0  0  0  0  0  0  0  # atno 8009 bound_to 7997
  156.1170  140.3194  155.8158 H   0  0  0  0  0  0  0  0  0  0  0  0  # atno 8010 bound_to 7997
  140.0272  144.5494  150.7535 H   0  0  0  0  0  0  0  0  0  0  0  0  # atno 10167 bound_to 10162
  157.5749  131.1080  150.8297 H   0  0  0  0  0  0  0  0  0  0  0  0  # atno 10718 bound_to 10713
  153.2661  135.4215  155.0942 H   0  0  0  0  0  0  0  0  0  0  0  0  # atno 10763 bound_to 10752
  154.8438  135.3461  154.6309 H   0  0  0  0  0  0  0  0  0  0  0  0  # atno 10764 bound_to 10752
  153.6729  135.7043  153.5198 H   0  0  0  0  0  0  0  0  0  0  0  0  # atno 10765 bound_to 10752
  140.0798  134.5354  155.8958 H   0  0  0  0  0  0  0  0  0  0  0  0  # atno 11005 bound_to 11000
  145.4066  141.0391  143.3041 LP  0  0  0  0  0  0  0  0  0  0  0  0  # atno 17320 bound_to 7965
  144.8321  139.5611  143.6939 LP  0  0  0  0  0  0  0  0  0  0  0  0  # atno 17321 bound_to 7965
  140.7317  143.2698  151.3926 LP  0  0  0  0  0  0  0  0  0  0  0  0  # atno 17342 bound_to 10162
  139.6100  144.1117  152.2289 LP  0  0  0  0  0  0  0  0  0  0  0  0  # atno 17343 bound_to 10162
  156.8758  130.5162  149.5294 LP  0  0  0  0  0  0  0  0  0  0  0  0  # atno 17370 bound_to 10713
  156.0794  130.5808  150.9535 LP  0  0  0  0  0  0  0  0  0  0  0  0  # atno 17371 bound_to 10713
  141.2043  133.6638  156.6111 LP  0  0  0  0  0  0  0  0  0  0  0  0  # atno 17394 bound_to 11000
  140.3504  134.7773  157.4463 LP  0  0  0  0  0  0  0  0  0  0  0  0  # atno 17395 bound_to 11000

$$$$
