AV-unprocessed.smi:1840|AV-procd|sdf|7495|dock2
  -GOLD-   22720 9193D 1   1.00000     0.00000
 Structure written by MMmdl.
 43 44  0  0  0  0  0  0  0  0  1 V2000
  147.9317  137.8495  155.9982 C   0  0  0  0  0  0  0  0  0  0  0  0
  147.5129  138.2881  154.5885 C   0  0  1  0  0  0  0  0  0  0  0  0
  148.4369  139.4000  154.0467 C   0  0  0  0  0  0  0  0  0  0  0  0
  149.8274  139.2046  154.4203 N   0  0  0  0  0  0  0  0  0  0  0  0
  150.6421  138.1245  154.1532 C   0  0  0  0  0  0  0  0  0  0  0  0
  151.8558  138.3802  154.7241 C   0  0  0  0  0  0  0  0  0  0  0  0
  151.6848  139.6594  155.3236 C   0  0  0  0  0  0  0  0  0  0  0  0
  150.4717  140.1529  155.1356 N   0  0  0  0  0  0  0  0  0  0  0  0
  147.5248  137.1242  153.7025 N   0  0  0  0  0  0  0  0  0  0  0  0
  146.5742  136.1795  153.6484 C   0  0  0  0  0  0  0  0  0  0  0  0
  145.5913  136.1440  154.3895 O   0  0  0  0  0  0  0  0  0  0  0  0
  146.8068  135.2959  152.6684 N   0  0  0  0  0  0  0  0  0  0  0  0
  145.9221  134.1900  152.3078 C   0  0  1  0  0  0  0  0  0  0  0  0
  145.0846  134.5765  151.0693 C   0  0  0  0  0  0  0  0  0  0  0  0
  144.1783  133.4233  150.6161 C   0  0  0  0  0  0  0  0  0  0  0  0
  144.9976  132.1543  150.3463 C   0  0  0  0  0  0  0  0  0  0  0  0
  145.8203  131.7566  151.5810 C   0  0  0  0  0  0  0  0  0  0  0  0
  146.7417  132.9006  152.0519 C   0  0  2  0  0  0  0  0  0  0  0  0
  147.5554  132.4658  153.2843 C   0  0  0  0  0  0  0  0  0  0  0  0
  147.9030  138.6888  156.6936 H   0  0  0  0  0  0  0  0  0  0  0  0
  148.9452  137.4464  156.0055 H   0  0  0  0  0  0  0  0  0  0  0  0
  147.2635  137.0794  156.3851 H   0  0  0  0  0  0  0  0  0  0  0  0
  146.4989  138.6852  154.6640 H   0  0  0  0  0  0  0  0  0  0  0  0
  148.3872  139.4279  152.9573 H   0  0  0  0  0  0  0  0  0  0  0  0
  148.1052  140.3791  154.3971 H   0  0  0  0  0  0  0  0  0  0  0  0
  150.2909  137.2704  153.5932 H   0  0  0  0  0  0  0  0  0  0  0  0
  152.7314  137.7482  154.7179 H   0  0  0  0  0  0  0  0  0  0  0  0
  152.4014  140.2403  155.8853 H   0  0  0  0  0  0  0  0  0  0  0  0
  148.2898  137.0629  153.0466 H   0  0  0  0  0  0  0  0  0  0  0  0
  147.6395  135.4122  152.1099 H   0  0  0  0  0  0  0  0  0  0  0  0
  145.2416  133.9967  153.1397 H   0  0  0  0  0  0  0  0  0  0  0  0
  144.4728  135.4533  151.2854 H   0  0  0  0  0  0  0  0  0  0  0  0
  145.7465  134.8597  150.2497 H   0  0  0  0  0  0  0  0  0  0  0  0
  143.4311  133.2212  151.3846 H   0  0  0  0  0  0  0  0  0  0  0  0
  143.6301  133.7112  149.7186 H   0  0  0  0  0  0  0  0  0  0  0  0
  144.3341  131.3368  150.0627 H   0  0  0  0  0  0  0  0  0  0  0  0
  145.6639  132.3207  149.4989 H   0  0  0  0  0  0  0  0  0  0  0  0
  145.1451  131.4717  152.3892 H   0  0  0  0  0  0  0  0  0  0  0  0
  146.4132  130.8710  151.3501 H   0  0  0  0  0  0  0  0  0  0  0  0
  147.4504  133.1037  151.2472 H   0  0  0  0  0  0  0  0  0  0  0  0
  146.9065  132.2853  154.1417 H   0  0  0  0  0  0  0  0  0  0  0  0
  148.2856  133.2218  153.5733 H   0  0  0  0  0  0  0  0  0  0  0  0
  148.1056  131.5457  153.0856 H   0  0  0  0  0  0  0  0  0  0  0  0
  1  2  1  0  0  0  0
  1 20  1  0  0  0  0
  1 21  1  0  0  0  0
  1 22  1  0  0  0  0
  2  3  1  0  0  0  0
  2  9  1  0  0  0  0
  2 23  1  0  0  0  0
  3  4  1  0  0  0  0
  3 24  1  0  0  0  0
  3 25  1  0  0  0  0
  4  8  1  0  0  0  0
  4  5  1  0  0  0  0
  5  6  2  0  0  0  0
  5 26  1  0  0  0  0
  6  7  1  0  0  0  0
  6 27  1  0  0  0  0
  7  8  2  0  0  0  0
  7 28  1  0  0  0  0
  9 10  1  0  0  0  0
  9 29  1  0  0  0  0
 10 11  2  0  0  0  0
 10 12  1  0  0  0  0
 12 13  1  0  0  0  0
 12 30  1  0  0  0  0
 13 18  1  0  0  0  0
 13 14  1  0  0  0  0
 13 31  1  0  0  0  0
 14 15  1  0  0  0  0
 14 32  1  0  0  0  0
 14 33  1  0  0  0  0
 15 16  1  0  0  0  0
 15 34  1  0  0  0  0
 15 35  1  0  0  0  0
 16 17  1  0  0  0  0
 16 36  1  0  0  0  0
 16 37  1  0  0  0  0
 17 18  1  0  0  0  0
 17 38  1  0  0  0  0
 17 39  1  0  0  0  0
 18 19  1  0  0  0  0
 18 40  1  0  0  0  0
 19 41  1  0  0  0  0
 19 42  1  0  0  0  0
 19 43  1  0  0  0  0
M  END
> <s_m_source_file>
AV-unprocessed.smi

> <i_m_source_file_index>
1840

> <i_lp_mmshare_version>
43012

> <i_f3d_flags>
0

> <s_epik_input>
bjFbY0hdW2NIXVtjSF1uMVtDSDJdW0NAQEhdKFtDSDNdKVtOSF1DKD1PKVtOSF1bQ0BASF0yW0NIMl1bQ0gyXVtDSDJdW0NIMl1bQ0BIXTJbQ0gzXQ==

> <s_epik_cmdline>
J2VwaWtfcHl0aG9uJywgJy1waCcsICc3LjAnLCAnLXRuJywgJzgnLCAnLW1hJywgJzIwMCcsICctbWV0YWxfYmluZGluZycsICctaW1hZScsICc8aW5maWxlLm1hZT4nLCAnLW9tYWUnLCAnPG91dGZpbGUubWFlPic=

> <r_lp_tautomer_probability>
1

> <r_epik_Ionization_Penalty>
7.38659e-05

> <r_epik_Ionization_Penalty_Charging>
0

> <r_epik_Ionization_Penalty_Neutral>
7.38659e-05

> <r_epik_State_Penalty>
-0

> <r_epik_Charging_Adjusted_Penalty>
0

> <i_epik_Tot_Q>
0

> <i_epik_Tot_abs_Q>
0

> <r_epik_Metal_State_Penalty>
-0

> <b_epik_Metal_Only>
0

> <s_lp_Force_Field>
OPLS_2005

> <r_lp_Energy>
7.84096

> <b_lp_Chiralities_Consistent>
1

> <s_lp_Variant>
AV-unprocessed.smi:1840-8

> <Gold.Version>
5.8.1

> <Gold.Id.Protein>
6NUR|6NUR_protein|mol2

> <Gold.PLP.Fitness>
40.9699

> <Gold.PLP.PLP>
-33.4195

> <Gold.PLP.part.hbond>
-2.4103

> <Gold.PLP.part.metal>
0.0000

> <Gold.PLP.part.buried>
-2.5319

> <Gold.PLP.part.nonpolar>
-28.6057

> <Gold.PLP.part.repulsive>
0.0959

> <Gold.PLP.ligand.clash>
0.0000

> <Gold.PLP.ligand.torsion>
0.7672

> <Gold.PLP.Chemscore.Hbond>
1.9200

> <Gold.PLP.Chemscore.CHOScore>
1.1034

> <Gold.PLP.Chemscore.Metal>
0.0000

> <Gold.Chemscore.Hbonds>
donor molecule, donor type, donor heavy atom, donor atom, acceptor molecule, acceptor atom, score
      L1  H     9    29       P1  7948  0.94
      L1  H    12    30       P1  7948  0.98
      L1  C     5    26       P1  7948  0.86
      L1  C     5    26       P1  7949  0.25

> <Gold.PLP.Chemscore.Internal.Correction>
0.0145

> <Gold.Rescore>
     Score         DG    S(hbond)    S(metal)    S(lipo)     H(rot)  DE(clash)    DE(int)     intcor
     16.21     -16.99       1.87        0.00      79.10       1.56       0.19       0.58       ----

> <Gold.Chemscore.Fitness>
16.2125

> <Gold.Chemscore.DG>
-16.9883

> <Gold.Chemscore.ZeroCoef>
-5.4800

> <Gold.Chemscore.Hbond>
1.8686

> <Gold.Chemscore.Metal>
0.0000

> <Gold.Chemscore.Lipo>
79.0997

> <Gold.Chemscore.Internal_Hbond>
0.0000

> <Gold.Chemscore.DEClash>
0.1937

> <Gold.Chemscore.DEInternal>
0.5820

> <Gold.Chemscore.Rot>
1.5576

> <Gold.Chemscore.Internal.Correction>
   9.000000E+99

> <Gold.Chemscore.Hbonds>
donor molecule, donor type, donor heavy atom, donor atom, acceptor molecule, acceptor atom, score
      L1  H     9    29       P1  7948  0.89
      L1  H    12    30       P1  7948  0.87

> <Gold.Chemscore.Hbond.Weighted>
-6.2411

> <Gold.Chemscore.Metal.Weighted>
-0.0000

> <Gold.Chemscore.Lipo.Weighted>
-9.2547

> <Gold.Chemscore.Internal_Hbond.Weighted>
0.0000

> <Gold.Chemscore.DEClash.Weighted>
0.1937

> <Gold.Chemscore.DEInternal.Weighted>
0.5820

> <Gold.Chemscore.Rot.Weighted>
3.9875

> <Gold.Chemscore.Internal.Correction.Weighted>
   9.000000E+99

> <Gold.Protein.RotatedTorsions>
[ 6907 6896 6895 6894 ] final  -23.64 input  -60.11 | X-H torsion
[ 7974 7965 7964 7962 ] final -108.43 input  175.53 | X-H torsion
[ 8008 7997 7996 7995 ] final   72.84 input   59.86 | X-H torsion
[ 10167 10162 10161 10158 ] final   70.77 input  -65.29 | X-H torsion
[ 10718 10713 10712 10709 ] final -139.03 input   66.30 | X-H torsion
[ 10763 10752 10751 10750 ] final  -70.56 input  -60.55 | X-H torsion
[ 11005 11000 10999 10996 ] final   93.25 input  -57.11 | X-H torsion

> <Gold.Protein.ActiveResidues>
 VAL166  LYS551  ARG553  GLY616  TRP617  ASP618  TYR619  PRO620  LYS621  CYS622 
 ASP623  PHE694  ASN695  SER759  ASP760  ASP761  ALA762  ILE779  LEU786  VAL792 
 PHE793  MET794  SER795  GLU796  ALA797  LYS798  CYS799  TRP800  GLU811  SER814 

> <Gold.Protein.RotatedAtoms>
  151.2010  135.0442  159.8871 H   0  0  0  0  0  0  0  0  0  0  0  0  # atno 6907 bound_to 6896
  152.5432  134.0850  159.8262 H   0  0  0  0  0  0  0  0  0  0  0  0  # atno 6908 bound_to 6896
  151.0990  133.5210  159.2643 H   0  0  0  0  0  0  0  0  0  0  0  0  # atno 6909 bound_to 6896
  145.1930  140.9023  143.3414 H   0  0  0  0  0  0  0  0  0  0  0  0  # atno 7974 bound_to 7965
  155.7749  140.3483  155.5266 H   0  0  0  0  0  0  0  0  0  0  0  0  # atno 8008 bound_to 7997
  155.8786  140.0998  157.1522 H   0  0  0  0  0  0  0  0  0  0  0  0  # atno 8009 bound_to 7997
  154.4023  140.1327  156.4155 H   0  0  0  0  0  0  0  0  0  0  0  0  # atno 8010 bound_to 7997
  140.0533  144.5293  150.7347 H   0  0  0  0  0  0  0  0  0  0  0  0  # atno 10167 bound_to 10162
  156.3060  130.7455  151.1519 H   0  0  0  0  0  0  0  0  0  0  0  0  # atno 10718 bound_to 10713
  154.4194  135.5990  153.6000 H   0  0  0  0  0  0  0  0  0  0  0  0  # atno 10763 bound_to 10752
  152.9793  135.5948  154.3974 H   0  0  0  0  0  0  0  0  0  0  0  0  # atno 10764 bound_to 10752
  154.3797  135.2841  155.2197 H   0  0  0  0  0  0  0  0  0  0  0  0  # atno 10765 bound_to 10752
  139.8812  134.8779  156.3691 H   0  0  0  0  0  0  0  0  0  0  0  0  # atno 11005 bound_to 11000
  145.0023  139.3587  143.6161 LP  0  0  0  0  0  0  0  0  0  0  0  0  # atno 17320 bound_to 7965
  146.3432  139.9251  142.8761 LP  0  0  0  0  0  0  0  0  0  0  0  0  # atno 17321 bound_to 7965
  140.7206  143.2585  151.4290 LP  0  0  0  0  0  0  0  0  0  0  0  0  # atno 17342 bound_to 10162
  139.5939  144.1439  152.2121 LP  0  0  0  0  0  0  0  0  0  0  0  0  # atno 17343 bound_to 10162
  157.7380  131.0546  150.5323 LP  0  0  0  0  0  0  0  0  0  0  0  0  # atno 17370 bound_to 10713
  156.5457  130.4219  149.6132 LP  0  0  0  0  0  0  0  0  0  0  0  0  # atno 17371 bound_to 10713
  140.9476  133.7472  156.0229 LP  0  0  0  0  0  0  0  0  0  0  0  0  # atno 17394 bound_to 11000
  140.8144  134.3362  157.5402 LP  0  0  0  0  0  0  0  0  0  0  0  0  # atno 17395 bound_to 11000

$$$$
