AV-unprocessed.smi:1718|AV-procd|sdf|6925|dock8
  -GOLD-   22720 8133D 1   1.00000     0.00000
 Structure written by MMmdl.
 40 41  0  0  0  0  0  0  0  0  1 V2000
  150.5936  138.1357  154.5702 C   0  0  0  0  0  0  0  0  0  0  0  0
  150.4106  139.6469  154.7712 C   0  0  1  0  0  0  0  0  0  0  0  0
  149.1118  139.9885  154.2941 O   0  0  0  0  0  0  0  0  0  0  0  0
  148.8130  141.3801  154.2759 C   0  0  0  0  0  0  0  0  0  0  0  0
  147.2944  141.5581  154.1648 C   0  0  1  0  0  0  0  0  0  0  0  0
  146.5120  140.9809  155.3452 C   0  0  0  0  0  0  0  0  0  0  0  0
  145.2731  141.8465  155.3461 C   0  0  0  0  0  0  0  0  0  0  0  0
  145.8552  143.2096  154.9880 C   0  0  0  0  0  0  0  0  0  0  0  0
  146.9593  142.9439  154.1270 O   0  0  0  0  0  0  0  0  0  0  0  0
  150.5500  140.0309  156.2530 C   0  0  0  0  0  0  0  0  0  0  0  0
  149.7189  139.6233  157.0646 O   0  0  0  0  0  0  0  0  0  0  0  0
  151.6065  140.8118  156.5526 N   0  0  0  0  0  0  0  0  0  0  0  0
  151.9606  141.3892  157.7829 C   0  0  0  0  0  0  0  0  0  0  0  0
  151.5738  142.6243  158.1954 C   0  0  0  0  0  0  0  0  0  0  0  0
  151.9900  143.1762  159.4725 C   0  0  0  0  0  0  0  0  0  0  0  0
  151.5205  144.5522  159.9163 C   0  0  0  0  0  0  0  0  0  0  0  0
  151.9402  144.8471  161.1475 F   0  0  0  0  0  0  0  0  0  0  0  0
  151.9819  145.4831  159.0819 F   0  0  0  0  0  0  0  0  0  0  0  0
  150.1893  144.6107  159.9012 F   0  0  0  0  0  0  0  0  0  0  0  0
  152.7904  142.4030  160.2301 C   0  0  0  0  0  0  0  0  0  0  0  0
  153.2038  141.1374  159.8069 N   0  0  0  0  0  0  0  0  0  0  0  0
  152.8477  140.5750  158.6299 C   0  0  0  0  0  0  0  0  0  0  0  0
  153.2588  139.4555  158.3263 O   0  0  0  0  0  0  0  0  0  0  0  0
  153.8092  140.6209  160.4288 H   0  0  0  0  0  0  0  0  0  0  0  0
  151.5683  137.8033  154.9289 H   0  0  0  0  0  0  0  0  0  0  0  0
  150.5267  137.8766  153.5134 H   0  0  0  0  0  0  0  0  0  0  0  0
  149.8285  137.5645  155.0978 H   0  0  0  0  0  0  0  0  0  0  0  0
  151.1626  140.1682  154.1754 H   0  0  0  0  0  0  0  0  0  0  0  0
  149.1776  141.8840  155.1718 H   0  0  0  0  0  0  0  0  0  0  0  0
  149.3020  141.8458  153.4193 H   0  0  0  0  0  0  0  0  0  0  0  0
  146.9330  141.1120  153.2370 H   0  0  0  0  0  0  0  0  0  0  0  0
  146.2930  139.9189  155.2310 H   0  0  0  0  0  0  0  0  0  0  0  0
  147.0614  141.1177  156.2780 H   0  0  0  0  0  0  0  0  0  0  0  0
  144.5824  141.5147  154.5697 H   0  0  0  0  0  0  0  0  0  0  0  0
  144.7459  141.8434  156.3004 H   0  0  0  0  0  0  0  0  0  0  0  0
  145.1247  143.8643  154.5124 H   0  0  0  0  0  0  0  0  0  0  0  0
  146.2266  143.7100  155.8831 H   0  0  0  0  0  0  0  0  0  0  0  0
  152.2556  140.9931  155.8001 H   0  0  0  0  0  0  0  0  0  0  0  0
  150.9571  143.2519  157.5725 H   0  0  0  0  0  0  0  0  0  0  0  0
  153.1712  142.6832  161.2011 H   0  0  0  0  0  0  0  0  0  0  0  0
  1  2  1  0  0  0  0
  1 25  1  0  0  0  0
  1 26  1  0  0  0  0
  1 27  1  0  0  0  0
  2  3  1  0  0  0  0
  2 10  1  0  0  0  0
  2 28  1  0  0  0  0
  3  4  1  0  0  0  0
  4  5  1  0  0  0  0
  4 29  1  0  0  0  0
  4 30  1  0  0  0  0
  5  9  1  0  0  0  0
  5  6  1  0  0  0  0
  5 31  1  0  0  0  0
  6  7  1  0  0  0  0
  6 32  1  0  0  0  0
  6 33  1  0  0  0  0
  7  8  1  0  0  0  0
  7 34  1  0  0  0  0
  7 35  1  0  0  0  0
  8  9  1  0  0  0  0
  8 36  1  0  0  0  0
  8 37  1  0  0  0  0
 10 11  2  0  0  0  0
 10 12  1  0  0  0  0
 12 13  1  0  0  0  0
 12 38  1  0  0  0  0
 13 22  1  0  0  0  0
 13 14  2  0  0  0  0
 14 15  1  0  0  0  0
 14 39  1  0  0  0  0
 15 16  1  0  0  0  0
 15 20  2  0  0  0  0
 16 17  1  0  0  0  0
 16 18  1  0  0  0  0
 16 19  1  0  0  0  0
 20 21  1  0  0  0  0
 20 40  1  0  0  0  0
 21 24  1  0  0  0  0
 21 22  1  0  0  0  0
 22 23  2  0  0  0  0
M  END
> <s_m_source_file>
AV-unprocessed.smi

> <i_m_source_file_index>
1718

> <i_lp_mmshare_version>
43012

> <i_f3d_flags>
0

> <s_epik_input>
TzFbQ0gyXVtDSDJdW0NIMl1bQ0BIXTFbQ0gyXU9bQ0BASF0oW0NIM10pQyg9TylbTkhdYzJbY0hdYyhDKEYpKEYpRilbY0hdW25IXWMyPU8=

> <s_epik_cmdline>
J2VwaWtfcHl0aG9uJywgJy1waCcsICc3LjAnLCAnLXRuJywgJzgnLCAnLW1hJywgJzIwMCcsICctbWV0YWxfYmluZGluZycsICctaW1hZScsICc8aW5maWxlLm1hZT4nLCAnLW9tYWUnLCAnPG91dGZpbGUubWFlPic=

> <r_lp_tautomer_probability>
0.999

> <r_epik_Ionization_Penalty>
0.00894336

> <r_epik_Ionization_Penalty_Charging>
0.00894326

> <r_epik_Ionization_Penalty_Neutral>
1.00145e-07

> <r_epik_State_Penalty>
0.00676626

> <r_epik_Charging_Adjusted_Penalty>
0.0157095

> <i_epik_Tot_Q>
0

> <i_epik_Tot_abs_Q>
0

> <r_epik_Metal_State_Penalty>
0.321145

> <b_epik_Metal_Only>
0

> <s_lp_Force_Field>
OPLS_2005

> <r_lp_Energy>
34.4612

> <b_lp_Chiralities_Consistent>
1

> <s_lp_Variant>
AV-unprocessed.smi:1718-4

> <Gold.Version>
5.8.1

> <Gold.Id.Protein>
6NUR|6NUR_protein|mol2

> <Gold.PLP.Fitness>
45.2482

> <Gold.PLP.PLP>
-44.9478

> <Gold.PLP.part.hbond>
-1.6258

> <Gold.PLP.part.metal>
0.0000

> <Gold.PLP.part.buried>
-3.6602

> <Gold.PLP.part.nonpolar>
-40.3385

> <Gold.PLP.part.repulsive>
1.3800

> <Gold.PLP.ligand.clash>
0.1615

> <Gold.PLP.ligand.torsion>
0.9473

> <Gold.PLP.Chemscore.Hbond>
0.7500

> <Gold.PLP.Chemscore.CHOScore>
0.0000

> <Gold.PLP.Chemscore.Metal>
0.0000

> <Gold.Chemscore.Hbonds>
donor molecule, donor type, donor heavy atom, donor atom, acceptor molecule, acceptor atom, score
      P1  H  7997  8008       L1    23  0.85

> <Gold.PLP.Chemscore.Internal.Correction>
0.1063

> <Gold.Rescore>
     Score         DG    S(hbond)    S(metal)    S(lipo)     H(rot)  DE(clash)    DE(int)     intcor
     11.95     -13.85       0.87        0.00      87.79       1.88       0.96       0.95       ----

> <Gold.Chemscore.Fitness>
11.9469

> <Gold.Chemscore.DG>
-13.8531

> <Gold.Chemscore.ZeroCoef>
-5.4800

> <Gold.Chemscore.Hbond>
0.8718

> <Gold.Chemscore.Metal>
0.0000

> <Gold.Chemscore.Lipo>
87.7907

> <Gold.Chemscore.Internal_Hbond>
0.0000

> <Gold.Chemscore.DEClash>
0.9574

> <Gold.Chemscore.DEInternal>
0.9488

> <Gold.Chemscore.Rot>
1.8790

> <Gold.Chemscore.Internal.Correction>
   9.000000E+99

> <Gold.Chemscore.Hbonds>
donor molecule, donor type, donor heavy atom, donor atom, acceptor molecule, acceptor atom, score
      P1  H  7997  8008       L1    23  0.14
      P1  H  8022  8030       L1     9  0.01

> <Gold.Chemscore.Hbond.Weighted>
-2.9117

> <Gold.Chemscore.Metal.Weighted>
-0.0000

> <Gold.Chemscore.Lipo.Weighted>
-10.2715

> <Gold.Chemscore.Internal_Hbond.Weighted>
0.0000

> <Gold.Chemscore.DEClash.Weighted>
0.9574

> <Gold.Chemscore.DEInternal.Weighted>
0.9488

> <Gold.Chemscore.Rot.Weighted>
4.8102

> <Gold.Chemscore.Internal.Correction.Weighted>
   9.000000E+99

> <Gold.Protein.RotatedTorsions>
[ 6907 6896 6895 6894 ] final -107.74 input  -60.11 | X-H torsion
[ 7974 7965 7964 7962 ] final   68.17 input  175.53 | X-H torsion
[ 8008 7997 7996 7995 ] final  -77.46 input   59.86 | X-H torsion
[ 10167 10162 10161 10158 ] final   49.12 input  -65.29 | X-H torsion
[ 10718 10713 10712 10709 ] final  -48.19 input   66.30 | X-H torsion
[ 10763 10752 10751 10750 ] final -109.69 input  -60.55 | X-H torsion
[ 11005 11000 10999 10996 ] final  144.41 input  -57.11 | X-H torsion

> <Gold.Protein.ActiveResidues>
 VAL166  LYS551  ARG553  GLY616  TRP617  ASP618  TYR619  PRO620  LYS621  CYS622 
 ASP623  PHE694  ASN695  SER759  ASP760  ASP761  ALA762  ILE779  LEU786  VAL792 
 PHE793  MET794  SER795  GLU796  ALA797  LYS798  CYS799  TRP800  GLU811  SER814 

> <Gold.Protein.RotatedAtoms>
  150.7461  133.9781  159.3567 H   0  0  0  0  0  0  0  0  0  0  0  0  # atno 6907 bound_to 6896
  151.7719  135.0782  160.0370 H   0  0  0  0  0  0  0  0  0  0  0  0  # atno 6908 bound_to 6896
  152.3333  133.5946  159.5861 H   0  0  0  0  0  0  0  0  0  0  0  0  # atno 6909 bound_to 6896
  145.8058  139.3006  143.1128 H   0  0  0  0  0  0  0  0  0  0  0  0  # atno 7974 bound_to 7965
  154.5598  140.0710  156.8801 H   0  0  0  0  0  0  0  0  0  0  0  0  # atno 8008 bound_to 7997
  155.2832  140.3373  155.4239 H   0  0  0  0  0  0  0  0  0  0  0  0  # atno 8009 bound_to 7997
  156.2033  140.1730  156.7839 H   0  0  0  0  0  0  0  0  0  0  0  0  # atno 8010 bound_to 7997
  140.2862  144.3099  150.6252 H   0  0  0  0  0  0  0  0  0  0  0  0  # atno 10167 bound_to 10162
  156.2012  130.4156  149.9238 H   0  0  0  0  0  0  0  0  0  0  0  0  # atno 10718 bound_to 10713
  154.8207  135.4592  154.0771 H   0  0  0  0  0  0  0  0  0  0  0  0  # atno 10763 bound_to 10752
  153.2127  135.6884  153.8101 H   0  0  0  0  0  0  0  0  0  0  0  0  # atno 10764 bound_to 10752
  153.7547  135.3293  155.3304 H   0  0  0  0  0  0  0  0  0  0  0  0  # atno 10765 bound_to 10752
  140.0630  134.9194  157.1216 H   0  0  0  0  0  0  0  0  0  0  0  0  # atno 11005 bound_to 11000
  145.9829  140.8667  143.0105 LP  0  0  0  0  0  0  0  0  0  0  0  0  # atno 17320 bound_to 7965
  144.6763  140.2106  143.7377 LP  0  0  0  0  0  0  0  0  0  0  0  0  # atno 17321 bound_to 7965
  140.5771  143.2175  151.7496 LP  0  0  0  0  0  0  0  0  0  0  0  0  # atno 17342 bound_to 10162
  139.4950  144.4134  152.0056 LP  0  0  0  0  0  0  0  0  0  0  0  0  # atno 17343 bound_to 10162
  156.6947  130.8909  151.3592 LP  0  0  0  0  0  0  0  0  0  0  0  0  # atno 17370 bound_to 10713
  157.6987  130.9309  150.0719 LP  0  0  0  0  0  0  0  0  0  0  0  0  # atno 17371 bound_to 10713
  140.3741  134.2358  155.7175 LP  0  0  0  0  0  0  0  0  0  0  0  0  # atno 17394 bound_to 11000
  141.1981  133.8043  157.0598 LP  0  0  0  0  0  0  0  0  0  0  0  0  # atno 17395 bound_to 11000

$$$$
