AV-unprocessed.smi:719|AV-procd|sdf|3494|dock7
  -GOLD-   22720 0493D 1   1.00000     0.00000
 Structure written by MMmdl.
 41 43  0  0  0  0  0  0  0  0  1 V2000
  145.4918  144.9667  151.8734 C   0  0  0  0  0  0  0  0  0  0  0  0
  144.6623  145.0210  153.1609 C   0  0  0  0  0  0  0  0  0  0  0  0
  145.0635  143.9588  154.1419 C   0  0  0  0  0  0  0  0  0  0  0  0
  146.1479  143.1271  153.8457 N   0  0  0  0  0  0  0  0  0  0  0  0
  146.3836  142.2268  154.8022 C   0  0  0  0  0  0  0  0  0  0  0  0
  147.5000  141.2390  154.7471 C   0  0  0  0  0  0  0  0  0  0  0  0
  148.8141  141.8688  154.2573 C   0  0  0  0  0  0  0  0  0  0  0  0
  149.6936  142.2209  155.3661 N   0  0  0  0  0  0  0  0  0  0  0  0
  150.6470  141.4277  155.8781 C   0  0  0  0  0  0  0  0  0  0  0  0
  150.8864  140.3002  155.4433 O   0  0  0  0  0  0  0  0  0  0  0  0
  151.3933  142.0368  157.0198 C   0  0  2  0  0  0  0  0  0  0  0  0
  151.3539  141.3043  158.3489 C   0  0  1  0  0  0  0  0  0  0  0  0
  152.3995  141.5171  159.4192 C   0  0  0  0  0  0  0  0  0  0  0  0
  152.4818  143.0395  159.6264 C   0  0  0  0  0  0  0  0  0  0  0  0
  151.1307  143.5999  159.1493 C   0  0  0  0  0  0  0  0  0  0  0  0
  150.5796  142.5764  158.1832 C   0  0  1  0  0  0  0  0  0  0  0  0
  145.2898  142.3704  156.1706 S   0  0  0  0  0  0  0  0  0  0  0  0
  144.4862  143.6915  155.3616 C   0  0  0  0  0  0  0  0  0  0  0  0
  143.3270  144.3850  155.9971 C   0  0  0  0  0  0  0  0  0  0  0  0
  145.1866  145.7517  151.1814 H   0  0  0  0  0  0  0  0  0  0  0  0
  145.3698  144.0095  151.3658 H   0  0  0  0  0  0  0  0  0  0  0  0
  146.5531  145.1023  152.0841 H   0  0  0  0  0  0  0  0  0  0  0  0
  144.7618  146.0093  153.6105 H   0  0  0  0  0  0  0  0  0  0  0  0
  143.6061  144.9163  152.9100 H   0  0  0  0  0  0  0  0  0  0  0  0
  147.6286  140.8122  155.7423 H   0  0  0  0  0  0  0  0  0  0  0  0
  147.2085  140.4180  154.0911 H   0  0  0  0  0  0  0  0  0  0  0  0
  149.3456  141.1643  153.6170 H   0  0  0  0  0  0  0  0  0  0  0  0
  148.6118  142.7512  153.6477 H   0  0  0  0  0  0  0  0  0  0  0  0
  149.5641  143.1335  155.7789 H   0  0  0  0  0  0  0  0  0  0  0  0
  152.3146  142.5615  156.7704 H   0  0  0  0  0  0  0  0  0  0  0  0
  150.8041  140.3658  158.3999 H   0  0  0  0  0  0  0  0  0  0  0  0
  152.0679  141.0270  160.3352 H   0  0  0  0  0  0  0  0  0  0  0  0
  153.3551  141.0823  159.1253 H   0  0  0  0  0  0  0  0  0  0  0  0
  152.7060  143.3092  160.6588 H   0  0  0  0  0  0  0  0  0  0  0  0
  153.2800  143.4449  159.0032 H   0  0  0  0  0  0  0  0  0  0  0  0
  150.4417  143.6948  159.9894 H   0  0  0  0  0  0  0  0  0  0  0  0
  151.2264  144.5761  158.6732 H   0  0  0  0  0  0  0  0  0  0  0  0
  149.4940  142.5173  158.1221 H   0  0  0  0  0  0  0  0  0  0  0  0
  143.4894  145.4627  156.0257 H   0  0  0  0  0  0  0  0  0  0  0  0
  143.1735  144.0425  157.0208 H   0  0  0  0  0  0  0  0  0  0  0  0
  142.4105  144.1955  155.4384 H   0  0  0  0  0  0  0  0  0  0  0  0
  1  2  1  0  0  0  0
  1 20  1  0  0  0  0
  1 21  1  0  0  0  0
  1 22  1  0  0  0  0
  2  3  1  0  0  0  0
  2 23  1  0  0  0  0
  2 24  1  0  0  0  0
  3 18  2  0  0  0  0
  3  4  1  0  0  0  0
  4  5  2  0  0  0  0
  5  6  1  0  0  0  0
  5 17  1  0  0  0  0
  6  7  1  0  0  0  0
  6 25  1  0  0  0  0
  6 26  1  0  0  0  0
  7  8  1  0  0  0  0
  7 27  1  0  0  0  0
  7 28  1  0  0  0  0
  8  9  1  0  0  0  0
  8 29  1  0  0  0  0
  9 10  2  0  0  0  0
  9 11  1  0  0  0  0
 11 16  1  0  0  0  0
 11 12  1  0  0  0  0
 11 30  1  0  0  0  0
 12 16  1  0  0  0  0
 12 13  1  0  0  0  0
 12 31  1  0  0  0  0
 13 14  1  0  0  0  0
 13 32  1  0  0  0  0
 13 33  1  0  0  0  0
 14 15  1  0  0  0  0
 14 34  1  0  0  0  0
 14 35  1  0  0  0  0
 15 16  1  0  0  0  0
 15 36  1  0  0  0  0
 15 37  1  0  0  0  0
 16 38  1  0  0  0  0
 17 18  1  0  0  0  0
 18 19  1  0  0  0  0
 19 39  1  0  0  0  0
 19 40  1  0  0  0  0
 19 41  1  0  0  0  0
M  END
> <s_m_source_file>
AV-unprocessed.smi

> <i_m_source_file_index>
719

> <i_lp_mmshare_version>
43012

> <i_f3d_flags>
0

> <s_epik_input>
W0NIM11bQ0gyXWMxbmMoc2MxW0NIM10pW0NIMl1bQ0gyXVtOSF1DKD1PKVtDQEhdMltDQEhdKFtDQEBIXTIzKVtDSDJdW0NIMl1bQ0gyXTM=

> <s_epik_cmdline>
J2VwaWtfcHl0aG9uJywgJy1waCcsICc3LjAnLCAnLXRuJywgJzgnLCAnLW1hJywgJzIwMCcsICctbWV0YWxfYmluZGluZycsICctaW1hZScsICc8aW5maWxlLm1hZT4nLCAnLW9tYWUnLCAnPG91dGZpbGUubWFlPic=

> <r_epik_Ionization_Penalty>
0.00247473

> <r_epik_Ionization_Penalty_Charging>
0

> <r_epik_Ionization_Penalty_Neutral>
0.00247473

> <r_epik_State_Penalty>
0.00171502

> <r_epik_Charging_Adjusted_Penalty>
0.00171502

> <i_epik_Tot_Q>
0

> <i_epik_Tot_abs_Q>
0

> <r_epik_Metal_State_Penalty>
-0

> <b_epik_Metal_Only>
0

> <s_lp_Force_Field>
OPLS_2005

> <r_lp_Energy>
19.4586

> <b_lp_Chiralities_Consistent>
1

> <s_lp_Variant>
AV-unprocessed.smi:719-2

> <Gold.Version>
5.8.1

> <Gold.Id.Protein>
6NUR|6NUR_protein|mol2

> <Gold.PLP.Fitness>
43.0196

> <Gold.PLP.PLP>
-38.7601

> <Gold.PLP.part.hbond>
-2.0000

> <Gold.PLP.part.metal>
0.0000

> <Gold.PLP.part.buried>
-3.7898

> <Gold.PLP.part.nonpolar>
-32.9407

> <Gold.PLP.part.repulsive>
0.4369

> <Gold.PLP.ligand.clash>
0.0000

> <Gold.PLP.ligand.torsion>
0.7086

> <Gold.PLP.Chemscore.Hbond>
1.8640

> <Gold.PLP.Chemscore.CHOScore>
0.0000

> <Gold.PLP.Chemscore.Metal>
0.0000

> <Gold.Chemscore.Hbonds>
donor molecule, donor type, donor heavy atom, donor atom, acceptor molecule, acceptor atom, score
      L1  H     8    29       P1  8028  0.96
      P1  H  7989  7998       L1    10  0.61

> <Gold.PLP.Chemscore.Internal.Correction>
0.0847

> <Gold.Rescore>
     Score         DG    S(hbond)    S(metal)    S(lipo)     H(rot)  DE(clash)    DE(int)     intcor
     15.24     -18.56       1.35        0.00     104.31       1.42       2.26       1.06       ----

> <Gold.Chemscore.Fitness>
15.2426

> <Gold.Chemscore.DG>
-18.5616

> <Gold.Chemscore.ZeroCoef>
-5.4800

> <Gold.Chemscore.Hbond>
1.3516

> <Gold.Chemscore.Metal>
0.0000

> <Gold.Chemscore.Lipo>
104.3141

> <Gold.Chemscore.Internal_Hbond>
0.0000

> <Gold.Chemscore.DEClash>
2.2579

> <Gold.Chemscore.DEInternal>
1.0611

> <Gold.Chemscore.Rot>
1.4209

> <Gold.Chemscore.Internal.Correction>
   9.000000E+99

> <Gold.Chemscore.Hbonds>
donor molecule, donor type, donor heavy atom, donor atom, acceptor molecule, acceptor atom, score
      L1  H     8    29       P1  8028  0.92
      P1  H  7989  7998       L1    10  0.12

> <Gold.Chemscore.Hbond.Weighted>
-4.5144

> <Gold.Chemscore.Metal.Weighted>
-0.0000

> <Gold.Chemscore.Lipo.Weighted>
-12.2048

> <Gold.Chemscore.Internal_Hbond.Weighted>
0.0000

> <Gold.Chemscore.DEClash.Weighted>
2.2579

> <Gold.Chemscore.DEInternal.Weighted>
1.0611

> <Gold.Chemscore.Rot.Weighted>
3.6376

> <Gold.Chemscore.Internal.Correction.Weighted>
   9.000000E+99

> <Gold.Protein.RotatedTorsions>
[ 6907 6896 6895 6894 ] final -122.54 input  -60.11 | X-H torsion
[ 7974 7965 7964 7962 ] final   33.41 input  175.53 | X-H torsion
[ 8008 7997 7996 7995 ] final   76.41 input   59.86 | X-H torsion
[ 10167 10162 10161 10158 ] final -161.59 input  -65.29 | X-H torsion
[ 10718 10713 10712 10709 ] final -165.31 input   66.30 | X-H torsion
[ 10763 10752 10751 10750 ] final  -63.98 input  -60.55 | X-H torsion
[ 11005 11000 10999 10996 ] final   92.12 input  -57.11 | X-H torsion

> <Gold.Protein.ActiveResidues>
 VAL166  LYS551  ARG553  GLY616  TRP617  ASP618  TYR619  PRO620  LYS621  CYS622 
 ASP623  PHE694  ASN695  SER759  ASP760  ASP761  ALA762  ILE779  LEU786  VAL792 
 PHE793  MET794  SER795  GLU796  ALA797  LYS798  CYS799  TRP800  GLU811  SER814 

> <Gold.Protein.RotatedAtoms>
  150.8586  133.7678  159.2999 H   0  0  0  0  0  0  0  0  0  0  0  0  # atno 6907 bound_to 6896
  151.5327  135.1067  159.9916 H   0  0  0  0  0  0  0  0  0  0  0  0  # atno 6908 bound_to 6896
  152.4609  133.7776  159.6889 H   0  0  0  0  0  0  0  0  0  0  0  0  # atno 6909 bound_to 6896
  146.1422  139.6401  142.9155 H   0  0  0  0  0  0  0  0  0  0  0  0  # atno 7974 bound_to 7965
  155.8269  140.3467  155.5548 H   0  0  0  0  0  0  0  0  0  0  0  0  # atno 8008 bound_to 7997
  155.8283  140.0923  157.1828 H   0  0  0  0  0  0  0  0  0  0  0  0  # atno 8009 bound_to 7997
  154.4004  140.1417  156.3570 H   0  0  0  0  0  0  0  0  0  0  0  0  # atno 8010 bound_to 7997
  139.6454  144.0182  152.2123 H   0  0  0  0  0  0  0  0  0  0  0  0  # atno 10167 bound_to 10162
  156.6516  130.9009  151.3014 H   0  0  0  0  0  0  0  0  0  0  0  0  # atno 10718 bound_to 10713
  154.3233  135.6192  153.5517 H   0  0  0  0  0  0  0  0  0  0  0  0  # atno 10763 bound_to 10752
  152.9818  135.5729  154.5045 H   0  0  0  0  0  0  0  0  0  0  0  0  # atno 10764 bound_to 10752
  154.4718  135.2859  155.1614 H   0  0  0  0  0  0  0  0  0  0  0  0  # atno 10765 bound_to 10752
  139.8828  134.8714  156.3526 H   0  0  0  0  0  0  0  0  0  0  0  0  # atno 11005 bound_to 11000
  145.5020  141.0437  143.2535 LP  0  0  0  0  0  0  0  0  0  0  0  0  # atno 17320 bound_to 7965
  144.7806  139.6535  143.7156 LP  0  0  0  0  0  0  0  0  0  0  0  0  # atno 17321 bound_to 7965
  139.9882  144.6380  150.7838 LP  0  0  0  0  0  0  0  0  0  0  0  0  # atno 17342 bound_to 10162
  140.7512  143.2968  151.3183 LP  0  0  0  0  0  0  0  0  0  0  0  0  # atno 17343 bound_to 10162
  157.7139  130.9473  150.1185 LP  0  0  0  0  0  0  0  0  0  0  0  0  # atno 17370 bound_to 10713
  156.2080  130.3664  149.8705 LP  0  0  0  0  0  0  0  0  0  0  0  0  # atno 17371 bound_to 10713
  140.9584  133.7405  156.0367 LP  0  0  0  0  0  0  0  0  0  0  0  0  # atno 17394 bound_to 11000
  140.8020  134.3498  157.5436 LP  0  0  0  0  0  0  0  0  0  0  0  0  # atno 17395 bound_to 11000

$$$$
