AV-unprocessed.smi:2954|AV-procd|sdf|11297|dock2
  -GOLD-   2272016193D 1   1.00000     0.00000
 Structure written by MMmdl.
 42 44  0  0  0  0  0  0  0  0  1 V2000
  151.6488  139.2656  155.2219 C   0  0  0  0  0  0  0  0  0  0  0  0
  150.5996  139.7274  156.2506 C   0  0  2  0  0  0  0  0  0  0  0  0
  149.2731  139.9563  155.6729 N   0  0  0  0  0  0  0  0  0  0  0  0
  148.9759  140.7542  154.6371 C   0  0  0  0  0  0  0  0  0  0  0  0
  149.8211  141.4063  154.0294 O   0  0  0  0  0  0  0  0  0  0  0  0
  151.0371  140.9447  157.0314 C   0  0  0  0  0  0  0  0  0  0  0  0
  150.8891  142.1835  156.5537 N   0  0  0  0  0  0  0  0  0  0  0  0
  151.4234  142.9697  157.5537 C   0  0  0  0  0  0  0  0  0  0  0  0
  151.5695  144.3726  157.6393 C   0  0  0  0  0  0  0  0  0  0  0  0
  152.1648  144.9601  158.7747 C   0  0  0  0  0  0  0  0  0  0  0  0
  152.6207  144.1546  159.8380 C   0  0  0  0  0  0  0  0  0  0  0  0
  152.4810  142.7550  159.7736 C   0  0  0  0  0  0  0  0  0  0  0  0
  151.8848  142.1734  158.6381 C   0  0  0  0  0  0  0  0  0  0  0  0
  151.6061  140.8616  158.2637 N   0  0  0  0  0  0  0  0  0  0  0  0
  151.9029  139.6742  159.0543 C   0  0  0  0  0  0  0  0  0  0  0  0
  153.3999  139.5636  159.3761 C   0  0  0  0  0  0  0  0  0  0  0  0
  153.5861  138.5006  160.3005 O   0  0  0  0  0  0  0  0  0  0  0  0
  154.0356  138.7969  161.5689 C   0  0  0  0  0  0  0  0  0  0  0  0
  154.3437  140.1081  162.0120 C   0  0  0  0  0  0  0  0  0  0  0  0
  154.7985  140.3283  163.3267 C   0  0  0  0  0  0  0  0  0  0  0  0
  154.9521  139.2459  164.2121 C   0  0  0  0  0  0  0  0  0  0  0  0
  154.6509  137.9411  163.7810 C   0  0  0  0  0  0  0  0  0  0  0  0
  154.1951  137.7180  162.4668 C   0  0  0  0  0  0  0  0  0  0  0  0
  153.8241  136.1077  161.9620 Cl  0  0  0  0  0  0  0  0  0  0  0  0
  152.5834  139.0022  155.7181 H   0  0  0  0  0  0  0  0  0  0  0  0
  151.8768  140.0417  154.4908 H   0  0  0  0  0  0  0  0  0  0  0  0
  151.3056  138.3848  154.6787 H   0  0  0  0  0  0  0  0  0  0  0  0
  150.4627  138.8905  156.9312 H   0  0  0  0  0  0  0  0  0  0  0  0
  148.5083  139.4560  156.1018 H   0  0  0  0  0  0  0  0  0  0  0  0
  147.9006  140.7472  154.4026 H   0  0  0  0  0  0  0  0  0  0  0  0
  151.2260  144.9975  156.8281 H   0  0  0  0  0  0  0  0  0  0  0  0
  152.2739  146.0333  158.8288 H   0  0  0  0  0  0  0  0  0  0  0  0
  153.0789  144.6116  160.7030 H   0  0  0  0  0  0  0  0  0  0  0  0
  152.8349  142.1369  160.5851 H   0  0  0  0  0  0  0  0  0  0  0  0
  151.3331  139.7241  159.9826 H   0  0  0  0  0  0  0  0  0  0  0  0
  151.5424  138.7867  158.5350 H   0  0  0  0  0  0  0  0  0  0  0  0
  153.9613  139.3732  158.4603 H   0  0  0  0  0  0  0  0  0  0  0  0
  153.7559  140.5025  159.8028 H   0  0  0  0  0  0  0  0  0  0  0  0
  154.2414  140.9630  161.3611 H   0  0  0  0  0  0  0  0  0  0  0  0
  155.0300  141.3305  163.6558 H   0  0  0  0  0  0  0  0  0  0  0  0
  155.3007  139.4160  165.2201 H   0  0  0  0  0  0  0  0  0  0  0  0
  154.7687  137.1097  164.4606 H   0  0  0  0  0  0  0  0  0  0  0  0
  1  2  1  0  0  0  0
  1 25  1  0  0  0  0
  1 26  1  0  0  0  0
  1 27  1  0  0  0  0
  2  3  1  0  0  0  0
  2  6  1  0  0  0  0
  2 28  1  0  0  0  0
  3  4  1  0  0  0  0
  3 29  1  0  0  0  0
  4  5  2  0  0  0  0
  4 30  1  0  0  0  0
  6 14  1  0  0  0  0
  6  7  2  0  0  0  0
  7  8  1  0  0  0  0
  8 13  2  0  0  0  0
  8  9  1  0  0  0  0
  9 10  2  0  0  0  0
  9 31  1  0  0  0  0
 10 11  1  0  0  0  0
 10 32  1  0  0  0  0
 11 12  2  0  0  0  0
 11 33  1  0  0  0  0
 12 13  1  0  0  0  0
 12 34  1  0  0  0  0
 13 14  1  0  0  0  0
 14 15  1  0  0  0  0
 15 16  1  0  0  0  0
 15 35  1  0  0  0  0
 15 36  1  0  0  0  0
 16 17  1  0  0  0  0
 16 37  1  0  0  0  0
 16 38  1  0  0  0  0
 17 18  1  0  0  0  0
 18 23  1  0  0  0  0
 18 19  2  0  0  0  0
 19 20  1  0  0  0  0
 19 39  1  0  0  0  0
 20 21  2  0  0  0  0
 20 40  1  0  0  0  0
 21 22  1  0  0  0  0
 21 41  1  0  0  0  0
 22 23  2  0  0  0  0
 22 42  1  0  0  0  0
 23 24  1  0  0  0  0
M  END
> <s_m_source_file>
AV-unprocessed.smi

> <i_m_source_file_index>
2954

> <i_lp_mmshare_version>
43012

> <i_f3d_flags>
0

> <s_epik_input>
Tz1bQ0hdW05IXVtDQEBIXShbQ0gzXSljKG4xKW4oYyhjMTIpW2NIXVtjSF1bY0hdW2NIXTIpW0NIMl1bQ0gyXU9jM1tjSF1bY0hdW2NIXVtjSF1jM0Ns

> <s_epik_cmdline>
J2VwaWtfcHl0aG9uJywgJy1waCcsICc3LjAnLCAnLXRuJywgJzgnLCAnLW1hJywgJzIwMCcsICctbWV0YWxfYmluZGluZycsICctaW1hZScsICc8aW5maWxlLm1hZT4nLCAnLW9tYWUnLCAnPG91dGZpbGUubWFlPic=

> <r_lp_tautomer_probability>
1

> <r_epik_Ionization_Penalty>
0.0861383

> <r_epik_Ionization_Penalty_Charging>
0

> <r_epik_Ionization_Penalty_Neutral>
0.0861383

> <r_epik_State_Penalty>
0.0766841

> <r_epik_Charging_Adjusted_Penalty>
0.0766841

> <i_epik_Tot_Q>
0

> <i_epik_Tot_abs_Q>
0

> <r_epik_Metal_State_Penalty>
0.0668745

> <b_epik_Metal_Only>
0

> <s_lp_Force_Field>
OPLS_2005

> <r_lp_Energy>
13.8103

> <b_lp_Chiralities_Consistent>
1

> <s_lp_Variant>
AV-unprocessed.smi:2954-1

> <Gold.Version>
5.8.1

> <Gold.Id.Protein>
6NUR|6NUR_protein|mol2

> <Gold.PLP.Fitness>
49.0582

> <Gold.PLP.PLP>
-48.1639

> <Gold.PLP.part.hbond>
-2.0000

> <Gold.PLP.part.metal>
0.0000

> <Gold.PLP.part.buried>
-2.9356

> <Gold.PLP.part.nonpolar>
-42.2890

> <Gold.PLP.part.repulsive>
0.3270

> <Gold.PLP.ligand.clash>
0.0000

> <Gold.PLP.ligand.torsion>
0.9996

> <Gold.PLP.Chemscore.Hbond>
0.9178

> <Gold.PLP.Chemscore.CHOScore>
0.0000

> <Gold.PLP.Chemscore.Metal>
0.0000

> <Gold.Chemscore.Hbonds>
donor molecule, donor type, donor heavy atom, donor atom, acceptor molecule, acceptor atom, score
      P1  H  7989  7998       L1     5  0.27
      P1  H  8011  8017       L1     5  0.67

> <Gold.PLP.Chemscore.Internal.Correction>
0.1400

> <Gold.Rescore>
     Score         DG    S(hbond)    S(metal)    S(lipo)     H(rot)  DE(clash)    DE(int)     intcor
     15.40     -18.79       0.78        0.00     141.55       2.28       0.06       3.34       ----

> <Gold.Chemscore.Fitness>
15.3984

> <Gold.Chemscore.DG>
-18.7930

> <Gold.Chemscore.ZeroCoef>
-5.4800

> <Gold.Chemscore.Hbond>
0.7787

> <Gold.Chemscore.Metal>
0.0000

> <Gold.Chemscore.Lipo>
141.5525

> <Gold.Chemscore.Internal_Hbond>
0.0000

> <Gold.Chemscore.DEClash>
0.0586

> <Gold.Chemscore.DEInternal>
3.3360

> <Gold.Chemscore.Rot>
2.2849

> <Gold.Chemscore.Internal.Correction>
   9.000000E+99

> <Gold.Chemscore.Hbonds>
donor molecule, donor type, donor heavy atom, donor atom, acceptor molecule, acceptor atom, score
      P1  H  7989  7998       L1     5  0.26
      P1  H  8011  8017       L1     5  0.65

> <Gold.Chemscore.Hbond.Weighted>
-2.6008

> <Gold.Chemscore.Metal.Weighted>
-0.0000

> <Gold.Chemscore.Lipo.Weighted>
-16.5616

> <Gold.Chemscore.Internal_Hbond.Weighted>
0.0000

> <Gold.Chemscore.DEClash.Weighted>
0.0586

> <Gold.Chemscore.DEInternal.Weighted>
3.3360

> <Gold.Chemscore.Rot.Weighted>
5.8495

> <Gold.Chemscore.Internal.Correction.Weighted>
   9.000000E+99

> <Gold.Protein.RotatedTorsions>
[ 6907 6896 6895 6894 ] final  -15.19 input  -60.11 | X-H torsion
[ 7974 7965 7964 7962 ] final  175.77 input  175.53 | X-H torsion
[ 8008 7997 7996 7995 ] final    6.61 input   59.86 | X-H torsion
[ 10167 10162 10161 10158 ] final  169.42 input  -65.29 | X-H torsion
[ 10718 10713 10712 10709 ] final  166.17 input   66.30 | X-H torsion
[ 10763 10752 10751 10750 ] final -154.00 input  -60.55 | X-H torsion
[ 11005 11000 10999 10996 ] final   42.50 input  -57.11 | X-H torsion

> <Gold.Protein.ActiveResidues>
 VAL166  LYS551  ARG553  GLY616  TRP617  ASP618  TYR619  PRO620  LYS621  CYS622 
 ASP623  PHE694  ASN695  SER759  ASP760  ASP761  ALA762  ILE779  LEU786  VAL792 
 PHE793  MET794  SER795  GLU796  ALA797  LYS798  CYS799  TRP800  GLU811  SER814 

> <Gold.Protein.RotatedAtoms>
  151.3278  135.0834  159.9327 H   0  0  0  0  0  0  0  0  0  0  0  0  # atno 6907 bound_to 6896
  152.5242  133.9573  159.7711 H   0  0  0  0  0  0  0  0  0  0  0  0  # atno 6908 bound_to 6896
  150.9906  133.6100  159.2739 H   0  0  0  0  0  0  0  0  0  0  0  0  # atno 6909 bound_to 6896
  144.7196  139.9996  143.6440 H   0  0  0  0  0  0  0  0  0  0  0  0  # atno 7974 bound_to 7965
  154.7432  140.2753  155.6355 H   0  0  0  0  0  0  0  0  0  0  0  0  # atno 8008 bound_to 7997
  156.2878  140.2693  156.2091 H   0  0  0  0  0  0  0  0  0  0  0  0  # atno 8009 bound_to 7997
  155.0232  140.0371  157.2435 H   0  0  0  0  0  0  0  0  0  0  0  0  # atno 8010 bound_to 7997
  139.4992  144.3708  151.9726 H   0  0  0  0  0  0  0  0  0  0  0  0  # atno 10167 bound_to 10162
  157.0696  131.0362  151.2616 H   0  0  0  0  0  0  0  0  0  0  0  0  # atno 10718 bound_to 10713
  154.7889  135.3200  154.7822 H   0  0  0  0  0  0  0  0  0  0  0  0  # atno 10763 bound_to 10752
  153.8516  135.6861  153.4796 H   0  0  0  0  0  0  0  0  0  0  0  0  # atno 10764 bound_to 10752
  153.1551  135.4683  154.9633 H   0  0  0  0  0  0  0  0  0  0  0  0  # atno 10765 bound_to 10752
  140.1733  134.4195  155.8244 H   0  0  0  0  0  0  0  0  0  0  0  0  # atno 11005 bound_to 11000
  146.0346  139.3366  143.0734 LP  0  0  0  0  0  0  0  0  0  0  0  0  # atno 17320 bound_to 7965
  145.8410  140.9580  143.0799 LP  0  0  0  0  0  0  0  0  0  0  0  0  # atno 17321 bound_to 7965
  140.3144  144.3500  150.6025 LP  0  0  0  0  0  0  0  0  0  0  0  0  # atno 17342 bound_to 10162
  140.5773  143.2175  151.7492 LP  0  0  0  0  0  0  0  0  0  0  0  0  # atno 17343 bound_to 10162
  157.4888  130.7810  149.7487 LP  0  0  0  0  0  0  0  0  0  0  0  0  # atno 17370 bound_to 10713
  155.9954  130.3912  150.2820 LP  0  0  0  0  0  0  0  0  0  0  0  0  # atno 17371 bound_to 10713
  141.2219  133.6966  156.7802 LP  0  0  0  0  0  0  0  0  0  0  0  0  # atno 17394 bound_to 11000
  140.2352  134.8655  157.3517 LP  0  0  0  0  0  0  0  0  0  0  0  0  # atno 17395 bound_to 11000

$$$$
