AV-unprocessed.smi:1952|AV-procd|sdf|7890|dock2
  -GOLD-   2272010 43D 1   1.00000     0.00000
 Structure written by MMmdl.
 39 40  0  0  0  0  0  0  0  0  3 V2000
  146.1216  134.3910  162.3966 C   0  0  0  0  0  0  0  0  0  0  0  0
  147.0449  135.1574  161.5130 C   0  0  0  0  0  0  0  0  0  0  0  0
  147.9355  134.7805  160.5482 C   0  0  0  0  0  0  0  0  0  0  0  0
  148.4834  136.0172  160.1117 C   0  0  0  0  0  0  0  0  0  0  0  0
  149.4106  136.1754  159.1546 N   0  5  0  0  0  0  0  0  0  0  0  0
  149.2619  137.1397  158.2195 C   0  0  0  0  0  0  0  0  0  0  0  0
  148.2358  137.7847  157.9938 O   0  0  0  0  0  0  0  0  0  0  0  0
  150.3612  137.3441  157.4776 N   0  0  0  0  0  0  0  0  0  0  0  0
  150.4860  138.2373  156.3242 C   0  0  1  0  0  0  0  0  0  0  0  0
  151.8351  138.9655  156.3911 C   0  0  0  0  0  0  0  0  0  0  0  0
  150.3335  137.4487  155.0034 C   0  0  0  0  0  0  0  0  0  0  0  0
  149.0143  137.6650  154.3577 N   0  3  0  0  0  0  0  0  0  0  0  0
  147.8887  137.0195  155.0734 C   0  0  0  0  0  0  0  0  0  0  0  0
  146.5888  137.1973  154.2723 C   0  0  0  0  0  0  0  0  0  0  0  0
  146.3424  138.5841  154.0702 O   0  0  0  0  0  0  0  0  0  0  0  0
  147.3819  139.2080  153.3251 C   0  0  0  0  0  0  0  0  0  0  0  0
  148.7113  139.0892  154.0901 C   0  0  0  0  0  0  0  0  0  0  0  0
  147.9616  137.0542  160.7458 N   0  0  0  0  0  0  0  0  0  0  0  0
  147.0428  136.5104  161.6511 O   0  0  0  0  0  0  0  0  0  0  0  0
  145.1170  134.8130  162.3662 H   0  0  0  0  0  0  0  0  0  0  0  0
  146.4687  134.4145  163.4295 H   0  0  0  0  0  0  0  0  0  0  0  0
  146.0594  133.3487  162.0836 H   0  0  0  0  0  0  0  0  0  0  0  0
  148.1617  133.7804  160.2103 H   0  0  0  0  0  0  0  0  0  0  0  0
  151.1762  136.7962  157.7130 H   0  0  0  0  0  0  0  0  0  0  0  0
  149.7111  139.0036  156.3724 H   0  0  0  0  0  0  0  0  0  0  0  0
  151.9475  139.6596  155.5576 H   0  0  0  0  0  0  0  0  0  0  0  0
  152.6691  138.2637  156.3547 H   0  0  0  0  0  0  0  0  0  0  0  0
  151.9247  139.5415  157.3128 H   0  0  0  0  0  0  0  0  0  0  0  0
  151.1351  137.6957  154.3058 H   0  0  0  0  0  0  0  0  0  0  0  0
  150.4457  136.3875  155.2309 H   0  0  0  0  0  0  0  0  0  0  0  0
  148.0878  135.9576  155.2151 H   0  0  0  0  0  0  0  0  0  0  0  0
  147.7814  137.4597  156.0657 H   0  0  0  0  0  0  0  0  0  0  0  0
  146.6486  136.6800  153.3130 H   0  0  0  0  0  0  0  0  0  0  0  0
  145.7497  136.7641  154.8167 H   0  0  0  0  0  0  0  0  0  0  0  0
  147.4601  138.7526  152.3365 H   0  0  0  0  0  0  0  0  0  0  0  0
  147.1277  140.2571  153.1734 H   0  0  0  0  0  0  0  0  0  0  0  0
  148.6584  139.6383  155.0313 H   0  0  0  0  0  0  0  0  0  0  0  0
  149.5125  139.5346  153.4993 H   0  0  0  0  0  0  0  0  0  0  0  0
  149.0766  137.2201  153.4518 H   0  0  0  0  0  0  0  0  0  0  0  0
  1  2  1  0  0  0  0
  1 20  1  0  0  0  0
  1 21  1  0  0  0  0
  1 22  1  0  0  0  0
  2 19  1  0  0  0  0
  2  3  2  0  0  0  0
  3  4  1  0  0  0  0
  3 23  1  0  0  0  0
  4  5  1  0  0  0  0
  4 18  2  0  0  0  0
  5  6  1  0  0  0  0
  6  7  2  0  0  0  0
  6  8  1  0  0  0  0
  8  9  1  0  0  0  0
  8 24  1  0  0  0  0
  9 10  1  0  0  0  0
  9 11  1  0  0  0  0
  9 25  1  0  0  0  0
 10 26  1  0  0  0  0
 10 27  1  0  0  0  0
 10 28  1  0  0  0  0
 11 12  1  0  0  0  0
 11 29  1  0  0  0  0
 11 30  1  0  0  0  0
 12 17  1  0  0  0  0
 12 13  1  0  0  0  0
 12 39  1  0  0  0  0
 13 14  1  0  0  0  0
 13 31  1  0  0  0  0
 13 32  1  0  0  0  0
 14 15  1  0  0  0  0
 14 33  1  0  0  0  0
 14 34  1  0  0  0  0
 15 16  1  0  0  0  0
 16 17  1  0  0  0  0
 16 35  1  0  0  0  0
 16 36  1  0  0  0  0
 17 37  1  0  0  0  0
 17 38  1  0  0  0  0
 18 19  1  0  0  0  0
M  CHG  1   5  -1
M  CHG  1  12   1
M  END
> <s_m_source_file>
AV-unprocessed.smi

> <i_m_source_file_index>
1952

> <i_lp_mmshare_version>
43012

> <i_f3d_flags>
0

> <s_epik_input>
W0NIM11jMVtjSF1jKG5vMSlbTkhdQyg9TylbTkhdW0NASF0oW0NIM10pW0NIMl1OMltDSDJdW0NIMl1PW0NIMl1bQ0gyXTI=

> <s_epik_cmdline>
J2VwaWtfcHl0aG9uJywgJy1waCcsICc3LjAnLCAnLXRuJywgJzgnLCAnLW1hJywgJzIwMCcsICctbWV0YWxfYmluZGluZycsICctaW1hZScsICc8aW5maWxlLm1hZT4nLCAnLW9tYWUnLCAnPG91dGZpbGUubWFlPic=

> <r_epik_Ionization_Penalty>
6.62152

> <r_epik_Ionization_Penalty_Charging>
6.62142

> <r_epik_Ionization_Penalty_Neutral>
9.8734e-05

> <r_epik_State_Penalty>
6.82189

> <r_epik_Charging_Adjusted_Penalty>
13.4433

> <i_epik_Tot_Q>
0

> <i_epik_Tot_abs_Q>
2

> <r_epik_Metal_State_Penalty>
2.76365

> <b_epik_Metal_Only>
1

> <s_lp_Force_Field>
OPLS_2005

> <r_lp_Energy>
7.85101

> <b_lp_Chiralities_Consistent>
1

> <s_lp_Variant>
AV-unprocessed.smi:1952-8

> <Gold.Version>
5.8.1

> <Gold.Id.Protein>
6NUR|6NUR_protein|mol2

> <Gold.PLP.Fitness>
37.2496

> <Gold.PLP.PLP>
-23.7852

> <Gold.PLP.part.hbond>
-3.9839

> <Gold.PLP.part.metal>
0.0000

> <Gold.PLP.part.buried>
-3.1915

> <Gold.PLP.part.nonpolar>
-16.7769

> <Gold.PLP.part.repulsive>
0.1736

> <Gold.PLP.ligand.clash>
0.0000

> <Gold.PLP.ligand.torsion>
1.3734

> <Gold.PLP.Chemscore.Hbond>
5.3688

> <Gold.PLP.Chemscore.CHOScore>
0.0000

> <Gold.PLP.Chemscore.Metal>
0.0000

> <Gold.Chemscore.Hbonds>
donor molecule, donor type, donor heavy atom, donor atom, acceptor molecule, acceptor atom, score
      L1  H    12    39       P1  7948  2.00
      P1  H  6896  6909       L1     5  2.00
      P1  H  6931  6943       L1    18  0.90
      P1  H  6934  6947       L1    18  0.44

> <Gold.PLP.Chemscore.Internal.Correction>
0.1048

> <Gold.Rescore>
     Score         DG    S(hbond)    S(metal)    S(lipo)     H(rot)  DE(clash)    DE(int)     intcor
     14.34     -16.89       2.94        0.00      48.02       1.58       0.00       2.54       ----

> <Gold.Chemscore.Fitness>
14.3442

> <Gold.Chemscore.DG>
-16.8854

> <Gold.Chemscore.ZeroCoef>
-5.4800

> <Gold.Chemscore.Hbond>
2.9435

> <Gold.Chemscore.Metal>
0.0000

> <Gold.Chemscore.Lipo>
48.0209

> <Gold.Chemscore.Internal_Hbond>
0.0000

> <Gold.Chemscore.DEClash>
0.0000

> <Gold.Chemscore.DEInternal>
2.5413

> <Gold.Chemscore.Rot>
1.5798

> <Gold.Chemscore.Internal.Correction>
   9.000000E+99

> <Gold.Chemscore.Hbonds>
donor molecule, donor type, donor heavy atom, donor atom, acceptor molecule, acceptor atom, score
      L1  H    12    39       P1  7948  1.00
      P1  H  6896  6909       L1     5  0.33
      P1  H  6931  6943       L1    18  0.34
      P1  H  6934  6947       L1    18  0.04

> <Gold.Chemscore.Hbond.Weighted>
-9.8312

> <Gold.Chemscore.Metal.Weighted>
-0.0000

> <Gold.Chemscore.Lipo.Weighted>
-5.6184

> <Gold.Chemscore.Internal_Hbond.Weighted>
0.0000

> <Gold.Chemscore.DEClash.Weighted>
0.0000

> <Gold.Chemscore.DEInternal.Weighted>
2.5413

> <Gold.Chemscore.Rot.Weighted>
4.0442

> <Gold.Chemscore.Internal.Correction.Weighted>
   9.000000E+99

> <Gold.Protein.RotatedTorsions>
[ 6907 6896 6895 6894 ] final   66.02 input  -60.11 | X-H torsion
[ 7974 7965 7964 7962 ] final -166.87 input  175.53 | X-H torsion
[ 8008 7997 7996 7995 ] final -146.49 input   59.86 | X-H torsion
[ 10167 10162 10161 10158 ] final   14.88 input  -65.29 | X-H torsion
[ 10718 10713 10712 10709 ] final   13.97 input   66.30 | X-H torsion
[ 10763 10752 10751 10750 ] final  159.94 input  -60.55 | X-H torsion
[ 11005 11000 10999 10996 ] final   15.67 input  -57.11 | X-H torsion

> <Gold.Protein.ActiveResidues>
 VAL166  LYS551  ARG553  GLY616  TRP617  ASP618  TYR619  PRO620  LYS621  CYS622 
 ASP623  PHE694  ASN695  SER759  ASP760  ASP761  ALA762  ILE779  LEU786  VAL792 
 PHE793  MET794  SER795  GLU796  ALA797  LYS798  CYS799  TRP800  GLU811  SER814 

> <Gold.Protein.RotatedAtoms>
  152.4451  134.5512  159.9867 H   0  0  0  0  0  0  0  0  0  0  0  0  # atno 6907 bound_to 6896
  151.5599  133.3399  159.2977 H   0  0  0  0  0  0  0  0  0  0  0  0  # atno 6908 bound_to 6896
  150.8365  134.7673  159.6961 H   0  0  0  0  0  0  0  0  0  0  0  0  # atno 6909 bound_to 6896
  144.7235  140.2603  143.6266 H   0  0  0  0  0  0  0  0  0  0  0  0  # atno 7974 bound_to 7965
  155.5602  140.0624  157.2830 H   0  0  0  0  0  0  0  0  0  0  0  0  # atno 8008 bound_to 7997
  154.4393  140.1887  156.0820 H   0  0  0  0  0  0  0  0  0  0  0  0  # atno 8009 bound_to 7997
  156.0452  140.3291  155.7292 H   0  0  0  0  0  0  0  0  0  0  0  0  # atno 8010 bound_to 7997
  140.5905  143.8804  150.6869 H   0  0  0  0  0  0  0  0  0  0  0  0  # atno 10167 bound_to 10162
  157.0323  130.6198  149.5737 H   0  0  0  0  0  0  0  0  0  0  0  0  # atno 10718 bound_to 10713
  154.2397  135.2775  155.2859 H   0  0  0  0  0  0  0  0  0  0  0  0  # atno 10763 bound_to 10752
  154.5556  135.5662  153.6964 H   0  0  0  0  0  0  0  0  0  0  0  0  # atno 10764 bound_to 10752
  153.0002  135.6285  154.2540 H   0  0  0  0  0  0  0  0  0  0  0  0  # atno 10765 bound_to 10752
  140.4557  134.1179  155.7709 H   0  0  0  0  0  0  0  0  0  0  0  0  # atno 11005 bound_to 11000
  145.8142  139.2016  143.1975 LP  0  0  0  0  0  0  0  0  0  0  0  0  # atno 17320 bound_to 7965
  146.0570  140.8011  142.9753 LP  0  0  0  0  0  0  0  0  0  0  0  0  # atno 17321 bound_to 7965
  140.2326  143.3724  152.1553 LP  0  0  0  0  0  0  0  0  0  0  0  0  # atno 17342 bound_to 10162
  139.5224  144.7059  151.5355 LP  0  0  0  0  0  0  0  0  0  0  0  0  # atno 17343 bound_to 10162
  156.0065  130.5152  150.7848 LP  0  0  0  0  0  0  0  0  0  0  0  0  # atno 17370 bound_to 10713
  157.5168  131.0929  151.0129 LP  0  0  0  0  0  0  0  0  0  0  0  0  # atno 17371 bound_to 10713
  141.1644  133.8731  157.1756 LP  0  0  0  0  0  0  0  0  0  0  0  0  # atno 17394 bound_to 11000
  139.9978  135.0040  157.0122 LP  0  0  0  0  0  0  0  0  0  0  0  0  # atno 17395 bound_to 11000

$$$$
