AV-unprocessed.smi:3248|AV-procd|sdf|12414|dock6
  -GOLD-   2272018293D 1   1.00000     0.00000
 Structure written by MMmdl.
 38 39  0  0  0  0  0  0  0  0  1 V2000
  154.6082  141.7550  159.7076 C   0  0  0  0  0  0  0  0  0  0  0  0
  153.3419  141.2369  160.4023 C   0  0  1  0  0  0  0  0  0  0  0  0
  152.6871  142.3353  161.2678 C   0  0  0  0  0  0  0  0  0  0  0  0
  152.1513  143.4307  160.4784 N   0  0  0  0  0  0  0  0  0  0  0  0
  151.3548  144.4774  160.8935 C   0  0  0  0  0  0  0  0  0  0  0  0
  151.1196  145.2660  159.8042 C   0  0  0  0  0  0  0  0  0  0  0  0
  151.8194  144.6083  158.7543 C   0  0  0  0  0  0  0  0  0  0  0  0
  152.4313  143.5072  159.1595 N   0  0  0  0  0  0  0  0  0  0  0  0
  152.4092  140.7526  159.3854 N   0  0  0  0  0  0  0  0  0  0  0  0
  152.7293  140.0077  158.3129 C   0  0  0  0  0  0  0  0  0  0  0  0
  153.8791  139.6350  158.0804 O   0  0  0  0  0  0  0  0  0  0  0  0
  151.6446  139.5946  157.6147 N   0  0  0  0  0  0  0  0  0  0  0  0
  150.5176  140.5061  157.3725 C   0  0  0  0  0  0  0  0  0  0  0  0
  150.7192  141.1735  155.9975 C   0  0  0  0  0  0  0  0  0  0  0  0
  150.8177  140.1766  154.9825 O   0  0  0  0  0  0  0  0  0  0  0  0
  151.8695  139.2397  155.2073 C   0  0  0  0  0  0  0  0  0  0  0  0
  151.6546  138.5521  156.5705 C   0  0  1  0  0  0  0  0  0  0  0  0
  152.6325  137.3826  156.8122 C   0  0  0  0  0  0  0  0  0  0  0  0
  155.3423  142.0980  160.4371 H   0  0  0  0  0  0  0  0  0  0  0  0
  154.3841  142.5903  159.0433 H   0  0  0  0  0  0  0  0  0  0  0  0
  155.0787  140.9715  159.1124 H   0  0  0  0  0  0  0  0  0  0  0  0
  153.6459  140.4123  161.0499 H   0  0  0  0  0  0  0  0  0  0  0  0
  151.8705  141.9135  161.8551 H   0  0  0  0  0  0  0  0  0  0  0  0
  153.4062  142.7386  161.9825 H   0  0  0  0  0  0  0  0  0  0  0  0
  151.0335  144.5778  161.9196 H   0  0  0  0  0  0  0  0  0  0  0  0
  150.5388  146.1755  159.7638 H   0  0  0  0  0  0  0  0  0  0  0  0
  151.8996  144.8956  157.7164 H   0  0  0  0  0  0  0  0  0  0  0  0
  151.4343  140.9747  159.5249 H   0  0  0  0  0  0  0  0  0  0  0  0
  149.5806  139.9475  157.3885 H   0  0  0  0  0  0  0  0  0  0  0  0
  150.4181  141.2751  158.1396 H   0  0  0  0  0  0  0  0  0  0  0  0
  149.8781  141.8278  155.7684 H   0  0  0  0  0  0  0  0  0  0  0  0
  151.6167  141.7943  155.9941 H   0  0  0  0  0  0  0  0  0  0  0  0
  151.8557  138.5045  154.4023 H   0  0  0  0  0  0  0  0  0  0  0  0
  152.8368  139.7430  155.1654 H   0  0  0  0  0  0  0  0  0  0  0  0
  150.6609  138.1009  156.5622 H   0  0  0  0  0  0  0  0  0  0  0  0
  152.4371  136.5721  156.1100 H   0  0  0  0  0  0  0  0  0  0  0  0
  152.5214  136.9746  157.8172 H   0  0  0  0  0  0  0  0  0  0  0  0
  153.6739  137.6718  156.6746 H   0  0  0  0  0  0  0  0  0  0  0  0
  1  2  1  0  0  0  0
  1 19  1  0  0  0  0
  1 20  1  0  0  0  0
  1 21  1  0  0  0  0
  2  3  1  0  0  0  0
  2  9  1  0  0  0  0
  2 22  1  0  0  0  0
  3  4  1  0  0  0  0
  3 23  1  0  0  0  0
  3 24  1  0  0  0  0
  4  8  1  0  0  0  0
  4  5  1  0  0  0  0
  5  6  2  0  0  0  0
  5 25  1  0  0  0  0
  6  7  1  0  0  0  0
  6 26  1  0  0  0  0
  7  8  2  0  0  0  0
  7 27  1  0  0  0  0
  9 10  1  0  0  0  0
  9 28  1  0  0  0  0
 10 11  2  0  0  0  0
 10 12  1  0  0  0  0
 12 17  1  0  0  0  0
 12 13  1  0  0  0  0
 13 14  1  0  0  0  0
 13 29  1  0  0  0  0
 13 30  1  0  0  0  0
 14 15  1  0  0  0  0
 14 31  1  0  0  0  0
 14 32  1  0  0  0  0
 15 16  1  0  0  0  0
 16 17  1  0  0  0  0
 16 33  1  0  0  0  0
 16 34  1  0  0  0  0
 17 18  1  0  0  0  0
 17 35  1  0  0  0  0
 18 36  1  0  0  0  0
 18 37  1  0  0  0  0
 18 38  1  0  0  0  0
M  END
> <s_m_source_file>
AV-unprocessed.smi

> <i_m_source_file_index>
3248

> <i_lp_mmshare_version>
43012

> <i_f3d_flags>
0

> <s_epik_input>
bjFbY0hdW2NIXVtjSF1uMVtDSDJdW0NAQEhdKFtDSDNdKVtOSF1DKD1PKU4yW0NIMl1bQ0gyXU9bQ0gyXVtDQEhdMltDSDNd

> <s_epik_cmdline>
J2VwaWtfcHl0aG9uJywgJy1waCcsICc3LjAnLCAnLXRuJywgJzgnLCAnLW1hJywgJzIwMCcsICctbWV0YWxfYmluZGluZycsICctaW1hZScsICc8aW5maWxlLm1hZT4nLCAnLW9tYWUnLCAnPG91dGZpbGUubWFlPic=

> <r_lp_tautomer_probability>
1

> <r_epik_Ionization_Penalty>
4.45233e-05

> <r_epik_Ionization_Penalty_Charging>
0

> <r_epik_Ionization_Penalty_Neutral>
4.45233e-05

> <r_epik_State_Penalty>
-0

> <r_epik_Charging_Adjusted_Penalty>
0

> <i_epik_Tot_Q>
0

> <i_epik_Tot_abs_Q>
0

> <r_epik_Metal_State_Penalty>
-0

> <b_epik_Metal_Only>
0

> <s_lp_Force_Field>
OPLS_2005

> <r_lp_Energy>
31.1231

> <b_lp_Chiralities_Consistent>
1

> <s_lp_Variant>
AV-unprocessed.smi:3248-2

> <Gold.Version>
5.8.1

> <Gold.Id.Protein>
6NUR|6NUR_protein|mol2

> <Gold.PLP.Fitness>
49.0851

> <Gold.PLP.PLP>
-43.8000

> <Gold.PLP.part.hbond>
-2.0000

> <Gold.PLP.part.metal>
0.0000

> <Gold.PLP.part.buried>
-6.4704

> <Gold.PLP.part.nonpolar>
-34.8958

> <Gold.PLP.part.repulsive>
0.1944

> <Gold.PLP.ligand.clash>
0.0000

> <Gold.PLP.ligand.torsion>
0.6131

> <Gold.PLP.Chemscore.Hbond>
2.0000

> <Gold.PLP.Chemscore.CHOScore>
0.0000

> <Gold.PLP.Chemscore.Metal>
0.0000

> <Gold.Chemscore.Hbonds>
donor molecule, donor type, donor heavy atom, donor atom, acceptor molecule, acceptor atom, score
      P1  H  7989  7998       L1    15  0.65
      P1  H  7997  8009       L1    11  0.64

> <Gold.PLP.Chemscore.Internal.Correction>
0.5113

> <Gold.Rescore>
     Score         DG    S(hbond)    S(metal)    S(lipo)     H(rot)  DE(clash)    DE(int)     intcor
     13.84     -17.56       1.33        0.00      96.28       1.42       0.34       3.38       ----

> <Gold.Chemscore.Fitness>
13.8406

> <Gold.Chemscore.DG>
-17.5640

> <Gold.Chemscore.ZeroCoef>
-5.4800

> <Gold.Chemscore.Hbond>
1.3331

> <Gold.Chemscore.Metal>
0.0000

> <Gold.Chemscore.Lipo>
96.2774

> <Gold.Chemscore.Internal_Hbond>
0.0000

> <Gold.Chemscore.DEClash>
0.3435

> <Gold.Chemscore.DEInternal>
3.3799

> <Gold.Chemscore.Rot>
1.4191

> <Gold.Chemscore.Internal.Correction>
   9.000000E+99

> <Gold.Chemscore.Hbonds>
donor molecule, donor type, donor heavy atom, donor atom, acceptor molecule, acceptor atom, score
      P1  H  7989  7998       L1    15  0.04
      P1  H  7997  8009       L1    11  0.60

> <Gold.Chemscore.Hbond.Weighted>
-4.4525

> <Gold.Chemscore.Metal.Weighted>
-0.0000

> <Gold.Chemscore.Lipo.Weighted>
-11.2645

> <Gold.Chemscore.Internal_Hbond.Weighted>
0.0000

> <Gold.Chemscore.DEClash.Weighted>
0.3435

> <Gold.Chemscore.DEInternal.Weighted>
3.3799

> <Gold.Chemscore.Rot.Weighted>
3.6330

> <Gold.Chemscore.Internal.Correction.Weighted>
   9.000000E+99

> <Gold.Protein.RotatedTorsions>
[ 6907 6896 6895 6894 ] final  -43.37 input  -60.11 | X-H torsion
[ 7974 7965 7964 7962 ] final -174.26 input  175.53 | X-H torsion
[ 8008 7997 7996 7995 ] final  166.74 input   59.86 | X-H torsion
[ 10167 10162 10161 10158 ] final  149.04 input  -65.29 | X-H torsion
[ 10718 10713 10712 10709 ] final   42.35 input   66.30 | X-H torsion
[ 10763 10752 10751 10750 ] final  173.66 input  -60.55 | X-H torsion
[ 11005 11000 10999 10996 ] final -146.89 input  -57.11 | X-H torsion

> <Gold.Protein.ActiveResidues>
 VAL166  LYS551  ARG553  GLY616  TRP617  ASP618  TYR619  PRO620  LYS621  CYS622 
 ASP623  PHE694  ASN695  SER759  ASP760  ASP761  ALA762  ILE779  LEU786  VAL792 
 PHE793  MET794  SER795  GLU796  ALA797  LYS798  CYS799  TRP800  GLU811  SER814 

> <Gold.Protein.RotatedAtoms>
  150.9447  134.8853  159.7633 H   0  0  0  0  0  0  0  0  0  0  0  0  # atno 6907 bound_to 6896
  152.5095  134.3892  159.9388 H   0  0  0  0  0  0  0  0  0  0  0  0  # atno 6908 bound_to 6896
  151.3911  133.3748  159.2756 H   0  0  0  0  0  0  0  0  0  0  0  0  # atno 6909 bound_to 6896
  144.7133  140.1498  143.6385 H   0  0  0  0  0  0  0  0  0  0  0  0  # atno 7974 bound_to 7965
  156.1693  140.1635  156.8476 H   0  0  0  0  0  0  0  0  0  0  0  0  # atno 8008 bound_to 7997
  154.5240  140.0772  156.8259 H   0  0  0  0  0  0  0  0  0  0  0  0  # atno 8009 bound_to 7997
  155.3546  140.3392  155.4242 H   0  0  0  0  0  0  0  0  0  0  0  0  # atno 8010 bound_to 7997
  139.4867  144.5633  151.7191 H   0  0  0  0  0  0  0  0  0  0  0  0  # atno 10167 bound_to 10162
  157.4038  130.7875  149.7371 H   0  0  0  0  0  0  0  0  0  0  0  0  # atno 10718 bound_to 10713
  154.4432  135.2762  155.1833 H   0  0  0  0  0  0  0  0  0  0  0  0  # atno 10763 bound_to 10752
  154.3691  135.6112  153.5734 H   0  0  0  0  0  0  0  0  0  0  0  0  # atno 10764 bound_to 10752
  152.9842  135.5853  154.4763 H   0  0  0  0  0  0  0  0  0  0  0  0  # atno 10765 bound_to 10752
  140.7773  134.3120  157.5057 H   0  0  0  0  0  0  0  0  0  0  0  0  # atno 11005 bound_to 11000
  145.9126  139.2496  143.1428 LP  0  0  0  0  0  0  0  0  0  0  0  0  # atno 17320 bound_to 7965
  145.9701  140.8767  143.0167 LP  0  0  0  0  0  0  0  0  0  0  0  0  # atno 17321 bound_to 7965
  140.5206  144.0884  150.6021 LP  0  0  0  0  0  0  0  0  0  0  0  0  # atno 17342 bound_to 10162
  140.3841  143.2787  152.0137 LP  0  0  0  0  0  0  0  0  0  0  0  0  # atno 17343 bound_to 10162
  155.9831  130.4004  150.3383 LP  0  0  0  0  0  0  0  0  0  0  0  0  # atno 17370 bound_to 10713
  157.1514  131.0322  151.2883 LP  0  0  0  0  0  0  0  0  0  0  0  0  # atno 17371 bound_to 10713
  139.8747  134.9297  156.3483 LP  0  0  0  0  0  0  0  0  0  0  0  0  # atno 17394 bound_to 11000
  140.9517  133.7447  156.0280 LP  0  0  0  0  0  0  0  0  0  0  0  0  # atno 17395 bound_to 11000

$$$$
