AV-unprocessed.smi:2030|AV-procd|sdf|8224|dock10
  -GOLD-   2272010493D 1   1.00000     0.00000
 Structure written by MMmdl.
 35 36  0  0  0  0  0  0  0  0  1 V2000
  153.0582  138.5052  154.4881 C   0  0  0  0  0  0  0  0  0  0  0  0
  151.6626  138.0879  154.6074 N   0  0  0  0  0  0  0  0  0  0  0  0
  151.4661  136.7225  154.6159 N   0  0  0  0  0  0  0  0  0  0  0  0
  150.3283  136.1931  154.9408 C   0  0  0  0  0  0  0  0  0  0  0  0
  150.1745  134.7149  154.9535 C   0  0  0  0  0  0  0  0  0  0  0  0
  150.5983  134.0384  155.8907 O   0  0  0  0  0  0  0  0  0  0  0  0
  149.5634  134.1810  153.8810 N   0  0  0  0  0  0  0  0  0  0  0  0
  149.3864  132.7535  153.6350 C   0  0  0  0  0  0  0  0  0  0  0  0
  147.9658  132.2694  153.9870 C   0  0  0  0  0  0  0  0  0  0  0  0
  147.0787  132.0676  152.7697 C   0  0  0  0  0  0  0  0  0  0  0  0
  146.5292  130.7998  152.4804 C   0  0  0  0  0  0  0  0  0  0  0  0
  145.7332  130.6601  151.3274 C   0  0  0  0  0  0  0  0  0  0  0  0
  145.5158  131.7885  150.5134 C   0  0  0  0  0  0  0  0  0  0  0  0
  146.1072  133.0109  150.8902 C   0  0  0  0  0  0  0  0  0  0  0  0
  146.8745  133.1548  151.9923 N   0  0  0  0  0  0  0  0  0  0  0  0
  149.1567  137.0673  155.3398 C   0  0  0  0  0  0  0  0  0  0  0  0
  149.2373  138.4694  154.7035 C   0  0  0  0  0  0  0  0  0  0  0  0
  150.6699  139.0103  154.6699 C   0  0  0  0  0  0  0  0  0  0  0  0
  150.8645  140.2256  154.6744 O   0  0  0  0  0  0  0  0  0  0  0  0
  153.3502  139.1199  155.3404 H   0  0  0  0  0  0  0  0  0  0  0  0
  153.2080  139.0882  153.5786 H   0  0  0  0  0  0  0  0  0  0  0  0
  153.7389  137.6530  154.4489 H   0  0  0  0  0  0  0  0  0  0  0  0
  149.2422  134.8106  153.1594 H   0  0  0  0  0  0  0  0  0  0  0  0
  149.6282  132.5107  152.5993 H   0  0  0  0  0  0  0  0  0  0  0  0
  150.1128  132.2250  154.2528 H   0  0  0  0  0  0  0  0  0  0  0  0
  148.0244  131.3315  154.5405 H   0  0  0  0  0  0  0  0  0  0  0  0
  147.4907  132.9846  154.6598 H   0  0  0  0  0  0  0  0  0  0  0  0
  146.7207  129.9516  153.1216 H   0  0  0  0  0  0  0  0  0  0  0  0
  145.2993  129.7049  151.0716 H   0  0  0  0  0  0  0  0  0  0  0  0
  144.9106  131.7193  149.6217 H   0  0  0  0  0  0  0  0  0  0  0  0
  145.9612  133.8963  150.2893 H   0  0  0  0  0  0  0  0  0  0  0  0
  148.2148  136.6049  155.0414 H   0  0  0  0  0  0  0  0  0  0  0  0
  149.1264  137.1531  156.4265 H   0  0  0  0  0  0  0  0  0  0  0  0
  148.8800  138.4266  153.6739 H   0  0  0  0  0  0  0  0  0  0  0  0
  148.5853  139.1647  155.2334 H   0  0  0  0  0  0  0  0  0  0  0  0
  1  2  1  0  0  0  0
  1 20  1  0  0  0  0
  1 21  1  0  0  0  0
  1 22  1  0  0  0  0
  2 18  1  0  0  0  0
  2  3  1  0  0  0  0
  3  4  2  0  0  0  0
  4  5  1  0  0  0  0
  4 16  1  0  0  0  0
  5  6  2  0  0  0  0
  5  7  1  0  0  0  0
  7  8  1  0  0  0  0
  7 23  1  0  0  0  0
  8  9  1  0  0  0  0
  8 24  1  0  0  0  0
  8 25  1  0  0  0  0
  9 10  1  0  0  0  0
  9 26  1  0  0  0  0
  9 27  1  0  0  0  0
 10 15  1  0  0  0  0
 10 11  2  0  0  0  0
 11 12  1  0  0  0  0
 11 28  1  0  0  0  0
 12 13  2  0  0  0  0
 12 29  1  0  0  0  0
 13 14  1  0  0  0  0
 13 30  1  0  0  0  0
 14 15  2  0  0  0  0
 14 31  1  0  0  0  0
 16 17  1  0  0  0  0
 16 32  1  0  0  0  0
 16 33  1  0  0  0  0
 17 18  1  0  0  0  0
 17 34  1  0  0  0  0
 17 35  1  0  0  0  0
 18 19  2  0  0  0  0
M  END
> <s_m_source_file>
AV-unprocessed.smi

> <i_m_source_file_index>
2030

> <i_lp_mmshare_version>
43012

> <i_f3d_flags>
0

> <s_epik_input>
Tz1DMVtDSDJdW0NIMl1DKD1OTjFbQ0gzXSlDKD1PKVtOSF1bQ0gyXVtDSDJdYzJbY0hdW2NIXVtjSF1bY0hdbjI=

> <s_epik_cmdline>
J2VwaWtfcHl0aG9uJywgJy1waCcsICc3LjAnLCAnLXRuJywgJzgnLCAnLW1hJywgJzIwMCcsICctbWV0YWxfYmluZGluZycsICctaW1hZScsICc8aW5maWxlLm1hZT4nLCAnLW9tYWUnLCAnPG91dGZpbGUubWFlPic=

> <r_epik_Ionization_Penalty>
0.0175455

> <r_epik_Ionization_Penalty_Charging>
0

> <r_epik_Ionization_Penalty_Neutral>
0.0175455

> <r_epik_State_Penalty>
0.0138544

> <r_epik_Charging_Adjusted_Penalty>
0.0138544

> <i_epik_Tot_Q>
0

> <i_epik_Tot_abs_Q>
0

> <r_epik_Metal_State_Penalty>
0.0690211

> <b_epik_Metal_Only>
0

> <s_epik_Chemistry_Notes>
This compound has an imine and may undergo hydrolysis.

> <s_lp_Force_Field>
OPLS_2005

> <r_lp_Energy>
15.1803

> <b_lp_Chiralities_Consistent>
1

> <s_lp_Variant>
AV-unprocessed.smi:2030-1

> <Gold.Version>
5.8.1

> <Gold.Id.Protein>
6NUR|6NUR_protein|mol2

> <Gold.PLP.Fitness>
43.3179

> <Gold.PLP.PLP>
-36.1471

> <Gold.PLP.part.hbond>
-3.0000

> <Gold.PLP.part.metal>
0.0000

> <Gold.PLP.part.buried>
-5.7529

> <Gold.PLP.part.nonpolar>
-29.2487

> <Gold.PLP.part.repulsive>
0.4401

> <Gold.PLP.ligand.clash>
0.0000

> <Gold.PLP.ligand.torsion>
1.8886

> <Gold.PLP.Chemscore.Hbond>
2.6500

> <Gold.PLP.Chemscore.CHOScore>
0.9974

> <Gold.PLP.Chemscore.Metal>
0.0000

> <Gold.Chemscore.Hbonds>
donor molecule, donor type, donor heavy atom, donor atom, acceptor molecule, acceptor atom, score
      L1  H     7    23       P1  7948  0.50
      P1  H  7989  7998       L1    19  1.00
      P1  H 10752 10763       L1     3  1.00
      L1  C    14    31       P1  7921  0.31

> <Gold.PLP.Chemscore.Internal.Correction>
0.0059

> <Gold.Rescore>
     Score         DG    S(hbond)    S(metal)    S(lipo)     H(rot)  DE(clash)    DE(int)     intcor
     15.44     -17.22       1.85        0.00      79.18       1.45       0.02       1.76       ----

> <Gold.Chemscore.Fitness>
15.4414

> <Gold.Chemscore.DG>
-17.2224

> <Gold.Chemscore.ZeroCoef>
-5.4800

> <Gold.Chemscore.Hbond>
1.8520

> <Gold.Chemscore.Metal>
0.0000

> <Gold.Chemscore.Lipo>
79.1754

> <Gold.Chemscore.Internal_Hbond>
0.0000

> <Gold.Chemscore.DEClash>
0.0179

> <Gold.Chemscore.DEInternal>
1.7631

> <Gold.Chemscore.Rot>
1.4480

> <Gold.Chemscore.Internal.Correction>
   9.000000E+99

> <Gold.Chemscore.Hbonds>
donor molecule, donor type, donor heavy atom, donor atom, acceptor molecule, acceptor atom, score
      L1  H     7    23       P1  7948  0.02
      P1  H  7989  7998       L1    19  0.91
      P1  H 10752 10763       L1     3  0.91

> <Gold.Chemscore.Hbond.Weighted>
-6.1858

> <Gold.Chemscore.Metal.Weighted>
-0.0000

> <Gold.Chemscore.Lipo.Weighted>
-9.2635

> <Gold.Chemscore.Internal_Hbond.Weighted>
0.0000

> <Gold.Chemscore.DEClash.Weighted>
0.0179

> <Gold.Chemscore.DEInternal.Weighted>
1.7631

> <Gold.Chemscore.Rot.Weighted>
3.7070

> <Gold.Chemscore.Internal.Correction.Weighted>
   9.000000E+99

> <Gold.Protein.RotatedTorsions>
[ 6907 6896 6895 6894 ] final  -59.34 input  -60.11 | X-H torsion
[ 7974 7965 7964 7962 ] final   56.79 input  175.53 | X-H torsion
[ 8008 7997 7996 7995 ] final   54.01 input   59.86 | X-H torsion
[ 10167 10162 10161 10158 ] final   40.06 input  -65.29 | X-H torsion
[ 10718 10713 10712 10709 ] final -123.21 input   66.30 | X-H torsion
[ 10763 10752 10751 10750 ] final   58.50 input  -60.55 | X-H torsion
[ 11005 11000 10999 10996 ] final   34.12 input  -57.11 | X-H torsion

> <Gold.Protein.ActiveResidues>
 VAL166  LYS551  ARG553  GLY616  TRP617  ASP618  TYR619  PRO620  LYS621  CYS622 
 ASP623  PHE694  ASN695  SER759  ASP760  ASP761  ALA762  ILE779  LEU786  VAL792 
 PHE793  MET794  SER795  GLU796  ALA797  LYS798  CYS799  TRP800  GLU811  SER814 

> <Gold.Protein.RotatedAtoms>
  150.7938  134.6981  159.6534 H   0  0  0  0  0  0  0  0  0  0  0  0  # atno 6907 bound_to 6896
  152.4047  134.6223  160.0064 H   0  0  0  0  0  0  0  0  0  0  0  0  # atno 6908 bound_to 6896
  151.6484  133.3285  159.3182 H   0  0  0  0  0  0  0  0  0  0  0  0  # atno 6909 bound_to 6896
  145.9361  139.3848  143.0392 H   0  0  0  0  0  0  0  0  0  0  0  0  # atno 7974 bound_to 7965
  155.4776  140.3467  155.4335 H   0  0  0  0  0  0  0  0  0  0  0  0  # atno 8008 bound_to 7997
  156.1060  140.1448  156.9432 H   0  0  0  0  0  0  0  0  0  0  0  0  # atno 8009 bound_to 7997
  154.4724  140.0896  156.7157 H   0  0  0  0  0  0  0  0  0  0  0  0  # atno 8010 bound_to 7997
  140.3779  144.2019  150.6131 H   0  0  0  0  0  0  0  0  0  0  0  0  # atno 10167 bound_to 10162
  156.1483  130.6516  150.9875 H   0  0  0  0  0  0  0  0  0  0  0  0  # atno 10718 bound_to 10713
  152.9872  135.5604  154.5562 H   0  0  0  0  0  0  0  0  0  0  0  0  # atno 10763 bound_to 10752
  154.4990  135.2796  155.1438 H   0  0  0  0  0  0  0  0  0  0  0  0  # atno 10764 bound_to 10752
  154.2876  135.6332  153.5425 H   0  0  0  0  0  0  0  0  0  0  0  0  # atno 10765 bound_to 10752
  140.2561  134.3246  155.7873 H   0  0  0  0  0  0  0  0  0  0  0  0  # atno 11005 bound_to 11000
  145.8362  140.9605  143.0823 LP  0  0  0  0  0  0  0  0  0  0  0  0  # atno 17320 bound_to 7965
  144.6772  140.0226  143.7483 LP  0  0  0  0  0  0  0  0  0  0  0  0  # atno 17321 bound_to 7965
  140.4968  143.2330  151.8738 LP  0  0  0  0  0  0  0  0  0  0  0  0  # atno 17342 bound_to 10162
  139.4798  144.5105  151.8939 LP  0  0  0  0  0  0  0  0  0  0  0  0  # atno 17343 bound_to 10162
  157.6635  131.0876  150.7782 LP  0  0  0  0  0  0  0  0  0  0  0  0  # atno 17370 bound_to 10713
  156.7852  130.4872  149.5394 LP  0  0  0  0  0  0  0  0  0  0  0  0  # atno 17371 bound_to 10713
  141.2196  133.7382  156.9113 LP  0  0  0  0  0  0  0  0  0  0  0  0  # atno 17394 bound_to 11000
  140.1510  134.9230  157.2592 LP  0  0  0  0  0  0  0  0  0  0  0  0  # atno 17395 bound_to 11000

$$$$
