AV-unprocessed.smi:2922|AV-procd|sdf|11198|dock5
  -GOLD-   2272016 93D 1   1.00000     0.00000
 Structure written by MMmdl.
 30 31  0  0  0  0  0  0  0  0  1 V2000
  144.3388  141.7537  154.7222 N   0  0  0  0  0  0  0  0  0  0  0  0
  145.5744  142.1067  155.0887 C   0  0  0  0  0  0  0  0  0  0  0  0
  145.8111  142.5694  156.2031 O   0  0  0  0  0  0  0  0  0  0  0  0
  146.7104  141.8893  154.0716 C   0  0  2  0  0  0  0  0  0  0  0  0
  146.8973  140.4167  153.6516 C   0  0  0  0  0  0  0  0  0  0  0  0
  148.3142  140.0800  154.0872 C   0  0  0  0  0  0  0  0  0  0  0  0
  148.5876  141.1060  155.1800 C   0  0  1  0  0  0  0  0  0  0  0  0
  150.0804  141.3632  155.4345 C   0  0  0  0  0  0  0  0  0  0  0  0
  150.2942  142.4420  156.3894 N   0  0  0  0  0  0  0  0  0  0  0  0
  151.0346  142.3297  157.5523 C   0  0  0  0  0  0  0  0  0  0  0  0
  151.2518  141.1070  158.0536 N   0  0  0  0  0  0  0  0  0  0  0  0
  151.9731  141.0283  159.1932 C   0  0  0  0  0  0  0  0  0  0  0  0
  152.4767  142.1813  159.8273 C   0  0  0  0  0  0  0  0  0  0  0  0
  153.3970  142.0883  161.2834 Cl  0  0  0  0  0  0  0  0  0  0  0  0
  152.1886  143.4147  159.2095 C   0  0  0  0  0  0  0  0  0  0  0  0
  151.4658  143.4834  158.0697 N   0  0  0  0  0  0  0  0  0  0  0  0
  147.9630  142.2645  154.6462 O   0  0  0  0  0  0  0  0  0  0  0  0
  143.5679  141.8819  155.3615 H   0  0  0  0  0  0  0  0  0  0  0  0
  144.1832  141.3605  153.8049 H   0  0  0  0  0  0  0  0  0  0  0  0
  146.5206  142.5203  153.2028 H   0  0  0  0  0  0  0  0  0  0  0  0
  146.1910  139.7503  154.1488 H   0  0  0  0  0  0  0  0  0  0  0  0
  146.7702  140.2812  152.5774 H   0  0  0  0  0  0  0  0  0  0  0  0
  148.4203  139.0521  154.4347 H   0  0  0  0  0  0  0  0  0  0  0  0
  149.0002  140.2279  153.2519 H   0  0  0  0  0  0  0  0  0  0  0  0
  148.0788  140.8054  156.0978 H   0  0  0  0  0  0  0  0  0  0  0  0
  150.5598  140.4567  155.8056 H   0  0  0  0  0  0  0  0  0  0  0  0
  150.5821  141.6180  154.5008 H   0  0  0  0  0  0  0  0  0  0  0  0
  149.7415  143.2798  156.2803 H   0  0  0  0  0  0  0  0  0  0  0  0
  152.1474  140.0425  159.5985 H   0  0  0  0  0  0  0  0  0  0  0  0
  152.5365  144.3473  159.6288 H   0  0  0  0  0  0  0  0  0  0  0  0
  1  2  1  0  0  0  0
  1 18  1  0  0  0  0
  1 19  1  0  0  0  0
  2  3  2  0  0  0  0
  2  4  1  0  0  0  0
  4 17  1  0  0  0  0
  4  5  1  0  0  0  0
  4 20  1  0  0  0  0
  5  6  1  0  0  0  0
  5 21  1  0  0  0  0
  5 22  1  0  0  0  0
  6  7  1  0  0  0  0
  6 23  1  0  0  0  0
  6 24  1  0  0  0  0
  7  8  1  0  0  0  0
  7 17  1  0  0  0  0
  7 25  1  0  0  0  0
  8  9  1  0  0  0  0
  8 26  1  0  0  0  0
  8 27  1  0  0  0  0
  9 10  1  0  0  0  0
  9 28  1  0  0  0  0
 10 16  1  0  0  0  0
 10 11  2  0  0  0  0
 11 12  1  0  0  0  0
 12 13  2  0  0  0  0
 12 29  1  0  0  0  0
 13 14  1  0  0  0  0
 13 15  1  0  0  0  0
 15 16  2  0  0  0  0
 15 30  1  0  0  0  0
M  END
> <s_m_source_file>
AV-unprocessed.smi

> <i_m_source_file_index>
2922

> <i_lp_mmshare_version>
43012

> <i_f3d_flags>
0

> <s_epik_input>
W05IMl1DKD1PKVtDQEBIXTFbQ0gyXVtDSDJdW0NASF0oTzEpW0NIMl1bTkhdYzJuW2NIXWMoQ2wpW2NIXW4y

> <s_epik_cmdline>
J2VwaWtfcHl0aG9uJywgJy1waCcsICc3LjAnLCAnLXRuJywgJzgnLCAnLW1hJywgJzIwMCcsICctbWV0YWxfYmluZGluZycsICctaW1hZScsICc8aW5maWxlLm1hZT4nLCAnLW9tYWUnLCAnPG91dGZpbGUubWFlPic=

> <r_lp_tautomer_probability>
1

> <r_epik_Ionization_Penalty>
6.13883e-06

> <r_epik_Ionization_Penalty_Charging>
0

> <r_epik_Ionization_Penalty_Neutral>
6.13883e-06

> <r_epik_State_Penalty>
-0

> <r_epik_Charging_Adjusted_Penalty>
0

> <i_epik_Tot_Q>
0

> <i_epik_Tot_abs_Q>
0

> <r_epik_Metal_State_Penalty>
-0

> <b_epik_Metal_Only>
0

> <s_lp_Force_Field>
OPLS_2005

> <r_lp_Energy>
9.74106

> <b_lp_Chiralities_Consistent>
1

> <s_lp_Variant>
AV-unprocessed.smi:2922-1

> <Gold.Version>
5.8.1

> <Gold.Id.Protein>
6NUR|6NUR_protein|mol2

> <Gold.PLP.Fitness>
37.0289

> <Gold.PLP.PLP>
-31.2330

> <Gold.PLP.part.hbond>
-2.5887

> <Gold.PLP.part.metal>
0.0000

> <Gold.PLP.part.buried>
-4.5869

> <Gold.PLP.part.nonpolar>
-26.7980

> <Gold.PLP.part.repulsive>
2.5560

> <Gold.PLP.ligand.clash>
0.0000

> <Gold.PLP.ligand.torsion>
0.1141

> <Gold.PLP.Chemscore.Hbond>
2.0000

> <Gold.PLP.Chemscore.CHOScore>
0.0000

> <Gold.PLP.Chemscore.Metal>
0.0000

> <Gold.Chemscore.Hbonds>
donor molecule, donor type, donor heavy atom, donor atom, acceptor molecule, acceptor atom, score
      L1  H     1    19       P1 10175  0.95
      L1  H     9    28       P1  8028  1.00

> <Gold.PLP.Chemscore.Internal.Correction>
0.0241

> <Gold.Rescore>
     Score         DG    S(hbond)    S(metal)    S(lipo)     H(rot)  DE(clash)    DE(int)     intcor
     15.33     -15.41       1.95        0.00      71.15       1.91       0.01       0.06       ----

> <Gold.Chemscore.Fitness>
15.3350

> <Gold.Chemscore.DG>
-15.4088

> <Gold.Chemscore.ZeroCoef>
-5.4800

> <Gold.Chemscore.Hbond>
1.9476

> <Gold.Chemscore.Metal>
0.0000

> <Gold.Chemscore.Lipo>
71.1455

> <Gold.Chemscore.Internal_Hbond>
0.0000

> <Gold.Chemscore.DEClash>
0.0120

> <Gold.Chemscore.DEInternal>
0.0618

> <Gold.Chemscore.Rot>
1.9142

> <Gold.Chemscore.Internal.Correction>
   9.000000E+99

> <Gold.Chemscore.Hbonds>
donor molecule, donor type, donor heavy atom, donor atom, acceptor molecule, acceptor atom, score
      L1  H     1    19       P1 10175  0.21
      L1  H     9    28       P1  8028  1.00

> <Gold.Chemscore.Hbond.Weighted>
-6.5051

> <Gold.Chemscore.Metal.Weighted>
-0.0000

> <Gold.Chemscore.Lipo.Weighted>
-8.3240

> <Gold.Chemscore.Internal_Hbond.Weighted>
0.0000

> <Gold.Chemscore.DEClash.Weighted>
0.0120

> <Gold.Chemscore.DEInternal.Weighted>
0.0618

> <Gold.Chemscore.Rot.Weighted>
4.9002

> <Gold.Chemscore.Internal.Correction.Weighted>
   9.000000E+99

> <Gold.Protein.RotatedTorsions>
[ 6907 6896 6895 6894 ] final -107.79 input  -60.11 | X-H torsion
[ 7974 7965 7964 7962 ] final   68.46 input  175.53 | X-H torsion
[ 8008 7997 7996 7995 ] final   17.21 input   59.86 | X-H torsion
[ 10167 10162 10161 10158 ] final   42.04 input  -65.29 | X-H torsion
[ 10718 10713 10712 10709 ] final   38.98 input   66.30 | X-H torsion
[ 10763 10752 10751 10750 ] final -121.13 input  -60.55 | X-H torsion
[ 11005 11000 10999 10996 ] final   99.78 input  -57.11 | X-H torsion

> <Gold.Protein.ActiveResidues>
 VAL166  LYS551  ARG553  GLY616  TRP617  ASP618  TYR619  PRO620  LYS621  CYS622 
 ASP623  PHE694  ASN695  SER759  ASP760  ASP761  ALA762  ILE779  LEU786  VAL792 
 PHE793  MET794  SER795  GLU796  ALA797  LYS798  CYS799  TRP800  GLU811  SER814 

> <Gold.Protein.RotatedAtoms>
  150.7464  133.9774  159.3564 H   0  0  0  0  0  0  0  0  0  0  0  0  # atno 6907 bound_to 6896
  151.7712  135.0783  160.0369 H   0  0  0  0  0  0  0  0  0  0  0  0  # atno 6908 bound_to 6896
  152.3337  133.5951  159.5864 H   0  0  0  0  0  0  0  0  0  0  0  0  # atno 6909 bound_to 6896
  145.8023  139.2988  143.1147 H   0  0  0  0  0  0  0  0  0  0  0  0  # atno 7974 bound_to 7965
  154.8882  140.2983  155.5386 H   0  0  0  0  0  0  0  0  0  0  0  0  # atno 8008 bound_to 7997
  156.3021  140.2429  156.3828 H   0  0  0  0  0  0  0  0  0  0  0  0  # atno 8009 bound_to 7997
  154.8646  140.0404  157.1675 H   0  0  0  0  0  0  0  0  0  0  0  0  # atno 8010 bound_to 7997
  140.3583  144.2261  150.6140 H   0  0  0  0  0  0  0  0  0  0  0  0  # atno 10167 bound_to 10162
  157.3652  130.7671  149.7077 H   0  0  0  0  0  0  0  0  0  0  0  0  # atno 10718 bound_to 10713
  154.8661  135.4179  154.2570 H   0  0  0  0  0  0  0  0  0  0  0  0  # atno 10763 bound_to 10752
  153.3506  135.6998  153.6798 H   0  0  0  0  0  0  0  0  0  0  0  0  # atno 10764 bound_to 10752
  153.5739  135.3586  155.2821 H   0  0  0  0  0  0  0  0  0  0  0  0  # atno 10765 bound_to 10752
  139.8770  134.9111  156.4657 H   0  0  0  0  0  0  0  0  0  0  0  0  # atno 11005 bound_to 11000
  145.9865  140.8639  143.0088 LP  0  0  0  0  0  0  0  0  0  0  0  0  # atno 17320 bound_to 7965
  144.6767  140.2154  143.7372 LP  0  0  0  0  0  0  0  0  0  0  0  0  # atno 17321 bound_to 7965
  140.5152  143.2280  151.8475 LP  0  0  0  0  0  0  0  0  0  0  0  0  # atno 17342 bound_to 10162
  139.4817  144.4903  151.9193 LP  0  0  0  0  0  0  0  0  0  0  0  0  # atno 17343 bound_to 10162
  155.9745  130.4102  150.3920 LP  0  0  0  0  0  0  0  0  0  0  0  0  # atno 17370 bound_to 10713
  157.2003  131.0436  151.2654 LP  0  0  0  0  0  0  0  0  0  0  0  0  # atno 17371 bound_to 10713
  140.8831  133.7903  155.9489 LP  0  0  0  0  0  0  0  0  0  0  0  0  # atno 17394 bound_to 11000
  140.8832  134.2585  157.5133 LP  0  0  0  0  0  0  0  0  0  0  0  0  # atno 17395 bound_to 11000

$$$$
