AV-unprocessed.smi:720|AV-procd|sdf|3502|dock1
  -GOLD-   22720 0493D 1   1.00000     0.00000
 Structure written by MMmdl.
 46 48  0  0  0  0  0  0  0  0  1 V2000
  145.2061  135.9225  150.9905 C   0  0  0  0  0  0  0  0  0  0  0  0
  145.1331  136.6260  152.2654 N   0  0  0  0  0  0  0  0  0  0  0  0
  143.7319  136.9038  152.5522 C   0  0  0  0  0  0  0  0  0  0  0  0
  145.8708  137.8903  152.2387 C   0  0  0  0  0  0  0  0  0  0  0  0
  146.7107  138.1460  153.5085 C   0  0  0  0  0  0  0  0  0  0  0  0
  147.1127  139.5335  153.6652 N   0  0  0  0  0  0  0  0  0  0  0  0
  146.7663  140.6198  152.8857 C   0  0  0  0  0  0  0  0  0  0  0  0
  147.3595  141.7236  153.4293 C   0  0  0  0  0  0  0  0  0  0  0  0
  148.0464  141.2015  154.5591 C   0  0  0  0  0  0  0  0  0  0  0  0
  148.8025  142.0548  155.4013 N   0  0  0  0  0  0  0  0  0  0  0  0
  149.9179  141.7542  156.0947 C   0  0  0  0  0  0  0  0  0  0  0  0
  150.4617  140.6513  156.0999 O   0  0  0  0  0  0  0  0  0  0  0  0
  150.4218  142.7830  156.7997 N   0  0  0  0  0  0  0  0  0  0  0  0
  151.6139  142.7928  157.6522 C   0  0  1  0  0  0  0  0  0  0  0  0
  152.4551  144.0672  157.4192 C   0  0  0  0  0  0  0  0  0  0  0  0
  152.5220  144.7033  158.8199 C   0  0  1  0  0  0  0  0  0  0  0  0
  151.1426  145.2804  159.1911 C   0  0  0  0  0  0  0  0  0  0  0  0
  150.3108  144.0164  159.4794 C   0  0  0  0  0  0  0  0  0  0  0  0
  151.3080  142.8790  159.1707 C   0  0  2  0  0  0  0  0  0  0  0  0
  152.6029  143.4734  159.7143 C   0  0  0  0  0  0  0  0  0  0  0  0
  147.8882  139.8943  154.7109 N   0  0  0  0  0  0  0  0  0  0  0  0
  146.2188  135.5787  150.7895 H   0  0  0  0  0  0  0  0  0  0  0  0
  144.8852  136.5579  150.1643 H   0  0  0  0  0  0  0  0  0  0  0  0
  144.5709  135.0360  151.0059 H   0  0  0  0  0  0  0  0  0  0  0  0
  143.6277  137.4022  153.5166 H   0  0  0  0  0  0  0  0  0  0  0  0
  143.1576  135.9780  152.5993 H   0  0  0  0  0  0  0  0  0  0  0  0
  143.2880  137.5428  151.7871 H   0  0  0  0  0  0  0  0  0  0  0  0
  146.4771  137.9692  151.3351 H   0  0  0  0  0  0  0  0  0  0  0  0
  145.1360  138.6944  152.1794 H   0  0  0  0  0  0  0  0  0  0  0  0
  146.1151  137.8894  154.3852 H   0  0  0  0  0  0  0  0  0  0  0  0
  147.5875  137.4966  153.5350 H   0  0  0  0  0  0  0  0  0  0  0  0
  146.1342  140.5171  152.0160 H   0  0  0  0  0  0  0  0  0  0  0  0
  147.3082  142.7421  153.0741 H   0  0  0  0  0  0  0  0  0  0  0  0
  148.4693  143.0044  155.4759 H   0  0  0  0  0  0  0  0  0  0  0  0
  149.9270  143.6604  156.7285 H   0  0  0  0  0  0  0  0  0  0  0  0
  152.2308  141.9175  157.4394 H   0  0  0  0  0  0  0  0  0  0  0  0
  153.4537  143.8033  157.0687 H   0  0  0  0  0  0  0  0  0  0  0  0
  152.0198  144.7464  156.6847 H   0  0  0  0  0  0  0  0  0  0  0  0
  153.3398  145.4148  158.9374 H   0  0  0  0  0  0  0  0  0  0  0  0
  151.2073  145.9078  160.0808 H   0  0  0  0  0  0  0  0  0  0  0  0
  150.7181  145.8819  158.3866 H   0  0  0  0  0  0  0  0  0  0  0  0
  150.0184  143.9894  160.5299 H   0  0  0  0  0  0  0  0  0  0  0  0
  149.3960  143.9692  158.8889 H   0  0  0  0  0  0  0  0  0  0  0  0
  151.0261  141.9243  159.6159 H   0  0  0  0  0  0  0  0  0  0  0  0
  153.4795  142.8531  159.5194 H   0  0  0  0  0  0  0  0  0  0  0  0
  152.5608  143.7086  160.7795 H   0  0  0  0  0  0  0  0  0  0  0  0
  1  2  1  0  0  0  0
  1 22  1  0  0  0  0
  1 23  1  0  0  0  0
  1 24  1  0  0  0  0
  2  3  1  0  0  0  0
  2  4  1  0  0  0  0
  3 25  1  0  0  0  0
  3 26  1  0  0  0  0
  3 27  1  0  0  0  0
  4  5  1  0  0  0  0
  4 28  1  0  0  0  0
  4 29  1  0  0  0  0
  5  6  1  0  0  0  0
  5 30  1  0  0  0  0
  5 31  1  0  0  0  0
  6 21  1  0  0  0  0
  6  7  1  0  0  0  0
  7  8  2  0  0  0  0
  7 32  1  0  0  0  0
  8  9  1  0  0  0  0
  8 33  1  0  0  0  0
  9 10  1  0  0  0  0
  9 21  2  0  0  0  0
 10 11  1  0  0  0  0
 10 34  1  0  0  0  0
 11 12  2  0  0  0  0
 11 13  1  0  0  0  0
 13 14  1  0  0  0  0
 13 35  1  0  0  0  0
 14 19  1  0  0  0  0
 14 15  1  0  0  0  0
 14 36  1  0  0  0  0
 15 16  1  0  0  0  0
 15 37  1  0  0  0  0
 15 38  1  0  0  0  0
 16 20  1  0  0  0  0
 16 17  1  0  0  0  0
 16 39  1  0  0  0  0
 17 18  1  0  0  0  0
 17 40  1  0  0  0  0
 17 41  1  0  0  0  0
 18 19  1  0  0  0  0
 18 42  1  0  0  0  0
 18 43  1  0  0  0  0
 19 20  1  0  0  0  0
 19 44  1  0  0  0  0
 20 45  1  0  0  0  0
 20 46  1  0  0  0  0
M  END
> <s_m_source_file>
AV-unprocessed.smi

> <i_m_source_file_index>
720

> <i_lp_mmshare_version>
43012

> <i_f3d_flags>
0

> <s_epik_input>
W0NIM11OKFtDSDNdKVtDSDJdW0NIMl1uMVtjSF1bY0hdYyhuMSlbTkhdQyg9TylbTkhdW0NASF0oW0NIMl1bQ0BIXTIzKVtDQEhdKFtDSDJdMylbQ0gyXVtDSDJdMg==

> <s_epik_cmdline>
J2VwaWtfcHl0aG9uJywgJy1waCcsICc3LjAnLCAnLXRuJywgJzgnLCAnLW1hJywgJzIwMCcsICctbWV0YWxfYmluZGluZycsICctaW1hZScsICc8aW5maWxlLm1hZT4nLCAnLW9tYWUnLCAnPG91dGZpbGUubWFlPic=

> <r_lp_tautomer_probability>
1

> <r_epik_Ionization_Penalty>
1.83819

> <r_epik_Ionization_Penalty_Charging>
0

> <r_epik_Ionization_Penalty_Neutral>
1.83819

> <r_epik_State_Penalty>
1.95467

> <r_epik_Charging_Adjusted_Penalty>
1.95467

> <i_epik_Tot_Q>
0

> <i_epik_Tot_abs_Q>
0

> <r_epik_Metal_State_Penalty>
1.95467

> <b_epik_Metal_Only>
0

> <s_lp_Force_Field>
OPLS_2005

> <r_lp_Energy>
62.953

> <b_lp_Chiralities_Consistent>
1

> <s_lp_Variant>
AV-unprocessed.smi:720-8

> <Gold.Version>
5.8.1

> <Gold.Id.Protein>
6NUR|6NUR_protein|mol2

> <Gold.PLP.Fitness>
47.6418

> <Gold.PLP.PLP>
-41.7930

> <Gold.PLP.part.hbond>
-2.0000

> <Gold.PLP.part.metal>
0.0000

> <Gold.PLP.part.buried>
-6.6026

> <Gold.PLP.part.nonpolar>
-34.8479

> <Gold.PLP.part.repulsive>
0.4559

> <Gold.PLP.ligand.clash>
0.0000

> <Gold.PLP.ligand.torsion>
1.0751

> <Gold.PLP.Chemscore.Hbond>
1.9040

> <Gold.PLP.Chemscore.CHOScore>
0.7309

> <Gold.PLP.Chemscore.Metal>
0.0000

> <Gold.Chemscore.Hbonds>
donor molecule, donor type, donor heavy atom, donor atom, acceptor molecule, acceptor atom, score
      L1  H    10    34       P1  8028  0.96
      L1  H    13    35       P1  8028  0.93
      L1  C     7    32       P1 10175  0.64

> <Gold.PLP.Chemscore.Internal.Correction>
0.0943

> <Gold.Rescore>
     Score         DG    S(hbond)    S(metal)    S(lipo)     H(rot)  DE(clash)    DE(int)     intcor
     18.26     -21.01       1.82        0.00     114.18       1.53       1.52       1.23       ----

> <Gold.Chemscore.Fitness>
18.2646

> <Gold.Chemscore.DG>
-21.0133

> <Gold.Chemscore.ZeroCoef>
-5.4800

> <Gold.Chemscore.Hbond>
1.8244

> <Gold.Chemscore.Metal>
0.0000

> <Gold.Chemscore.Lipo>
114.1845

> <Gold.Chemscore.Internal_Hbond>
0.0000

> <Gold.Chemscore.DEClash>
1.5217

> <Gold.Chemscore.DEInternal>
1.2270

> <Gold.Chemscore.Rot>
1.5312

> <Gold.Chemscore.Internal.Correction>
   9.000000E+99

> <Gold.Chemscore.Hbonds>
donor molecule, donor type, donor heavy atom, donor atom, acceptor molecule, acceptor atom, score
      L1  H    10    34       P1  8028  0.92
      L1  H    13    35       P1  8028  0.89

> <Gold.Chemscore.Hbond.Weighted>
-6.0936

> <Gold.Chemscore.Metal.Weighted>
-0.0000

> <Gold.Chemscore.Lipo.Weighted>
-13.3596

> <Gold.Chemscore.Internal_Hbond.Weighted>
0.0000

> <Gold.Chemscore.DEClash.Weighted>
1.5217

> <Gold.Chemscore.DEInternal.Weighted>
1.2270

> <Gold.Chemscore.Rot.Weighted>
3.9199

> <Gold.Chemscore.Internal.Correction.Weighted>
   9.000000E+99

> <Gold.Protein.RotatedTorsions>
[ 6907 6896 6895 6894 ] final   67.69 input  -60.11 | X-H torsion
[ 7974 7965 7964 7962 ] final -168.87 input  175.53 | X-H torsion
[ 8008 7997 7996 7995 ] final   51.46 input   59.86 | X-H torsion
[ 10167 10162 10161 10158 ] final  145.23 input  -65.29 | X-H torsion
[ 10718 10713 10712 10709 ] final  -78.47 input   66.30 | X-H torsion
[ 10763 10752 10751 10750 ] final -139.98 input  -60.55 | X-H torsion
[ 11005 11000 10999 10996 ] final   43.56 input  -57.11 | X-H torsion

> <Gold.Protein.ActiveResidues>
 VAL166  LYS551  ARG553  GLY616  TRP617  ASP618  TYR619  PRO620  LYS621  CYS622 
 ASP623  PHE694  ASN695  SER759  ASP760  ASP761  ALA762  ILE779  LEU786  VAL792 
 PHE793  MET794  SER795  GLU796  ALA797  LYS798  CYS799  TRP800  GLU811  SER814 

> <Gold.Protein.RotatedAtoms>
  152.4569  134.5271  159.9799 H   0  0  0  0  0  0  0  0  0  0  0  0  # atno 6907 bound_to 6896
  151.5329  133.3440  159.2929 H   0  0  0  0  0  0  0  0  0  0  0  0  # atno 6908 bound_to 6896
  150.8517  134.7874  159.7076 H   0  0  0  0  0  0  0  0  0  0  0  0  # atno 6909 bound_to 6896
  144.7195  140.2305  143.6304 H   0  0  0  0  0  0  0  0  0  0  0  0  # atno 7974 bound_to 7965
  155.4357  140.3452  155.4284 H   0  0  0  0  0  0  0  0  0  0  0  0  # atno 8008 bound_to 7997
  156.1309  140.1514  156.9097 H   0  0  0  0  0  0  0  0  0  0  0  0  # atno 8009 bound_to 7997
  154.4894  140.0845  156.7540 H   0  0  0  0  0  0  0  0  0  0  0  0  # atno 8010 bound_to 7997
  139.4930  144.5916  151.6668 H   0  0  0  0  0  0  0  0  0  0  0  0  # atno 10167 bound_to 10162
  156.0117  130.4519  150.3501 H   0  0  0  0  0  0  0  0  0  0  0  0  # atno 10718 bound_to 10713
  154.8593  135.3566  154.5634 H   0  0  0  0  0  0  0  0  0  0  0  0  # atno 10763 bound_to 10752
  153.6249  135.7004  153.5301 H   0  0  0  0  0  0  0  0  0  0  0  0  # atno 10764 bound_to 10752
  153.3098  135.4182  155.1285 H   0  0  0  0  0  0  0  0  0  0  0  0  # atno 10765 bound_to 10752
  140.1633  134.4313  155.8303 H   0  0  0  0  0  0  0  0  0  0  0  0  # atno 11005 bound_to 11000
  145.8415  139.2132  143.1824 LP  0  0  0  0  0  0  0  0  0  0  0  0  # atno 17320 bound_to 7965
  146.0342  140.8228  142.9861 LP  0  0  0  0  0  0  0  0  0  0  0  0  # atno 17321 bound_to 7965
  140.5544  144.0371  150.6141 LP  0  0  0  0  0  0  0  0  0  0  0  0  # atno 17342 bound_to 10162
  140.3436  143.3004  152.0561 LP  0  0  0  0  0  0  0  0  0  0  0  0  # atno 17343 bound_to 10162
  157.1594  131.0341  151.2848 LP  0  0  0  0  0  0  0  0  0  0  0  0  # atno 17370 bound_to 10713
  157.4324  130.7498  149.7001 LP  0  0  0  0  0  0  0  0  0  0  0  0  # atno 17371 bound_to 10713
  141.2211  133.6923  156.7634 LP  0  0  0  0  0  0  0  0  0  0  0  0  # atno 17394 bound_to 11000
  140.2463  134.8575  157.3623 LP  0  0  0  0  0  0  0  0  0  0  0  0  # atno 17395 bound_to 11000

$$$$
