AV-unprocessed.smi:290|AV-procd|sdf|2226|dock3
  -GOLD-   2262022 83D 1   1.00000     0.00000
 Structure written by MMmdl.
 59 62  0  0  0  0  0  0  0  0  2 V2000
  152.6232  141.8027  159.9381 C   0  0  0  0  0  0  0  0  0  0  0  0
  151.6442  142.8985  159.4881 C   0  0  1  0  0  0  0  0  0  0  0  0
  152.2080  144.1603  159.8346 O   0  0  0  0  0  0  0  0  0  0  0  0
  151.7247  145.1346  158.9277 C   0  0  0  0  0  0  0  0  0  0  0  0
  151.7834  144.3959  157.5998 C   0  0  0  0  0  0  0  0  0  0  0  0
  151.3304  142.9839  157.9669 C   0  0  2  0  0  0  0  0  0  0  0  0
  149.9219  142.9288  157.8156 O   0  0  0  0  0  0  0  0  0  0  0  0
  151.9537  141.8817  157.0705 C   0  0  0  0  0  0  0  0  0  0  0  0
  151.2644  140.6036  157.1636 N   0  0  0  0  0  0  0  0  0  0  0  0
  150.9249  139.9331  158.3182 C   0  0  0  0  0  0  0  0  0  0  0  0
  150.3092  138.7955  158.1432 N   0  0  0  0  0  0  0  0  0  0  0  0
  150.2090  138.6800  156.7632 C   0  0  0  0  0  0  0  0  0  0  0  0
  149.6543  137.7050  155.8957 C   0  0  0  0  0  0  0  0  0  0  0  0
  149.0600  136.5905  156.3758 N   0  0  0  0  0  0  0  0  0  0  0  0
  149.7745  135.3555  156.0938 C   0  0  0  0  0  0  0  0  0  0  0  0
  148.7833  134.2222  156.3858 C   0  0  0  0  0  0  0  0  0  0  0  0
  147.3925  134.8941  156.3754 C   0  0  1  0  0  0  0  0  0  0  0  0
  146.6097  134.7475  157.6427 N   0  3  2  0  0  0  0  0  0  0  0  0
  147.2865  135.2272  158.8755 C   0  0  0  0  0  0  0  0  0  0  0  0
  146.0152  133.3981  157.8228 C   0  0  0  0  0  0  0  0  0  0  0  0
  145.0902  133.0091  156.6567 C   0  0  0  0  0  0  0  0  0  0  0  0
  144.5207  131.7395  156.8957 O   0  0  0  0  0  0  0  0  0  0  0  0
  147.6793  136.3557  155.9762 C   0  0  1  0  0  0  0  0  0  0  0  0
  146.6846  137.4251  156.4711 C   0  0  0  0  0  0  0  0  0  0  0  0
  149.7299  137.9248  154.5565 N   0  0  0  0  0  0  0  0  0  0  0  0
  150.3144  139.0357  154.0964 C   0  0  0  0  0  0  0  0  0  0  0  0
  150.8743  140.0318  154.7871 N   0  0  0  0  0  0  0  0  0  0  0  0
  150.7986  139.8091  156.1307 C   0  0  0  0  0  0  0  0  0  0  0  0
  146.8013  134.4634  155.5677 H   0  0  0  0  0  0  0  0  0  0  0  0
  147.6535  136.3844  154.8853 H   0  0  0  0  0  0  0  0  0  0  0  0
  152.2431  140.8081  159.7049 H   0  0  0  0  0  0  0  0  0  0  0  0
  152.7779  141.8476  161.0163 H   0  0  0  0  0  0  0  0  0  0  0  0
  153.5992  141.9165  159.4657 H   0  0  0  0  0  0  0  0  0  0  0  0
  150.7203  142.7872  160.0594 H   0  0  0  0  0  0  0  0  0  0  0  0
  150.6997  145.4066  159.1840 H   0  0  0  0  0  0  0  0  0  0  0  0
  152.3378  146.0358  158.9378 H   0  0  0  0  0  0  0  0  0  0  0  0
  151.1827  144.8656  156.8197 H   0  0  0  0  0  0  0  0  0  0  0  0
  152.8187  144.3812  157.2570 H   0  0  0  0  0  0  0  0  0  0  0  0
  149.6493  143.6509  157.2703 H   0  0  0  0  0  0  0  0  0  0  0  0
  151.9333  142.1851  156.0235 H   0  0  0  0  0  0  0  0  0  0  0  0
  153.0025  141.7266  157.3271 H   0  0  0  0  0  0  0  0  0  0  0  0
  151.1539  140.3155  159.3025 H   0  0  0  0  0  0  0  0  0  0  0  0
  150.0873  135.3232  155.0489 H   0  0  0  0  0  0  0  0  0  0  0  0
  150.6674  135.2732  156.7144 H   0  0  0  0  0  0  0  0  0  0  0  0
  148.8542  133.4490  155.6203 H   0  0  0  0  0  0  0  0  0  0  0  0
  149.0205  133.7402  157.3321 H   0  0  0  0  0  0  0  0  0  0  0  0
  148.0279  134.5156  159.2378 H   0  0  0  0  0  0  0  0  0  0  0  0
  146.5512  135.3615  159.6693 H   0  0  0  0  0  0  0  0  0  0  0  0
  147.7797  136.1870  158.7286 H   0  0  0  0  0  0  0  0  0  0  0  0
  146.8113  132.6616  157.9415 H   0  0  0  0  0  0  0  0  0  0  0  0
  145.4337  133.3647  158.7459 H   0  0  0  0  0  0  0  0  0  0  0  0
  144.2986  133.7401  156.4953 H   0  0  0  0  0  0  0  0  0  0  0  0
  145.6650  132.9563  155.7318 H   0  0  0  0  0  0  0  0  0  0  0  0
  143.8289  131.5952  156.2672 H   0  0  0  0  0  0  0  0  0  0  0  0
  145.6633  137.1648  156.1919 H   0  0  0  0  0  0  0  0  0  0  0  0
  146.9036  138.3967  156.0270 H   0  0  0  0  0  0  0  0  0  0  0  0
  146.7156  137.5515  157.5526 H   0  0  0  0  0  0  0  0  0  0  0  0
  150.3363  139.1422  153.0218 H   0  0  0  0  0  0  0  0  0  0  0  0
  145.8147  135.3611  157.5316 H   0  0  0  0  0  0  0  0  0  0  0  0
  1  2  1  0  0  0  0
  1 31  1  0  0  0  0
  1 32  1  0  0  0  0
  1 33  1  0  0  0  0
  2  6  1  0  0  0  0
  2  3  1  0  0  0  0
  2 34  1  0  0  0  0
  3  4  1  0  0  0  0
  4  5  1  0  0  0  0
  4 35  1  0  0  0  0
  4 36  1  0  0  0  0
  5  6  1  0  0  0  0
  5 37  1  0  0  0  0
  5 38  1  0  0  0  0
  6  7  1  0  0  0  0
  6  8  1  0  0  0  0
  7 39  1  0  0  0  0
  8  9  1  0  0  0  0
  8 40  1  0  0  0  0
  8 41  1  0  0  0  0
  9 28  1  0  0  0  0
  9 10  1  0  0  0  0
 10 11  2  0  0  0  0
 10 42  1  0  0  0  0
 11 12  1  0  0  0  0
 12 28  2  0  0  0  0
 12 13  1  0  0  0  0
 13 14  1  0  0  0  0
 13 25  2  0  0  0  0
 14 23  1  0  0  0  0
 14 15  1  0  0  0  0
 15 16  1  0  0  0  0
 15 43  1  0  0  0  0
 15 44  1  0  0  0  0
 16 17  1  0  0  0  0
 16 45  1  0  0  0  0
 16 46  1  0  0  0  0
 17 29  1  0  0  0  0
 17 18  1  0  0  0  0
 17 23  1  0  0  0  0
 18 19  1  0  0  0  0
 18 20  1  0  0  0  0
 18 59  1  0  0  0  0
 19 47  1  0  0  0  0
 19 48  1  0  0  0  0
 19 49  1  0  0  0  0
 20 21  1  0  0  0  0
 20 50  1  0  0  0  0
 20 51  1  0  0  0  0
 21 22  1  0  0  0  0
 21 52  1  0  0  0  0
 21 53  1  0  0  0  0
 22 54  1  0  0  0  0
 23 30  1  0  0  0  0
 23 24  1  0  0  0  0
 24 55  1  0  0  0  0
 24 56  1  0  0  0  0
 24 57  1  0  0  0  0
 25 26  1  0  0  0  0
 26 27  2  0  0  0  0
 26 58  1  0  0  0  0
 27 28  1  0  0  0  0
M  CHG  1  18   1
M  END
> <s_m_source_file>
AV-unprocessed.smi

> <i_m_source_file_index>
290

> <i_lp_mmshare_version>
43012

> <i_f3d_flags>
0

> <s_epik_input>
W0NIMl0xW0NIMl1PW0NAQEhdKFtDSDNdKVtDQEBdMShbT0hdKVtDSDJdbihbY0hdbjIpYyhjMjMpbltjSF1uYzNONFtDSDJdW0NIMl1bQ0BIXShbQ0BIXTRbQ0gzXSlOKFtDSDNdKVtDSDJdW0NIMl1bT0hd

> <s_epik_cmdline>
J2VwaWtfcHl0aG9uJywgJy1waCcsICc3LjAnLCAnLXRuJywgJzgnLCAnLW1hJywgJzIwMCcsICctbWV0YWxfYmluZGluZycsICctaW1hZScsICc8aW5maWxlLm1hZT4nLCAnLW9tYWUnLCAnPG91dGZpbGUubWFlPic=

> <r_lp_tautomer_probability>
1

> <r_epik_Ionization_Penalty>
0.0036983

> <r_epik_Ionization_Penalty_Charging>
0.0032725

> <r_epik_Ionization_Penalty_Neutral>
0.000425798

> <r_epik_State_Penalty>
-0

> <r_epik_Charging_Adjusted_Penalty>
0.0032725

> <i_epik_Tot_Q>
1

> <i_epik_Tot_abs_Q>
1

> <r_epik_Metal_State_Penalty>
-0

> <b_epik_Metal_Only>
0

> <s_lp_Force_Field>
OPLS_2005

> <r_lp_Energy>
69.8612

> <b_lp_Chiralities_Consistent>
1

> <s_lp_Variant>
AV-unprocessed.smi:290-12

> <Gold.Version>
5.8.1

> <Gold.Id.Protein>
6NUR|6NUR_protein|mol2

> <Gold.PLP.Fitness>
42.5933

> <Gold.PLP.PLP>
-31.1918

> <Gold.PLP.part.hbond>
-3.1574

> <Gold.PLP.part.metal>
0.0000

> <Gold.PLP.part.buried>
-7.0503

> <Gold.PLP.part.nonpolar>
-21.4436

> <Gold.PLP.part.repulsive>
0.3095

> <Gold.PLP.ligand.clash>
0.0000

> <Gold.PLP.ligand.torsion>
0.5123

> <Gold.PLP.Chemscore.Hbond>
3.0000

> <Gold.PLP.Chemscore.CHOScore>
1.0000

> <Gold.PLP.Chemscore.Metal>
0.0000

> <Gold.Chemscore.Hbonds>
donor molecule, donor type, donor heavy atom, donor atom, acceptor molecule, acceptor atom, score
      L1  H     7    39       P1  8028  0.91
      L1  H    22    54       P1 10957  1.00
      P1  H  7989  7998       L1    27  0.95
      L1  C    26    58       P1  7957  1.00

> <Gold.PLP.Chemscore.Internal.Correction>
0.4261

> <Gold.Rescore>
     Score         DG    S(hbond)    S(metal)    S(lipo)     H(rot)  DE(clash)    DE(int)     intcor
     11.86     -14.21       2.69        0.00      78.00       3.67       1.72       0.62       ----

> <Gold.Chemscore.Fitness>
11.8595

> <Gold.Chemscore.DG>
-14.2067

> <Gold.Chemscore.ZeroCoef>
-5.4800

> <Gold.Chemscore.Hbond>
2.6901

> <Gold.Chemscore.Metal>
0.0000

> <Gold.Chemscore.Lipo>
78.0017

> <Gold.Chemscore.Internal_Hbond>
0.0000

> <Gold.Chemscore.DEClash>
1.7232

> <Gold.Chemscore.DEInternal>
0.6240

> <Gold.Chemscore.Rot>
3.6658

> <Gold.Chemscore.Internal.Correction>
   9.000000E+99

> <Gold.Chemscore.Hbonds>
donor molecule, donor type, donor heavy atom, donor atom, acceptor molecule, acceptor atom, score
      L1  H     7    39       P1  8028  0.73
      L1  H    22    54       P1 10957  0.50
      P1  H  7989  7998       L1    27  0.22

> <Gold.Chemscore.Hbond.Weighted>
-8.9849

> <Gold.Chemscore.Metal.Weighted>
-0.0000

> <Gold.Chemscore.Lipo.Weighted>
-9.1262

> <Gold.Chemscore.Internal_Hbond.Weighted>
0.0000

> <Gold.Chemscore.DEClash.Weighted>
1.7232

> <Gold.Chemscore.DEInternal.Weighted>
0.6240

> <Gold.Chemscore.Rot.Weighted>
9.3844

> <Gold.Chemscore.Internal.Correction.Weighted>
   9.000000E+99

> <Gold.Protein.RotatedTorsions>
[ 6907 6896 6895 6894 ] final  -17.07 input  -60.11 | X-H torsion
[ 7974 7965 7964 7962 ] final   -7.31 input  175.53 | X-H torsion
[ 8008 7997 7996 7995 ] final  -48.94 input   59.86 | X-H torsion
[ 10167 10162 10161 10158 ] final  -62.01 input  -65.29 | X-H torsion
[ 10718 10713 10712 10709 ] final  -38.68 input   66.30 | X-H torsion
[ 10763 10752 10751 10750 ] final  155.42 input  -60.55 | X-H torsion
[ 11005 11000 10999 10996 ] final  144.55 input  -57.11 | X-H torsion

> <Gold.Protein.ActiveResidues>
 VAL166  LYS551  ARG553  GLY616  TRP617  ASP618  TYR619  PRO620  LYS621  CYS622 
 ASP623  PHE694  ASN695  SER759  ASP760  ASP761  ALA762  ILE779  LEU786  VAL792 
 PHE793  MET794  SER795  GLU796  ALA797  LYS798  CYS799  TRP800  GLU811  SER814 

> <Gold.Protein.RotatedAtoms>
  151.2990  135.0763  159.9231 H   0  0  0  0  0  0  0  0  0  0  0  0  # atno 6907 bound_to 6896
  152.5301  133.9853  159.7836 H   0  0  0  0  0  0  0  0  0  0  0  0  # atno 6908 bound_to 6896
  151.0136  133.5890  159.2710 H   0  0  0  0  0  0  0  0  0  0  0  0  # atno 6909 bound_to 6896
  146.2310  140.2301  142.8340 H   0  0  0  0  0  0  0  0  0  0  0  0  # atno 7974 bound_to 7965
  154.4036  140.1309  156.4421 H   0  0  0  0  0  0  0  0  0  0  0  0  # atno 8008 bound_to 7997
  155.7449  140.3489  155.5102 H   0  0  0  0  0  0  0  0  0  0  0  0  # atno 8009 bound_to 7997
  155.9005  140.1018  157.1344 H   0  0  0  0  0  0  0  0  0  0  0  0  # atno 8010 bound_to 7997
  140.5968  143.2352  151.6018 H   0  0  0  0  0  0  0  0  0  0  0  0  # atno 10167 bound_to 10162
  156.3010  130.4240  149.8143 H   0  0  0  0  0  0  0  0  0  0  0  0  # atno 10718 bound_to 10713
  154.1680  135.2806  155.3089 H   0  0  0  0  0  0  0  0  0  0  0  0  # atno 10763 bound_to 10752
  154.6096  135.5503  153.7463 H   0  0  0  0  0  0  0  0  0  0  0  0  # atno 10764 bound_to 10752
  153.0173  135.6412  154.1821 H   0  0  0  0  0  0  0  0  0  0  0  0  # atno 10765 bound_to 10752
  140.0641  134.9188  157.1235 H   0  0  0  0  0  0  0  0  0  0  0  0  # atno 11005 bound_to 11000
  144.9565  140.8231  143.5540 LP  0  0  0  0  0  0  0  0  0  0  0  0  # atno 17320 bound_to 7965
  145.2267  139.2134  143.5064 LP  0  0  0  0  0  0  0  0  0  0  0  0  # atno 17321 bound_to 7965
  139.5263  144.3048  152.1043 LP  0  0  0  0  0  0  0  0  0  0  0  0  # atno 17342 bound_to 10162
  140.2222  144.4455  150.6337 LP  0  0  0  0  0  0  0  0  0  0  0  0  # atno 17343 bound_to 10162
  156.5522  130.8347  151.3303 LP  0  0  0  0  0  0  0  0  0  0  0  0  # atno 17370 bound_to 10713
  157.7368  130.9784  150.2155 LP  0  0  0  0  0  0  0  0  0  0  0  0  # atno 17371 bound_to 10713
  140.3725  134.2375  155.7177 LP  0  0  0  0  0  0  0  0  0  0  0  0  # atno 17394 bound_to 11000
  141.1985  133.8033  157.0577 LP  0  0  0  0  0  0  0  0  0  0  0  0  # atno 17395 bound_to 11000

$$$$
