AV-unprocessed.smi:2032|AV-procd|sdf|8248|dock9
  -GOLD-   2272010523D 1   1.00000     0.00000
 Structure written by MMmdl.
 41 42  0  0  0  0  0  0  0  0  2 V2000
  153.5802  142.0576  162.0131 C   0  0  0  0  0  0  0  0  0  0  0  0
  153.4326  142.1784  160.4929 C   0  0  1  0  0  0  0  0  0  0  0  0
  152.8635  140.8943  159.8593 C   0  0  0  0  0  0  0  0  0  0  0  0
  152.6494  141.0178  158.4136 N   0  0  0  0  0  0  0  0  0  0  0  0
  152.0819  139.7888  157.8096 C   0  0  1  0  0  0  0  0  0  0  0  0
  151.6295  139.9991  156.3419 C   0  0  0  0  0  0  0  0  0  0  0  0
  153.0480  138.5689  157.8710 C   0  0  0  0  0  0  0  0  0  0  0  0
  152.6836  137.4848  156.9616 N   0  0  0  0  0  0  0  0  0  0  0  0
  151.8272  136.4877  157.2259 C   0  0  0  0  0  0  0  0  0  0  0  0
  151.2738  136.4267  158.3263 O   0  0  0  0  0  0  0  0  0  0  0  0
  151.6628  135.6266  156.1959 N   0  5  0  0  0  0  0  0  0  0  0  0
  150.7522  134.6430  156.2782 C   0  0  0  0  0  0  0  0  0  0  0  0
  150.2484  134.2106  157.4400 N   0  0  0  0  0  0  0  0  0  0  0  0
  149.3268  133.1723  157.2933 C   0  0  0  0  0  0  0  0  0  0  0  0
  149.1308  132.7993  155.9901 C   0  0  0  0  0  0  0  0  0  0  0  0
  150.1026  133.7481  154.9013 S   0  0  0  0  0  0  0  0  0  0  0  0
  151.8064  142.1957  158.1826 C   0  0  0  0  0  0  0  0  0  0  0  0
  152.3753  143.4774  158.8207 C   0  0  1  0  0  0  0  0  0  0  0  0
  151.4406  144.6780  158.6380 C   0  0  0  0  0  0  0  0  0  0  0  0
  152.5584  143.2647  160.2145 O   0  0  0  0  0  0  0  0  0  0  0  0
  154.2542  141.2426  162.2777 H   0  0  0  0  0  0  0  0  0  0  0  0
  152.6184  141.8646  162.4891 H   0  0  0  0  0  0  0  0  0  0  0  0
  153.9855  142.9754  162.4396 H   0  0  0  0  0  0  0  0  0  0  0  0
  154.4127  142.3934  160.0635 H   0  0  0  0  0  0  0  0  0  0  0  0
  153.5722  140.0972  160.0745 H   0  0  0  0  0  0  0  0  0  0  0  0
  151.9259  140.6273  160.3495 H   0  0  0  0  0  0  0  0  0  0  0  0
  151.1910  139.5201  158.3791 H   0  0  0  0  0  0  0  0  0  0  0  0
  151.2513  139.0842  155.8873 H   0  0  0  0  0  0  0  0  0  0  0  0
  152.4537  140.3556  155.7236 H   0  0  0  0  0  0  0  0  0  0  0  0
  150.8108  140.7119  156.2580 H   0  0  0  0  0  0  0  0  0  0  0  0
  154.0618  138.8865  157.6258 H   0  0  0  0  0  0  0  0  0  0  0  0
  153.0940  138.1347  158.8688 H   0  0  0  0  0  0  0  0  0  0  0  0
  153.1130  137.4940  156.0483 H   0  0  0  0  0  0  0  0  0  0  0  0
  148.8592  132.7553  158.1729 H   0  0  0  0  0  0  0  0  0  0  0  0
  148.4796  132.0286  155.6059 H   0  0  0  0  0  0  0  0  0  0  0  0
  151.7037  142.3895  157.1166 H   0  0  0  0  0  0  0  0  0  0  0  0
  150.8028  142.0105  158.5688 H   0  0  0  0  0  0  0  0  0  0  0  0
  153.3399  143.7136  158.3676 H   0  0  0  0  0  0  0  0  0  0  0  0
  151.2739  144.8890  157.5816 H   0  0  0  0  0  0  0  0  0  0  0  0
  151.8640  145.5738  159.0931 H   0  0  0  0  0  0  0  0  0  0  0  0
  150.4701  144.4963  159.1009 H   0  0  0  0  0  0  0  0  0  0  0  0
  1  2  1  0  0  0  0
  1 21  1  0  0  0  0
  1 22  1  0  0  0  0
  1 23  1  0  0  0  0
  2 20  1  0  0  0  0
  2  3  1  0  0  0  0
  2 24  1  0  0  0  0
  3  4  1  0  0  0  0
  3 25  1  0  0  0  0
  3 26  1  0  0  0  0
  4  5  1  0  0  0  0
  4 17  1  0  0  0  0
  5  6  1  0  0  0  0
  5  7  1  0  0  0  0
  5 27  1  0  0  0  0
  6 28  1  0  0  0  0
  6 29  1  0  0  0  0
  6 30  1  0  0  0  0
  7  8  1  0  0  0  0
  7 31  1  0  0  0  0
  7 32  1  0  0  0  0
  8  9  1  0  0  0  0
  8 33  1  0  0  0  0
  9 10  2  0  0  0  0
  9 11  1  0  0  0  0
 11 12  1  0  0  0  0
 12 16  1  0  0  0  0
 12 13  2  0  0  0  0
 13 14  1  0  0  0  0
 14 15  2  0  0  0  0
 14 34  1  0  0  0  0
 15 16  1  0  0  0  0
 15 35  1  0  0  0  0
 17 18  1  0  0  0  0
 17 36  1  0  0  0  0
 17 37  1  0  0  0  0
 18 19  1  0  0  0  0
 18 20  1  0  0  0  0
 18 38  1  0  0  0  0
 19 39  1  0  0  0  0
 19 40  1  0  0  0  0
 19 41  1  0  0  0  0
M  CHG  1  11  -1
M  END
> <s_m_source_file>
AV-unprocessed.smi

> <i_m_source_file_index>
2032

> <i_lp_mmshare_version>
43012

> <i_f3d_flags>
0

> <s_epik_input>
W0NIM11bQ0BASF0xW0NIMl1OKFtDSDJdW0NASF0oTzEpW0NIM10pW0NASF0oW0NIM10pW0NIMl1bTkhdQyg9TylbTkhdYzJuW2NIXVtjSF1zMg==

> <s_epik_cmdline>
J2VwaWtfcHl0aG9uJywgJy1waCcsICc3LjAnLCAnLXRuJywgJzgnLCAnLW1hJywgJzIwMCcsICctbWV0YWxfYmluZGluZycsICctaW1hZScsICc8aW5maWxlLm1hZT4nLCAnLW9tYWUnLCAnPG91dGZpbGUubWFlPic=

> <r_lp_tautomer_probability>
0.999

> <r_epik_Ionization_Penalty>
7.22375

> <r_epik_Ionization_Penalty_Charging>
5.82415

> <r_epik_Ionization_Penalty_Neutral>
1.39959

> <r_epik_State_Penalty>
6.03347

> <r_epik_Charging_Adjusted_Penalty>
11.8576

> <i_epik_Tot_Q>
-1

> <i_epik_Tot_abs_Q>
1

> <r_epik_Metal_State_Penalty>
2.01024

> <b_epik_Metal_Only>
1

> <s_lp_Force_Field>
OPLS_2005

> <r_lp_Energy>
22.8045

> <b_lp_Chiralities_Consistent>
1

> <s_lp_Variant>
AV-unprocessed.smi:2032-18

> <Gold.Version>
5.8.1

> <Gold.Id.Protein>
6NUR|6NUR_protein|mol2

> <Gold.PLP.Fitness>
44.1091

> <Gold.PLP.PLP>
-35.1579

> <Gold.PLP.part.hbond>
-3.0614

> <Gold.PLP.part.metal>
0.0000

> <Gold.PLP.part.buried>
-4.8796

> <Gold.PLP.part.nonpolar>
-27.6994

> <Gold.PLP.part.repulsive>
0.1544

> <Gold.PLP.ligand.clash>
0.0000

> <Gold.PLP.ligand.torsion>
0.5387

> <Gold.PLP.Chemscore.Hbond>
3.3223

> <Gold.PLP.Chemscore.CHOScore>
0.0000

> <Gold.PLP.Chemscore.Metal>
0.0000

> <Gold.Chemscore.Hbonds>
donor molecule, donor type, donor heavy atom, donor atom, acceptor molecule, acceptor atom, score
      P1  H  6896  6907       L1    10  0.61
      P1  H  6896  6909       L1    13  0.56
      P1  H 10752 10764       L1    11  2.00

> <Gold.PLP.Chemscore.Internal.Correction>
0.0619

> <Gold.Rescore>
     Score         DG    S(hbond)    S(metal)    S(lipo)     H(rot)  DE(clash)    DE(int)     intcor
     16.63     -18.78       1.95        0.00      91.76       1.54       0.00       2.15       ----

> <Gold.Chemscore.Fitness>
16.6288

> <Gold.Chemscore.DG>
-18.7767

> <Gold.Chemscore.ZeroCoef>
-5.4800

> <Gold.Chemscore.Hbond>
1.9495

> <Gold.Chemscore.Metal>
0.0000

> <Gold.Chemscore.Lipo>
91.7587

> <Gold.Chemscore.Internal_Hbond>
0.0000

> <Gold.Chemscore.DEClash>
0.0000

> <Gold.Chemscore.DEInternal>
2.1480

> <Gold.Chemscore.Rot>
1.5431

> <Gold.Chemscore.Internal.Correction>
   9.000000E+99

> <Gold.Chemscore.Hbonds>
donor molecule, donor type, donor heavy atom, donor atom, acceptor molecule, acceptor atom, score
      P1  H  6896  6907       L1    10  0.58
      P1  H  6896  6909       L1    13  0.09
      P1  H 10752 10764       L1    11  0.93

> <Gold.Chemscore.Hbond.Weighted>
-6.5112

> <Gold.Chemscore.Metal.Weighted>
-0.0000

> <Gold.Chemscore.Lipo.Weighted>
-10.7358

> <Gold.Chemscore.Internal_Hbond.Weighted>
0.0000

> <Gold.Chemscore.DEClash.Weighted>
0.0000

> <Gold.Chemscore.DEInternal.Weighted>
2.1480

> <Gold.Chemscore.Rot.Weighted>
3.9503

> <Gold.Chemscore.Internal.Correction.Weighted>
   9.000000E+99

> <Gold.Protein.RotatedTorsions>
[ 6907 6896 6895 6894 ] final  -12.82 input  -60.11 | X-H torsion
[ 7974 7965 7964 7962 ] final  100.78 input  175.53 | X-H torsion
[ 8008 7997 7996 7995 ] final -159.08 input   59.86 | X-H torsion
[ 10167 10162 10161 10158 ] final  -48.11 input  -65.29 | X-H torsion
[ 10718 10713 10712 10709 ] final  158.44 input   66.30 | X-H torsion
[ 10763 10752 10751 10750 ] final  -43.62 input  -60.55 | X-H torsion
[ 11005 11000 10999 10996 ] final  129.73 input  -57.11 | X-H torsion

> <Gold.Protein.ActiveResidues>
 VAL166  LYS551  ARG553  GLY616  TRP617  ASP618  TYR619  PRO620  LYS621  CYS622 
 ASP623  PHE694  ASN695  SER759  ASP760  ASP761  ALA762  ILE779  LEU786  VAL792 
 PHE793  MET794  SER795  GLU796  ALA797  LYS798  CYS799  TRP800  GLU811  SER814 

> <Gold.Protein.RotatedAtoms>
  151.3646  135.0910  159.9445 H   0  0  0  0  0  0  0  0  0  0  0  0  # atno 6907 bound_to 6896
  152.5152  133.9225  159.7551 H   0  0  0  0  0  0  0  0  0  0  0  0  # atno 6908 bound_to 6896
  150.9626  133.6374  159.2781 H   0  0  0  0  0  0  0  0  0  0  0  0  # atno 6909 bound_to 6896
  145.3810  139.2380  143.3403 H   0  0  0  0  0  0  0  0  0  0  0  0  # atno 7974 bound_to 7965
  155.7573  140.0834  157.2172 H   0  0  0  0  0  0  0  0  0  0  0  0  # atno 8008 bound_to 7997
  154.4006  140.1549  156.2848 H   0  0  0  0  0  0  0  0  0  0  0  0  # atno 8009 bound_to 7997
  155.8873  140.3417  155.5934 H   0  0  0  0  0  0  0  0  0  0  0  0  # atno 8010 bound_to 7997
  140.6745  143.2754  151.4024 H   0  0  0  0  0  0  0  0  0  0  0  0  # atno 10167 bound_to 10162
  157.1779  131.0625  151.2148 H   0  0  0  0  0  0  0  0  0  0  0  0  # atno 10718 bound_to 10713
  153.9985  135.6696  153.4758 H   0  0  0  0  0  0  0  0  0  0  0  0  # atno 10763 bound_to 10752
  153.0673  135.4994  154.8224 H   0  0  0  0  0  0  0  0  0  0  0  0  # atno 10764 bound_to 10752
  154.7067  135.3089  154.9223 H   0  0  0  0  0  0  0  0  0  0  0  0  # atno 10765 bound_to 10752
  139.9632  134.9597  156.9191 H   0  0  0  0  0  0  0  0  0  0  0  0  # atno 11005 bound_to 11000
  146.2842  140.4477  142.8764 LP  0  0  0  0  0  0  0  0  0  0  0  0  # atno 17320 bound_to 7965
  144.8508  140.6998  143.6169 LP  0  0  0  0  0  0  0  0  0  0  0  0  # atno 17321 bound_to 7965
  139.6030  144.1255  152.2219 LP  0  0  0  0  0  0  0  0  0  0  0  0  # atno 17342 bound_to 10162
  140.0645  144.5829  150.7238 LP  0  0  0  0  0  0  0  0  0  0  0  0  # atno 17343 bound_to 10162
  157.3981  130.7318  149.6746 LP  0  0  0  0  0  0  0  0  0  0  0  0  # atno 17370 bound_to 10713
  155.9728  130.4128  150.4051 LP  0  0  0  0  0  0  0  0  0  0  0  0  # atno 17371 bound_to 10713
  140.5454  134.0679  155.7353 LP  0  0  0  0  0  0  0  0  0  0  0  0  # atno 17394 bound_to 11000
  141.1310  133.9302  157.2535 LP  0  0  0  0  0  0  0  0  0  0  0  0  # atno 17395 bound_to 11000

$$$$
