AV-unprocessed.smi:249|AV-procd|sdf|1913|dock8
  -GOLD-   2262021 03D 1   1.00000     0.00000
 Structure written by MMmdl.
 64 67  0  0  0  0  0  0  0  0  2 V2000
  143.5705  132.0839  150.7127 C   0  0  0  0  0  0  0  0  0  0  0  0
  144.5906  132.2225  151.8528 C   0  0  0  0  0  0  0  0  0  0  0  0
  144.2585  133.3098  152.8126 N   0  3  1  0  0  0  0  0  0  0  0  0
  145.4353  133.7170  153.6267 C   0  0  0  0  0  0  0  0  0  0  0  0
  145.0291  134.6607  154.7695 C   0  0  0  0  0  0  0  0  0  0  0  0
  144.2837  135.8940  154.2234 C   0  0  2  0  0  0  0  0  0  0  0  0
  143.9266  136.8780  155.2533 N   0  0  0  0  0  0  0  0  0  0  0  0
  142.5532  136.9125  155.7381 C   0  0  0  0  0  0  0  0  0  0  0  0
  144.5488  138.0797  155.3274 C   0  0  0  0  0  0  0  0  0  0  0  0
  143.9994  139.0940  156.0444 N   0  0  0  0  0  0  0  0  0  0  0  0
  144.6222  140.2737  156.1247 C   0  0  0  0  0  0  0  0  0  0  0  0
  145.7775  140.6465  155.5708 N   0  0  0  0  0  0  0  0  0  0  0  0
  146.3321  139.6307  154.8492 C   0  0  0  0  0  0  0  0  0  0  0  0
  145.7933  138.3238  154.6866 C   0  0  0  0  0  0  0  0  0  0  0  0
  146.6365  137.5557  153.8938 N   0  0  0  0  0  0  0  0  0  0  0  0
  147.6188  138.3637  153.6012 C   0  0  0  0  0  0  0  0  0  0  0  0
  147.5043  139.6376  154.1127 N   0  0  0  0  0  0  0  0  0  0  0  0
  148.4486  140.7270  153.9364 C   0  0  0  0  0  0  0  0  0  0  0  0
  149.3617  141.0067  155.1603 C   0  0  1  0  0  0  0  0  0  0  0  0
  148.4772  141.2986  156.3949 C   0  0  0  0  0  0  0  0  0  0  0  0
  147.5519  142.3366  156.1411 O   0  0  0  0  0  0  0  0  0  0  0  0
  150.4332  139.9115  155.4424 C   0  0  1  0  0  0  0  0  0  0  0  0
  150.9562  139.1573  154.2280 C   0  0  0  0  0  0  0  0  0  0  0  0
  152.2745  138.5738  154.7261 C   0  0  0  0  0  0  0  0  0  0  0  0
  152.7397  139.4592  155.7365 O   0  0  0  0  0  0  0  0  0  0  0  0
  151.7574  140.4547  155.9935 C   0  0  0  0  0  0  0  0  0  0  0  0
  143.0872  135.4439  153.3575 C   0  0  0  0  0  0  0  0  0  0  0  0
  143.5148  134.4741  152.2367 C   0  0  1  0  0  0  0  0  0  0  0  0
  144.2690  135.1925  151.0969 C   0  0  0  0  0  0  0  0  0  0  0  0
  143.7803  131.1937  150.1192 H   0  0  0  0  0  0  0  0  0  0  0  0
  143.6002  132.9343  150.0319 H   0  0  0  0  0  0  0  0  0  0  0  0
  142.5550  131.9910  151.0988 H   0  0  0  0  0  0  0  0  0  0  0  0
  144.6049  131.2775  152.3972 H   0  0  0  0  0  0  0  0  0  0  0  0
  145.5969  132.3528  151.4542 H   0  0  0  0  0  0  0  0  0  0  0  0
  145.9065  132.8322  154.0564 H   0  0  0  0  0  0  0  0  0  0  0  0
  146.1865  134.1880  152.9920 H   0  0  0  0  0  0  0  0  0  0  0  0
  144.4079  134.1095  155.4745 H   0  0  0  0  0  0  0  0  0  0  0  0
  145.9193  134.9681  155.3189 H   0  0  0  0  0  0  0  0  0  0  0  0
  144.9739  136.4192  153.5626 H   0  0  0  0  0  0  0  0  0  0  0  0
  142.5226  137.1426  156.8033 H   0  0  0  0  0  0  0  0  0  0  0  0
  142.0637  135.9492  155.5926 H   0  0  0  0  0  0  0  0  0  0  0  0
  141.9751  137.6692  155.2060 H   0  0  0  0  0  0  0  0  0  0  0  0
  144.1230  141.0273  156.7155 H   0  0  0  0  0  0  0  0  0  0  0  0
  148.4514  138.0552  152.9856 H   0  0  0  0  0  0  0  0  0  0  0  0
  149.0591  140.4838  153.0661 H   0  0  0  0  0  0  0  0  0  0  0  0
  147.8898  141.6266  153.6754 H   0  0  0  0  0  0  0  0  0  0  0  0
  149.8989  141.9344  154.9625 H   0  0  0  0  0  0  0  0  0  0  0  0
  147.9307  140.4093  156.7084 H   0  0  0  0  0  0  0  0  0  0  0  0
  149.0964  141.5862  157.2452 H   0  0  0  0  0  0  0  0  0  0  0  0
  148.0133  143.1615  156.1586 H   0  0  0  0  0  0  0  0  0  0  0  0
  150.0349  139.1876  156.1554 H   0  0  0  0  0  0  0  0  0  0  0  0
  150.2876  138.3731  153.8770 H   0  0  0  0  0  0  0  0  0  0  0  0
  151.1416  139.8447  153.4012 H   0  0  0  0  0  0  0  0  0  0  0  0
  152.1124  137.5931  155.1745 H   0  0  0  0  0  0  0  0  0  0  0  0
  153.0061  138.4635  153.9256 H   0  0  0  0  0  0  0  0  0  0  0  0
  152.0496  141.3644  155.4668 H   0  0  0  0  0  0  0  0  0  0  0  0
  151.7076  140.6821  157.0586 H   0  0  0  0  0  0  0  0  0  0  0  0
  142.3414  134.9409  153.9731 H   0  0  0  0  0  0  0  0  0  0  0  0
  142.5873  136.3136  152.9292 H   0  0  0  0  0  0  0  0  0  0  0  0
  142.5872  134.0948  151.8092 H   0  0  0  0  0  0  0  0  0  0  0  0
  143.6891  136.0390  150.7280 H   0  0  0  0  0  0  0  0  0  0  0  0
  144.4368  134.5345  150.2447 H   0  0  0  0  0  0  0  0  0  0  0  0
  145.2365  135.5790  151.4147 H   0  0  0  0  0  0  0  0  0  0  0  0
  143.6197  132.8900  153.4730 H   0  0  0  0  0  0  0  0  0  0  0  0
  1  2  1  0  0  0  0
  1 30  1  0  0  0  0
  1 31  1  0  0  0  0
  1 32  1  0  0  0  0
  2  3  1  0  0  0  0
  2 33  1  0  0  0  0
  2 34  1  0  0  0  0
  3 28  1  0  0  0  0
  3  4  1  0  0  0  0
  3 64  1  0  0  0  0
  4  5  1  0  0  0  0
  4 35  1  0  0  0  0
  4 36  1  0  0  0  0
  5  6  1  0  0  0  0
  5 37  1  0  0  0  0
  5 38  1  0  0  0  0
  6  7  1  0  0  0  0
  6 27  1  0  0  0  0
  6 39  1  0  0  0  0
  7  8  1  0  0  0  0
  7  9  1  0  0  0  0
  8 40  1  0  0  0  0
  8 41  1  0  0  0  0
  8 42  1  0  0  0  0
  9 14  1  0  0  0  0
  9 10  2  0  0  0  0
 10 11  1  0  0  0  0
 11 12  2  0  0  0  0
 11 43  1  0  0  0  0
 12 13  1  0  0  0  0
 13 17  1  0  0  0  0
 13 14  2  0  0  0  0
 14 15  1  0  0  0  0
 15 16  2  0  0  0  0
 16 17  1  0  0  0  0
 16 44  1  0  0  0  0
 17 18  1  0  0  0  0
 18 19  1  0  0  0  0
 18 45  1  0  0  0  0
 18 46  1  0  0  0  0
 19 20  1  0  0  0  0
 19 22  1  0  0  0  0
 19 47  1  0  0  0  0
 20 21  1  0  0  0  0
 20 48  1  0  0  0  0
 20 49  1  0  0  0  0
 21 50  1  0  0  0  0
 22 26  1  0  0  0  0
 22 23  1  0  0  0  0
 22 51  1  0  0  0  0
 23 24  1  0  0  0  0
 23 52  1  0  0  0  0
 23 53  1  0  0  0  0
 24 25  1  0  0  0  0
 24 54  1  0  0  0  0
 24 55  1  0  0  0  0
 25 26  1  0  0  0  0
 26 56  1  0  0  0  0
 26 57  1  0  0  0  0
 27 28  1  0  0  0  0
 27 58  1  0  0  0  0
 27 59  1  0  0  0  0
 28 29  1  0  0  0  0
 28 60  1  0  0  0  0
 29 61  1  0  0  0  0
 29 62  1  0  0  0  0
 29 63  1  0  0  0  0
M  CHG  1   3   1
M  END
> <s_m_source_file>
AV-unprocessed.smi

> <i_m_source_file_index>
249

> <i_lp_mmshare_version>
43012

> <i_f3d_flags>
0

> <s_epik_input>
W0NIM11bQ0gyXU4xW0NIMl1bQ0gyXVtDQEhdKFtDSDJdW0NASF0xW0NIM10pTihbQ0gzXSljKG5bY0hdbjIpYyhjMjMpbltjSF1uM1tDSDJdW0NASF0oW0NIMl1bT0hdKVtDQEBIXTRbQ0gyXVtDSDJdT1tDSDJdNA==

> <s_epik_cmdline>
J2VwaWtfcHl0aG9uJywgJy1waCcsICc3LjAnLCAnLXRuJywgJzgnLCAnLW1hJywgJzIwMCcsICctbWV0YWxfYmluZGluZycsICctaW1hZScsICc8aW5maWxlLm1hZT4nLCAnLW9tYWUnLCAnPG91dGZpbGUubWFlPic=

> <r_lp_tautomer_probability>
1

> <r_epik_Ionization_Penalty>
0.00294688

> <r_epik_Ionization_Penalty_Charging>
0.00169971

> <r_epik_Ionization_Penalty_Neutral>
0.00124717

> <r_epik_State_Penalty>
-0

> <r_epik_Charging_Adjusted_Penalty>
0.00169971

> <i_epik_Tot_Q>
1

> <i_epik_Tot_abs_Q>
1

> <r_epik_Metal_State_Penalty>
-0

> <b_epik_Metal_Only>
0

> <s_lp_Force_Field>
OPLS_2005

> <r_lp_Energy>
54.9966

> <b_lp_Chiralities_Consistent>
1

> <s_lp_Variant>
AV-unprocessed.smi:249-16

> <Gold.Version>
5.8.1

> <Gold.Id.Protein>
6NUR|6NUR_protein|mol2

> <Gold.PLP.Fitness>
47.9077

> <Gold.PLP.PLP>
-35.1280

> <Gold.PLP.part.hbond>
-3.0000

> <Gold.PLP.part.metal>
0.0000

> <Gold.PLP.part.buried>
-3.5433

> <Gold.PLP.part.nonpolar>
-29.5261

> <Gold.PLP.part.repulsive>
0.2983

> <Gold.PLP.ligand.clash>
0.0000

> <Gold.PLP.ligand.torsion>
1.6979

> <Gold.PLP.Chemscore.Hbond>
3.9825

> <Gold.PLP.Chemscore.CHOScore>
1.0000

> <Gold.PLP.Chemscore.Metal>
0.0000

> <Gold.Chemscore.Hbonds>
donor molecule, donor type, donor heavy atom, donor atom, acceptor molecule, acceptor atom, score
      L1  H     3    64       P1 10957  2.00
      L1  H    21    50       P1  8028  1.00
      P1  H  7997  8008       L1    25  1.00
      L1  C    16    44       P1  7948  1.00
      L1  C    16    44       P1  7957  0.03

> <Gold.PLP.Chemscore.Internal.Correction>
1.2280

> <Gold.Rescore>
     Score         DG    S(hbond)    S(metal)    S(lipo)     H(rot)  DE(clash)    DE(int)     intcor
     11.10     -15.45       2.18        0.00      81.03       2.65       0.52       3.84       ----

> <Gold.Chemscore.Fitness>
11.0973

> <Gold.Chemscore.DG>
-15.4535

> <Gold.Chemscore.ZeroCoef>
-5.4800

> <Gold.Chemscore.Hbond>
2.1801

> <Gold.Chemscore.Metal>
0.0000

> <Gold.Chemscore.Lipo>
81.0255

> <Gold.Chemscore.Internal_Hbond>
0.0000

> <Gold.Chemscore.DEClash>
0.5153

> <Gold.Chemscore.DEInternal>
3.8408

> <Gold.Chemscore.Rot>
2.6515

> <Gold.Chemscore.Internal.Correction>
   9.000000E+99

> <Gold.Chemscore.Hbonds>
donor molecule, donor type, donor heavy atom, donor atom, acceptor molecule, acceptor atom, score
      L1  H     3    64       P1 10957  0.73
      L1  H    21    50       P1  8028  0.40
      P1  H  7997  8008       L1    25  0.60

> <Gold.Chemscore.Hbond.Weighted>
-7.2814

> <Gold.Chemscore.Metal.Weighted>
-0.0000

> <Gold.Chemscore.Lipo.Weighted>
-9.4800

> <Gold.Chemscore.Internal_Hbond.Weighted>
0.0000

> <Gold.Chemscore.DEClash.Weighted>
0.5153

> <Gold.Chemscore.DEInternal.Weighted>
3.8408

> <Gold.Chemscore.Rot.Weighted>
6.7880

> <Gold.Chemscore.Internal.Correction.Weighted>
   9.000000E+99

> <Gold.Protein.RotatedTorsions>
[ 6907 6896 6895 6894 ] final  -32.82 input  -60.11 | X-H torsion
[ 7974 7965 7964 7962 ] final    3.31 input  175.53 | X-H torsion
[ 8008 7997 7996 7995 ] final  -46.93 input   59.86 | X-H torsion
[ 10167 10162 10161 10158 ] final   14.50 input  -65.29 | X-H torsion
[ 10718 10713 10712 10709 ] final  -74.98 input   66.30 | X-H torsion
[ 10763 10752 10751 10750 ] final    7.48 input  -60.55 | X-H torsion
[ 11005 11000 10999 10996 ] final   -9.23 input  -57.11 | X-H torsion

> <Gold.Protein.ActiveResidues>
 VAL166  LYS551  ARG553  GLY616  TRP617  ASP618  TYR619  PRO620  LYS621  CYS622 
 ASP623  PHE694  ASN695  SER759  ASP760  ASP761  ALA762  ILE779  LEU786  VAL792 
 PHE793  MET794  SER795  GLU796  ALA797  LYS798  CYS799  TRP800  GLU811  SER814 

> <Gold.Protein.RotatedAtoms>
  151.0737  134.9814  159.8321 H   0  0  0  0  0  0  0  0  0  0  0  0  # atno 6907 bound_to 6896
  152.5411  134.2267  159.8819 H   0  0  0  0  0  0  0  0  0  0  0  0  # atno 6908 bound_to 6896
  151.2293  133.4415  159.2637 H   0  0  0  0  0  0  0  0  0  0  0  0  # atno 6909 bound_to 6896
  146.2445  140.0705  142.8363 H   0  0  0  0  0  0  0  0  0  0  0  0  # atno 7974 bound_to 7965
  154.4012  140.1359  156.4093 H   0  0  0  0  0  0  0  0  0  0  0  0  # atno 8008 bound_to 7997
  155.7749  140.3483  155.5246 H   0  0  0  0  0  0  0  0  0  0  0  0  # atno 8009 bound_to 7997
  155.8730  140.0975  157.1527 H   0  0  0  0  0  0  0  0  0  0  0  0  # atno 8010 bound_to 7997
  140.5931  143.8755  150.6893 H   0  0  0  0  0  0  0  0  0  0  0  0  # atno 10167 bound_to 10162
  156.0223  130.4430  150.2974 H   0  0  0  0  0  0  0  0  0  0  0  0  # atno 10718 bound_to 10713
  153.2358  135.6898  153.7838 H   0  0  0  0  0  0  0  0  0  0  0  0  # atno 10763 bound_to 10752
  153.6985  135.3301  155.3220 H   0  0  0  0  0  0  0  0  0  0  0  0  # atno 10764 bound_to 10752
  154.8334  135.4562  154.1262 H   0  0  0  0  0  0  0  0  0  0  0  0  # atno 10765 bound_to 10752
  140.7320  133.8741  155.8900 H   0  0  0  0  0  0  0  0  0  0  0  0  # atno 11005 bound_to 11000
  145.0820  140.9227  143.4819 LP  0  0  0  0  0  0  0  0  0  0  0  0  # atno 17320 bound_to 7965
  145.0860  139.2925  143.5759 LP  0  0  0  0  0  0  0  0  0  0  0  0  # atno 17321 bound_to 7965
  140.2282  143.3756  152.1587 LP  0  0  0  0  0  0  0  0  0  0  0  0  # atno 17342 bound_to 10162
  139.5241  144.7079  151.5297 LP  0  0  0  0  0  0  0  0  0  0  0  0  # atno 17343 bound_to 10162
  157.1077  131.0213  151.3060 LP  0  0  0  0  0  0  0  0  0  0  0  0  # atno 17370 bound_to 10713
  157.4729  130.7719  149.7340 LP  0  0  0  0  0  0  0  0  0  0  0  0  # atno 17371 bound_to 10713
  140.9913  134.1275  157.4405 LP  0  0  0  0  0  0  0  0  0  0  0  0  # atno 17394 bound_to 11000
  139.8824  135.0041  156.6229 LP  0  0  0  0  0  0  0  0  0  0  0  0  # atno 17395 bound_to 11000

$$$$
