AV-unprocessed.smi:1744|AV-procd|sdf|7027|dock4
  -GOLD-   22720 8243D 1   1.00000     0.00000
 Structure written by MMmdl.
 43 44  0  0  0  0  0  0  0  0  3 V2000
  151.9718  144.5874  158.5090 C   0  0  0  0  0  0  0  0  0  0  0  0
  152.2782  143.1801  159.0356 C   0  0  0  0  0  0  0  0  0  0  0  0
  151.8176  142.1511  158.1235 N   0  0  0  0  0  0  0  0  0  0  0  0
  151.0229  142.2965  157.0040 C   0  0  0  0  0  0  0  0  0  0  0  0
  150.8770  141.0449  156.4864 C   0  0  0  0  0  0  0  0  0  0  0  0
  150.1280  140.7322  155.3248 N   0  0  0  0  0  0  0  0  0  0  0  0
  148.9999  140.0074  155.2564 C   0  0  0  0  0  0  0  0  0  0  0  0
  148.4373  139.4799  156.2157 O   0  0  0  0  0  0  0  0  0  0  0  0
  148.5561  139.9159  153.9946 N   0  0  0  0  0  0  0  0  0  0  0  0
  147.3666  139.1823  153.5723 C   0  0  2  0  0  0  0  0  0  0  0  0
  147.3684  137.7587  154.1587 C   0  0  0  0  0  0  0  0  0  0  0  0
  146.1825  136.9355  153.6299 C   0  0  0  0  0  0  0  0  0  0  0  0
  146.1801  136.8918  152.1462 N   0  3  1  0  0  0  0  0  0  0  0  0
  145.1384  135.9801  151.6082 C   0  0  0  0  0  0  0  0  0  0  0  0
  143.8460  136.0916  152.4240 C   0  0  0  0  0  0  0  0  0  0  0  0
  143.3787  137.3553  152.4784 N   0  5  0  0  0  0  0  0  0  0  0  0
  143.3640  135.0852  152.9385 O   0  0  0  0  0  0  0  0  0  0  0  0
  146.1301  138.2574  151.5586 C   0  0  0  0  0  0  0  0  0  0  0  0
  147.3177  139.1081  152.0376 C   0  0  0  0  0  0  0  0  0  0  0  0
  151.6076  140.1797  157.3492 C   0  0  0  0  0  0  0  0  0  0  0  0
  152.1718  140.8594  158.3363 N   0  0  0  0  0  0  0  0  0  0  0  0
  152.2991  145.3472  159.2190 H   0  0  0  0  0  0  0  0  0  0  0  0
  150.9022  144.7220  158.3462 H   0  0  0  0  0  0  0  0  0  0  0  0
  152.4816  144.7756  157.5637 H   0  0  0  0  0  0  0  0  0  0  0  0
  153.3509  143.0573  159.1913 H   0  0  0  0  0  0  0  0  0  0  0  0
  151.7979  143.0289  160.0028 H   0  0  0  0  0  0  0  0  0  0  0  0
  150.6440  143.2549  156.6808 H   0  0  0  0  0  0  0  0  0  0  0  0
  150.4953  141.0890  154.4549 H   0  0  0  0  0  0  0  0  0  0  0  0
  149.0846  140.3815  153.2712 H   0  0  0  0  0  0  0  0  0  0  0  0
  146.4752  139.7097  153.9182 H   0  0  0  0  0  0  0  0  0  0  0  0
  148.3006  137.2531  153.9022 H   0  0  0  0  0  0  0  0  0  0  0  0
  147.3290  137.7987  155.2480 H   0  0  0  0  0  0  0  0  0  0  0  0
  146.2467  135.9223  154.0280 H   0  0  0  0  0  0  0  0  0  0  0  0
  145.2410  137.3580  153.9843 H   0  0  0  0  0  0  0  0  0  0  0  0
  144.9062  136.2353  150.5726 H   0  0  0  0  0  0  0  0  0  0  0  0
  145.5014  134.9511  151.6007 H   0  0  0  0  0  0  0  0  0  0  0  0
  143.5883  137.9991  151.7065 H   0  0  0  0  0  0  0  0  0  0  0  0
  146.1505  138.2021  150.4698 H   0  0  0  0  0  0  0  0  0  0  0  0
  145.1894  138.7381  151.8312 H   0  0  0  0  0  0  0  0  0  0  0  0
  147.2452  140.1118  151.6166 H   0  0  0  0  0  0  0  0  0  0  0  0
  148.2450  138.6785  151.6551 H   0  0  0  0  0  0  0  0  0  0  0  0
  151.7483  139.1100  157.3045 H   0  0  0  0  0  0  0  0  0  0  0  0
  147.0617  136.4830  151.8689 H   0  0  0  0  0  0  0  0  0  0  0  0
  1  2  1  0  0  0  0
  1 22  1  0  0  0  0
  1 23  1  0  0  0  0
  1 24  1  0  0  0  0
  2  3  1  0  0  0  0
  2 25  1  0  0  0  0
  2 26  1  0  0  0  0
  3 21  1  0  0  0  0
  3  4  1  0  0  0  0
  4  5  2  0  0  0  0
  4 27  1  0  0  0  0
  5  6  1  0  0  0  0
  5 20  1  0  0  0  0
  6  7  1  0  0  0  0
  6 28  1  0  0  0  0
  7  8  2  0  0  0  0
  7  9  1  0  0  0  0
  9 10  1  0  0  0  0
  9 29  1  0  0  0  0
 10 19  1  0  0  0  0
 10 11  1  0  0  0  0
 10 30  1  0  0  0  0
 11 12  1  0  0  0  0
 11 31  1  0  0  0  0
 11 32  1  0  0  0  0
 12 13  1  0  0  0  0
 12 33  1  0  0  0  0
 12 34  1  0  0  0  0
 13 14  1  0  0  0  0
 13 18  1  0  0  0  0
 13 43  1  0  0  0  0
 14 15  1  0  0  0  0
 14 35  1  0  0  0  0
 14 36  1  0  0  0  0
 15 16  1  0  0  0  0
 15 17  2  0  0  0  0
 16 37  1  0  0  0  0
 18 19  1  0  0  0  0
 18 38  1  0  0  0  0
 18 39  1  0  0  0  0
 19 40  1  0  0  0  0
 19 41  1  0  0  0  0
 20 21  2  0  0  0  0
 20 42  1  0  0  0  0
M  CHG  1  13   1
M  CHG  1  16  -1
M  END
> <s_m_source_file>
AV-unprocessed.smi

> <i_m_source_file_index>
1744

> <i_lp_mmshare_version>
43012

> <i_f3d_flags>
0

> <s_epik_input>
W0NIM11bQ0gyXW4xW2NIXWMoW2NIXW4xKVtOSF1DKD1PKVtOSF1bQ0hdMltDSDJdW0NIMl1OKFtDSDJdW0NIMl0yKVtDSDJdQyg9TylbTkgyXQ==

> <s_epik_cmdline>
J2VwaWtfcHl0aG9uJywgJy1waCcsICc3LjAnLCAnLXRuJywgJzgnLCAnLW1hJywgJzIwMCcsICctbWV0YWxfYmluZGluZycsICctaW1hZScsICc8aW5maWxlLm1hZT4nLCAnLW9tYWUnLCAnPG91dGZpbGUubWFlPic=

> <r_lp_tautomer_probability>
1

> <r_epik_Ionization_Penalty>
5.72895

> <r_epik_Ionization_Penalty_Charging>
5.7288

> <r_epik_Ionization_Penalty_Neutral>
0.000148676

> <r_epik_State_Penalty>
6.54882

> <r_epik_Charging_Adjusted_Penalty>
12.2776

> <i_epik_Tot_Q>
0

> <i_epik_Tot_abs_Q>
2

> <r_epik_Metal_State_Penalty>
2.51309

> <b_epik_Metal_Only>
1

> <s_lp_Force_Field>
OPLS_2005

> <r_lp_Energy>
12.1226

> <b_lp_Chiralities_Consistent>
1

> <s_lp_Variant>
AV-unprocessed.smi:1744-4

> <Gold.Version>
5.8.1

> <Gold.Id.Protein>
6NUR|6NUR_protein|mol2

> <Gold.PLP.Fitness>
45.3051

> <Gold.PLP.PLP>
-33.4831

> <Gold.PLP.part.hbond>
-4.0000

> <Gold.PLP.part.metal>
0.0000

> <Gold.PLP.part.buried>
1.7029

> <Gold.PLP.part.nonpolar>
-32.1949

> <Gold.PLP.part.repulsive>
0.6703

> <Gold.PLP.ligand.clash>
0.0000

> <Gold.PLP.ligand.torsion>
1.0963

> <Gold.PLP.Chemscore.Hbond>
3.6578

> <Gold.PLP.Chemscore.CHOScore>
1.0000

> <Gold.PLP.Chemscore.Metal>
0.0000

> <Gold.Chemscore.Hbonds>
donor molecule, donor type, donor heavy atom, donor atom, acceptor molecule, acceptor atom, score
      L1  H     9    29       P1  7957  0.43
      L1  H    13    43       P1  7948  2.00
      L1  H    16    37       P1 10171  1.00
      L1  C     4    27       P1  8028  1.00

> <Gold.PLP.Chemscore.Internal.Correction>
0.0412

> <Gold.Rescore>
     Score         DG    S(hbond)    S(metal)    S(lipo)     H(rot)  DE(clash)    DE(int)     intcor
     13.18     -18.32       2.57        0.00      84.01       2.18       2.11       3.02       ----

> <Gold.Chemscore.Fitness>
13.1815

> <Gold.Chemscore.DG>
-18.3155

> <Gold.Chemscore.ZeroCoef>
-5.4800

> <Gold.Chemscore.Hbond>
2.5735

> <Gold.Chemscore.Metal>
0.0000

> <Gold.Chemscore.Lipo>
84.0097

> <Gold.Chemscore.Internal_Hbond>
0.0000

> <Gold.Chemscore.DEClash>
2.1139

> <Gold.Chemscore.DEInternal>
3.0201

> <Gold.Chemscore.Rot>
2.1833

> <Gold.Chemscore.Internal.Correction>
   9.000000E+99

> <Gold.Chemscore.Hbonds>
donor molecule, donor type, donor heavy atom, donor atom, acceptor molecule, acceptor atom, score
      L1  H     9    29       P1  7957  0.44
      L1  H    13    43       P1  7948  0.99
      L1  H    16    37       P1 10171  0.91

> <Gold.Chemscore.Hbond.Weighted>
-8.5955

> <Gold.Chemscore.Metal.Weighted>
-0.0000

> <Gold.Chemscore.Lipo.Weighted>
-9.8291

> <Gold.Chemscore.Internal_Hbond.Weighted>
0.0000

> <Gold.Chemscore.DEClash.Weighted>
2.1139

> <Gold.Chemscore.DEInternal.Weighted>
3.0201

> <Gold.Chemscore.Rot.Weighted>
5.5892

> <Gold.Chemscore.Internal.Correction.Weighted>
   9.000000E+99

> <Gold.Protein.RotatedTorsions>
[ 6907 6896 6895 6894 ] final -120.16 input  -60.11 | X-H torsion
[ 7974 7965 7964 7962 ] final  100.61 input  175.53 | X-H torsion
[ 8008 7997 7996 7995 ] final   -2.66 input   59.86 | X-H torsion
[ 10167 10162 10161 10158 ] final   16.34 input  -65.29 | X-H torsion
[ 10718 10713 10712 10709 ] final -171.68 input   66.30 | X-H torsion
[ 10763 10752 10751 10750 ] final  169.18 input  -60.55 | X-H torsion
[ 11005 11000 10999 10996 ] final  148.31 input  -57.11 | X-H torsion

> <Gold.Protein.ActiveResidues>
 VAL166  LYS551  ARG553  GLY616  TRP617  ASP618  TYR619  PRO620  LYS621  CYS622 
 ASP623  PHE694  ASN695  SER759  ASP760  ASP761  ALA762  ILE779  LEU786  VAL792 
 PHE793  MET794  SER795  GLU796  ALA797  LYS798  CYS799  TRP800  GLU811  SER814 

> <Gold.Protein.RotatedAtoms>
  150.8368  133.8000  159.3076 H   0  0  0  0  0  0  0  0  0  0  0  0  # atno 6907 bound_to 6896
  151.5714  135.1060  160.0005 H   0  0  0  0  0  0  0  0  0  0  0  0  # atno 6908 bound_to 6896
  152.4439  133.7457  159.6722 H   0  0  0  0  0  0  0  0  0  0  0  0  # atno 6909 bound_to 6896
  145.3832  139.2376  143.3392 H   0  0  0  0  0  0  0  0  0  0  0  0  # atno 7974 bound_to 7965
  154.6333  140.2529  155.7408 H   0  0  0  0  0  0  0  0  0  0  0  0  # atno 8008 bound_to 7997
  156.2491  140.2902  156.0614 H   0  0  0  0  0  0  0  0  0  0  0  0  # atno 8009 bound_to 7997
  155.1711  140.0386  157.2853 H   0  0  0  0  0  0  0  0  0  0  0  0  # atno 8010 bound_to 7997
  140.5804  143.8992  150.6785 H   0  0  0  0  0  0  0  0  0  0  0  0  # atno 10167 bound_to 10162
  156.7444  130.9354  151.3112 H   0  0  0  0  0  0  0  0  0  0  0  0  # atno 10718 bound_to 10713
  154.3794  135.2753  155.2220 H   0  0  0  0  0  0  0  0  0  0  0  0  # atno 10763 bound_to 10752
  154.4334  135.5972  153.6086 H   0  0  0  0  0  0  0  0  0  0  0  0  # atno 10764 bound_to 10752
  152.9835  135.6001  154.4034 H   0  0  0  0  0  0  0  0  0  0  0  0  # atno 10765 bound_to 10752
  140.0949  134.9018  157.1708 H   0  0  0  0  0  0  0  0  0  0  0  0  # atno 11005 bound_to 11000
  146.2832  140.4503  142.8768 LP  0  0  0  0  0  0  0  0  0  0  0  0  # atno 17320 bound_to 7965
  144.8492  140.6976  143.6179 LP  0  0  0  0  0  0  0  0  0  0  0  0  # atno 17321 bound_to 7965
  140.2489  143.3608  152.1422 LP  0  0  0  0  0  0  0  0  0  0  0  0  # atno 17342 bound_to 10162
  139.5166  144.6980  151.5574 LP  0  0  0  0  0  0  0  0  0  0  0  0  # atno 17343 bound_to 10162
  157.6804  130.9135  150.0254 LP  0  0  0  0  0  0  0  0  0  0  0  0  # atno 17370 bound_to 10713
  156.1443  130.3642  149.9535 LP  0  0  0  0  0  0  0  0  0  0  0  0  # atno 17371 bound_to 10713
  140.3300  134.2820  155.7230 LP  0  0  0  0  0  0  0  0  0  0  0  0  # atno 17394 bound_to 11000
  141.2089  133.7764  157.0030 LP  0  0  0  0  0  0  0  0  0  0  0  0  # atno 17395 bound_to 11000

$$$$
