AV-unprocessed.smi:2775|AV-procd|sdf|10692|dock8
  -GOLD-   2272015133D 1   1.00000     0.00000
 Structure written by MMmdl.
 42 45  0  0  0  0  0  0  0  0  1 V2000
  144.6901  132.0887  150.1210 C   0  0  0  0  0  0  0  0  0  0  0  0
  145.7008  131.9258  151.2407 C   0  0  0  0  0  0  0  0  0  0  0  0
  145.8274  130.6755  151.7372 N   0  0  0  0  0  0  0  0  0  0  0  0
  146.7078  130.4761  152.7397 C   0  0  0  0  0  0  0  0  0  0  0  0
  147.5023  131.5007  153.2884 C   0  0  0  0  0  0  0  0  0  0  0  0
  147.3839  132.8070  152.7581 C   0  0  0  0  0  0  0  0  0  0  0  0
  148.1245  133.9167  153.2461 N   0  0  0  0  0  0  0  0  0  0  0  0
  148.9708  133.9691  154.2924 C   0  0  0  0  0  0  0  0  0  0  0  0
  149.1795  133.0448  155.0754 O   0  0  0  0  0  0  0  0  0  0  0  0
  149.6347  135.1337  154.3920 N   0  0  0  0  0  0  0  0  0  0  0  0
  150.6221  135.5114  155.4095 C   0  0  2  0  0  0  0  0  0  0  0  0
  150.0765  135.4991  156.8625 C   0  0  2  0  0  0  0  0  0  0  0  0
  148.7432  134.9050  157.2524 C   0  0  0  0  0  0  0  0  0  0  0  0
  147.8337  136.1336  157.3358 C   0  0  0  0  0  0  0  0  0  0  0  0
  148.4822  137.1188  156.5352 O   0  0  0  0  0  0  0  0  0  0  0  0
  149.8835  137.0076  156.7646 C   0  0  2  0  0  0  0  0  0  0  0  0
  150.7671  137.0394  155.5105 C   0  0  0  0  0  0  0  0  0  0  0  0
  150.4724  138.0012  154.3473 C   0  0  0  0  0  0  0  0  0  0  0  0
  151.5825  138.9089  154.8840 C   0  0  0  0  0  0  0  0  0  0  0  0
  152.1583  137.6849  155.6027 C   0  0  0  0  0  0  0  0  0  0  0  0
  146.4505  133.0262  151.7185 C   0  0  0  0  0  0  0  0  0  0  0  0
  146.2398  134.6058  151.0380 Cl  0  0  0  0  0  0  0  0  0  0  0  0
  145.1728  132.4889  149.2290 H   0  0  0  0  0  0  0  0  0  0  0  0
  143.8979  132.7744  150.4229 H   0  0  0  0  0  0  0  0  0  0  0  0
  144.2290  131.1365  149.8546 H   0  0  0  0  0  0  0  0  0  0  0  0
  146.7771  129.4684  153.1217 H   0  0  0  0  0  0  0  0  0  0  0  0
  148.1716  131.2710  154.1031 H   0  0  0  0  0  0  0  0  0  0  0  0
  148.1168  134.7322  152.6509 H   0  0  0  0  0  0  0  0  0  0  0  0
  149.4932  135.8021  153.6482 H   0  0  0  0  0  0  0  0  0  0  0  0
  151.5864  135.0111  155.3064 H   0  0  0  0  0  0  0  0  0  0  0  0
  150.8771  135.2602  157.5641 H   0  0  0  0  0  0  0  0  0  0  0  0
  148.3712  134.1934  156.5177 H   0  0  0  0  0  0  0  0  0  0  0  0
  148.7885  134.3840  158.2091 H   0  0  0  0  0  0  0  0  0  0  0  0
  146.8214  135.9332  156.9845 H   0  0  0  0  0  0  0  0  0  0  0  0
  147.7736  136.4957  158.3632 H   0  0  0  0  0  0  0  0  0  0  0  0
  150.2426  137.5642  157.6314 H   0  0  0  0  0  0  0  0  0  0  0  0
  150.7170  137.5768  153.3723 H   0  0  0  0  0  0  0  0  0  0  0  0
  149.4761  138.4438  154.3553 H   0  0  0  0  0  0  0  0  0  0  0  0
  152.2313  139.3389  154.1204 H   0  0  0  0  0  0  0  0  0  0  0  0
  151.2093  139.6670  155.5745 H   0  0  0  0  0  0  0  0  0  0  0  0
  152.5128  137.8759  156.6161 H   0  0  0  0  0  0  0  0  0  0  0  0
  152.9083  137.1628  155.0062 H   0  0  0  0  0  0  0  0  0  0  0  0
  1  2  1  0  0  0  0
  1 23  1  0  0  0  0
  1 24  1  0  0  0  0
  1 25  1  0  0  0  0
  2 21  1  0  0  0  0
  2  3  2  0  0  0  0
  3  4  1  0  0  0  0
  4  5  2  0  0  0  0
  4 26  1  0  0  0  0
  5  6  1  0  0  0  0
  5 27  1  0  0  0  0
  6  7  1  0  0  0  0
  6 21  2  0  0  0  0
  7  8  1  0  0  0  0
  7 28  1  0  0  0  0
  8  9  2  0  0  0  0
  8 10  1  0  0  0  0
 10 11  1  0  0  0  0
 10 29  1  0  0  0  0
 11 17  1  0  0  0  0
 11 12  1  0  0  0  0
 11 30  1  0  0  0  0
 12 16  1  0  0  0  0
 12 13  1  0  0  0  0
 12 31  1  0  0  0  0
 13 14  1  0  0  0  0
 13 32  1  0  0  0  0
 13 33  1  0  0  0  0
 14 15  1  0  0  0  0
 14 34  1  0  0  0  0
 14 35  1  0  0  0  0
 15 16  1  0  0  0  0
 16 17  1  0  0  0  0
 16 36  1  0  0  0  0
 17 20  1  0  0  0  0
 17 18  1  0  0  0  0
 18 19  1  0  0  0  0
 18 37  1  0  0  0  0
 18 38  1  0  0  0  0
 19 20  1  0  0  0  0
 19 39  1  0  0  0  0
 19 40  1  0  0  0  0
 20 41  1  0  0  0  0
 20 42  1  0  0  0  0
 21 22  1  0  0  0  0
M  END
> <s_m_source_file>
AV-unprocessed.smi

> <i_m_source_file_index>
2775

> <i_lp_mmshare_version>
43012

> <i_f3d_flags>
0

> <s_epik_input>
W0NIM11jMW5bY0hdW2NIXWMoYzFDbClbTkhdQyg9TylbTkhdW0NAQEhdMltDQEhdKFtDSDJdW0NIMl1PMylbQ0BASF0zQzI0W0NIMl1bQ0gyXVtDSDJdNA==

> <s_epik_cmdline>
J2VwaWtfcHl0aG9uJywgJy1waCcsICc3LjAnLCAnLXRuJywgJzgnLCAnLW1hJywgJzIwMCcsICctbWV0YWxfYmluZGluZycsICctaW1hZScsICc8aW5maWxlLm1hZT4nLCAnLW9tYWUnLCAnPG91dGZpbGUubWFlPic=

> <r_epik_Ionization_Penalty>
0.01026

> <r_epik_Ionization_Penalty_Charging>
0

> <r_epik_Ionization_Penalty_Neutral>
0.01026

> <r_epik_State_Penalty>
0.00780685

> <r_epik_Charging_Adjusted_Penalty>
0.00780685

> <i_epik_Tot_Q>
0

> <i_epik_Tot_abs_Q>
0

> <r_epik_Metal_State_Penalty>
0.00767411

> <b_epik_Metal_Only>
0

> <s_lp_Force_Field>
OPLS_2005

> <r_lp_Energy>
58.5604

> <b_lp_Chiralities_Consistent>
1

> <s_lp_Variant>
AV-unprocessed.smi:2775-5

> <Gold.Version>
5.8.1

> <Gold.Id.Protein>
6NUR|6NUR_protein|mol2

> <Gold.PLP.Fitness>
39.3740

> <Gold.PLP.PLP>
-33.5013

> <Gold.PLP.part.hbond>
-2.0000

> <Gold.PLP.part.metal>
0.0000

> <Gold.PLP.part.buried>
-3.7902

> <Gold.PLP.part.nonpolar>
-26.7552

> <Gold.PLP.part.repulsive>
0.2226

> <Gold.PLP.ligand.clash>
0.0000

> <Gold.PLP.ligand.torsion>
0.1564

> <Gold.PLP.Chemscore.Hbond>
1.9920

> <Gold.PLP.Chemscore.CHOScore>
0.0000

> <Gold.PLP.Chemscore.Metal>
0.0000

> <Gold.Chemscore.Hbonds>
donor molecule, donor type, donor heavy atom, donor atom, acceptor molecule, acceptor atom, score
      L1  H     7    28       P1  7948  1.00
      L1  H    10    29       P1  7948  1.00

> <Gold.PLP.Chemscore.Internal.Correction>
0.2095

> <Gold.Rescore>
     Score         DG    S(hbond)    S(metal)    S(lipo)     H(rot)  DE(clash)    DE(int)     intcor
     16.66     -18.07       1.43        0.00      88.60       1.00       0.03       1.38       ----

> <Gold.Chemscore.Fitness>
16.6630

> <Gold.Chemscore.DG>
-18.0720

> <Gold.Chemscore.ZeroCoef>
-5.4800

> <Gold.Chemscore.Hbond>
1.4327

> <Gold.Chemscore.Metal>
0.0000

> <Gold.Chemscore.Lipo>
88.6049

> <Gold.Chemscore.Internal_Hbond>
0.0000

> <Gold.Chemscore.DEClash>
0.0311

> <Gold.Chemscore.DEInternal>
1.3780

> <Gold.Chemscore.Rot>
1.0000

> <Gold.Chemscore.Internal.Correction>
   9.000000E+99

> <Gold.Chemscore.Hbonds>
donor molecule, donor type, donor heavy atom, donor atom, acceptor molecule, acceptor atom, score
      L1  H     7    28       P1  7948  0.58
      L1  H    10    29       P1  7948  0.33

> <Gold.Chemscore.Hbond.Weighted>
-4.7852

> <Gold.Chemscore.Metal.Weighted>
-0.0000

> <Gold.Chemscore.Lipo.Weighted>
-10.3668

> <Gold.Chemscore.Internal_Hbond.Weighted>
0.0000

> <Gold.Chemscore.DEClash.Weighted>
0.0311

> <Gold.Chemscore.DEInternal.Weighted>
1.3780

> <Gold.Chemscore.Rot.Weighted>
2.5600

> <Gold.Chemscore.Internal.Correction.Weighted>
   9.000000E+99

> <Gold.Protein.RotatedTorsions>
[ 6907 6896 6895 6894 ] final  -97.04 input  -60.11 | X-H torsion
[ 7974 7965 7964 7962 ] final  -41.59 input  175.53 | X-H torsion
[ 8008 7997 7996 7995 ] final -143.43 input   59.86 | X-H torsion
[ 10167 10162 10161 10158 ] final  105.28 input  -65.29 | X-H torsion
[ 10718 10713 10712 10709 ] final   -0.12 input   66.30 | X-H torsion
[ 10763 10752 10751 10750 ] final  161.16 input  -60.55 | X-H torsion
[ 11005 11000 10999 10996 ] final   29.47 input  -57.11 | X-H torsion

> <Gold.Protein.ActiveResidues>
 VAL166  LYS551  ARG553  GLY616  TRP617  ASP618  TYR619  PRO620  LYS621  CYS622 
 ASP623  PHE694  ASN695  SER759  ASP760  ASP761  ALA762  ILE779  LEU786  VAL792 
 PHE793  MET794  SER795  GLU796  ALA797  LYS798  CYS799  TRP800  GLU811  SER814 

> <Gold.Protein.RotatedAtoms>
  150.7005  134.1410  159.4104 H   0  0  0  0  0  0  0  0  0  0  0  0  # atno 6907 bound_to 6896
  151.9394  135.0218  160.0544 H   0  0  0  0  0  0  0  0  0  0  0  0  # atno 6908 bound_to 6896
  152.2106  133.4873  159.5145 H   0  0  0  0  0  0  0  0  0  0  0  0  # atno 6909 bound_to 6896
  146.0197  140.6865  142.9184 H   0  0  0  0  0  0  0  0  0  0  0  0  # atno 7974 bound_to 7965
  155.5105  140.0583  157.2924 H   0  0  0  0  0  0  0  0  0  0  0  0  # atno 8008 bound_to 7997
  154.4554  140.1970  156.0345 H   0  0  0  0  0  0  0  0  0  0  0  0  # atno 8009 bound_to 7997
  156.0788  140.3250  155.7671 H   0  0  0  0  0  0  0  0  0  0  0  0  # atno 8010 bound_to 7997
  139.7106  144.7078  151.1034 H   0  0  0  0  0  0  0  0  0  0  0  0  # atno 10167 bound_to 10162
  156.8251  130.5469  149.5693 H   0  0  0  0  0  0  0  0  0  0  0  0  # atno 10718 bound_to 10713
  154.2587  135.2769  155.2787 H   0  0  0  0  0  0  0  0  0  0  0  0  # atno 10763 bound_to 10752
  154.5402  135.5704  153.6836 H   0  0  0  0  0  0  0  0  0  0  0  0  # atno 10764 bound_to 10752
  152.9966  135.6249  154.2737 H   0  0  0  0  0  0  0  0  0  0  0  0  # atno 10765 bound_to 10752
  140.3047  134.2717  155.7746 H   0  0  0  0  0  0  0  0  0  0  0  0  # atno 11005 bound_to 11000
  144.6985  140.3543  143.7176 LP  0  0  0  0  0  0  0  0  0  0  0  0  # atno 17320 bound_to 7965
  145.7213  139.1710  143.2483 LP  0  0  0  0  0  0  0  0  0  0  0  0  # atno 17321 bound_to 7965
  140.7732  143.5298  150.9436 LP  0  0  0  0  0  0  0  0  0  0  0  0  # atno 17342 bound_to 10162
  139.8983  143.6867  152.3135 LP  0  0  0  0  0  0  0  0  0  0  0  0  # atno 17343 bound_to 10162
  156.0966  130.5937  150.9824 LP  0  0  0  0  0  0  0  0  0  0  0  0  # atno 17370 bound_to 10713
  157.6436  131.0907  150.8200 LP  0  0  0  0  0  0  0  0  0  0  0  0  # atno 17371 bound_to 10713
  141.2121  133.7669  156.9818 LP  0  0  0  0  0  0  0  0  0  0  0  0  # atno 17394 bound_to 11000
  140.1078  134.9495  157.2020 LP  0  0  0  0  0  0  0  0  0  0  0  0  # atno 17395 bound_to 11000

$$$$
