#       Name:                AV-unprocessed.smi:3187
#       Creating user name   scv26
#       Creation time:       Fri Mar 27 18:02:22 2020


#       File generated by GOLD software.
#

@<TRIPOS>MOLECULE
AV-unprocessed.smi:3187
    42    43     1
SMALL
NO_CHARGES


@<TRIPOS>ATOM
      1 ****        -1.7687   2.4562   2.8216 C.3            1 S1                 0.0000
      2 ****        -2.2452   2.0912   1.4260 C.2            1 S1                 0.0000
      3 ****        -3.5560   2.0868   1.1137 C.2            1 S1                 0.0000
      4 ****        -4.1151   1.7774  -0.2628 C.3            1 S1                 0.0000
      5 ****        -3.0493   1.2538  -1.2384 C.3            1 S1                 0.0000
      6 ****        -1.7042   1.9768  -1.0456 C.3            1 S1                 0.0000
      7 ****        -0.7141   1.6498  -2.1762 C.3            1 S1                 0.0000
      8 ****        -1.1539   1.7758   0.3997 C.3            1 S1                 0.0000
      9 ****        -0.5574   0.3715   0.6765 C.3            1 S1                 0.0000
     10 ****         0.7737   0.1926   0.0619 N.4            1 S1                 1.0000
     11 ****         1.3337  -1.1639   0.2189 C.3            1 S1                 0.0000
     12 ****         2.7103  -1.2737  -0.4520 C.3            1 S1                 0.0000
     13 ****         3.2604  -2.6279  -0.3534 N.pl3          1 S1                 0.0000
     14 ****         3.1023  -3.6552  -1.2485 C.2            1 S1                 0.0000
     15 ****         3.7927  -4.7258  -0.7408 C.2            1 S1                 0.0000
     16 ****         4.3420  -4.3075   0.4419 N.pl3          1 S1                 1.0000
     17 ****         4.0170  -3.0315   0.6761 C.2            1 S1                 0.0000
     18 ****        -1.0968   3.3137   2.7791 H              1 S1                 0.0000
     19 ****        -1.2392   1.6283   3.2910 H              1 S1                 0.0000
     20 ****        -2.6060   2.7210   3.4683 H              1 S1                 0.0000
     21 ****        -4.2861   2.3426   1.8680 H              1 S1                 0.0000
     22 ****        -4.9282   1.0567  -0.1721 H              1 S1                 0.0000
     23 ****        -4.5517   2.6972  -0.6531 H              1 S1                 0.0000
     24 ****        -2.9185   0.1810  -1.0971 H              1 S1                 0.0000
     25 ****        -3.4079   1.3796  -2.2608 H              1 S1                 0.0000
     26 ****        -1.9120   3.0438  -1.1462 H              1 S1                 0.0000
     27 ****        -0.5310   0.5786  -2.2588 H              1 S1                 0.0000
     28 ****         0.2411   2.1528  -2.0240 H              1 S1                 0.0000
     29 ****        -1.1055   1.9820  -3.1383 H              1 S1                 0.0000
     30 ****        -0.3664   2.5154   0.5538 H              1 S1                 0.0000
     31 ****        -0.4331   0.2093   1.7466 H              1 S1                 0.0000
     32 ****        -1.2340  -0.4086   0.3281 H              1 S1                 0.0000
     33 ****         0.6923   0.3922  -0.9250 H              1 S1                 0.0000
     34 ****         1.4131  -1.4010   1.2808 H              1 S1                 0.0000
     35 ****         0.6459  -1.8863  -0.2231 H              1 S1                 0.0000
     36 ****         2.6439  -1.0189  -1.5109 H              1 S1                 0.0000
     37 ****         3.4213  -0.5813   0.0015 H              1 S1                 0.0000
     38 ****         2.5270  -3.5525  -2.1578 H              1 S1                 0.0000
     39 ****         3.9310  -5.7271  -1.1229 H              1 S1                 0.0000
     40 ****         4.3101  -2.4450   1.5291 H              1 S1                 0.0000
     41 ****         1.4092   0.8609   0.4743 H              1 S1                 0.0000
     42 ****         4.9143  -4.8792   1.0513 H              1 S1                 0.0000
@<TRIPOS>BOND
    1    1    2 1     
    2    1   18 1     
    3    1   19 1     
    4    1   20 1     
    5    2    8 1     
    6    2    3 2     
    7    3    4 1     
    8    3   21 1     
    9    4    5 1     
   10    4   22 1     
   11    4   23 1     
   12    5    6 1     
   13    5   24 1     
   14    5   25 1     
   15    6    7 1     
   16    6    8 1     
   17    6   26 1     
   18    7   27 1     
   19    7   28 1     
   20    7   29 1     
   21    8    9 1     
   22    8   30 1     
   23    9   10 1     
   24    9   31 1     
   25    9   32 1     
   26   10   11 1     
   27   10   33 1     
   28   10   41 1     
   29   11   12 1     
   30   11   34 1     
   31   11   35 1     
   32   12   13 1     
   33   12   36 1     
   34   12   37 1     
   35   13   17 1     
   36   13   14 1     
   37   14   15 2     
   38   14   38 1     
   39   15   16 1     
   40   15   39 1     
   41   16   17 2     
   42   16   42 1     
   43   17   40 1     
@<TRIPOS>SUBSTRUCTURE
      1 S1             1
@<TRIPOS>SET
DONOR_HYDROGENS      STATIC     ATOMS    <user>   **** ""
3 33 41 42
ATOM$RED        STATIC     ATOMS    COLORGROUP SYSTEM
3 33 41 42
