#       Name:                AV-unprocessed.smi:2222
#       Creating user name   scv26
#       Creation time:       Fri Mar 27 12:19:59 2020


#       File generated by GOLD software.
#

@<TRIPOS>MOLECULE
AV-unprocessed.smi:2222
    39    40     1
SMALL
NO_CHARGES


@<TRIPOS>ATOM
      1 ****        -1.9302  -3.1027  -0.6672 C.3            1 S1                 0.0000
      2 ****        -1.2369  -1.8766  -0.4866 O.3            1 S1                 0.0000
      3 ****        -1.9752  -0.7105  -0.4285 C.ar           1 S1                 0.0000
      4 ****        -3.3897  -0.6717  -0.5254 C.ar           1 S1                 0.0000
      5 ****        -4.0533   0.5655  -0.4571 C.ar           1 S1                 0.0000
      6 ****        -3.2780   1.7270  -0.2931 C.ar           1 S1                 0.0000
      7 ****        -3.9249   3.0936  -0.2153 C.3            1 S1                 0.0000
      8 ****        -1.9334   1.7028  -0.1997 N.ar           1 S1                 0.0000
      9 ****        -1.2807   0.5158  -0.2631 C.ar           1 S1                 0.0000
     10 ****         0.1342   0.4072  -0.1734 N.am           1 S1                 0.0000
     11 ****         1.0474   1.3862  -0.0171 C.2            1 S1                 0.0000
     12 ****         0.7795   2.5781   0.1247 O.2            1 S1                 0.0000
     13 ****         2.3207   0.9539   0.0142 N.am           1 S1                 0.0000
     14 ****         3.5132   1.7347   0.1666 C.3            1 S1                 0.0000
     15 ****         4.7690   0.9970   0.5777 C.3            1 S1                 0.0000
     16 ****         4.6514   1.5461  -0.8194 C.3            1 S1                 0.0000
     17 ****         4.5399   0.6141  -2.0103 C.3            1 S1                 0.0000
     18 ****        -1.2104  -3.9204  -0.6982 H              1 S1                 0.0000
     19 ****        -2.4820  -3.1139  -1.6081 H              1 S1                 0.0000
     20 ****        -2.6162  -3.2991   0.1578 H              1 S1                 0.0000
     21 ****        -3.9805  -1.5661  -0.6512 H              1 S1                 0.0000
     22 ****        -5.1298   0.6169  -0.5301 H              1 S1                 0.0000
     23 ****        -5.0111   3.0148  -0.1647 H              1 S1                 0.0000
     24 ****        -3.6658   3.6842  -1.0944 H              1 S1                 0.0000
     25 ****        -3.5818   3.6277   0.6712 H              1 S1                 0.0000
     26 ****         0.4978  -0.5313  -0.2499 H              1 S1                 0.0000
     27 ****         2.4545  -0.0467  -0.0110 H              1 S1                 0.0000
     28 ****         3.4094   2.7276   0.6018 H              1 S1                 0.0000
     29 ****         5.4493   1.5044   1.2587 H              1 S1                 0.0000
     30 ****         4.7046  -0.0821   0.7065 H              1 S1                 0.0000
     31 ****         5.2344   2.4408  -1.0300 H              1 S1                 0.0000
     32 ****         4.0196  -0.3062  -1.7435 H              1 S1                 0.0000
     33 ****         5.5341   0.3532  -2.3732 H              1 S1                 0.0000
     34 ****         3.9927   1.1024  -2.8168 H              1 S1                 0.0000
     35 ****        -0.5958  -1.7838  -1.2484 LP             1 S1                 0.0000
     36 ****        -0.7274  -1.9478   0.3709 LP             1 S1                 0.0000
     37 ****        -1.4210   2.5538  -0.0845 LP             1 S1                 0.0000
     38 ****        -0.1741   2.8791   0.1294 LP             1 S1                 0.0000
     39 ****         1.5153   3.2462   0.2353 LP             1 S1                 0.0000
@<TRIPOS>BOND
    1    1    2 1     
    2    1   18 1     
    3    1   19 1     
    4    1   20 1     
    5    2    3 1     
    6    3    9 ar    
    7    3    4 ar    
    8    4    5 ar    
    9    4   21 1     
   10    5    6 ar    
   11    5   22 1     
   12    6    7 1     
   13    6    8 ar    
   14    7   23 1     
   15    7   24 1     
   16    7   25 1     
   17    8    9 ar    
   18    9   10 1     
   19   10   11 am    
   20   10   26 1     
   21   11   12 2     
   22   11   13 am    
   23   13   14 1     
   24   13   27 1     
   25   14   16 1     
   26   14   15 1     
   27   14   28 1     
   28   15   16 1     
   29   15   29 1     
   30   15   30 1     
   31   16   17 1     
   32   16   31 1     
   33   17   32 1     
   34   17   33 1     
   35   17   34 1     
   36    2   35 1     
   37    2   36 1     
   38    8   37 1     
   39   12   38 1     
   40   12   39 1     
@<TRIPOS>SUBSTRUCTURE
      1 S1             1
@<TRIPOS>SET
LONE_PAIRS      STATIC     ATOMS    <user>   **** ""
5 35 36 37 38 39
DONOR_HYDROGENS      STATIC     ATOMS    <user>   **** ""
2 26 27
ATOM$BLUE        STATIC     ATOMS    COLORGROUP SYSTEM
5 35 36 37 38 39
ATOM$RED        STATIC     ATOMS    COLORGROUP SYSTEM
2 26 27
