#       Name:                AV-unprocessed.smi:2069
#       Creating user name   scv26
#       Creation time:       Fri Mar 27 11:12:48 2020


#       File generated by GOLD software.
#

@<TRIPOS>MOLECULE
AV-unprocessed.smi:2069
    45    46     1
SMALL
NO_CHARGES


@<TRIPOS>ATOM
      1 ****        -7.4238   3.1332  -0.7621 C.3            1 S1                 0.0000
      2 ****        -5.9954   2.7080  -0.7605 C.2            1 S1                 0.0000
      3 ****        -4.9789   3.5764  -0.6932 N.2            1 S1                 0.0000
      4 ****        -3.7441   2.9432  -0.7102 N.2            1 S1                 0.0000
      5 ****        -3.8666   1.6111  -0.7896 C.2            1 S1                 0.0000
      6 ****        -2.7641   0.7171  -0.8267 N.am           1 S1                 0.0000
      7 ****        -1.4524   1.0084  -0.7776 C.2            1 S1                 0.0000
      8 ****        -0.9785   2.1411  -0.6875 O.2            1 S1                 0.0000
      9 ****        -0.7085  -0.1062  -0.8338 N.am           1 S1                 0.0000
     10 ****         0.7518  -0.1570  -0.8069 C.3            1 S1                 0.0000
     11 ****         1.3142  -0.8686   0.4565 C.3            1 S1                 0.0000
     12 ****         0.7688  -0.1614   1.7237 C.3            1 S1                 0.0000
     13 ****         2.7924  -0.9761   0.4518 N.3            1 S1                 0.0000
     14 ****         3.3063  -1.6810  -0.7286 C.3            1 S1                 0.0000
     15 ****         4.8383  -1.8219  -0.7228 C.3            1 S1                 0.0000
     16 ****         5.2542  -2.4860   0.4620 O.3            1 S1                 0.0000
     17 ****         4.8477  -1.7900   1.6317 C.3            1 S1                 0.0000
     18 ****         3.3157  -1.6510   1.6457 C.3            1 S1                 0.0000
     19 ****        -5.5173   1.0173  -0.8492 S.3            1 S1                 0.0000
     20 ****        -7.5021   4.2208  -0.7655 H              1 S1                 0.0000
     21 ****        -7.9278   2.7494   0.1250 H              1 S1                 0.0000
     22 ****        -7.9264   2.7447  -1.6480 H              1 S1                 0.0000
     23 ****        -3.0031  -0.2609  -0.8970 H              1 S1                 0.0000
     24 ****        -1.1881  -0.9916  -0.9034 H              1 S1                 0.0000
     25 ****         1.0202  -0.6945  -1.7140 H              1 S1                 0.0000
     26 ****         1.1899   0.8384  -0.9004 H              1 S1                 0.0000
     27 ****         0.9053  -1.8804   0.4592 H              1 S1                 0.0000
     28 ****        -0.3158  -0.0635   1.7108 H              1 S1                 0.0000
     29 ****         1.1871   0.8404   1.8264 H              1 S1                 0.0000
     30 ****         0.9873  -0.7146   2.6358 H              1 S1                 0.0000
     31 ****         2.8519  -2.6707  -0.7953 H              1 S1                 0.0000
     32 ****         3.0442  -1.1488  -1.6407 H              1 S1                 0.0000
     33 ****         5.1675  -2.3977  -1.5878 H              1 S1                 0.0000
     34 ****         5.3170  -0.8436  -0.7888 H              1 S1                 0.0000
     35 ****         5.1861  -2.3414   2.5091 H              1 S1                 0.0000
     36 ****         5.3254  -0.8095   1.6664 H              1 S1                 0.0000
     37 ****         3.0574  -1.0955   2.5453 H              1 S1                 0.0000
     38 ****         2.8630  -2.6392   1.7408 H              1 S1                 0.0000
     39 ****        -5.0959   4.5680  -0.6371 LP             1 S1                 0.0000
     40 ****        -2.8679   3.4235  -0.6682 LP             1 S1                 0.0000
     41 ****        -1.5851   2.9350  -0.6448 LP             1 S1                 0.0000
     42 ****         0.0131   2.2673  -0.6570 LP             1 S1                 0.0000
     43 ****         3.1102  -0.0280   0.4384 LP             1 S1                 0.0000
     44 ****         6.2517  -2.5576   0.4590 LP             1 S1                 0.0000
     45 ****         4.8543  -3.4024   0.4760 LP             1 S1                 0.0000
@<TRIPOS>BOND
    1    1    2 1     
    2    1   20 1     
    3    1   21 1     
    4    1   22 1     
    5    2   19 1     
    6    2    3 2     
    7    3    4 1     
    8    4    5 2     
    9    5    6 1     
   10    5   19 1     
   11    6    7 am    
   12    6   23 1     
   13    7    8 2     
   14    7    9 am    
   15    9   10 1     
   16    9   24 1     
   17   10   11 1     
   18   10   25 1     
   19   10   26 1     
   20   11   12 1     
   21   11   13 1     
   22   11   27 1     
   23   12   28 1     
   24   12   29 1     
   25   12   30 1     
   26   13   18 1     
   27   13   14 1     
   28   14   15 1     
   29   14   31 1     
   30   14   32 1     
   31   15   16 1     
   32   15   33 1     
   33   15   34 1     
   34   16   17 1     
   35   17   18 1     
   36   17   35 1     
   37   17   36 1     
   38   18   37 1     
   39   18   38 1     
   40    3   39 1     
   41    4   40 1     
   42    8   41 1     
   43    8   42 1     
   44   13   43 1     
   45   16   44 1     
   46   16   45 1     
@<TRIPOS>SUBSTRUCTURE
      1 S1             1
@<TRIPOS>SET
LONE_PAIRS      STATIC     ATOMS    <user>   **** ""
7 39 40 41 42 43 44 45
DONOR_HYDROGENS      STATIC     ATOMS    <user>   **** ""
2 23 24
ATOM$BLUE        STATIC     ATOMS    COLORGROUP SYSTEM
7 39 40 41 42 43 44 45
ATOM$RED        STATIC     ATOMS    COLORGROUP SYSTEM
2 23 24
