#       Name:                AV-unprocessed.smi:2541
#       Creating user name   scv26
#       Creation time:       Fri Mar 27 14:03:59 2020


#       File generated by GOLD software.
#

@<TRIPOS>MOLECULE
AV-unprocessed.smi:2541
    45    46     1
SMALL
NO_CHARGES


@<TRIPOS>ATOM
      1 ****        -2.0377   1.9053  -1.2559 O.2            1 S1                 0.0000
      2 ****        -2.4233   0.7473  -1.0861 C.2            1 S1                 0.0000
      3 ****        -3.9182   0.4052  -1.0336 C.3            1 S1                 0.0000
      4 ****        -4.7856   1.6364  -0.9664 C.2            1 S1                 0.0000
      5 ****        -5.2910   2.4198  -2.0414 C.2            1 S1                 0.0000
      6 ****        -6.0064   3.3986  -1.4145 C.2            1 S1                 0.0000
      7 ****        -5.9580   3.2346  -0.0684 O.3            1 S1                 0.0000
      8 ****        -5.1789   2.1052   0.2084 N.2            1 S1                 0.0000
      9 ****        -1.5843  -0.2901  -0.9402 N.am           1 S1                 0.0000
     10 ****        -0.1265  -0.2048  -0.9355 C.3            1 S1                 0.0000
     11 ****         0.4442  -0.3165   0.4968 C.3            1 S1                 0.0000
     12 ****         0.0882   0.8743   1.1755 O.3            1 S1                 0.0000
     13 ****         1.9900  -0.4625   0.5634 C.3            1 S1                 0.0000
     14 ****         2.5095  -1.7129  -0.1887 C.3            1 S1                 0.0000
     15 ****         4.0370  -1.8608  -0.0921 C.3            1 S1                 0.0000
     16 ****         4.5066  -1.8947   1.3675 C.3            1 S1                 0.0000
     17 ****         4.0185  -0.6518   2.1219 C.3            1 S1                 0.0000
     18 ****         2.4911  -0.5103   2.0294 C.3            1 S1                 0.0000
     19 ****        -4.1704  -0.1795  -1.9188 H              1 S1                 0.0000
     20 ****        -4.1053  -0.2397  -0.1735 H              1 S1                 0.0000
     21 ****        -5.1457   2.2868  -3.1031 H              1 S1                 0.0000
     22 ****        -6.5801   4.2418  -1.7701 H              1 S1                 0.0000
     23 ****        -1.9853  -1.2067  -0.8046 H              1 S1                 0.0000
     24 ****         0.2059  -1.0402  -1.5482 H              1 S1                 0.0000
     25 ****         0.2339   0.6975  -1.4329 H              1 S1                 0.0000
     26 ****        -0.0182  -1.1604   1.0110 H              1 S1                 0.0000
     27 ****         0.4515   1.6092   0.7053 H              1 S1                 0.0000
     28 ****         2.4312   0.4149   0.0873 H              1 S1                 0.0000
     29 ****         2.0306  -2.6083   0.2100 H              1 S1                 0.0000
     30 ****         2.2502  -1.6668  -1.2449 H              1 S1                 0.0000
     31 ****         4.3548  -2.7694  -0.6045 H              1 S1                 0.0000
     32 ****         4.5172  -1.0303  -0.6111 H              1 S1                 0.0000
     33 ****         4.1273  -2.7937   1.8551 H              1 S1                 0.0000
     34 ****         5.5946  -1.9539   1.4088 H              1 S1                 0.0000
     35 ****         4.3231  -0.7097   3.1672 H              1 S1                 0.0000
     36 ****         4.4942   0.2389   1.7096 H              1 S1                 0.0000
     37 ****         2.1965   0.3908   2.5674 H              1 S1                 0.0000
     38 ****         2.0192  -1.3441   2.5509 H              1 S1                 0.0000
     39 ****        -2.7038   2.6435  -1.3626 LP             1 S1                 0.0000
     40 ****        -1.0587   2.1068  -1.2870 LP             1 S1                 0.0000
     41 ****        -6.8824   3.1039   0.2899 LP             1 S1                 0.0000
     42 ****        -5.5470   4.0414   0.3561 LP             1 S1                 0.0000
     43 ****        -4.9632   1.7289   1.1094 LP             1 S1                 0.0000
     44 ****         0.4551   0.8546   2.1055 LP             1 S1                 0.0000
     45 ****        -0.9078   0.9566   1.2118 LP             1 S1                 0.0000
@<TRIPOS>BOND
    1    1    2 2     
    2    2    3 1     
    3    2    9 am    
    4    3    4 1     
    5    3   19 1     
    6    3   20 1     
    7    4    8 2     
    8    4    5 1     
    9    5    6 2     
   10    5   21 1     
   11    6    7 1     
   12    6   22 1     
   13    7    8 1     
   14    9   10 1     
   15    9   23 1     
   16   10   11 1     
   17   10   24 1     
   18   10   25 1     
   19   11   12 1     
   20   11   13 1     
   21   11   26 1     
   22   12   27 1     
   23   13   18 1     
   24   13   14 1     
   25   13   28 1     
   26   14   15 1     
   27   14   29 1     
   28   14   30 1     
   29   15   16 1     
   30   15   31 1     
   31   15   32 1     
   32   16   17 1     
   33   16   33 1     
   34   16   34 1     
   35   17   18 1     
   36   17   35 1     
   37   17   36 1     
   38   18   37 1     
   39   18   38 1     
   40    1   39 1     
   41    1   40 1     
   42    7   41 1     
   43    7   42 1     
   44    8   43 1     
   45   12   44 1     
   46   12   45 1     
@<TRIPOS>SUBSTRUCTURE
      1 S1             1
@<TRIPOS>SET
LONE_PAIRS      STATIC     ATOMS    <user>   **** ""
7 39 40 41 42 43 44 45
DONOR_HYDROGENS      STATIC     ATOMS    <user>   **** ""
2 23 27
ATOM$BLUE        STATIC     ATOMS    COLORGROUP SYSTEM
7 39 40 41 42 43 44 45
ATOM$RED        STATIC     ATOMS    COLORGROUP SYSTEM
2 23 27
