AV-unprocessed.smi:3338|AV-procd|sdf|12875|dock4
  -GOLD-   2272019273D 1   1.00000     0.00000
 Structure written by MMmdl.
 44 45  0  0  0  0  0  0  0  0  2 V2000
  147.0716  133.3156  151.5482 C   0  0  0  0  0  0  0  0  0  0  0  0
  145.7307  133.7543  152.1625 C   0  0  2  0  0  0  0  0  0  0  0  0
  144.9475  134.7227  151.2575 C   0  0  0  0  0  0  0  0  0  0  0  0
  145.5782  136.1219  151.2642 C   0  0  0  0  0  0  0  0  0  0  0  0
  145.7415  136.6460  152.6996 C   0  0  0  0  0  0  0  0  0  0  0  0
  146.5323  135.7018  153.5310 N   0  3  1  0  0  0  0  0  0  0  0  0
  146.8270  136.2565  154.8765 C   0  0  0  0  0  0  0  0  0  0  0  0
  147.4919  135.2285  155.8062 C   0  0  0  0  0  0  0  0  0  0  0  0
  148.0352  135.8863  156.9859 N   0  0  0  0  0  0  0  0  0  0  0  0
  148.3175  135.2605  158.1387 C   0  0  0  0  0  0  0  0  0  0  0  0
  148.1082  134.0594  158.3130 O   0  0  0  0  0  0  0  0  0  0  0  0
  148.9237  136.1288  159.2554 C   0  0  1  0  0  0  0  0  0  0  0  0
  149.0539  137.6139  158.8626 C   0  0  0  0  0  0  0  0  0  0  0  0
  148.1799  135.9660  160.4999 N   0  0  0  0  0  0  0  0  0  0  0  0
  147.7985  134.7905  161.1146 C   0  0  0  0  0  0  0  0  0  0  0  0
  147.1060  135.1231  162.2434 C   0  0  0  0  0  0  0  0  0  0  0  0
  147.1120  136.5454  162.2370 C   0  0  0  0  0  0  0  0  0  0  0  0
  147.7502  137.0469  161.1924 N   0  0  0  0  0  0  0  0  0  0  0  0
  145.9042  134.3524  153.5741 C   0  0  0  0  0  0  0  0  0  0  0  0
  147.7627  134.1513  151.4371 H   0  0  0  0  0  0  0  0  0  0  0  0
  146.9250  132.8732  150.5624 H   0  0  0  0  0  0  0  0  0  0  0  0
  147.5603  132.5669  152.1722 H   0  0  0  0  0  0  0  0  0  0  0  0
  145.1301  132.8491  152.2630 H   0  0  0  0  0  0  0  0  0  0  0  0
  144.8911  134.3360  150.2394 H   0  0  0  0  0  0  0  0  0  0  0  0
  143.9188  134.7946  151.6135 H   0  0  0  0  0  0  0  0  0  0  0  0
  146.5490  136.0964  150.7682 H   0  0  0  0  0  0  0  0  0  0  0  0
  144.9596  136.8095  150.6864 H   0  0  0  0  0  0  0  0  0  0  0  0
  146.2378  137.6169  152.6677 H   0  0  0  0  0  0  0  0  0  0  0  0
  144.7638  136.8040  153.1579 H   0  0  0  0  0  0  0  0  0  0  0  0
  147.5080  137.1028  154.7730 H   0  0  0  0  0  0  0  0  0  0  0  0
  145.9120  136.6499  155.3226 H   0  0  0  0  0  0  0  0  0  0  0  0
  146.7793  134.4698  156.1302 H   0  0  0  0  0  0  0  0  0  0  0  0
  148.2962  134.7133  155.2781 H   0  0  0  0  0  0  0  0  0  0  0  0
  148.2320  136.8744  156.9181 H   0  0  0  0  0  0  0  0  0  0  0  0
  149.9328  135.7531  159.4322 H   0  0  0  0  0  0  0  0  0  0  0  0
  149.6632  137.7328  157.9660 H   0  0  0  0  0  0  0  0  0  0  0  0
  149.5324  138.1847  159.6590 H   0  0  0  0  0  0  0  0  0  0  0  0
  148.0831  138.0713  158.6671 H   0  0  0  0  0  0  0  0  0  0  0  0
  148.0493  133.8241  160.7025 H   0  0  0  0  0  0  0  0  0  0  0  0
  146.6628  134.4526  162.9648 H   0  0  0  0  0  0  0  0  0  0  0  0
  146.6732  137.2238  162.9538 H   0  0  0  0  0  0  0  0  0  0  0  0
  144.9314  134.4299  154.0625 H   0  0  0  0  0  0  0  0  0  0  0  0
  146.4985  133.6690  154.1795 H   0  0  0  0  0  0  0  0  0  0  0  0
  147.4223  135.5965  153.0648 H   0  0  0  0  0  0  0  0  0  0  0  0
  1  2  1  0  0  0  0
  1 20  1  0  0  0  0
  1 21  1  0  0  0  0
  1 22  1  0  0  0  0
  2 19  1  0  0  0  0
  2  3  1  0  0  0  0
  2 23  1  0  0  0  0
  3  4  1  0  0  0  0
  3 24  1  0  0  0  0
  3 25  1  0  0  0  0
  4  5  1  0  0  0  0
  4 26  1  0  0  0  0
  4 27  1  0  0  0  0
  5  6  1  0  0  0  0
  5 28  1  0  0  0  0
  5 29  1  0  0  0  0
  6  7  1  0  0  0  0
  6 19  1  0  0  0  0
  6 44  1  0  0  0  0
  7  8  1  0  0  0  0
  7 30  1  0  0  0  0
  7 31  1  0  0  0  0
  8  9  1  0  0  0  0
  8 32  1  0  0  0  0
  8 33  1  0  0  0  0
  9 10  1  0  0  0  0
  9 34  1  0  0  0  0
 10 11  2  0  0  0  0
 10 12  1  0  0  0  0
 12 13  1  0  0  0  0
 12 14  1  0  0  0  0
 12 35  1  0  0  0  0
 13 36  1  0  0  0  0
 13 37  1  0  0  0  0
 13 38  1  0  0  0  0
 14 18  1  0  0  0  0
 14 15  1  0  0  0  0
 15 16  2  0  0  0  0
 15 39  1  0  0  0  0
 16 17  1  0  0  0  0
 16 40  1  0  0  0  0
 17 18  2  0  0  0  0
 17 41  1  0  0  0  0
 19 42  1  0  0  0  0
 19 43  1  0  0  0  0
M  CHG  1   6   1
M  END
> <s_m_source_file>
AV-unprocessed.smi

> <i_m_source_file_index>
3338

> <i_lp_mmshare_version>
43012

> <i_f3d_flags>
0

> <s_epik_input>
W0NIM11bQ0BASF0xW0NIMl1bQ0gyXVtDSDJdTihbQ0gyXTEpW0NIMl1bQ0gyXVtOSF1DKD1PKVtDQEhdKFtDSDNdKW4yW2NIXVtjSF1bY0hdbjI=

> <s_epik_cmdline>
J2VwaWtfcHl0aG9uJywgJy1waCcsICc3LjAnLCAnLXRuJywgJzgnLCAnLW1hJywgJzIwMCcsICctbWV0YWxfYmluZGluZycsICctaW1hZScsICc8aW5maWxlLm1hZT4nLCAnLW9tYWUnLCAnPG91dGZpbGUubWFlPic=

> <r_lp_tautomer_probability>
1

> <r_epik_Ionization_Penalty>
0.00225707

> <r_epik_Ionization_Penalty_Charging>
0.00223709

> <r_epik_Ionization_Penalty_Neutral>
1.99775e-05

> <r_epik_State_Penalty>
0.00153978

> <r_epik_Charging_Adjusted_Penalty>
0.00377687

> <i_epik_Tot_Q>
1

> <i_epik_Tot_abs_Q>
1

> <r_epik_Metal_State_Penalty>
-0

> <b_epik_Metal_Only>
0

> <s_lp_Force_Field>
OPLS_2005

> <r_lp_Energy>
23.0994

> <b_lp_Chiralities_Consistent>
1

> <s_lp_Variant>
AV-unprocessed.smi:3338-7

> <Gold.Version>
5.8.1

> <Gold.Id.Protein>
6NUR|6NUR_protein|mol2

> <Gold.PLP.Fitness>
40.5018

> <Gold.PLP.PLP>
-29.7980

> <Gold.PLP.part.hbond>
-3.0000

> <Gold.PLP.part.metal>
0.0000

> <Gold.PLP.part.buried>
-4.6637

> <Gold.PLP.part.nonpolar>
-23.0730

> <Gold.PLP.part.repulsive>
0.0014

> <Gold.PLP.ligand.clash>
0.1198

> <Gold.PLP.ligand.torsion>
0.4373

> <Gold.PLP.Chemscore.Hbond>
3.8560

> <Gold.PLP.Chemscore.CHOScore>
0.0000

> <Gold.PLP.Chemscore.Metal>
0.0000

> <Gold.Chemscore.Hbonds>
donor molecule, donor type, donor heavy atom, donor atom, acceptor molecule, acceptor atom, score
      L1  H     6    44       P1  7948  1.98
      P1  H  6931  6943       L1    18  1.00
      P1  H  6934  6947       L1    18  0.77

> <Gold.PLP.Chemscore.Internal.Correction>
0.1302

> <Gold.Rescore>
     Score         DG    S(hbond)    S(metal)    S(lipo)     H(rot)  DE(clash)    DE(int)     intcor
     14.69     -16.46       2.39        0.00      64.07       1.76       0.01       1.76       ----

> <Gold.Chemscore.Fitness>
14.6892

> <Gold.Chemscore.DG>
-16.4619

> <Gold.Chemscore.ZeroCoef>
-5.4800

> <Gold.Chemscore.Hbond>
2.3904

> <Gold.Chemscore.Metal>
0.0000

> <Gold.Chemscore.Lipo>
64.0667

> <Gold.Chemscore.Internal_Hbond>
0.0000

> <Gold.Chemscore.DEClash>
0.0126

> <Gold.Chemscore.DEInternal>
1.7601

> <Gold.Chemscore.Rot>
1.7570

> <Gold.Chemscore.Internal.Correction>
   9.000000E+99

> <Gold.Chemscore.Hbonds>
donor molecule, donor type, donor heavy atom, donor atom, acceptor molecule, acceptor atom, score
      L1  H     6    44       P1  7948  0.91
      P1  H  6931  6943       L1    18  0.51
      P1  H  6934  6947       L1    18  0.52

> <Gold.Chemscore.Hbond.Weighted>
-7.9839

> <Gold.Chemscore.Metal.Weighted>
-0.0000

> <Gold.Chemscore.Lipo.Weighted>
-7.4958

> <Gold.Chemscore.Internal_Hbond.Weighted>
0.0000

> <Gold.Chemscore.DEClash.Weighted>
0.0126

> <Gold.Chemscore.DEInternal.Weighted>
1.7601

> <Gold.Chemscore.Rot.Weighted>
4.4979

> <Gold.Chemscore.Internal.Correction.Weighted>
   9.000000E+99

> <Gold.Protein.RotatedTorsions>
[ 6907 6896 6895 6894 ] final  122.41 input  -60.11 | X-H torsion
[ 7974 7965 7964 7962 ] final -178.25 input  175.53 | X-H torsion
[ 8008 7997 7996 7995 ] final -161.72 input   59.86 | X-H torsion
[ 10167 10162 10161 10158 ] final  174.48 input  -65.29 | X-H torsion
[ 10718 10713 10712 10709 ] final  118.60 input   66.30 | X-H torsion
[ 10763 10752 10751 10750 ] final  -67.61 input  -60.55 | X-H torsion
[ 11005 11000 10999 10996 ] final -170.08 input  -57.11 | X-H torsion

> <Gold.Protein.ActiveResidues>
 VAL166  LYS551  ARG553  GLY616  TRP617  ASP618  TYR619  PRO620  LYS621  CYS622 
 ASP623  PHE694  ASN695  SER759  ASP760  ASP761  ALA762  ILE779  LEU786  VAL792 
 PHE793  MET794  SER795  GLU796  ALA797  LYS798  CYS799  TRP800  GLU811  SER814 

> <Gold.Protein.RotatedAtoms>
  152.4245  133.7172  159.6512 H   0  0  0  0  0  0  0  0  0  0  0  0  # atno 6907 bound_to 6896
  150.8121  133.8392  159.3183 H   0  0  0  0  0  0  0  0  0  0  0  0  # atno 6908 bound_to 6896
  151.6099  135.1043  160.0130 H   0  0  0  0  0  0  0  0  0  0  0  0  # atno 6909 bound_to 6896
  144.7130  140.0896  143.6422 H   0  0  0  0  0  0  0  0  0  0  0  0  # atno 7974 bound_to 7965
  155.7963  140.0885  157.1981 H   0  0  0  0  0  0  0  0  0  0  0  0  # atno 8008 bound_to 7997
  154.3983  140.1480  156.3280 H   0  0  0  0  0  0  0  0  0  0  0  0  # atno 8009 bound_to 7997
  155.8508  140.3434  155.5694 H   0  0  0  0  0  0  0  0  0  0  0  0  # atno 8010 bound_to 7997
  139.5143  144.3142  152.0263 H   0  0  0  0  0  0  0  0  0  0  0  0  # atno 10167 bound_to 10162
  157.6019  131.1049  150.7779 H   0  0  0  0  0  0  0  0  0  0  0  0  # atno 10718 bound_to 10713
  154.3770  135.6082  153.5770 H   0  0  0  0  0  0  0  0  0  0  0  0  # atno 10763 bound_to 10752
  152.9789  135.5851  154.4455 H   0  0  0  0  0  0  0  0  0  0  0  0  # atno 10764 bound_to 10752
  154.4218  135.2846  155.1948 H   0  0  0  0  0  0  0  0  0  0  0  0  # atno 10765 bound_to 10752
  140.5235  134.5686  157.5055 H   0  0  0  0  0  0  0  0  0  0  0  0  # atno 11005 bound_to 11000
  145.9631  139.2815  143.1143 LP  0  0  0  0  0  0  0  0  0  0  0  0  # atno 17320 bound_to 7965
  145.9198  140.9123  143.0411 LP  0  0  0  0  0  0  0  0  0  0  0  0  # atno 17321 bound_to 7965
  140.2586  144.4092  150.6194 LP  0  0  0  0  0  0  0  0  0  0  0  0  # atno 17342 bound_to 10162
  140.6174  143.2173  151.6764 LP  0  0  0  0  0  0  0  0  0  0  0  0  # atno 17343 bound_to 10162
  156.8176  130.4973  149.5347 LP  0  0  0  0  0  0  0  0  0  0  0  0  # atno 17370 bound_to 10713
  156.1094  130.6029  151.0024 LP  0  0  0  0  0  0  0  0  0  0  0  0  # atno 17371 bound_to 10713
  139.9593  134.7481  156.0273 LP  0  0  0  0  0  0  0  0  0  0  0  0  # atno 17394 bound_to 11000
  141.1321  133.6584  156.3493 LP  0  0  0  0  0  0  0  0  0  0  0  0  # atno 17395 bound_to 11000

$$$$
