AV-unprocessed.smi:2438|AV-procd|sdf|9598|dock5
  -GOLD-   2272013233D 1   1.00000     0.00000
 Structure written by MMmdl.
 43 44  0  0  0  0  0  0  0  0  1 V2000
  142.9226  137.3209  154.9603 C   0  0  0  0  0  0  0  0  0  0  0  0
  142.4572  137.0822  153.6010 N   0  0  0  0  0  0  0  0  0  0  0  0
  141.0856  136.6071  153.4667 C   0  0  0  0  0  0  0  0  0  0  0  0
  143.4191  136.4531  152.7854 C   0  0  0  0  0  0  0  0  0  0  0  0
  143.1232  135.2303  152.2814 N   0  0  0  0  0  0  0  0  0  0  0  0
  144.0469  134.6330  151.5269 C   0  0  0  0  0  0  0  0  0  0  0  0
  145.2457  135.1169  151.2031 N   0  0  0  0  0  0  0  0  0  0  0  0
  145.5615  136.3340  151.6919 C   0  0  0  0  0  0  0  0  0  0  0  0
  144.6715  137.0655  152.5168 C   0  0  0  0  0  0  0  0  0  0  0  0
  144.9554  138.3687  153.0109 N   0  0  0  0  0  0  0  0  0  0  0  0
  146.1411  138.8609  153.4035 C   0  0  0  0  0  0  0  0  0  0  0  0
  147.2157  138.2649  153.3350 O   0  0  0  0  0  0  0  0  0  0  0  0
  146.0060  140.0924  153.9143 N   0  0  0  0  0  0  0  0  0  0  0  0
  147.0816  140.8926  154.4975 C   0  0  1  0  0  0  0  0  0  0  0  0
  147.2123  142.2339  153.7511 C   0  0  0  0  0  0  0  0  0  0  0  0
  146.0260  143.1719  154.0330 C   0  0  0  0  0  0  0  0  0  0  0  0
  145.8276  143.3890  155.5417 C   0  0  0  0  0  0  0  0  0  0  0  0
  145.6528  142.0521  156.2926 C   0  0  2  0  0  0  0  0  0  0  0  0
  145.4294  142.2599  157.8042 C   0  0  0  0  0  0  0  0  0  0  0  0
  144.4007  143.0791  158.0240 F   0  0  0  0  0  0  0  0  0  0  0  0
  145.1823  141.0898  158.3934 F   0  0  0  0  0  0  0  0  0  0  0  0
  146.5229  142.7816  158.3603 F   0  0  0  0  0  0  0  0  0  0  0  0
  146.8569  141.1262  156.0080 C   0  0  0  0  0  0  0  0  0  0  0  0
  143.8524  137.8892  154.9764 H   0  0  0  0  0  0  0  0  0  0  0  0
  143.0925  136.3749  155.4758 H   0  0  0  0  0  0  0  0  0  0  0  0
  142.1784  137.8852  155.5231 H   0  0  0  0  0  0  0  0  0  0  0  0
  140.8127  136.4959  152.4165 H   0  0  0  0  0  0  0  0  0  0  0  0
  140.3945  137.3193  153.9176 H   0  0  0  0  0  0  0  0  0  0  0  0
  140.9558  135.6451  153.9638 H   0  0  0  0  0  0  0  0  0  0  0  0
  143.7954  133.6591  151.1341 H   0  0  0  0  0  0  0  0  0  0  0  0
  146.5226  136.7215  151.3908 H   0  0  0  0  0  0  0  0  0  0  0  0
  144.1475  138.9441  153.2001 H   0  0  0  0  0  0  0  0  0  0  0  0
  145.0827  140.5004  153.9258 H   0  0  0  0  0  0  0  0  0  0  0  0
  148.0160  140.3441  154.3647 H   0  0  0  0  0  0  0  0  0  0  0  0
  148.1347  142.7260  154.0620 H   0  0  0  0  0  0  0  0  0  0  0  0
  147.3079  142.0629  152.6781 H   0  0  0  0  0  0  0  0  0  0  0  0
  146.1885  144.1309  153.5401 H   0  0  0  0  0  0  0  0  0  0  0  0
  145.1150  142.7565  153.6006 H   0  0  0  0  0  0  0  0  0  0  0  0
  146.6842  143.9304  155.9451 H   0  0  0  0  0  0  0  0  0  0  0  0
  144.9581  144.0269  155.7026 H   0  0  0  0  0  0  0  0  0  0  0  0
  144.7567  141.5674  155.9020 H   0  0  0  0  0  0  0  0  0  0  0  0
  146.7273  140.1717  156.5189 H   0  0  0  0  0  0  0  0  0  0  0  0
  147.7583  141.5694  156.4331 H   0  0  0  0  0  0  0  0  0  0  0  0
  1  2  1  0  0  0  0
  1 24  1  0  0  0  0
  1 25  1  0  0  0  0
  1 26  1  0  0  0  0
  2  3  1  0  0  0  0
  2  4  1  0  0  0  0
  3 27  1  0  0  0  0
  3 28  1  0  0  0  0
  3 29  1  0  0  0  0
  4  9  1  0  0  0  0
  4  5  2  0  0  0  0
  5  6  1  0  0  0  0
  6  7  2  0  0  0  0
  6 30  1  0  0  0  0
  7  8  1  0  0  0  0
  8  9  2  0  0  0  0
  8 31  1  0  0  0  0
  9 10  1  0  0  0  0
 10 11  1  0  0  0  0
 10 32  1  0  0  0  0
 11 12  2  0  0  0  0
 11 13  1  0  0  0  0
 13 14  1  0  0  0  0
 13 33  1  0  0  0  0
 14 23  1  0  0  0  0
 14 15  1  0  0  0  0
 14 34  1  0  0  0  0
 15 16  1  0  0  0  0
 15 35  1  0  0  0  0
 15 36  1  0  0  0  0
 16 17  1  0  0  0  0
 16 37  1  0  0  0  0
 16 38  1  0  0  0  0
 17 18  1  0  0  0  0
 17 39  1  0  0  0  0
 17 40  1  0  0  0  0
 18 19  1  0  0  0  0
 18 23  1  0  0  0  0
 18 41  1  0  0  0  0
 19 20  1  0  0  0  0
 19 21  1  0  0  0  0
 19 22  1  0  0  0  0
 23 42  1  0  0  0  0
 23 43  1  0  0  0  0
M  END
> <s_m_source_file>
AV-unprocessed.smi

> <i_m_source_file_index>
2438

> <i_lp_mmshare_version>
43012

> <i_f3d_flags>
0

> <s_epik_input>
W0NIM11OKFtDSDNdKWMxbltjSF1uW2NIXWMxW05IXUMoPU8pW05IXVtDQEBIXTJbQ0gyXVtDSDJdW0NIMl1bQ0BASF0oQyhGKShGKUYpW0NIMl0y

> <s_epik_cmdline>
J2VwaWtfcHl0aG9uJywgJy1waCcsICc3LjAnLCAnLXRuJywgJzgnLCAnLW1hJywgJzIwMCcsICctbWV0YWxfYmluZGluZycsICctaW1hZScsICc8aW5maWxlLm1hZT4nLCAnLW9tYWUnLCAnPG91dGZpbGUubWFlPic=

> <r_lp_tautomer_probability>
1

> <r_epik_Ionization_Penalty>
0.01759

> <r_epik_Ionization_Penalty_Charging>
0

> <r_epik_Ionization_Penalty_Neutral>
0.01759

> <r_epik_State_Penalty>
0.0133536

> <r_epik_Charging_Adjusted_Penalty>
0.0133536

> <i_epik_Tot_Q>
0

> <i_epik_Tot_abs_Q>
0

> <r_epik_Metal_State_Penalty>
0.0129828

> <b_epik_Metal_Only>
0

> <s_lp_Force_Field>
OPLS_2005

> <r_lp_Energy>
8.79066

> <b_lp_Chiralities_Consistent>
1

> <s_lp_Variant>
AV-unprocessed.smi:2438-4

> <Gold.Version>
5.8.1

> <Gold.Id.Protein>
6NUR|6NUR_protein|mol2

> <Gold.PLP.Fitness>
32.6457

> <Gold.PLP.PLP>
-26.9171

> <Gold.PLP.part.hbond>
-2.0000

> <Gold.PLP.part.metal>
0.0000

> <Gold.PLP.part.buried>
-6.8935

> <Gold.PLP.part.nonpolar>
-19.1981

> <Gold.PLP.part.repulsive>
1.2049

> <Gold.PLP.ligand.clash>
0.0000

> <Gold.PLP.ligand.torsion>
0.5613

> <Gold.PLP.Chemscore.Hbond>
1.1680

> <Gold.PLP.Chemscore.CHOScore>
1.0000

> <Gold.PLP.Chemscore.Metal>
0.0000

> <Gold.Chemscore.Hbonds>
donor molecule, donor type, donor heavy atom, donor atom, acceptor molecule, acceptor atom, score
      L1  H    10    32       P1 10175  0.61
      L1  H    13    33       P1 10175  0.59
      L1  C     8    31       P1  7948  1.00

> <Gold.PLP.Chemscore.Internal.Correction>
0.3471

> <Gold.Rescore>
     Score         DG    S(hbond)    S(metal)    S(lipo)     H(rot)  DE(clash)    DE(int)     intcor
     10.88     -13.00       1.61        0.00      46.60       1.30       0.50       1.62       ----

> <Gold.Chemscore.Fitness>
10.8799

> <Gold.Chemscore.DG>
-13.0016

> <Gold.Chemscore.ZeroCoef>
-5.4800

> <Gold.Chemscore.Hbond>
1.6149

> <Gold.Chemscore.Metal>
0.0000

> <Gold.Chemscore.Lipo>
46.6032

> <Gold.Chemscore.Internal_Hbond>
0.0000

> <Gold.Chemscore.DEClash>
0.4988

> <Gold.Chemscore.DEInternal>
1.6229

> <Gold.Chemscore.Rot>
1.2987

> <Gold.Chemscore.Internal.Correction>
   9.000000E+99

> <Gold.Chemscore.Hbonds>
donor molecule, donor type, donor heavy atom, donor atom, acceptor molecule, acceptor atom, score
      L1  H    10    32       P1 10175  0.60
      L1  H    13    33       P1 10175  0.55

> <Gold.Chemscore.Hbond.Weighted>
-5.3936

> <Gold.Chemscore.Metal.Weighted>
-0.0000

> <Gold.Chemscore.Lipo.Weighted>
-5.4526

> <Gold.Chemscore.Internal_Hbond.Weighted>
0.0000

> <Gold.Chemscore.DEClash.Weighted>
0.4988

> <Gold.Chemscore.DEInternal.Weighted>
1.6229

> <Gold.Chemscore.Rot.Weighted>
3.3246

> <Gold.Chemscore.Internal.Correction.Weighted>
   9.000000E+99

> <Gold.Protein.RotatedTorsions>
[ 6907 6896 6895 6894 ] final  -81.56 input  -60.11 | X-H torsion
[ 7974 7965 7964 7962 ] final  -62.35 input  175.53 | X-H torsion
[ 8008 7997 7996 7995 ] final  101.50 input   59.86 | X-H torsion
[ 10167 10162 10161 10158 ] final   63.81 input  -65.29 | X-H torsion
[ 10718 10713 10712 10709 ] final   26.25 input   66.30 | X-H torsion
[ 10763 10752 10751 10750 ] final   57.51 input  -60.55 | X-H torsion
[ 11005 11000 10999 10996 ] final  -53.03 input  -57.11 | X-H torsion

> <Gold.Protein.ActiveResidues>
 VAL166  LYS551  ARG553  GLY616  TRP617  ASP618  TYR619  PRO620  LYS621  CYS622 
 ASP623  PHE694  ASN695  SER759  ASP760  ASP761  ALA762  ILE779  LEU786  VAL792 
 PHE793  MET794  SER795  GLU796  ALA797  LYS798  CYS799  TRP800  GLU811  SER814 

> <Gold.Protein.RotatedAtoms>
  150.6910  134.3798  159.5028 H   0  0  0  0  0  0  0  0  0  0  0  0  # atno 6907 bound_to 6896
  152.1602  134.8915  160.0551 H   0  0  0  0  0  0  0  0  0  0  0  0  # atno 6908 bound_to 6896
  151.9980  133.3780  159.4207 H   0  0  0  0  0  0  0  0  0  0  0  0  # atno 6909 bound_to 6896
  145.7923  140.8702  143.0274 H   0  0  0  0  0  0  0  0  0  0  0  0  # atno 7974 bound_to 7965
  156.1305  140.3196  155.8342 H   0  0  0  0  0  0  0  0  0  0  0  0  # atno 8008 bound_to 7997
  155.4341  140.0521  157.3033 H   0  0  0  0  0  0  0  0  0  0  0  0  # atno 8009 bound_to 7997
  154.4895  140.2086  155.9592 H   0  0  0  0  0  0  0  0  0  0  0  0  # atno 8010 bound_to 7997
  140.1290  144.4660  150.6875 H   0  0  0  0  0  0  0  0  0  0  0  0  # atno 10167 bound_to 10162
  157.2043  130.6904  149.6201 H   0  0  0  0  0  0  0  0  0  0  0  0  # atno 10718 bound_to 10713
  152.9851  135.5639  154.5402 H   0  0  0  0  0  0  0  0  0  0  0  0  # atno 10763 bound_to 10752
  154.4858  135.2790  155.1538 H   0  0  0  0  0  0  0  0  0  0  0  0  # atno 10764 bound_to 10752
  154.3028  135.6304  153.5485 H   0  0  0  0  0  0  0  0  0  0  0  0  # atno 10765 bound_to 10752
  141.0955  133.6625  156.4111 H   0  0  0  0  0  0  0  0  0  0  0  0  # atno 11005 bound_to 11000
  144.6780  140.0141  143.7484 LP  0  0  0  0  0  0  0  0  0  0  0  0  # atno 17320 bound_to 7965
  145.9963  139.3055  143.0954 LP  0  0  0  0  0  0  0  0  0  0  0  0  # atno 17321 bound_to 7965
  140.6828  143.2335  151.5340 LP  0  0  0  0  0  0  0  0  0  0  0  0  # atno 17342 bound_to 10162
  139.5529  144.2349  152.1562 LP  0  0  0  0  0  0  0  0  0  0  0  0  # atno 17343 bound_to 10162
  155.9697  130.4572  150.5954 LP  0  0  0  0  0  0  0  0  0  0  0  0  # atno 17370 bound_to 10713
  157.3736  131.0769  151.1537 LP  0  0  0  0  0  0  0  0  0  0  0  0  # atno 17371 bound_to 10713
  140.5151  134.6358  157.5298 LP  0  0  0  0  0  0  0  0  0  0  0  0  # atno 17394 bound_to 11000
  139.9790  134.7167  155.9894 LP  0  0  0  0  0  0  0  0  0  0  0  0  # atno 17395 bound_to 11000

$$$$
