AV-unprocessed.smi:1050|AV-procd|sdf|4612|dock2
  -GOLD-   22720 3113D 1   1.00000     0.00000
 Structure written by MMmdl.
 48 49  0  0  0  0  0  0  0  0  1 V2000
  150.3195  144.9360  160.0258 C   0  0  0  0  0  0  0  0  0  0  0  0
  151.4713  144.1139  159.8700 O   0  0  0  0  0  0  0  0  0  0  0  0
  151.3823  143.0147  159.0407 C   0  0  0  0  0  0  0  0  0  0  0  0
  152.4835  142.1445  158.9504 C   0  0  0  0  0  0  0  0  0  0  0  0
  152.3935  141.0237  158.1056 C   0  0  0  0  0  0  0  0  0  0  0  0
  151.1983  140.7958  157.3810 C   0  0  0  0  0  0  0  0  0  0  0  0
  151.0352  139.7085  156.4740 N   0  0  0  0  0  0  0  0  0  0  0  0
  151.9622  139.0678  155.7390 C   0  0  0  0  0  0  0  0  0  0  0  0
  153.1614  139.3443  155.7284 O   0  0  0  0  0  0  0  0  0  0  0  0
  151.4372  137.9078  154.8758 C   0  0  2  0  0  0  0  0  0  0  0  0
  150.3663  138.3821  153.8813 C   0  0  0  0  0  0  0  0  0  0  0  0
  150.8491  136.9017  155.6966 O   0  0  0  0  0  0  0  0  0  0  0  0
  150.4053  135.7387  155.0088 C   0  0  0  0  0  0  0  0  0  0  0  0
  150.1444  141.7367  157.5250 C   0  0  0  0  0  0  0  0  0  0  0  0
  148.9334  141.5664  156.8260 N   0  0  0  0  0  0  0  0  0  0  0  0
  148.9908  141.7038  155.3694 C   0  0  0  0  0  0  0  0  0  0  0  0
  147.6530  141.2806  154.7359 C   0  0  0  0  0  0  0  0  0  0  0  0
  146.5747  142.0690  155.3471 N   0  0  0  0  0  0  0  0  0  0  0  0
  145.8470  143.0246  154.7216 C   0  0  0  0  0  0  0  0  0  0  0  0
  144.8092  143.8165  155.5199 C   0  0  0  0  0  0  0  0  0  0  0  0
  145.9823  143.2878  153.5268 O   0  0  0  0  0  0  0  0  0  0  0  0
  146.4710  141.8011  156.7877 C   0  0  0  0  0  0  0  0  0  0  0  0
  147.7898  142.2118  157.4717 C   0  0  0  0  0  0  0  0  0  0  0  0
  150.2414  142.8144  158.3395 N   0  0  0  0  0  0  0  0  0  0  0  0
  150.5492  145.7534  160.7089 H   0  0  0  0  0  0  0  0  0  0  0  0
  149.4842  144.3761  160.4489 H   0  0  0  0  0  0  0  0  0  0  0  0
  150.0113  145.3753  159.0757 H   0  0  0  0  0  0  0  0  0  0  0  0
  153.3848  142.3363  159.5136 H   0  0  0  0  0  0  0  0  0  0  0  0
  153.2501  140.3742  158.0192 H   0  0  0  0  0  0  0  0  0  0  0  0
  150.1034  139.3207  156.4366 H   0  0  0  0  0  0  0  0  0  0  0  0
  152.2596  137.4730  154.3041 H   0  0  0  0  0  0  0  0  0  0  0  0
  150.7513  139.1674  153.2296 H   0  0  0  0  0  0  0  0  0  0  0  0
  149.4851  138.7716  154.3928 H   0  0  0  0  0  0  0  0  0  0  0  0
  150.0385  137.5591  153.2458 H   0  0  0  0  0  0  0  0  0  0  0  0
  149.9050  135.0731  155.7120 H   0  0  0  0  0  0  0  0  0  0  0  0
  151.2312  135.1838  154.5628 H   0  0  0  0  0  0  0  0  0  0  0  0
  149.6907  135.9933  154.2252 H   0  0  0  0  0  0  0  0  0  0  0  0
  149.2111  142.7389  155.1040 H   0  0  0  0  0  0  0  0  0  0  0  0
  149.8011  141.0892  154.9754 H   0  0  0  0  0  0  0  0  0  0  0  0
  147.7104  141.3778  153.6529 H   0  0  0  0  0  0  0  0  0  0  0  0
  147.4701  140.2215  154.9248 H   0  0  0  0  0  0  0  0  0  0  0  0
  144.0621  143.1502  155.9527 H   0  0  0  0  0  0  0  0  0  0  0  0
  144.2879  144.5259  154.8762 H   0  0  0  0  0  0  0  0  0  0  0  0
  145.2873  144.3823  156.3198 H   0  0  0  0  0  0  0  0  0  0  0  0
  145.6350  142.3206  157.2577 H   0  0  0  0  0  0  0  0  0  0  0  0
  146.2851  140.7370  156.9414 H   0  0  0  0  0  0  0  0  0  0  0  0
  147.7501  141.9536  158.5300 H   0  0  0  0  0  0  0  0  0  0  0  0
  147.9165  143.2939  157.4161 H   0  0  0  0  0  0  0  0  0  0  0  0
  1  2  1  0  0  0  0
  1 25  1  0  0  0  0
  1 26  1  0  0  0  0
  1 27  1  0  0  0  0
  2  3  1  0  0  0  0
  3 24  1  0  0  0  0
  3  4  2  0  0  0  0
  4  5  1  0  0  0  0
  4 28  1  0  0  0  0
  5  6  2  0  0  0  0
  5 29  1  0  0  0  0
  6  7  1  0  0  0  0
  6 14  1  0  0  0  0
  7  8  1  0  0  0  0
  7 30  1  0  0  0  0
  8  9  2  0  0  0  0
  8 10  1  0  0  0  0
 10 11  1  0  0  0  0
 10 12  1  0  0  0  0
 10 31  1  0  0  0  0
 11 32  1  0  0  0  0
 11 33  1  0  0  0  0
 11 34  1  0  0  0  0
 12 13  1  0  0  0  0
 13 35  1  0  0  0  0
 13 36  1  0  0  0  0
 13 37  1  0  0  0  0
 14 15  1  0  0  0  0
 14 24  2  0  0  0  0
 15 23  1  0  0  0  0
 15 16  1  0  0  0  0
 16 17  1  0  0  0  0
 16 38  1  0  0  0  0
 16 39  1  0  0  0  0
 17 18  1  0  0  0  0
 17 40  1  0  0  0  0
 17 41  1  0  0  0  0
 18 19  1  0  0  0  0
 18 22  1  0  0  0  0
 19 20  1  0  0  0  0
 19 21  2  0  0  0  0
 20 42  1  0  0  0  0
 20 43  1  0  0  0  0
 20 44  1  0  0  0  0
 22 23  1  0  0  0  0
 22 45  1  0  0  0  0
 22 46  1  0  0  0  0
 23 47  1  0  0  0  0
 23 48  1  0  0  0  0
M  END
> <s_m_source_file>
AV-unprocessed.smi

> <i_m_source_file_index>
1050

> <i_lp_mmshare_version>
43012

> <i_f3d_flags>
0

> <s_epik_input>
W0NIM11PYzFbY0hdW2NIXWMoW05IXUMoPU8pW0NASF0oW0NIM10pT1tDSDNdKWMobjEpTjJbQ0gyXVtDSDJdTihDKD1PKVtDSDNdKVtDSDJdW0NIMl0y

> <s_epik_cmdline>
J2VwaWtfcHl0aG9uJywgJy1waCcsICc3LjAnLCAnLXRuJywgJzgnLCAnLW1hJywgJzIwMCcsICctbWV0YWxfYmluZGluZycsICctaW1hZScsICc8aW5maWxlLm1hZT4nLCAnLW9tYWUnLCAnPG91dGZpbGUubWFlPic=

> <r_lp_tautomer_probability>
1

> <r_epik_Ionization_Penalty>
0.000150604

> <r_epik_Ionization_Penalty_Charging>
0

> <r_epik_Ionization_Penalty_Neutral>
0.000150604

> <r_epik_State_Penalty>
-0

> <r_epik_Charging_Adjusted_Penalty>
0

> <i_epik_Tot_Q>
0

> <i_epik_Tot_abs_Q>
0

> <r_epik_Metal_State_Penalty>
-0

> <b_epik_Metal_Only>
0

> <s_lp_Force_Field>
OPLS_2005

> <r_lp_Energy>
41.1233

> <b_lp_Chiralities_Consistent>
1

> <s_lp_Variant>
AV-unprocessed.smi:1050-1

> <Gold.Version>
5.8.1

> <Gold.Id.Protein>
6NUR|6NUR_protein|mol2

> <Gold.PLP.Fitness>
38.1689

> <Gold.PLP.PLP>
-36.0687

> <Gold.PLP.part.hbond>
-0.9932

> <Gold.PLP.part.metal>
0.0000

> <Gold.PLP.part.buried>
-5.1916

> <Gold.PLP.part.nonpolar>
-30.3927

> <Gold.PLP.part.repulsive>
0.6642

> <Gold.PLP.ligand.clash>
0.0000

> <Gold.PLP.ligand.torsion>
0.6218

> <Gold.PLP.Chemscore.Hbond>
1.0000

> <Gold.PLP.Chemscore.CHOScore>
0.0000

> <Gold.PLP.Chemscore.Metal>
0.0000

> <Gold.Chemscore.Hbonds>
donor molecule, donor type, donor heavy atom, donor atom, acceptor molecule, acceptor atom, score
      P1  H  7997  8009       L1     9  1.00

> <Gold.PLP.Chemscore.Internal.Correction>
0.3437

> <Gold.Rescore>
     Score         DG    S(hbond)    S(metal)    S(lipo)     H(rot)  DE(clash)    DE(int)     intcor
     10.80     -12.65       0.98        0.00      70.83       1.71       0.15       1.70       ----

> <Gold.Chemscore.Fitness>
10.8014

> <Gold.Chemscore.DG>
-12.6482

> <Gold.Chemscore.ZeroCoef>
-5.4800

> <Gold.Chemscore.Hbond>
0.9761

> <Gold.Chemscore.Metal>
0.0000

> <Gold.Chemscore.Lipo>
70.8292

> <Gold.Chemscore.Internal_Hbond>
0.0000

> <Gold.Chemscore.DEClash>
0.1458

> <Gold.Chemscore.DEInternal>
1.7010

> <Gold.Chemscore.Rot>
1.7106

> <Gold.Chemscore.Internal.Correction>
   9.000000E+99

> <Gold.Chemscore.Hbonds>
donor molecule, donor type, donor heavy atom, donor atom, acceptor molecule, acceptor atom, score
      P1  H  7997  8009       L1     9  0.91

> <Gold.Chemscore.Hbond.Weighted>
-3.2602

> <Gold.Chemscore.Metal.Weighted>
-0.0000

> <Gold.Chemscore.Lipo.Weighted>
-8.2870

> <Gold.Chemscore.Internal_Hbond.Weighted>
0.0000

> <Gold.Chemscore.DEClash.Weighted>
0.1458

> <Gold.Chemscore.DEInternal.Weighted>
1.7010

> <Gold.Chemscore.Rot.Weighted>
4.3790

> <Gold.Chemscore.Internal.Correction.Weighted>
   9.000000E+99

> <Gold.Protein.RotatedTorsions>
[ 6907 6896 6895 6894 ] final  -56.29 input  -60.11 | X-H torsion
[ 7974 7965 7964 7962 ] final  -18.07 input  175.53 | X-H torsion
[ 8008 7997 7996 7995 ] final -169.24 input   59.86 | X-H torsion
[ 10167 10162 10161 10158 ] final -113.28 input  -65.29 | X-H torsion
[ 10718 10713 10712 10709 ] final  111.23 input   66.30 | X-H torsion
[ 10763 10752 10751 10750 ] final -105.69 input  -60.55 | X-H torsion
[ 11005 11000 10999 10996 ] final  -43.21 input  -57.11 | X-H torsion

> <Gold.Protein.ActiveResidues>
 VAL166  LYS551  ARG553  GLY616  TRP617  ASP618  TYR619  PRO620  LYS621  CYS622 
 ASP623  PHE694  ASN695  SER759  ASP760  ASP761  ALA762  ILE779  LEU786  VAL792 
 PHE793  MET794  SER795  GLU796  ALA797  LYS798  CYS799  TRP800  GLU811  SER814 

> <Gold.Protein.RotatedAtoms>
  150.8180  134.7373  159.6746 H   0  0  0  0  0  0  0  0  0  0  0  0  # atno 6907 bound_to 6896
  152.4298  134.5797  159.9954 H   0  0  0  0  0  0  0  0  0  0  0  0  # atno 6908 bound_to 6896
  151.5988  133.3321  159.3079 H   0  0  0  0  0  0  0  0  0  0  0  0  # atno 6909 bound_to 6896
  146.1910  140.3869  142.8458 H   0  0  0  0  0  0  0  0  0  0  0  0  # atno 7974 bound_to 7965
  155.9023  140.1043  157.1341 H   0  0  0  0  0  0  0  0  0  0  0  0  # atno 8008 bound_to 7997
  154.4028  140.1290  156.4515 H   0  0  0  0  0  0  0  0  0  0  0  0  # atno 8009 bound_to 7997
  155.7409  140.3467  155.5106 H   0  0  0  0  0  0  0  0  0  0  0  0  # atno 8010 bound_to 7997
  140.1136  143.4505  152.1736 H   0  0  0  0  0  0  0  0  0  0  0  0  # atno 10167 bound_to 10162
  157.6455  131.0947  150.6718 H   0  0  0  0  0  0  0  0  0  0  0  0  # atno 10718 bound_to 10713
  154.7963  135.4739  154.0170 H   0  0  0  0  0  0  0  0  0  0  0  0  # atno 10763 bound_to 10752
  153.1709  135.6825  153.8616 H   0  0  0  0  0  0  0  0  0  0  0  0  # atno 10764 bound_to 10752
  153.8198  135.3206  155.3387 H   0  0  0  0  0  0  0  0  0  0  0  0  # atno 10765 bound_to 10752
  141.0368  133.6796  156.2701 H   0  0  0  0  0  0  0  0  0  0  0  0  # atno 11005 bound_to 11000
  144.8487  140.6968  143.6182 LP  0  0  0  0  0  0  0  0  0  0  0  0  # atno 17320 bound_to 7965
  145.3792  139.1640  143.4290 LP  0  0  0  0  0  0  0  0  0  0  0  0  # atno 17321 bound_to 7965
  139.5606  144.7403  151.4167 LP  0  0  0  0  0  0  0  0  0  0  0  0  # atno 17342 bound_to 10162
  140.6912  143.7858  150.7258 LP  0  0  0  0  0  0  0  0  0  0  0  0  # atno 17343 bound_to 10162
  156.7036  130.4630  149.5566 LP  0  0  0  0  0  0  0  0  0  0  0  0  # atno 17370 bound_to 10713
  156.1778  130.6479  151.0915 LP  0  0  0  0  0  0  0  0  0  0  0  0  # atno 17371 bound_to 10713
  140.6307  134.5267  157.5559 LP  0  0  0  0  0  0  0  0  0  0  0  0  # atno 17394 bound_to 11000
  139.9247  134.8080  156.1106 LP  0  0  0  0  0  0  0  0  0  0  0  0  # atno 17395 bound_to 11000

$$$$
