#       Name:                AV-unprocessed.smi:1084
#       Creating user name   scv26
#       Creation time:       Fri Mar 27 03:24:39 2020


#       File generated by GOLD software.
#

@<TRIPOS>MOLECULE
AV-unprocessed.smi:1084
    61    63     1
SMALL
NO_CHARGES


@<TRIPOS>ATOM
      1 ****        -3.0111  -0.8551  -1.7506 C.3            1 S1                 0.0000
      2 ****        -2.7724  -2.3547  -1.4601 C.3            1 S1                 0.0000
      3 ****        -1.2653  -2.6300  -1.1986 C.3            1 S1                 0.0000
      4 ****        -0.7219  -1.8337  -0.1003 N.am           1 S1                 0.0000
      5 ****         0.1026  -0.7839  -0.2292 C.2            1 S1                 0.0000
      6 ****         0.4851  -0.3540  -1.3164 O.2            1 S1                 0.0000
      7 ****         0.4380  -0.2876   0.9742 N.am           1 S1                 0.0000
      8 ****         1.2662   0.8223   1.3002 C.ar           1 S1                 0.0000
      9 ****         1.8285   1.7235   0.3652 C.ar           1 S1                 0.0000
     10 ****         2.6231   2.7872   0.8354 C.ar           1 S1                 0.0000
     11 ****         2.8389   2.9314   2.2261 C.ar           1 S1                 0.0000
     12 ****         3.6286   3.9937   2.7175 N.3            1 S1                 0.0000
     13 ****         3.6084   4.2534   4.1560 C.3            1 S1                 0.0000
     14 ****         4.2803   5.6012   4.4674 C.3            1 S1                 0.0000
     15 ****         5.5972   5.6152   3.9269 O.3            1 S1                 0.0000
     16 ****         5.5887   5.4717   2.5104 C.3            1 S1                 0.0000
     17 ****         4.9573   4.1225   2.1244 C.3            1 S1                 0.0000
     18 ****         2.2921   2.0708   3.1188 N.ar           1 S1                 0.0000
     19 ****         1.5336   1.0522   2.6645 C.ar           1 S1                 0.0000
     20 ****        -3.3530  -3.1881  -2.5650 N.4            1 S1                 1.0000
     21 ****        -2.7901  -4.5598  -2.7071 C.3            1 S1                 0.0000
     22 ****        -3.4323  -5.3026  -3.8917 C.3            1 S1                 0.0000
     23 ****        -4.8413  -5.3508  -3.7252 O.3            1 S1                 0.0000
     24 ****        -5.4054  -4.0482  -3.6991 C.3            1 S1                 0.0000
     25 ****        -4.8387  -3.2679  -2.5018 C.3            1 S1                 0.0000
     26 ****        -2.6680  -0.2244  -0.9312 H              1 S1                 0.0000
     27 ****        -4.0633  -0.6132  -1.8871 H              1 S1                 0.0000
     28 ****        -2.4812  -0.5413  -2.6503 H              1 S1                 0.0000
     29 ****        -3.3030  -2.6123  -0.5418 H              1 S1                 0.0000
     30 ****        -1.1114  -3.6664  -0.8987 H              1 S1                 0.0000
     31 ****        -0.6875  -2.4816  -2.1125 H              1 S1                 0.0000
     32 ****        -0.9833  -2.1146   0.8336 H              1 S1                 0.0000
     33 ****         0.0563  -0.7776   1.7701 H              1 S1                 0.0000
     34 ****         1.6663   1.6369  -0.6968 H              1 S1                 0.0000
     35 ****         3.0405   3.4873   0.1271 H              1 S1                 0.0000
     36 ****         2.5813   4.2693   4.5228 H              1 S1                 0.0000
     37 ****         4.1291   3.4482   4.6763 H              1 S1                 0.0000
     38 ****         3.6987   6.4298   4.0598 H              1 S1                 0.0000
     39 ****         4.3363   5.7522   5.5455 H              1 S1                 0.0000
     40 ****         5.0447   6.3000   2.0536 H              1 S1                 0.0000
     41 ****         6.6136   5.5241   2.1430 H              1 S1                 0.0000
     42 ****         5.5822   3.3035   2.4825 H              1 S1                 0.0000
     43 ****         4.9247   4.0444   1.0386 H              1 S1                 0.0000
     44 ****         1.1244   0.3980   3.4206 H              1 S1                 0.0000
     45 ****        -1.7171  -4.5241  -2.8921 H              1 S1                 0.0000
     46 ****        -2.9479  -5.1194  -1.7836 H              1 S1                 0.0000
     47 ****        -3.1815  -4.8178  -4.8367 H              1 S1                 0.0000
     48 ****        -3.0491  -6.3216  -3.9470 H              1 S1                 0.0000
     49 ****        -5.2048  -3.5280  -4.6371 H              1 S1                 0.0000
     50 ****        -6.4882  -4.1366  -3.6102 H              1 S1                 0.0000
     51 ****        -5.1378  -3.7552  -1.5724 H              1 S1                 0.0000
     52 ****        -5.2877  -2.2767  -2.4951 H              1 S1                 0.0000
     53 ****        -3.1216  -2.7108  -3.4248 H              1 S1                 0.0000
     54 ****         0.1804  -0.7916  -2.1623 LP             1 S1                 0.0000
     55 ****         1.1007   0.4331  -1.3542 LP             1 S1                 0.0000
     56 ****         3.0984   4.7603   2.3552 LP             1 S1                 0.0000
     57 ****         6.1188   4.8609   4.3256 LP             1 S1                 0.0000
     58 ****         6.0343   6.4834   4.1617 LP             1 S1                 0.0000
     59 ****         2.4485   2.1891   4.0994 LP             1 S1                 0.0000
     60 ****        -5.0514  -5.8135  -2.8639 LP             1 S1                 0.0000
     61 ****        -5.2413  -5.8633  -4.4850 LP             1 S1                 0.0000
@<TRIPOS>BOND
    1    1    2 1     
    2    1   26 1     
    3    1   27 1     
    4    1   28 1     
    5    2    3 1     
    6    2   20 1     
    7    2   29 1     
    8    3    4 1     
    9    3   30 1     
   10    3   31 1     
   11    4    5 am    
   12    4   32 1     
   13    5    6 2     
   14    5    7 am    
   15    7    8 1     
   16    7   33 1     
   17    8   19 ar    
   18    8    9 ar    
   19    9   10 ar    
   20    9   34 1     
   21   10   11 ar    
   22   10   35 1     
   23   11   12 1     
   24   11   18 ar    
   25   12   17 1     
   26   12   13 1     
   27   13   14 1     
   28   13   36 1     
   29   13   37 1     
   30   14   15 1     
   31   14   38 1     
   32   14   39 1     
   33   15   16 1     
   34   16   17 1     
   35   16   40 1     
   36   16   41 1     
   37   17   42 1     
   38   17   43 1     
   39   18   19 ar    
   40   19   44 1     
   41   20   25 1     
   42   20   21 1     
   43   20   53 1     
   44   21   22 1     
   45   21   45 1     
   46   21   46 1     
   47   22   23 1     
   48   22   47 1     
   49   22   48 1     
   50   23   24 1     
   51   24   25 1     
   52   24   49 1     
   53   24   50 1     
   54   25   51 1     
   55   25   52 1     
   56    6   54 1     
   57    6   55 1     
   58   12   56 1     
   59   15   57 1     
   60   15   58 1     
   61   18   59 1     
   62   23   60 1     
   63   23   61 1     
@<TRIPOS>SUBSTRUCTURE
      1 S1             1
@<TRIPOS>SET
LONE_PAIRS      STATIC     ATOMS    <user>   **** ""
8 54 55 56 57 58 59 60 61
DONOR_HYDROGENS      STATIC     ATOMS    <user>   **** ""
3 32 33 53
ATOM$BLUE        STATIC     ATOMS    COLORGROUP SYSTEM
8 54 55 56 57 58 59 60 61
ATOM$RED        STATIC     ATOMS    COLORGROUP SYSTEM
3 32 33 53
