#       Name:                AV-unprocessed.smi:1539
#       Creating user name   scv26
#       Creation time:       Fri Mar 27 06:36:21 2020


#       File generated by GOLD software.
#

@<TRIPOS>MOLECULE
AV-unprocessed.smi:1539
    46    47     1
SMALL
NO_CHARGES


@<TRIPOS>ATOM
      1 ****        -2.3282   1.5056   2.7075 C.3            1 S1                 0.0000
      2 ****        -2.8084   0.1932   2.0832 C.2            1 S1                 0.0000
      3 ****        -2.6420  -0.8475   2.7198 O.2            1 S1                 0.0000
      4 ****        -3.3844   0.2139   0.8561 N.am           1 S1                 0.0000
      5 ****        -3.8084  -1.0239   0.1843 C.3            1 S1                 0.0000
      6 ****        -2.6464  -1.6643  -0.6047 C.3            1 S1                 0.0000
      7 ****        -2.0413  -0.7326  -1.6785 C.3            1 S1                 0.0000
      8 ****        -1.4712   0.4889  -1.0784 N.am           1 S1                 0.0000
      9 ****        -0.2253   0.5863  -0.5452 C.2            1 S1                 0.0000
     10 ****         0.2168   1.6192  -0.0398 O.2            1 S1                 0.0000
     11 ****         0.4962  -0.5475  -0.5909 N.am           1 S1                 0.0000
     12 ****         1.8417  -0.7060  -0.0531 C.3            1 S1                 0.0000
     13 ****         2.9017  -0.1355  -1.0093 C.3            1 S1                 0.0000
     14 ****         4.2488  -0.2436  -0.4482 N.pl3          1 S1                 0.0000
     15 ****         4.8851   0.6639   0.3589 C.2            1 S1                 0.0000
     16 ****         6.1207   0.1392   0.6379 C.2            1 S1                 0.0000
     17 ****         6.1859  -1.0653  -0.0102 N.pl3          1 S1                 1.0000
     18 ****         5.0454  -1.2972  -0.6690 C.2            1 S1                 0.0000
     19 ****        -2.4233   1.6136  -1.0236 C.3            1 S1                 0.0000
     20 ****        -3.5458   1.4259   0.0331 C.3            1 S1                 0.0000
     21 ****        -1.6560   2.0376   2.0341 H              1 S1                 0.0000
     22 ****        -1.7852   1.3139   3.6335 H              1 S1                 0.0000
     23 ****        -3.1745   2.1505   2.9445 H              1 S1                 0.0000
     24 ****        -4.2031  -1.7395   0.9074 H              1 S1                 0.0000
     25 ****        -4.6382  -0.8238  -0.4944 H              1 S1                 0.0000
     26 ****        -1.8686  -1.9884   0.0876 H              1 S1                 0.0000
     27 ****        -3.0090  -2.5716  -1.0885 H              1 S1                 0.0000
     28 ****        -1.2930  -1.2682  -2.2643 H              1 S1                 0.0000
     29 ****        -2.8175  -0.4697  -2.3983 H              1 S1                 0.0000
     30 ****         0.0701  -1.3615  -1.0101 H              1 S1                 0.0000
     31 ****         1.9087  -0.2267   0.9252 H              1 S1                 0.0000
     32 ****         2.0192  -1.7693   0.1106 H              1 S1                 0.0000
     33 ****         2.8832  -0.6568  -1.9676 H              1 S1                 0.0000
     34 ****         2.7159   0.9198  -1.2142 H              1 S1                 0.0000
     35 ****         4.4223   1.5909   0.6667 H              1 S1                 0.0000
     36 ****         6.9367   0.5227   1.2334 H              1 S1                 0.0000
     37 ****         4.8146  -2.1645  -1.2619 H              1 S1                 0.0000
     38 ****        -1.9149   2.5594  -0.8319 H              1 S1                 0.0000
     39 ****        -2.8718   1.7498  -2.0085 H              1 S1                 0.0000
     40 ****        -4.5056   1.3755  -0.4823 H              1 S1                 0.0000
     41 ****        -3.6320   2.3252   0.6424 H              1 S1                 0.0000
     42 ****         6.9811  -1.6917   0.0053 H              1 S1                 0.0000
     43 ****        -2.2038  -0.8194   3.6183 LP             1 S1                 0.0000
     44 ****        -2.9451  -1.7208   2.3384 LP             1 S1                 0.0000
     45 ****        -0.3500   2.4424  -0.0076 LP             1 S1                 0.0000
     46 ****         1.1425   1.6344   0.3383 LP             1 S1                 0.0000
@<TRIPOS>BOND
    1    1    2 1     
    2    1   21 1     
    3    1   22 1     
    4    1   23 1     
    5    2    3 2     
    6    2    4 am    
    7    4   20 1     
    8    4    5 1     
    9    5    6 1     
   10    5   24 1     
   11    5   25 1     
   12    6    7 1     
   13    6   26 1     
   14    6   27 1     
   15    7    8 1     
   16    7   28 1     
   17    7   29 1     
   18    8    9 am    
   19    8   19 1     
   20    9   10 2     
   21    9   11 am    
   22   11   12 1     
   23   11   30 1     
   24   12   13 1     
   25   12   31 1     
   26   12   32 1     
   27   13   14 1     
   28   13   33 1     
   29   13   34 1     
   30   14   18 1     
   31   14   15 1     
   32   15   16 2     
   33   15   35 1     
   34   16   17 1     
   35   16   36 1     
   36   17   18 2     
   37   17   42 1     
   38   18   37 1     
   39   19   20 1     
   40   19   38 1     
   41   19   39 1     
   42   20   40 1     
   43   20   41 1     
   44    3   43 1     
   45    3   44 1     
   46   10   45 1     
   47   10   46 1     
@<TRIPOS>SUBSTRUCTURE
      1 S1             1
@<TRIPOS>SET
LONE_PAIRS      STATIC     ATOMS    <user>   **** ""
4 43 44 45 46
DONOR_HYDROGENS      STATIC     ATOMS    <user>   **** ""
2 30 42
ATOM$BLUE        STATIC     ATOMS    COLORGROUP SYSTEM
4 43 44 45 46
ATOM$RED        STATIC     ATOMS    COLORGROUP SYSTEM
2 30 42
