AV-unprocessed.smi:898|AV-procd|sdf|4085|dock1
  -GOLD-   22720 1573D 1   1.00000     0.00000
 Structure written by MMmdl.
 33 35  0  0  0  0  0  0  0  0  2 V2000
  152.1705  139.6812  159.0460 O   0  0  0  0  0  0  0  0  0  0  0  0
  152.2404  140.4701  158.1007 C   0  0  0  0  0  0  0  0  0  0  0  0
  152.4174  140.1473  156.7992 N   0  5  0  0  0  0  0  0  0  0  0  0
  151.4116  140.3116  155.9241 C   0  0  0  0  0  0  0  0  0  0  0  0
  151.1936  139.4597  154.9124 N   0  0  0  0  0  0  0  0  0  0  0  0
  150.1041  139.8118  154.1292 N   0  0  0  0  0  0  0  0  0  0  0  0
  149.5081  140.9236  154.5662 C   0  0  0  0  0  0  0  0  0  0  0  0
  148.3145  141.5094  153.8894 C   0  0  0  0  0  0  0  0  0  0  0  0
  147.0501  141.7972  154.6659 C   0  0  0  0  0  0  0  0  0  0  0  0
  147.0652  140.6925  153.6405 C   0  0  0  0  0  0  0  0  0  0  0  0
  150.2425  141.6293  155.9971 S   0  0  0  0  0  0  0  0  0  0  0  0
  152.1380  141.7892  158.3191 N   0  0  0  0  0  0  0  0  0  0  0  0
  151.9509  142.4379  159.6145 C   0  0  2  0  0  0  0  0  0  0  0  0
  151.9862  143.9725  159.4559 C   0  0  0  0  0  0  0  0  0  0  0  0
  151.7415  144.7091  160.7827 C   0  0  0  0  0  0  0  0  0  0  0  0
  152.8046  144.3786  161.8394 C   0  0  0  0  0  0  0  0  0  0  0  0
  152.7904  142.6139  162.2555 S   0  0  0  0  0  0  0  0  0  0  0  0
  153.0337  141.9409  160.5879 C   0  0  0  0  0  0  0  0  0  0  0  0
  148.6173  142.2223  153.1250 H   0  0  0  0  0  0  0  0  0  0  0  0
  147.0261  141.5089  155.7150 H   0  0  0  0  0  0  0  0  0  0  0  0
  146.5061  142.7066  154.4190 H   0  0  0  0  0  0  0  0  0  0  0  0
  146.5321  140.8648  152.7079 H   0  0  0  0  0  0  0  0  0  0  0  0
  147.0355  139.6699  154.0117 H   0  0  0  0  0  0  0  0  0  0  0  0
  152.1999  142.3939  157.5131 H   0  0  0  0  0  0  0  0  0  0  0  0
  150.9787  142.1438  160.0148 H   0  0  0  0  0  0  0  0  0  0  0  0
  152.9453  144.2806  159.0374 H   0  0  0  0  0  0  0  0  0  0  0  0
  151.2276  144.2857  158.7376 H   0  0  0  0  0  0  0  0  0  0  0  0
  151.7380  145.7840  160.6005 H   0  0  0  0  0  0  0  0  0  0  0  0
  150.7509  144.4609  161.1654 H   0  0  0  0  0  0  0  0  0  0  0  0
  153.7971  144.6511  161.4790 H   0  0  0  0  0  0  0  0  0  0  0  0
  152.6249  144.9531  162.7483 H   0  0  0  0  0  0  0  0  0  0  0  0
  153.0160  140.8525  160.6534 H   0  0  0  0  0  0  0  0  0  0  0  0
  154.0260  142.2238  160.2346 H   0  0  0  0  0  0  0  0  0  0  0  0
  1  2  2  0  0  0  0
  2  3  1  0  0  0  0
  2 12  1  0  0  0  0
  3  4  1  0  0  0  0
  4 11  1  0  0  0  0
  4  5  2  0  0  0  0
  5  6  1  0  0  0  0
  6  7  2  0  0  0  0
  7  8  1  0  0  0  0
  7 11  1  0  0  0  0
  8 10  1  0  0  0  0
  8  9  1  0  0  0  0
  8 19  1  0  0  0  0
  9 10  1  0  0  0  0
  9 20  1  0  0  0  0
  9 21  1  0  0  0  0
 10 22  1  0  0  0  0
 10 23  1  0  0  0  0
 12 13  1  0  0  0  0
 12 24  1  0  0  0  0
 13 18  1  0  0  0  0
 13 14  1  0  0  0  0
 13 25  1  0  0  0  0
 14 15  1  0  0  0  0
 14 26  1  0  0  0  0
 14 27  1  0  0  0  0
 15 16  1  0  0  0  0
 15 28  1  0  0  0  0
 15 29  1  0  0  0  0
 16 17  1  0  0  0  0
 16 30  1  0  0  0  0
 16 31  1  0  0  0  0
 17 18  1  0  0  0  0
 18 32  1  0  0  0  0
 18 33  1  0  0  0  0
M  CHG  1   3  -1
M  END
> <s_m_source_file>
AV-unprocessed.smi

> <i_m_source_file_index>
898

> <i_lp_mmshare_version>
43012

> <i_f3d_flags>
0

> <s_epik_input>
W0NIMl0xU1tDSDJdW0NIMl1bQ0gyXVtDQEhdMVtOSF1DKD1PKVtOSF1jMm5uYyhzMilbQ0hdM1tDSDJdW0NIMl0z

> <s_epik_cmdline>
J2VwaWtfcHl0aG9uJywgJy1waCcsICc3LjAnLCAnLXRuJywgJzgnLCAnLW1hJywgJzIwMCcsICctbWV0YWxfYmluZGluZycsICctaW1hZScsICc8aW5maWxlLm1hZT4nLCAnLW9tYWUnLCAnPG91dGZpbGUubWFlPic=

> <r_lp_tautomer_probability>
1

> <r_epik_Ionization_Penalty>
4.71411

> <r_epik_Ionization_Penalty_Charging>
4.5615

> <r_epik_Ionization_Penalty_Neutral>
0.152604

> <r_epik_State_Penalty>
4.56123

> <r_epik_Charging_Adjusted_Penalty>
9.12273

> <i_epik_Tot_Q>
-1

> <i_epik_Tot_abs_Q>
1

> <r_epik_Metal_State_Penalty>
0.850765

> <b_epik_Metal_Only>
1

> <s_lp_Force_Field>
OPLS_2005

> <r_lp_Energy>
0.497958

> <b_lp_Chiralities_Consistent>
1

> <s_lp_Variant>
AV-unprocessed.smi:898-3

> <Gold.Version>
5.8.1

> <Gold.Id.Protein>
6NUR|6NUR_protein|mol2

> <Gold.PLP.Fitness>
44.2858

> <Gold.PLP.PLP>
-40.0805

> <Gold.PLP.part.hbond>
-3.0000

> <Gold.PLP.part.metal>
0.0000

> <Gold.PLP.part.buried>
-3.0058

> <Gold.PLP.part.nonpolar>
-33.7319

> <Gold.PLP.part.repulsive>
1.2168

> <Gold.PLP.ligand.clash>
0.0000

> <Gold.PLP.ligand.torsion>
1.0181

> <Gold.PLP.Chemscore.Hbond>
2.0000

> <Gold.PLP.Chemscore.CHOScore>
0.0000

> <Gold.PLP.Chemscore.Metal>
0.0000

> <Gold.Chemscore.Hbonds>
donor molecule, donor type, donor heavy atom, donor atom, acceptor molecule, acceptor atom, score
      P1  H  7997  8010       L1     3  2.00

> <Gold.PLP.Chemscore.Internal.Correction>
0.2414

> <Gold.Rescore>
     Score         DG    S(hbond)    S(metal)    S(lipo)     H(rot)  DE(clash)    DE(int)     intcor
     14.50     -16.14       0.89        0.00      91.86       1.19       0.01       1.62       ----

> <Gold.Chemscore.Fitness>
14.5030

> <Gold.Chemscore.DG>
-16.1388

> <Gold.Chemscore.ZeroCoef>
-5.4800

> <Gold.Chemscore.Hbond>
0.8863

> <Gold.Chemscore.Metal>
0.0000

> <Gold.Chemscore.Lipo>
91.8625

> <Gold.Chemscore.Internal_Hbond>
0.0000

> <Gold.Chemscore.DEClash>
0.0127

> <Gold.Chemscore.DEInternal>
1.6231

> <Gold.Chemscore.Rot>
1.1911

> <Gold.Chemscore.Internal.Correction>
   9.000000E+99

> <Gold.Chemscore.Hbonds>
donor molecule, donor type, donor heavy atom, donor atom, acceptor molecule, acceptor atom, score
      P1  H  7997  8010       L1     3  0.70

> <Gold.Chemscore.Hbond.Weighted>
-2.9601

> <Gold.Chemscore.Metal.Weighted>
-0.0000

> <Gold.Chemscore.Lipo.Weighted>
-10.7479

> <Gold.Chemscore.Internal_Hbond.Weighted>
0.0000

> <Gold.Chemscore.DEClash.Weighted>
0.0127

> <Gold.Chemscore.DEInternal.Weighted>
1.6231

> <Gold.Chemscore.Rot.Weighted>
3.0492

> <Gold.Chemscore.Internal.Correction.Weighted>
   9.000000E+99

> <Gold.Protein.RotatedTorsions>
[ 6907 6896 6895 6894 ] final   13.27 input  -60.11 | X-H torsion
[ 7974 7965 7964 7962 ] final -131.36 input  175.53 | X-H torsion
[ 8008 7997 7996 7995 ] final   77.55 input   59.86 | X-H torsion
[ 10167 10162 10161 10158 ] final  170.77 input  -65.29 | X-H torsion
[ 10718 10713 10712 10709 ] final  -41.59 input   66.30 | X-H torsion
[ 10763 10752 10751 10750 ] final -102.80 input  -60.55 | X-H torsion
[ 11005 11000 10999 10996 ] final  162.20 input  -57.11 | X-H torsion

> <Gold.Protein.ActiveResidues>
 VAL166  LYS551  ARG553  GLY616  TRP617  ASP618  TYR619  PRO620  LYS621  CYS622 
 ASP623  PHE694  ASN695  SER759  ASP760  ASP761  ALA762  ILE779  LEU786  VAL792 
 PHE793  MET794  SER795  GLU796  ALA797  LYS798  CYS799  TRP800  GLU811  SER814 

> <Gold.Protein.RotatedAtoms>
  151.7837  135.0754  160.0377 H   0  0  0  0  0  0  0  0  0  0  0  0  # atno 6907 bound_to 6896
  152.3205  133.5844  159.5750 H   0  0  0  0  0  0  0  0  0  0  0  0  # atno 6908 bound_to 6896
  150.7367  133.9934  159.3656 H   0  0  0  0  0  0  0  0  0  0  0  0  # atno 6909 bound_to 6896
  144.9387  140.7213  143.4860 H   0  0  0  0  0  0  0  0  0  0  0  0  # atno 7974 bound_to 7965
  155.8432  140.3461  155.5645 H   0  0  0  0  0  0  0  0  0  0  0  0  # atno 8008 bound_to 7997
  155.8118  140.0900  157.1919 H   0  0  0  0  0  0  0  0  0  0  0  0  # atno 8009 bound_to 7997
  154.4005  140.1446  156.3383 H   0  0  0  0  0  0  0  0  0  0  0  0  # atno 8010 bound_to 7997
  139.5028  144.3559  151.9874 H   0  0  0  0  0  0  0  0  0  0  0  0  # atno 10167 bound_to 10162
  156.2687  130.4204  149.8462 H   0  0  0  0  0  0  0  0  0  0  0  0  # atno 10718 bound_to 10713
  154.7760  135.4847  153.9746 H   0  0  0  0  0  0  0  0  0  0  0  0  # atno 10763 bound_to 10752
  153.1430  135.6776  153.9005 H   0  0  0  0  0  0  0  0  0  0  0  0  # atno 10764 bound_to 10752
  153.8673  135.3148  155.3419 H   0  0  0  0  0  0  0  0  0  0  0  0  # atno 10765 bound_to 10752
  140.2234  134.8179  157.3244 H   0  0  0  0  0  0  0  0  0  0  0  0  # atno 11005 bound_to 11000
  145.3026  139.1845  143.4682 LP  0  0  0  0  0  0  0  0  0  0  0  0  # atno 17320 bound_to 7965
  146.3277  140.3019  142.8621 LP  0  0  0  0  0  0  0  0  0  0  0  0  # atno 17321 bound_to 7965
  140.2996  144.3662  150.6064 LP  0  0  0  0  0  0  0  0  0  0  0  0  # atno 17342 bound_to 10162
  140.5884  143.2169  151.7300 LP  0  0  0  0  0  0  0  0  0  0  0  0  # atno 17343 bound_to 10162
  156.5951  130.8523  151.3418 LP  0  0  0  0  0  0  0  0  0  0  0  0  # atno 17370 bound_to 10713
  157.7276  130.9645  150.1707 LP  0  0  0  0  0  0  0  0  0  0  0  0  # atno 17371 bound_to 10713
  140.1826  134.4471  155.7763 LP  0  0  0  0  0  0  0  0  0  0  0  0  # atno 17394 bound_to 11000
  141.2222  133.6990  156.7893 LP  0  0  0  0  0  0  0  0  0  0  0  0  # atno 17395 bound_to 11000

$$$$
