#       Name:                AV-unprocessed.smi:69
#       Creating user name   scv26
#       Creation time:       Thu Mar 26 16:54:05 2020


#       File generated by GOLD software.
#

@<TRIPOS>MOLECULE
AV-unprocessed.smi:69
    43    45     1
SMALL
NO_CHARGES


@<TRIPOS>ATOM
      1 ****        -5.1904   0.2415   0.3682 N.pl3          1 S1                 0.0000
      2 ****        -3.8904   0.5098   0.1831 C.ar           1 S1                 0.0000
      3 ****        -3.5311   1.7844  -0.0963 N.ar           1 S1                 0.0000
      4 ****        -2.2405   2.0777  -0.2836 C.ar           1 S1                 0.0000
      5 ****        -1.1837   1.2624  -0.2376 N.ar           1 S1                 0.0000
      6 ****        -1.5453  -0.0235   0.0445 C.ar           1 S1                 0.0000
      7 ****        -2.8758  -0.4773   0.2666 C.ar           1 S1                 0.0000
      8 ****        -2.8741  -1.8402   0.5264 N.2            1 S1                 0.0000
      9 ****        -1.6117  -2.1685   0.4658 C.2            1 S1                 0.0000
     10 ****        -0.7410  -1.1402   0.1742 N.pl3          1 S1                 0.0000
     11 ****         0.7513  -1.2264   0.0645 C.3            1 S1                 0.0000
     12 ****         1.3087  -0.3473   0.9970 O.3            1 S1                 0.0000
     13 ****         2.0613   0.6747   0.3447 C.3            1 S1                 0.0000
     14 ****         3.2110   1.1716   1.2392 C.3            1 S1                 0.0000
     15 ****         2.7331   2.1356   2.1532 O.3            1 S1                 0.0000
     16 ****         2.4818   0.0219  -0.9782 C.3            1 S1                 0.0000
     17 ****         3.6413  -0.7761  -0.7941 O.3            1 S1                 0.0000
     18 ****         1.2511  -0.8089  -1.3273 C.3            1 S1                 0.0000
     19 ****         1.5784  -1.9027  -2.1646 O.3            1 S1                 0.0000
     20 ****         1.0074  -2.2517   0.3358 H              1 S1                 0.0000
     21 ****         1.4002   1.5084   0.1082 H              1 S1                 0.0000
     22 ****         2.6973   0.7653  -1.7465 H              1 S1                 0.0000
     23 ****         0.5104  -0.1784  -1.8194 H              1 S1                 0.0000
     24 ****        -5.4839  -0.7018   0.5781 H              1 S1                 0.0000
     25 ****        -5.8724   0.9832   0.3024 H              1 S1                 0.0000
     26 ****        -2.0230   3.1128  -0.5019 H              1 S1                 0.0000
     27 ****        -1.2784  -3.1821   0.6353 H              1 S1                 0.0000
     28 ****         3.6856   0.3477   1.7730 H              1 S1                 0.0000
     29 ****         3.9785   1.6523   0.6318 H              1 S1                 0.0000
     30 ****         3.4570   2.4308   2.6841 H              1 S1                 0.0000
     31 ****         3.7981  -1.2590  -1.5917 H              1 S1                 0.0000
     32 ****         0.7901  -2.3955  -2.3339 H              1 S1                 0.0000
     33 ****        -4.2256   2.5009  -0.1621 LP             1 S1                 0.0000
     34 ****        -0.2409   1.5582  -0.3913 LP             1 S1                 0.0000
     35 ****        -3.6570  -2.4328   0.7158 LP             1 S1                 0.0000
     36 ****         1.9120  -0.8584   1.6092 LP             1 S1                 0.0000
     37 ****         0.5746   0.0751   1.5286 LP             1 S1                 0.0000
     38 ****         2.0310   1.7279   2.7370 LP             1 S1                 0.0000
     39 ****         2.3433   2.9095   1.6540 LP             1 S1                 0.0000
     40 ****         3.4973  -1.4123  -0.0362 LP             1 S1                 0.0000
     41 ****         4.4266  -0.1906  -0.5932 LP             1 S1                 0.0000
     42 ****         2.2506  -2.4868  -1.7097 LP             1 S1                 0.0000
     43 ****         1.9580  -1.5664  -3.0265 LP             1 S1                 0.0000
@<TRIPOS>BOND
    1    1    2 1     
    2    1   24 1     
    3    1   25 1     
    4    2    7 ar    
    5    2    3 ar    
    6    3    4 ar    
    7    4    5 ar    
    8    4   26 1     
    9    5    6 ar    
   10    6   10 1     
   11    6    7 ar    
   12    7    8 1     
   13    8    9 2     
   14    9   10 1     
   15    9   27 1     
   16   10   11 1     
   17   11   20 1     
   18   11   18 1     
   19   11   12 1     
   20   12   13 1     
   21   13   21 1     
   22   13   14 1     
   23   13   16 1     
   24   14   15 1     
   25   14   28 1     
   26   14   29 1     
   27   15   30 1     
   28   16   22 1     
   29   16   17 1     
   30   16   18 1     
   31   17   31 1     
   32   18   23 1     
   33   18   19 1     
   34   19   32 1     
   35    3   33 1     
   36    5   34 1     
   37    8   35 1     
   38   12   36 1     
   39   12   37 1     
   40   15   38 1     
   41   15   39 1     
   42   17   40 1     
   43   17   41 1     
   44   19   42 1     
   45   19   43 1     
@<TRIPOS>SUBSTRUCTURE
      1 S1             1
@<TRIPOS>SET
LONE_PAIRS      STATIC     ATOMS    <user>   **** ""
11 33 34 35 36 37 38 39 40 41 42 43
DONOR_HYDROGENS      STATIC     ATOMS    <user>   **** ""
5 24 25 30 31 32
ATOM$BLUE        STATIC     ATOMS    COLORGROUP SYSTEM
11 33 34 35 36 37 38 39 40 41 42 43
ATOM$RED        STATIC     ATOMS    COLORGROUP SYSTEM
5 24 25 30 31 32
