AV-unprocessed.smi:3059|AV-procd|sdf|11677|dock4
  -GOLD-   2272017 83D 1   1.00000     0.00000
 Structure written by MMmdl.
 42 43  0  0  0  0  0  0  0  0  1 V2000
  149.9087  145.1744  159.7883 C   0  0  0  0  0  0  0  0  0  0  0  0
  150.9358  144.6932  158.7578 C   0  0  0  0  0  0  0  0  0  0  0  0
  151.5411  143.3734  159.1053 C   0  0  0  0  0  0  0  0  0  0  0  0
  151.4632  142.2032  158.3919 C   0  0  0  0  0  0  0  0  0  0  0  0
  152.1387  141.1353  158.9852 N   0  0  0  0  0  0  0  0  0  0  0  0
  152.7353  141.4791  160.1287 C   0  0  0  0  0  0  0  0  0  0  0  0
  153.4904  140.5169  160.9884 C   0  0  0  0  0  0  0  0  0  0  0  0
  153.4355  139.0590  160.4920 C   0  0  0  0  0  0  0  0  0  0  0  0
  154.1817  138.1365  161.3420 N   0  0  0  0  0  0  0  0  0  0  0  0
  154.2032  136.7990  161.2125 C   0  0  0  0  0  0  0  0  0  0  0  0
  153.5827  136.2153  160.3228 O   0  0  0  0  0  0  0  0  0  0  0  0
  154.9723  136.1576  162.1291 N   0  0  0  0  0  0  0  0  0  0  0  0
  155.4461  136.7438  163.3941 C   0  0  0  0  0  0  0  0  0  0  0  0
  154.3610  136.7199  164.4898 C   0  0  0  0  0  0  0  0  0  0  0  0
  153.4384  135.4810  164.4957 C   0  0  0  0  0  0  0  0  0  0  0  0
  154.1333  134.1355  164.2103 C   0  0  0  0  0  0  0  0  0  0  0  0
  154.3036  133.8339  162.7056 C   0  0  0  0  0  0  0  0  0  0  0  0
  155.3191  134.7375  161.9832 C   0  0  0  0  0  0  0  0  0  0  0  0
  152.4825  143.1653  160.5604 S   0  0  0  0  0  0  0  0  0  0  0  0
  149.4962  146.1424  159.5036 H   0  0  0  0  0  0  0  0  0  0  0  0
  150.3628  145.2826  160.7739 H   0  0  0  0  0  0  0  0  0  0  0  0
  149.0789  144.4725  159.8770 H   0  0  0  0  0  0  0  0  0  0  0  0
  150.4605  144.6256  157.7787 H   0  0  0  0  0  0  0  0  0  0  0  0
  151.7239  145.4405  158.6590 H   0  0  0  0  0  0  0  0  0  0  0  0
  150.9455  142.0394  157.4584 H   0  0  0  0  0  0  0  0  0  0  0  0
  154.5290  140.8460  161.0445 H   0  0  0  0  0  0  0  0  0  0  0  0
  153.0976  140.5756  162.0037 H   0  0  0  0  0  0  0  0  0  0  0  0
  152.4005  138.7301  160.3889 H   0  0  0  0  0  0  0  0  0  0  0  0
  153.8752  139.0025  159.4959 H   0  0  0  0  0  0  0  0  0  0  0  0
  154.7171  138.5433  162.0949 H   0  0  0  0  0  0  0  0  0  0  0  0
  156.3128  136.1921  163.7592 H   0  0  0  0  0  0  0  0  0  0  0  0
  155.8191  137.7589  163.2507 H   0  0  0  0  0  0  0  0  0  0  0  0
  154.8530  136.8059  165.4590 H   0  0  0  0  0  0  0  0  0  0  0  0
  153.7380  137.6102  164.3994 H   0  0  0  0  0  0  0  0  0  0  0  0
  152.9488  135.4311  165.4686 H   0  0  0  0  0  0  0  0  0  0  0  0
  152.6321  135.6187  163.7755 H   0  0  0  0  0  0  0  0  0  0  0  0
  155.0911  134.0802  164.7285 H   0  0  0  0  0  0  0  0  0  0  0  0
  153.5185  133.3425  164.6370 H   0  0  0  0  0  0  0  0  0  0  0  0
  154.6237  132.7980  162.5907 H   0  0  0  0  0  0  0  0  0  0  0  0
  153.3352  133.9003  162.2082 H   0  0  0  0  0  0  0  0  0  0  0  0
  155.3727  134.4553  160.9306 H   0  0  0  0  0  0  0  0  0  0  0  0
  156.3208  134.5451  162.3683 H   0  0  0  0  0  0  0  0  0  0  0  0
  1  2  1  0  0  0  0
  1 20  1  0  0  0  0
  1 21  1  0  0  0  0
  1 22  1  0  0  0  0
  2  3  1  0  0  0  0
  2 23  1  0  0  0  0
  2 24  1  0  0  0  0
  3 19  1  0  0  0  0
  3  4  2  0  0  0  0
  4  5  1  0  0  0  0
  4 25  1  0  0  0  0
  5  6  2  0  0  0  0
  6  7  1  0  0  0  0
  6 19  1  0  0  0  0
  7  8  1  0  0  0  0
  7 26  1  0  0  0  0
  7 27  1  0  0  0  0
  8  9  1  0  0  0  0
  8 28  1  0  0  0  0
  8 29  1  0  0  0  0
  9 10  1  0  0  0  0
  9 30  1  0  0  0  0
 10 11  2  0  0  0  0
 10 12  1  0  0  0  0
 12 18  1  0  0  0  0
 12 13  1  0  0  0  0
 13 14  1  0  0  0  0
 13 31  1  0  0  0  0
 13 32  1  0  0  0  0
 14 15  1  0  0  0  0
 14 33  1  0  0  0  0
 14 34  1  0  0  0  0
 15 16  1  0  0  0  0
 15 35  1  0  0  0  0
 15 36  1  0  0  0  0
 16 17  1  0  0  0  0
 16 37  1  0  0  0  0
 16 38  1  0  0  0  0
 17 18  1  0  0  0  0
 17 39  1  0  0  0  0
 17 40  1  0  0  0  0
 18 41  1  0  0  0  0
 18 42  1  0  0  0  0
M  END
> <s_m_source_file>
AV-unprocessed.smi

> <i_m_source_file_index>
3059

> <i_lp_mmshare_version>
43012

> <i_f3d_flags>
0

> <s_epik_input>
W0NIM11bQ0gyXWMxW2NIXW5jKHMxKVtDSDJdW0NIMl1bTkhdQyg9TylOMltDSDJdW0NIMl1bQ0gyXVtDSDJdW0NIMl1bQ0gyXTI=

> <s_epik_cmdline>
J2VwaWtfcHl0aG9uJywgJy1waCcsICc3LjAnLCAnLXRuJywgJzgnLCAnLW1hJywgJzIwMCcsICctbWV0YWxfYmluZGluZycsICctaW1hZScsICc8aW5maWxlLm1hZT4nLCAnLW9tYWUnLCAnPG91dGZpbGUubWFlPic=

> <r_epik_Ionization_Penalty>
0.000969859

> <r_epik_Ionization_Penalty_Charging>
0

> <r_epik_Ionization_Penalty_Neutral>
0.000969859

> <r_epik_State_Penalty>
0.000588571

> <r_epik_Charging_Adjusted_Penalty>
0.000588571

> <i_epik_Tot_Q>
0

> <i_epik_Tot_abs_Q>
0

> <r_epik_Metal_State_Penalty>
-0

> <b_epik_Metal_Only>
0

> <s_lp_Force_Field>
OPLS_2005

> <r_lp_Energy>
18.9175

> <b_lp_Chiralities_Consistent>
1

> <s_lp_Variant>
AV-unprocessed.smi:3059-1

> <Gold.Version>
5.8.1

> <Gold.Id.Protein>
6NUR|6NUR_protein|mol2

> <Gold.PLP.Fitness>
42.2975

> <Gold.PLP.PLP>
-39.5776

> <Gold.PLP.part.hbond>
-1.0000

> <Gold.PLP.part.metal>
0.0000

> <Gold.PLP.part.buried>
-4.4165

> <Gold.PLP.part.nonpolar>
-33.6916

> <Gold.PLP.part.repulsive>
0.0000

> <Gold.PLP.ligand.clash>
0.0000

> <Gold.PLP.ligand.torsion>
0.1520

> <Gold.PLP.Chemscore.Hbond>
1.0000

> <Gold.PLP.Chemscore.CHOScore>
0.0000

> <Gold.PLP.Chemscore.Metal>
0.0000

> <Gold.Chemscore.Hbonds>
donor molecule, donor type, donor heavy atom, donor atom, acceptor molecule, acceptor atom, score
      P1  H  6896  6908       L1    11  1.00

> <Gold.PLP.Chemscore.Internal.Correction>
0.0240

> <Gold.Rescore>
     Score         DG    S(hbond)    S(metal)    S(lipo)     H(rot)  DE(clash)    DE(int)     intcor
     19.47     -19.83       1.00        0.00     123.82       1.35       0.20       0.16       ----

> <Gold.Chemscore.Fitness>
19.4706

> <Gold.Chemscore.DG>
-19.8282

> <Gold.Chemscore.ZeroCoef>
-5.4800

> <Gold.Chemscore.Hbond>
0.9966

> <Gold.Chemscore.Metal>
0.0000

> <Gold.Chemscore.Lipo>
123.8244

> <Gold.Chemscore.Internal_Hbond>
0.0000

> <Gold.Chemscore.DEClash>
0.1988

> <Gold.Chemscore.DEInternal>
0.1589

> <Gold.Chemscore.Rot>
1.3546

> <Gold.Chemscore.Internal.Correction>
   9.000000E+99

> <Gold.Chemscore.Hbonds>
donor molecule, donor type, donor heavy atom, donor atom, acceptor molecule, acceptor atom, score
      P1  H  6896  6908       L1    11  1.00

> <Gold.Chemscore.Hbond.Weighted>
-3.3286

> <Gold.Chemscore.Metal.Weighted>
-0.0000

> <Gold.Chemscore.Lipo.Weighted>
-14.4875

> <Gold.Chemscore.Internal_Hbond.Weighted>
0.0000

> <Gold.Chemscore.DEClash.Weighted>
0.1988

> <Gold.Chemscore.DEInternal.Weighted>
0.1589

> <Gold.Chemscore.Rot.Weighted>
3.4678

> <Gold.Chemscore.Internal.Correction.Weighted>
   9.000000E+99

> <Gold.Protein.RotatedTorsions>
[ 6907 6896 6895 6894 ] final  -75.06 input  -60.11 | X-H torsion
[ 7974 7965 7964 7962 ] final   21.00 input  175.53 | X-H torsion
[ 8008 7997 7996 7995 ] final -129.56 input   59.86 | X-H torsion
[ 10167 10162 10161 10158 ] final -137.75 input  -65.29 | X-H torsion
[ 10718 10713 10712 10709 ] final  106.21 input   66.30 | X-H torsion
[ 10763 10752 10751 10750 ] final -145.21 input  -60.55 | X-H torsion
[ 11005 11000 10999 10996 ] final  117.84 input  -57.11 | X-H torsion

> <Gold.Protein.ActiveResidues>
 VAL166  LYS551  ARG553  GLY616  TRP617  ASP618  TYR619  PRO620  LYS621  CYS622 
 ASP623  PHE694  ASN695  SER759  ASP760  ASP761  ALA762  ILE779  LEU786  VAL792 
 PHE793  MET794  SER795  GLU796  ALA797  LYS798  CYS799  TRP800  GLU811  SER814 

> <Gold.Protein.RotatedAtoms>
  150.7071  134.4776  159.5454 H   0  0  0  0  0  0  0  0  0  0  0  0  # atno 6907 bound_to 6896
  152.2420  134.8216  160.0468 H   0  0  0  0  0  0  0  0  0  0  0  0  # atno 6908 bound_to 6896
  151.8994  133.3499  159.3862 H   0  0  0  0  0  0  0  0  0  0  0  0  # atno 6909 bound_to 6896
  146.2089  139.8089  142.8704 H   0  0  0  0  0  0  0  0  0  0  0  0  # atno 7974 bound_to 7965
  155.2812  140.0444  157.3015 H   0  0  0  0  0  0  0  0  0  0  0  0  # atno 8008 bound_to 7997
  154.5595  140.2342  155.8325 H   0  0  0  0  0  0  0  0  0  0  0  0  # atno 8009 bound_to 7997
  156.2036  140.3019  155.9585 H   0  0  0  0  0  0  0  0  0  0  0  0  # atno 8010 bound_to 7997
  139.8546  143.7154  152.2655 H   0  0  0  0  0  0  0  0  0  0  0  0  # atno 10167 bound_to 10162
  157.6677  131.0845  150.5973 H   0  0  0  0  0  0  0  0  0  0  0  0  # atno 10718 bound_to 10713
  154.8394  135.3419  154.6468 H   0  0  0  0  0  0  0  0  0  0  0  0  # atno 10763 bound_to 10752
  153.7080  135.6965  153.5049 H   0  0  0  0  0  0  0  0  0  0  0  0  # atno 10764 bound_to 10752
  153.2473  135.4365  155.0715 H   0  0  0  0  0  0  0  0  0  0  0  0  # atno 10765 bound_to 10752
  139.9088  134.9614  156.7411 H   0  0  0  0  0  0  0  0  0  0  0  0  # atno 11005 bound_to 11000
  145.3217  141.0245  143.3496 LP  0  0  0  0  0  0  0  0  0  0  0  0  # atno 17320 bound_to 7965
  144.8862  139.4836  143.6699 LP  0  0  0  0  0  0  0  0  0  0  0  0  # atno 17321 bound_to 7965
  139.7432  144.7554  151.0620 LP  0  0  0  0  0  0  0  0  0  0  0  0  # atno 17342 bound_to 10162
  140.7783  143.4948  150.9847 LP  0  0  0  0  0  0  0  0  0  0  0  0  # atno 17343 bound_to 10162
  156.6273  130.4422  149.5800 LP  0  0  0  0  0  0  0  0  0  0  0  0  # atno 17370 bound_to 10713
  156.2309  130.6794  151.1462 LP  0  0  0  0  0  0  0  0  0  0  0  0  # atno 17371 bound_to 10713
  140.6848  133.9442  155.7931 LP  0  0  0  0  0  0  0  0  0  0  0  0  # atno 17394 bound_to 11000
  141.0484  134.0521  157.3815 LP  0  0  0  0  0  0  0  0  0  0  0  0  # atno 17395 bound_to 11000

$$$$
