AV-unprocessed.smi:1888|AV-procd|sdf|7658|dock3
  -GOLD-   22720 9393D 1   1.00000     0.00000
 Structure written by MMmdl.
 43 45  0  0  0  0  0  0  0  0  2 V2000
  148.6758  126.7177  151.6293 C   0  0  0  0  0  0  0  0  0  0  0  0
  147.9795  127.6980  150.6827 C   0  0  0  0  0  0  0  0  0  0  0  0
  147.0965  128.5133  151.4339 O   0  0  0  0  0  0  0  0  0  0  0  0
  147.7731  129.5238  152.1622 C   0  0  0  0  0  0  0  0  0  0  0  0
  146.7355  130.4926  152.7433 C   0  0  0  0  0  0  0  0  0  0  0  0
  147.3626  131.6723  153.3298 N   0  0  0  0  0  0  0  0  0  0  0  0
  147.0936  132.9749  153.0586 C   0  0  0  0  0  0  0  0  0  0  0  0
  146.1141  133.3420  152.1115 N   0  0  0  0  0  0  0  0  0  0  0  0
  145.7842  132.4956  151.1118 N   0  0  0  0  0  0  0  0  0  0  0  0
  144.8572  133.1341  150.4175 C   0  0  0  0  0  0  0  0  0  0  0  0
  144.2457  132.4699  149.2196 C   0  0  0  0  0  0  0  0  0  0  0  0
  144.5760  134.4226  150.9520 C   0  0  0  0  0  0  0  0  0  0  0  0
  145.4019  134.5247  152.0360 C   0  0  0  0  0  0  0  0  0  0  0  0
  145.5764  135.6372  153.0171 C   0  0  0  0  0  0  0  0  0  0  0  0
  147.8039  133.8566  153.7649 N   0  0  0  0  0  0  0  0  0  0  0  0
  148.6083  133.0397  154.5474 C   0  0  0  0  0  0  0  0  0  0  0  0
  148.3641  131.7238  154.3022 C   0  0  0  0  0  0  0  0  0  0  0  0
  149.0656  130.6132  154.9809 C   0  0  0  0  0  0  0  0  0  0  0  0
  148.8052  129.4420  154.7138 O   0  0  0  0  0  0  0  0  0  0  0  0
  149.9879  131.0645  155.8890 N   0  5  0  0  0  0  0  0  0  0  0  0
  150.2676  132.3845  156.1723 C   0  0  0  0  0  0  0  0  0  0  0  0
  151.1157  132.7047  157.0061 O   0  0  0  0  0  0  0  0  0  0  0  0
  149.5914  133.3803  155.5164 N   0  0  0  0  0  0  0  0  0  0  0  0
  149.8663  134.7918  155.7996 C   0  0  0  0  0  0  0  0  0  0  0  0
  149.3612  126.0694  151.0832 H   0  0  0  0  0  0  0  0  0  0  0  0
  147.9500  126.0841  152.1396 H   0  0  0  0  0  0  0  0  0  0  0  0
  149.2503  127.2492  152.3883 H   0  0  0  0  0  0  0  0  0  0  0  0
  148.7221  128.3150  150.1742 H   0  0  0  0  0  0  0  0  0  0  0  0
  147.4263  127.1490  149.9193 H   0  0  0  0  0  0  0  0  0  0  0  0
  148.3654  129.0762  152.9613 H   0  0  0  0  0  0  0  0  0  0  0  0
  148.4611  130.0572  151.5050 H   0  0  0  0  0  0  0  0  0  0  0  0
  146.0391  130.8038  151.9645 H   0  0  0  0  0  0  0  0  0  0  0  0
  146.1253  129.9990  153.4991 H   0  0  0  0  0  0  0  0  0  0  0  0
  143.4442  133.0771  148.7988 H   0  0  0  0  0  0  0  0  0  0  0  0
  143.8235  131.4992  149.4811 H   0  0  0  0  0  0  0  0  0  0  0  0
  144.9884  132.3117  148.4375 H   0  0  0  0  0  0  0  0  0  0  0  0
  143.8729  135.1599  150.5940 H   0  0  0  0  0  0  0  0  0  0  0  0
  144.8312  136.4169  152.8595 H   0  0  0  0  0  0  0  0  0  0  0  0
  146.5633  136.0893  152.9175 H   0  0  0  0  0  0  0  0  0  0  0  0
  145.4715  135.2742  154.0398 H   0  0  0  0  0  0  0  0  0  0  0  0
  150.9092  135.0274  155.5853 H   0  0  0  0  0  0  0  0  0  0  0  0
  149.6742  135.0149  156.8499 H   0  0  0  0  0  0  0  0  0  0  0  0
  149.2523  135.4682  155.2057 H   0  0  0  0  0  0  0  0  0  0  0  0
  1  2  1  0  0  0  0
  1 25  1  0  0  0  0
  1 26  1  0  0  0  0
  1 27  1  0  0  0  0
  2  3  1  0  0  0  0
  2 28  1  0  0  0  0
  2 29  1  0  0  0  0
  3  4  1  0  0  0  0
  4  5  1  0  0  0  0
  4 30  1  0  0  0  0
  4 31  1  0  0  0  0
  5  6  1  0  0  0  0
  5 32  1  0  0  0  0
  5 33  1  0  0  0  0
  6 17  1  0  0  0  0
  6  7  1  0  0  0  0
  7  8  1  0  0  0  0
  7 15  2  0  0  0  0
  8 13  1  0  0  0  0
  8  9  1  0  0  0  0
  9 10  2  0  0  0  0
 10 11  1  0  0  0  0
 10 12  1  0  0  0  0
 11 34  1  0  0  0  0
 11 35  1  0  0  0  0
 11 36  1  0  0  0  0
 12 13  2  0  0  0  0
 12 37  1  0  0  0  0
 13 14  1  0  0  0  0
 14 38  1  0  0  0  0
 14 39  1  0  0  0  0
 14 40  1  0  0  0  0
 15 16  1  0  0  0  0
 16 23  1  0  0  0  0
 16 17  2  0  0  0  0
 17 18  1  0  0  0  0
 18 19  2  0  0  0  0
 18 20  1  0  0  0  0
 20 21  1  0  0  0  0
 21 22  2  0  0  0  0
 21 23  1  0  0  0  0
 23 24  1  0  0  0  0
 24 41  1  0  0  0  0
 24 42  1  0  0  0  0
 24 43  1  0  0  0  0
M  CHG  1  20  -1
M  END
> <s_m_source_file>
AV-unprocessed.smi

> <i_m_source_file_index>
1888

> <i_lp_mmshare_version>
43012

> <i_f3d_flags>
0

> <s_epik_input>
W0NIM11uMWMoPU8pW25IXWMoPU8pYyhjMTIpbihbQ0gyXVtDSDJdT1tDSDJdW0NIM10pYyhuMiktbjNuYyhbQ0gzXSlbY0hdYzNbQ0gzXQ==

> <s_epik_cmdline>
J2VwaWtfcHl0aG9uJywgJy1waCcsICc3LjAnLCAnLXRuJywgJzgnLCAnLW1hJywgJzIwMCcsICctbWV0YWxfYmluZGluZycsICctaW1hZScsICc8aW5maWxlLm1hZT4nLCAnLW9tYWUnLCAnPG91dGZpbGUubWFlPic=

> <r_lp_tautomer_probability>
1

> <r_epik_Ionization_Penalty>
3.99912

> <r_epik_Ionization_Penalty_Charging>
0.0169474

> <r_epik_Ionization_Penalty_Neutral>
3.98217

> <r_epik_State_Penalty>
3.98062

> <r_epik_Charging_Adjusted_Penalty>
3.99756

> <i_epik_Tot_Q>
-1

> <i_epik_Tot_abs_Q>
1

> <r_epik_Metal_State_Penalty>
0.61592

> <b_epik_Metal_Only>
1

> <s_lp_Force_Field>
OPLS_2005

> <r_lp_Energy>
30.4579

> <b_lp_Chiralities_Consistent>
1

> <s_lp_Variant>
AV-unprocessed.smi:1888-2

> <Gold.Version>
5.8.1

> <Gold.Id.Protein>
6NUR|6NUR_protein|mol2

> <Gold.PLP.Fitness>
39.3695

> <Gold.PLP.PLP>
-39.6108

> <Gold.PLP.part.hbond>
0.0000

> <Gold.PLP.part.metal>
0.0000

> <Gold.PLP.part.buried>
-3.9975

> <Gold.PLP.part.nonpolar>
-36.6526

> <Gold.PLP.part.repulsive>
1.6695

> <Gold.PLP.ligand.clash>
0.0000

> <Gold.PLP.ligand.torsion>
0.4008

> <Gold.PLP.Chemscore.Hbond>
0.0000

> <Gold.PLP.Chemscore.CHOScore>
0.0000

> <Gold.PLP.Chemscore.Metal>
0.0000

> <Gold.Chemscore.Hbonds>
donor molecule, donor type, donor heavy atom, donor atom, acceptor molecule, acceptor atom, score
      P1  H  6896  6908       L1    22  0.19

> <Gold.PLP.Chemscore.Internal.Correction>
0.5602

> <Gold.Rescore>
     Score         DG    S(hbond)    S(metal)    S(lipo)     H(rot)  DE(clash)    DE(int)     intcor
      8.80     -12.87       0.98        0.00      71.64       1.67       0.00       4.07       ----

> <Gold.Chemscore.Fitness>
8.7964

> <Gold.Chemscore.DG>
-12.8686

> <Gold.Chemscore.ZeroCoef>
-5.4800

> <Gold.Chemscore.Hbond>
0.9806

> <Gold.Chemscore.Metal>
0.0000

> <Gold.Chemscore.Lipo>
71.6440

> <Gold.Chemscore.Internal_Hbond>
0.0000

> <Gold.Chemscore.DEClash>
0.0030

> <Gold.Chemscore.DEInternal>
4.0692

> <Gold.Chemscore.Rot>
1.6675

> <Gold.Chemscore.Internal.Correction>
   9.000000E+99

> <Gold.Chemscore.Hbonds>
donor molecule, donor type, donor heavy atom, donor atom, acceptor molecule, acceptor atom, score
      P1  H  6896  6908       L1    22  0.19

> <Gold.Chemscore.Hbond.Weighted>
-3.2752

> <Gold.Chemscore.Metal.Weighted>
-0.0000

> <Gold.Chemscore.Lipo.Weighted>
-8.3823

> <Gold.Chemscore.Internal_Hbond.Weighted>
0.0000

> <Gold.Chemscore.DEClash.Weighted>
0.0030

> <Gold.Chemscore.DEInternal.Weighted>
4.0692

> <Gold.Chemscore.Rot.Weighted>
4.2689

> <Gold.Chemscore.Internal.Correction.Weighted>
   9.000000E+99

> <Gold.Protein.RotatedTorsions>
[ 6907 6896 6895 6894 ] final   66.15 input  -60.11 | X-H torsion
[ 7974 7965 7964 7962 ] final  146.27 input  175.53 | X-H torsion
[ 8008 7997 7996 7995 ] final  -21.46 input   59.86 | X-H torsion
[ 10167 10162 10161 10158 ] final   25.08 input  -65.29 | X-H torsion
[ 10718 10713 10712 10709 ] final -144.37 input   66.30 | X-H torsion
[ 10763 10752 10751 10750 ] final  126.72 input  -60.55 | X-H torsion
[ 11005 11000 10999 10996 ] final  -65.72 input  -57.11 | X-H torsion

> <Gold.Protein.ActiveResidues>
 VAL166  LYS551  ARG553  GLY616  TRP617  ASP618  TYR619  PRO620  LYS621  CYS622 
 ASP623  PHE694  ASN695  SER759  ASP760  ASP761  ALA762  ILE779  LEU786  VAL792 
 PHE793  MET794  SER795  GLU796  ALA797  LYS798  CYS799  TRP800  GLU811  SER814 

> <Gold.Protein.RotatedAtoms>
  152.4460  134.5494  159.9862 H   0  0  0  0  0  0  0  0  0  0  0  0  # atno 6907 bound_to 6896
  151.5579  133.3402  159.2973 H   0  0  0  0  0  0  0  0  0  0  0  0  # atno 6908 bound_to 6896
  150.8376  134.7688  159.6969 H   0  0  0  0  0  0  0  0  0  0  0  0  # atno 6909 bound_to 6896
  144.8684  139.5885  143.5898 H   0  0  0  0  0  0  0  0  0  0  0  0  # atno 7974 bound_to 7965
  154.4704  140.2034  156.0008 H   0  0  0  0  0  0  0  0  0  0  0  0  # atno 8008 bound_to 7997
  156.1001  140.3245  155.7902 H   0  0  0  0  0  0  0  0  0  0  0  0  # atno 8009 bound_to 7997
  155.4811  140.0538  157.2957 H   0  0  0  0  0  0  0  0  0  0  0  0  # atno 8010 bound_to 7997
  140.5136  144.0120  150.6383 H   0  0  0  0  0  0  0  0  0  0  0  0  # atno 10167 bound_to 10162
  156.3693  130.7779  151.1958 H   0  0  0  0  0  0  0  0  0  0  0  0  # atno 10718 bound_to 10713
  153.6979  135.3288  155.3217 H   0  0  0  0  0  0  0  0  0  0  0  0  # atno 10763 bound_to 10752
  154.8421  135.4447  154.1441 H   0  0  0  0  0  0  0  0  0  0  0  0  # atno 10764 bound_to 10752
  153.2501  135.6980  153.7767 H   0  0  0  0  0  0  0  0  0  0  0  0  # atno 10765 bound_to 10752
  141.1462  133.6686  156.6030 H   0  0  0  0  0  0  0  0  0  0  0  0  # atno 11005 bound_to 11000
  146.2913  139.7146  142.9159 LP  0  0  0  0  0  0  0  0  0  0  0  0  # atno 17320 bound_to 7965
  145.4177  141.0403  143.2981 LP  0  0  0  0  0  0  0  0  0  0  0  0  # atno 17321 bound_to 7965
  140.3449  143.2997  152.0548 LP  0  0  0  0  0  0  0  0  0  0  0  0  # atno 17342 bound_to 10162
  139.4903  144.6415  151.6866 LP  0  0  0  0  0  0  0  0  0  0  0  0  # atno 17343 bound_to 10162
  157.7482  131.0377  150.4468 LP  0  0  0  0  0  0  0  0  0  0  0  0  # atno 17370 bound_to 10713
  156.4692  130.4049  149.6528 LP  0  0  0  0  0  0  0  0  0  0  0  0  # atno 17371 bound_to 10713
  140.3674  134.7635  157.4575 LP  0  0  0  0  0  0  0  0  0  0  0  0  # atno 17394 bound_to 11000
  140.0737  134.5827  155.8614 LP  0  0  0  0  0  0  0  0  0  0  0  0  # atno 17395 bound_to 11000

$$$$
