AV-unprocessed.smi:699|AV-procd|sdf|3406|dock2
  -GOLD-   22720 0383D 1   1.00000     0.00000
 Structure written by MMmdl.
 35 36  0  0  0  0  0  0  0  0  2 V2000
  154.0893  142.0429  159.8011 N   0  0  0  0  0  0  0  0  0  0  0  0
  152.8002  141.7348  159.6385 C   0  0  0  0  0  0  0  0  0  0  0  0
  152.4072  140.5702  159.6050 O   0  0  0  0  0  0  0  0  0  0  0  0
  151.8146  142.9042  159.4924 C   0  0  1  0  0  0  0  0  0  0  0  0
  151.9226  143.9282  160.6316 C   0  0  0  0  0  0  0  0  0  0  0  0
  151.3859  145.2219  160.0269 C   0  0  0  0  0  0  0  0  0  0  0  0
  151.8882  145.2056  158.5837 C   0  0  0  0  0  0  0  0  0  0  0  0
  152.0274  143.7202  158.1932 C   0  0  2  0  0  0  0  0  0  0  0  0
  151.0608  143.3290  157.1684 N   0  0  0  0  0  0  0  0  0  0  0  0
  150.8942  142.0839  156.7001 C   0  0  0  0  0  0  0  0  0  0  0  0
  151.5609  141.1221  157.0803 O   0  0  0  0  0  0  0  0  0  0  0  0
  149.9303  142.0416  155.7635 N   0  0  0  0  0  0  0  0  0  0  0  0
  149.4485  140.9231  155.0290 C   0  0  0  0  0  0  0  0  0  0  0  0
  150.2759  139.7794  154.9691 C   0  0  0  0  0  0  0  0  0  0  0  0
  149.8505  138.6486  154.2425 C   0  0  0  0  0  0  0  0  0  0  0  0
  148.6623  138.6692  153.6020 N   0  3  0  0  0  0  0  0  0  0  0  0
  147.8429  139.7424  153.6183 C   0  0  0  0  0  0  0  0  0  0  0  0
  148.2148  140.9022  154.3288 C   0  0  0  0  0  0  0  0  0  0  0  0
  154.7707  141.3039  159.8980 H   0  0  0  0  0  0  0  0  0  0  0  0
  154.3801  143.0092  159.8239 H   0  0  0  0  0  0  0  0  0  0  0  0
  150.7944  142.5147  159.5069 H   0  0  0  0  0  0  0  0  0  0  0  0
  151.3564  143.6271  161.5136 H   0  0  0  0  0  0  0  0  0  0  0  0
  152.9599  144.0730  160.9382 H   0  0  0  0  0  0  0  0  0  0  0  0
  150.2952  145.2056  160.0357 H   0  0  0  0  0  0  0  0  0  0  0  0
  151.7100  146.1079  160.5735 H   0  0  0  0  0  0  0  0  0  0  0  0
  151.2318  145.7708  157.9208 H   0  0  0  0  0  0  0  0  0  0  0  0
  152.8697  145.6794  158.5391 H   0  0  0  0  0  0  0  0  0  0  0  0
  153.0337  143.5603  157.7991 H   0  0  0  0  0  0  0  0  0  0  0  0
  150.4775  144.0626  156.7937 H   0  0  0  0  0  0  0  0  0  0  0  0
  149.5260  142.9311  155.5092 H   0  0  0  0  0  0  0  0  0  0  0  0
  151.2284  139.7626  155.4790 H   0  0  0  0  0  0  0  0  0  0  0  0
  150.4223  137.7362  154.1535 H   0  0  0  0  0  0  0  0  0  0  0  0
  146.9223  139.6449  153.0614 H   0  0  0  0  0  0  0  0  0  0  0  0
  147.5510  141.7528  154.3104 H   0  0  0  0  0  0  0  0  0  0  0  0
  148.3734  137.8415  153.0800 H   0  0  0  0  0  0  0  0  0  0  0  0
  1  2  1  0  0  0  0
  1 19  1  0  0  0  0
  1 20  1  0  0  0  0
  2  3  2  0  0  0  0
  2  4  1  0  0  0  0
  4  8  1  0  0  0  0
  4  5  1  0  0  0  0
  4 21  1  0  0  0  0
  5  6  1  0  0  0  0
  5 22  1  0  0  0  0
  5 23  1  0  0  0  0
  6  7  1  0  0  0  0
  6 24  1  0  0  0  0
  6 25  1  0  0  0  0
  7  8  1  0  0  0  0
  7 26  1  0  0  0  0
  7 27  1  0  0  0  0
  8  9  1  0  0  0  0
  8 28  1  0  0  0  0
  9 10  1  0  0  0  0
  9 29  1  0  0  0  0
 10 11  2  0  0  0  0
 10 12  1  0  0  0  0
 12 13  1  0  0  0  0
 12 30  1  0  0  0  0
 13 18  1  0  0  0  0
 13 14  2  0  0  0  0
 14 15  1  0  0  0  0
 14 31  1  0  0  0  0
 15 16  2  0  0  0  0
 15 32  1  0  0  0  0
 16 17  1  0  0  0  0
 16 35  1  0  0  0  0
 17 18  2  0  0  0  0
 17 33  1  0  0  0  0
 18 34  1  0  0  0  0
M  CHG  1  16   1
M  END
> <s_m_source_file>
AV-unprocessed.smi

> <i_m_source_file_index>
699

> <i_lp_mmshare_version>
43012

> <i_f3d_flags>
0

> <s_epik_input>
W05IMl1DKD1PKVtDQEBIXTFbQ0gyXVtDSDJdW0NIMl1bQ0BIXTFbTkhdQyg9TylbTkhdYzJbY0hdW2NIXW5bY0hdW2NIXTI=

> <s_epik_cmdline>
J2VwaWtfcHl0aG9uJywgJy1waCcsICc3LjAnLCAnLXRuJywgJzgnLCAnLW1hJywgJzIwMCcsICctbWV0YWxfYmluZGluZycsICctaW1hZScsICc8aW5maWxlLm1hZT4nLCAnLW9tYWUnLCAnPG91dGZpbGUubWFlPic=

> <r_epik_Ionization_Penalty>
1.0332

> <r_epik_Ionization_Penalty_Charging>
1.03318

> <r_epik_Ionization_Penalty_Neutral>
1.91967e-05

> <r_epik_State_Penalty>
1.08452

> <r_epik_Charging_Adjusted_Penalty>
2.11769

> <i_epik_Tot_Q>
1

> <i_epik_Tot_abs_Q>
1

> <r_epik_Metal_State_Penalty>
1.18144

> <b_epik_Metal_Only>
0

> <s_lp_Force_Field>
OPLS_2005

> <r_lp_Energy>
26.7554

> <b_lp_Chiralities_Consistent>
1

> <s_lp_Variant>
AV-unprocessed.smi:699-8

> <Gold.Version>
5.8.1

> <Gold.Id.Protein>
6NUR|6NUR_protein|mol2

> <Gold.PLP.Fitness>
53.8585

> <Gold.PLP.PLP>
-42.2025

> <Gold.PLP.part.hbond>
-4.0000

> <Gold.PLP.part.metal>
0.0000

> <Gold.PLP.part.buried>
-3.6087

> <Gold.PLP.part.nonpolar>
-34.8445

> <Gold.PLP.part.repulsive>
0.2925

> <Gold.PLP.ligand.clash>
0.0000

> <Gold.PLP.ligand.torsion>
0.1738

> <Gold.PLP.Chemscore.Hbond>
4.0000

> <Gold.PLP.Chemscore.CHOScore>
0.0000

> <Gold.PLP.Chemscore.Metal>
0.0000

> <Gold.Chemscore.Hbonds>
donor molecule, donor type, donor heavy atom, donor atom, acceptor molecule, acceptor atom, score
      L1  H     9    29       P1  8028  0.98
      L1  H    12    30       P1  8028  1.00
      L1  H    16    35       P1  7948  1.60

> <Gold.PLP.Chemscore.Internal.Correction>
0.0036

> <Gold.Rescore>
     Score         DG    S(hbond)    S(metal)    S(lipo)     H(rot)  DE(clash)    DE(int)     intcor
     17.01     -22.18       2.92        0.00      92.11       1.50       0.10       5.06       ----

> <Gold.Chemscore.Fitness>
17.0073

> <Gold.Chemscore.DG>
-22.1757

> <Gold.Chemscore.ZeroCoef>
-5.4800

> <Gold.Chemscore.Hbond>
2.9247

> <Gold.Chemscore.Metal>
0.0000

> <Gold.Chemscore.Lipo>
92.1100

> <Gold.Chemscore.Internal_Hbond>
0.0000

> <Gold.Chemscore.DEClash>
0.1045

> <Gold.Chemscore.DEInternal>
5.0638

> <Gold.Chemscore.Rot>
1.5038

> <Gold.Chemscore.Internal.Correction>
   9.000000E+99

> <Gold.Chemscore.Hbonds>
donor molecule, donor type, donor heavy atom, donor atom, acceptor molecule, acceptor atom, score
      L1  H     9    29       P1  8028  0.88
      L1  H    12    30       P1  8028  1.00
      L1  H    16    35       P1  7948  0.75

> <Gold.Chemscore.Hbond.Weighted>
-9.7684

> <Gold.Chemscore.Metal.Weighted>
-0.0000

> <Gold.Chemscore.Lipo.Weighted>
-10.7769

> <Gold.Chemscore.Internal_Hbond.Weighted>
0.0000

> <Gold.Chemscore.DEClash.Weighted>
0.1045

> <Gold.Chemscore.DEInternal.Weighted>
5.0638

> <Gold.Chemscore.Rot.Weighted>
3.8496

> <Gold.Chemscore.Internal.Correction.Weighted>
   9.000000E+99

> <Gold.Protein.RotatedTorsions>
[ 6907 6896 6895 6894 ] final   85.69 input  -60.11 | X-H torsion
[ 7974 7965 7964 7962 ] final   49.69 input  175.53 | X-H torsion
[ 8008 7997 7996 7995 ] final   83.76 input   59.86 | X-H torsion
[ 10167 10162 10161 10158 ] final  -54.97 input  -65.29 | X-H torsion
[ 10718 10713 10712 10709 ] final  -87.95 input   66.30 | X-H torsion
[ 10763 10752 10751 10750 ] final   12.51 input  -60.55 | X-H torsion
[ 11005 11000 10999 10996 ] final -117.68 input  -57.11 | X-H torsion

> <Gold.Protein.ActiveResidues>
 VAL166  LYS551  ARG553  GLY616  TRP617  ASP618  TYR619  PRO620  LYS621  CYS622 
 ASP623  PHE694  ASN695  SER759  ASP760  ASP761  ALA762  ILE779  LEU786  VAL792 
 PHE793  MET794  SER795  GLU796  ALA797  LYS798  CYS799  TRP800  GLU811  SER814 

> <Gold.Protein.RotatedAtoms>
  152.5380  134.2547  159.8912 H   0  0  0  0  0  0  0  0  0  0  0  0  # atno 6907 bound_to 6896
  151.2509  133.4344  159.2619 H   0  0  0  0  0  0  0  0  0  0  0  0  # atno 6908 bound_to 6896
  151.0540  134.9706  159.8282 H   0  0  0  0  0  0  0  0  0  0  0  0  # atno 6909 bound_to 6896
  146.0085  139.4516  142.9971 H   0  0  0  0  0  0  0  0  0  0  0  0  # atno 7974 bound_to 7965
  155.9281  140.3416  155.6227 H   0  0  0  0  0  0  0  0  0  0  0  0  # atno 8008 bound_to 7997
  155.7191  140.0781  157.2357 H   0  0  0  0  0  0  0  0  0  0  0  0  # atno 8009 bound_to 7997
  154.4080  140.1609  156.2369 H   0  0  0  0  0  0  0  0  0  0  0  0  # atno 8010 bound_to 7997
  140.6401  143.2503  151.5013 H   0  0  0  0  0  0  0  0  0  0  0  0  # atno 10167 bound_to 10162
  155.9984  130.4818  150.4945 H   0  0  0  0  0  0  0  0  0  0  0  0  # atno 10718 bound_to 10713
  153.1815  135.6828  153.8471 H   0  0  0  0  0  0  0  0  0  0  0  0  # atno 10763 bound_to 10752
  153.7801  135.3183  155.3365 H   0  0  0  0  0  0  0  0  0  0  0  0  # atno 10764 bound_to 10752
  154.8063  135.4746  154.0495 H   0  0  0  0  0  0  0  0  0  0  0  0  # atno 10765 bound_to 10752
  141.0338  133.9940  157.3102 H   0  0  0  0  0  0  0  0  0  0  0  0  # atno 11005 bound_to 11000
  145.7379  141.0019  143.1317 LP  0  0  0  0  0  0  0  0  0  0  0  0  # atno 17320 bound_to 7965
  144.6944  139.9063  143.7461 LP  0  0  0  0  0  0  0  0  0  0  0  0  # atno 17321 bound_to 7965
  139.5610  144.2157  152.1691 LP  0  0  0  0  0  0  0  0  0  0  0  0  # atno 17342 bound_to 10162
  140.1424  144.5189  150.6736 LP  0  0  0  0  0  0  0  0  0  0  0  0  # atno 17343 bound_to 10162
  157.2937  131.0631  151.2116 LP  0  0  0  0  0  0  0  0  0  0  0  0  # atno 17370 bound_to 10713
  157.3120  130.6894  149.6221 LP  0  0  0  0  0  0  0  0  0  0  0  0  # atno 17371 bound_to 10713
  139.9226  135.0201  156.8121 LP  0  0  0  0  0  0  0  0  0  0  0  0  # atno 17394 bound_to 11000
  140.6358  133.9863  155.7684 LP  0  0  0  0  0  0  0  0  0  0  0  0  # atno 17395 bound_to 11000

$$$$
