AV-unprocessed.smi:710|AV-procd|sdf|3463|dock6
  -GOLD-   22720 0453D 1   1.00000     0.00000
 Structure written by MMmdl.
 40 41  0  0  0  0  0  0  0  0  1 V2000
  150.2030  135.7714  156.3009 C   0  0  0  0  0  0  0  0  0  0  0  0
  150.0958  134.2757  156.3913 C   0  0  0  0  0  0  0  0  0  0  0  0
  150.3715  133.6832  157.5404 N   0  0  0  0  0  0  0  0  0  0  0  0
  150.1860  132.3693  157.3068 N   0  0  0  0  0  0  0  0  0  0  0  0
  150.4070  131.4352  158.3945 C   0  0  0  0  0  0  0  0  0  0  0  0
  149.7922  132.1296  156.0027 C   0  0  0  0  0  0  0  0  0  0  0  0
  149.5155  130.7535  155.4869 C   0  0  0  0  0  0  0  0  0  0  0  0
  149.7235  133.3459  155.3755 C   0  0  0  0  0  0  0  0  0  0  0  0
  149.3419  133.6510  153.9486 C   0  0  0  0  0  0  0  0  0  0  0  0
  147.8661  133.3187  153.7295 C   0  0  0  0  0  0  0  0  0  0  0  0
  147.3987  132.2719  154.1763 O   0  0  0  0  0  0  0  0  0  0  0  0
  147.1488  134.2151  153.0355 N   0  0  0  0  0  0  0  0  0  0  0  0
  145.7323  134.0894  152.7036 C   0  0  0  0  0  0  0  0  0  0  0  0
  145.4832  133.7159  151.2217 C   0  0  2  0  0  0  0  0  0  0  0  0
  145.6558  134.8842  150.4394 O   0  0  0  0  0  0  0  0  0  0  0  0
  144.0408  133.2356  150.9868 C   0  0  0  0  0  0  0  0  0  0  0  0
  143.9694  132.6243  149.5832 C   0  0  0  0  0  0  0  0  0  0  0  0
  145.5703  131.8509  149.2404 S   0  0  0  0  0  0  0  0  0  0  0  0
  146.3870  132.5937  150.6788 C   0  0  0  0  0  0  0  0  0  0  0  0
  149.6656  136.1591  155.4358 H   0  0  0  0  0  0  0  0  0  0  0  0
  151.2437  136.0831  156.2120 H   0  0  0  0  0  0  0  0  0  0  0  0
  149.7856  136.2521  157.1860 H   0  0  0  0  0  0  0  0  0  0  0  0
  150.3225  130.4061  158.0471 H   0  0  0  0  0  0  0  0  0  0  0  0
  149.6677  131.6040  159.1778 H   0  0  0  0  0  0  0  0  0  0  0  0
  151.4048  131.5825  158.8092 H   0  0  0  0  0  0  0  0  0  0  0  0
  149.2160  130.7739  154.4396 H   0  0  0  0  0  0  0  0  0  0  0  0
  148.7114  130.2828  156.0527 H   0  0  0  0  0  0  0  0  0  0  0  0
  150.4019  130.1240  155.5666 H   0  0  0  0  0  0  0  0  0  0  0  0
  149.5059  134.7025  153.7106 H   0  0  0  0  0  0  0  0  0  0  0  0
  149.9499  133.0893  153.2387 H   0  0  0  0  0  0  0  0  0  0  0  0
  147.6217  135.0436  152.7053 H   0  0  0  0  0  0  0  0  0  0  0  0
  145.3504  133.2937  153.3438 H   0  0  0  0  0  0  0  0  0  0  0  0
  145.1779  134.9866  152.9852 H   0  0  0  0  0  0  0  0  0  0  0  0
  145.5354  134.6570  149.5300 H   0  0  0  0  0  0  0  0  0  0  0  0
  143.7951  132.4599  151.7137 H   0  0  0  0  0  0  0  0  0  0  0  0
  143.3091  134.0339  151.1188 H   0  0  0  0  0  0  0  0  0  0  0  0
  143.1573  131.9028  149.4915 H   0  0  0  0  0  0  0  0  0  0  0  0
  143.8030  133.4051  148.8406 H   0  0  0  0  0  0  0  0  0  0  0  0
  147.3879  132.9441  150.4235 H   0  0  0  0  0  0  0  0  0  0  0  0
  146.4967  131.8092  151.4285 H   0  0  0  0  0  0  0  0  0  0  0  0
  1  2  1  0  0  0  0
  1 20  1  0  0  0  0
  1 21  1  0  0  0  0
  1 22  1  0  0  0  0
  2  8  1  0  0  0  0
  2  3  2  0  0  0  0
  3  4  1  0  0  0  0
  4  5  1  0  0  0  0
  4  6  1  0  0  0  0
  5 23  1  0  0  0  0
  5 24  1  0  0  0  0
  5 25  1  0  0  0  0
  6  7  1  0  0  0  0
  6  8  2  0  0  0  0
  7 26  1  0  0  0  0
  7 27  1  0  0  0  0
  7 28  1  0  0  0  0
  8  9  1  0  0  0  0
  9 10  1  0  0  0  0
  9 29  1  0  0  0  0
  9 30  1  0  0  0  0
 10 11  2  0  0  0  0
 10 12  1  0  0  0  0
 12 13  1  0  0  0  0
 12 31  1  0  0  0  0
 13 14  1  0  0  0  0
 13 32  1  0  0  0  0
 13 33  1  0  0  0  0
 14 19  1  0  0  0  0
 14 15  1  0  0  0  0
 14 16  1  0  0  0  0
 15 34  1  0  0  0  0
 16 17  1  0  0  0  0
 16 35  1  0  0  0  0
 16 36  1  0  0  0  0
 17 18  1  0  0  0  0
 17 37  1  0  0  0  0
 17 38  1  0  0  0  0
 18 19  1  0  0  0  0
 19 39  1  0  0  0  0
 19 40  1  0  0  0  0
M  END
> <s_m_source_file>
AV-unprocessed.smi

> <i_m_source_file_index>
710

> <i_lp_mmshare_version>
43012

> <i_f3d_flags>
0

> <s_epik_input>
W0NIM11jMW5uKFtDSDNdKWMoW0NIM10pYzFbQ0gyXUMoPU8pW05IXVtDSDJdW0NAQF0yKFtPSF0pW0NIMl1bQ0gyXVNbQ0gyXTI=

> <s_epik_cmdline>
J2VwaWtfcHl0aG9uJywgJy1waCcsICc3LjAnLCAnLXRuJywgJzgnLCAnLW1hJywgJzIwMCcsICctbWV0YWxfYmluZGluZycsICctaW1hZScsICc8aW5maWxlLm1hZT4nLCAnLW9tYWUnLCAnPG91dGZpbGUubWFlPic=

> <r_lp_tautomer_probability>
1

> <r_epik_Ionization_Penalty>
0.00343686

> <r_epik_Ionization_Penalty_Charging>
0

> <r_epik_Ionization_Penalty_Neutral>
0.00343686

> <r_epik_State_Penalty>
0.00243544

> <r_epik_Charging_Adjusted_Penalty>
0.00243544

> <i_epik_Tot_Q>
0

> <i_epik_Tot_abs_Q>
0

> <r_epik_Metal_State_Penalty>
-0

> <b_epik_Metal_Only>
0

> <s_lp_Force_Field>
OPLS_2005

> <r_lp_Energy>
11.3483

> <b_lp_Chiralities_Consistent>
1

> <s_lp_Variant>
AV-unprocessed.smi:710-2

> <Gold.Version>
5.8.1

> <Gold.Id.Protein>
6NUR|6NUR_protein|mol2

> <Gold.PLP.Fitness>
42.1609

> <Gold.PLP.PLP>
-34.5188

> <Gold.PLP.part.hbond>
-3.0000

> <Gold.PLP.part.metal>
0.0000

> <Gold.PLP.part.buried>
-2.4027

> <Gold.PLP.part.nonpolar>
-27.8006

> <Gold.PLP.part.repulsive>
0.0618

> <Gold.PLP.ligand.clash>
0.0000

> <Gold.PLP.ligand.torsion>
0.5416

> <Gold.PLP.Chemscore.Hbond>
2.9033

> <Gold.PLP.Chemscore.CHOScore>
0.0000

> <Gold.PLP.Chemscore.Metal>
0.0000

> <Gold.Chemscore.Hbonds>
donor molecule, donor type, donor heavy atom, donor atom, acceptor molecule, acceptor atom, score
      L1  H    12    31       P1  7948  1.00
      L1  H    15    34       P1  7921  0.98
      P1  H  6896  6909       L1     3  0.67

> <Gold.PLP.Chemscore.Internal.Correction>
0.0155

> <Gold.Rescore>
     Score         DG    S(hbond)    S(metal)    S(lipo)     H(rot)  DE(clash)    DE(int)     intcor
     17.83     -18.64       2.72        0.00      80.15       2.07       0.27       0.54       ----

> <Gold.Chemscore.Fitness>
17.8318

> <Gold.Chemscore.DG>
-18.6412

> <Gold.Chemscore.ZeroCoef>
-5.4800

> <Gold.Chemscore.Hbond>
2.7231

> <Gold.Chemscore.Metal>
0.0000

> <Gold.Chemscore.Lipo>
80.1536

> <Gold.Chemscore.Internal_Hbond>
0.0000

> <Gold.Chemscore.DEClash>
0.2719

> <Gold.Chemscore.DEInternal>
0.5375

> <Gold.Chemscore.Rot>
2.0750

> <Gold.Chemscore.Internal.Correction>
   9.000000E+99

> <Gold.Chemscore.Hbonds>
donor molecule, donor type, donor heavy atom, donor atom, acceptor molecule, acceptor atom, score
      L1  H    12    31       P1  7948  0.98
      L1  H    15    34       P1  7921  0.88
      P1  H  6896  6909       L1     3  0.11

> <Gold.Chemscore.Hbond.Weighted>
-9.0952

> <Gold.Chemscore.Metal.Weighted>
-0.0000

> <Gold.Chemscore.Lipo.Weighted>
-9.3780

> <Gold.Chemscore.Internal_Hbond.Weighted>
0.0000

> <Gold.Chemscore.DEClash.Weighted>
0.2719

> <Gold.Chemscore.DEInternal.Weighted>
0.5375

> <Gold.Chemscore.Rot.Weighted>
5.3120

> <Gold.Chemscore.Internal.Correction.Weighted>
   9.000000E+99

> <Gold.Protein.RotatedTorsions>
[ 6907 6896 6895 6894 ] final  -23.40 input  -60.11 | X-H torsion
[ 7974 7965 7964 7962 ] final   -3.81 input  175.53 | X-H torsion
[ 8008 7997 7996 7995 ] final -155.26 input   59.86 | X-H torsion
[ 10167 10162 10161 10158 ] final   76.82 input  -65.29 | X-H torsion
[ 10718 10713 10712 10709 ] final   23.48 input   66.30 | X-H torsion
[ 10763 10752 10751 10750 ] final  -41.88 input  -60.55 | X-H torsion
[ 11005 11000 10999 10996 ] final -103.05 input  -57.11 | X-H torsion

> <Gold.Protein.ActiveResidues>
 VAL166  LYS551  ARG553  GLY616  TRP617  ASP618  TYR619  PRO620  LYS621  CYS622 
 ASP623  PHE694  ASN695  SER759  ASP760  ASP761  ALA762  ILE779  LEU786  VAL792 
 PHE793  MET794  SER795  GLU796  ALA797  LYS798  CYS799  TRP800  GLU811  SER814 

> <Gold.Protein.RotatedAtoms>
  151.2046  135.0456  159.8885 H   0  0  0  0  0  0  0  0  0  0  0  0  # atno 6907 bound_to 6896
  152.5430  134.0812  159.8246 H   0  0  0  0  0  0  0  0  0  0  0  0  # atno 6908 bound_to 6896
  151.0957  133.5234  159.2644 H   0  0  0  0  0  0  0  0  0  0  0  0  # atno 6909 bound_to 6896
  146.2383  140.1777  142.8332 H   0  0  0  0  0  0  0  0  0  0  0  0  # atno 7974 bound_to 7965
  155.6991  140.0764  157.2417 H   0  0  0  0  0  0  0  0  0  0  0  0  # atno 8008 bound_to 7997
  154.4076  140.1650  156.2224 H   0  0  0  0  0  0  0  0  0  0  0  0  # atno 8009 bound_to 7997
  155.9384  140.3386  155.6309 H   0  0  0  0  0  0  0  0  0  0  0  0  # atno 8010 bound_to 7997
  139.9882  144.5777  150.7841 H   0  0  0  0  0  0  0  0  0  0  0  0  # atno 10167 bound_to 10162
  157.1667  130.6741  149.6063 H   0  0  0  0  0  0  0  0  0  0  0  0  # atno 10718 bound_to 10713
  153.9698  135.6730  153.4747 H   0  0  0  0  0  0  0  0  0  0  0  0  # atno 10763 bound_to 10752
  153.0798  135.4929  154.8476 H   0  0  0  0  0  0  0  0  0  0  0  0  # atno 10764 bound_to 10752
  154.7225  135.3120  154.8984 H   0  0  0  0  0  0  0  0  0  0  0  0  # atno 10765 bound_to 10752
  141.1163  133.8608  157.1437 H   0  0  0  0  0  0  0  0  0  0  0  0  # atno 11005 bound_to 11000
  144.9959  140.8589  143.5311 LP  0  0  0  0  0  0  0  0  0  0  0  0  # atno 17320 bound_to 7965
  145.1790  139.2362  143.5302 LP  0  0  0  0  0  0  0  0  0  0  0  0  # atno 17321 bound_to 7965
  140.7464  143.2891  151.3381 LP  0  0  0  0  0  0  0  0  0  0  0  0  # atno 17342 bound_to 10162
  139.6360  144.0630  152.2516 LP  0  0  0  0  0  0  0  0  0  0  0  0  # atno 17343 bound_to 10162
  155.9745  130.4693  150.6390 LP  0  0  0  0  0  0  0  0  0  0  0  0  # atno 17370 bound_to 10713
  157.4082  131.0820  151.1246 LP  0  0  0  0  0  0  0  0  0  0  0  0  # atno 17371 bound_to 10713
  140.0087  134.9997  157.0348 LP  0  0  0  0  0  0  0  0  0  0  0  0  # atno 17394 bound_to 11000
  140.4637  134.1457  155.7194 LP  0  0  0  0  0  0  0  0  0  0  0  0  # atno 17395 bound_to 11000

$$$$
