AV-unprocessed.smi:258|AV-procd|sdf|1965|dock3
  -GOLD-   2262021113D 1   1.00000     0.00000
 Structure written by MMmdl.
 57 60  0  0  0  0  0  0  0  0  1 V2000
  143.2079  131.6878  149.6455 O   0  0  0  0  0  0  0  0  0  0  0  0
  143.8960  132.4930  150.5791 C   0  0  0  0  0  0  0  0  0  0  0  0
  145.3993  132.4869  150.2765 C   0  0  0  0  0  0  0  0  0  0  0  0
  146.1032  132.9634  151.4146 O   0  0  0  0  0  0  0  0  0  0  0  0
  146.8538  131.9705  152.1015 C   0  0  2  0  0  0  0  0  0  0  0  0
  145.9627  130.7769  152.5044 C   0  0  0  0  0  0  0  0  0  0  0  0
  146.7519  129.7937  153.3836 C   0  0  0  0  0  0  0  0  0  0  0  0
  147.3595  130.5114  154.5994 C   0  0  0  0  0  0  0  0  0  0  0  0
  148.1636  131.6527  154.1724 N   0  0  0  0  0  0  0  0  0  0  0  0
  148.8848  132.2069  155.1685 C   0  0  0  0  0  0  0  0  0  0  0  0
  149.2950  131.3865  156.1664 N   0  0  0  0  0  0  0  0  0  0  0  0
  150.0148  131.8775  157.1802 C   0  0  0  0  0  0  0  0  0  0  0  0
  150.4239  133.1319  157.3843 N   0  0  0  0  0  0  0  0  0  0  0  0
  150.0098  133.9576  156.3806 C   0  0  0  0  0  0  0  0  0  0  0  0
  149.2421  133.5827  155.2428 C   0  0  0  0  0  0  0  0  0  0  0  0
  149.0123  134.6927  154.4385 N   0  0  0  0  0  0  0  0  0  0  0  0
  149.6104  135.6689  155.0655 C   0  0  0  0  0  0  0  0  0  0  0  0
  150.2315  135.3155  156.2425 N   0  0  0  0  0  0  0  0  0  0  0  0
  150.9689  136.1904  157.1369 C   0  0  0  0  0  0  0  0  0  0  0  0
  151.7281  137.3218  156.4000 C   0  0  2  0  0  0  0  0  0  0  0  0
  153.1289  137.5922  157.0009 C   0  0  0  0  0  0  0  0  0  0  0  0
  153.9452  136.4401  156.9489 O   0  0  0  0  0  0  0  0  0  0  0  0
  150.8718  138.6094  156.2986 C   0  0  2  0  0  0  0  0  0  0  0  0
  151.5563  139.7753  155.6065 C   0  0  0  0  0  0  0  0  0  0  0  0
  150.7165  140.9630  156.0643 C   0  0  0  0  0  0  0  0  0  0  0  0
  150.2463  140.6258  157.3649 O   0  0  0  0  0  0  0  0  0  0  0  0
  150.5215  139.2563  157.6425 C   0  0  0  0  0  0  0  0  0  0  0  0
  147.4517  132.6321  153.3557 C   0  0  0  0  0  0  0  0  0  0  0  0
  142.2967  131.6517  149.8936 H   0  0  0  0  0  0  0  0  0  0  0  0
  143.5061  133.5073  150.4896 H   0  0  0  0  0  0  0  0  0  0  0  0
  143.6932  132.1574  151.5965 H   0  0  0  0  0  0  0  0  0  0  0  0
  145.7296  131.4935  149.9718 H   0  0  0  0  0  0  0  0  0  0  0  0
  145.5940  133.1619  149.4420 H   0  0  0  0  0  0  0  0  0  0  0  0
  147.6763  131.6224  151.4737 H   0  0  0  0  0  0  0  0  0  0  0  0
  145.0913  131.1378  153.0523 H   0  0  0  0  0  0  0  0  0  0  0  0
  145.5852  130.2554  151.6256 H   0  0  0  0  0  0  0  0  0  0  0  0
  146.1044  128.9812  153.7139 H   0  0  0  0  0  0  0  0  0  0  0  0
  147.5485  129.3372  152.7946 H   0  0  0  0  0  0  0  0  0  0  0  0
  146.5618  130.8514  155.2611 H   0  0  0  0  0  0  0  0  0  0  0  0
  147.9765  129.8164  155.1709 H   0  0  0  0  0  0  0  0  0  0  0  0
  150.3036  131.1631  157.9370 H   0  0  0  0  0  0  0  0  0  0  0  0
  149.6099  136.6812  154.6879 H   0  0  0  0  0  0  0  0  0  0  0  0
  150.2565  136.6067  157.8494 H   0  0  0  0  0  0  0  0  0  0  0  0
  151.6651  135.5834  157.7170 H   0  0  0  0  0  0  0  0  0  0  0  0
  151.8990  136.9730  155.3805 H   0  0  0  0  0  0  0  0  0  0  0  0
  153.6321  138.4009  156.4708 H   0  0  0  0  0  0  0  0  0  0  0  0
  153.0513  137.9194  158.0376 H   0  0  0  0  0  0  0  0  0  0  0  0
  154.8435  136.7024  157.0804 H   0  0  0  0  0  0  0  0  0  0  0  0
  149.9446  138.3922  155.7658 H   0  0  0  0  0  0  0  0  0  0  0  0
  152.5813  139.8835  155.9643 H   0  0  0  0  0  0  0  0  0  0  0  0
  151.5820  139.6790  154.5208 H   0  0  0  0  0  0  0  0  0  0  0  0
  151.2829  141.8945  156.0727 H   0  0  0  0  0  0  0  0  0  0  0  0
  149.8555  141.0957  155.4080 H   0  0  0  0  0  0  0  0  0  0  0  0
  149.6704  138.7778  158.1278 H   0  0  0  0  0  0  0  0  0  0  0  0
  151.3695  139.2107  158.3272 H   0  0  0  0  0  0  0  0  0  0  0  0
  148.1322  133.4330  153.0629 H   0  0  0  0  0  0  0  0  0  0  0  0
  146.6560  133.0887  153.9458 H   0  0  0  0  0  0  0  0  0  0  0  0
  1  2  1  0  0  0  0
  1 29  1  0  0  0  0
  2  3  1  0  0  0  0
  2 30  1  0  0  0  0
  2 31  1  0  0  0  0
  3  4  1  0  0  0  0
  3 32  1  0  0  0  0
  3 33  1  0  0  0  0
  4  5  1  0  0  0  0
  5 28  1  0  0  0  0
  5  6  1  0  0  0  0
  5 34  1  0  0  0  0
  6  7  1  0  0  0  0
  6 35  1  0  0  0  0
  6 36  1  0  0  0  0
  7  8  1  0  0  0  0
  7 37  1  0  0  0  0
  7 38  1  0  0  0  0
  8  9  1  0  0  0  0
  8 39  1  0  0  0  0
  8 40  1  0  0  0  0
  9 10  1  0  0  0  0
  9 28  1  0  0  0  0
 10 15  1  0  0  0  0
 10 11  2  0  0  0  0
 11 12  1  0  0  0  0
 12 13  2  0  0  0  0
 12 41  1  0  0  0  0
 13 14  1  0  0  0  0
 14 18  1  0  0  0  0
 14 15  2  0  0  0  0
 15 16  1  0  0  0  0
 16 17  2  0  0  0  0
 17 18  1  0  0  0  0
 17 42  1  0  0  0  0
 18 19  1  0  0  0  0
 19 20  1  0  0  0  0
 19 43  1  0  0  0  0
 19 44  1  0  0  0  0
 20 21  1  0  0  0  0
 20 23  1  0  0  0  0
 20 45  1  0  0  0  0
 21 22  1  0  0  0  0
 21 46  1  0  0  0  0
 21 47  1  0  0  0  0
 22 48  1  0  0  0  0
 23 27  1  0  0  0  0
 23 24  1  0  0  0  0
 23 49  1  0  0  0  0
 24 25  1  0  0  0  0
 24 50  1  0  0  0  0
 24 51  1  0  0  0  0
 25 26  1  0  0  0  0
 25 52  1  0  0  0  0
 25 53  1  0  0  0  0
 26 27  1  0  0  0  0
 27 54  1  0  0  0  0
 27 55  1  0  0  0  0
 28 56  1  0  0  0  0
 28 57  1  0  0  0  0
M  END
> <s_m_source_file>
AV-unprocessed.smi

> <i_m_source_file_index>
258

> <i_lp_mmshare_version>
43012

> <i_f3d_flags>
0

> <s_epik_input>
W09IXVtDSDJdW0NIMl1PW0NAQEhdMVtDSDJdW0NIMl1bQ0gyXU4oW0NIMl0xKWMobltjSF1uMiljKGMyMyluW2NIXW4zW0NIMl1bQ0BIXShbQ0gyXVtPSF0pW0NAQEhdNFtDSDJdW0NIMl1PW0NIMl00

> <s_epik_cmdline>
J2VwaWtfcHl0aG9uJywgJy1waCcsICc3LjAnLCAnLXRuJywgJzgnLCAnLW1hJywgJzIwMCcsICctbWV0YWxfYmluZGluZycsICctaW1hZScsICc8aW5maWxlLm1hZT4nLCAnLW9tYWUnLCAnPG91dGZpbGUubWFlPic=

> <r_lp_tautomer_probability>
1

> <r_epik_Ionization_Penalty>
0.00349036

> <r_epik_Ionization_Penalty_Charging>
0

> <r_epik_Ionization_Penalty_Neutral>
0.00349036

> <r_epik_State_Penalty>
0.00229798

> <r_epik_Charging_Adjusted_Penalty>
0.00229798

> <i_epik_Tot_Q>
0

> <i_epik_Tot_abs_Q>
0

> <r_epik_Metal_State_Penalty>
-0

> <b_epik_Metal_Only>
0

> <s_lp_Force_Field>
OPLS_2005

> <r_lp_Energy>
47.3811

> <b_lp_Chiralities_Consistent>
1

> <s_lp_Variant>
AV-unprocessed.smi:258-1

> <Gold.Version>
5.8.1

> <Gold.Id.Protein>
6NUR|6NUR_protein|mol2

> <Gold.PLP.Fitness>
43.6528

> <Gold.PLP.PLP>
-36.5272

> <Gold.PLP.part.hbond>
-4.0000

> <Gold.PLP.part.metal>
0.0000

> <Gold.PLP.part.buried>
-5.1283

> <Gold.PLP.part.nonpolar>
-29.2168

> <Gold.PLP.part.repulsive>
1.3813

> <Gold.PLP.ligand.clash>
0.0000

> <Gold.PLP.ligand.torsion>
1.8985

> <Gold.PLP.Chemscore.Hbond>
3.4380

> <Gold.PLP.Chemscore.CHOScore>
0.0677

> <Gold.PLP.Chemscore.Metal>
0.0000

> <Gold.Chemscore.Hbonds>
donor molecule, donor type, donor heavy atom, donor atom, acceptor molecule, acceptor atom, score
      L1  H     1    29       P1 10952  0.69
      P1  H  6896  6908       L1    13  0.80
      P1  H 10752 10765       L1    22  1.00
      P1  H 10785 10796       L1     1  0.75
      L1  C    17    42       P1  7948  0.02

> <Gold.PLP.Chemscore.Internal.Correction>
0.4055

> <Gold.Rescore>
     Score         DG    S(hbond)    S(metal)    S(lipo)     H(rot)  DE(clash)    DE(int)     intcor
      9.91     -13.16       2.72        0.00      80.44       4.22       0.01       3.25       ----

> <Gold.Chemscore.Fitness>
9.9054

> <Gold.Chemscore.DG>
-13.1613

> <Gold.Chemscore.ZeroCoef>
-5.4800

> <Gold.Chemscore.Hbond>
2.7198

> <Gold.Chemscore.Metal>
0.0000

> <Gold.Chemscore.Lipo>
80.4431

> <Gold.Chemscore.Internal_Hbond>
0.0000

> <Gold.Chemscore.DEClash>
0.0060

> <Gold.Chemscore.DEInternal>
3.2499

> <Gold.Chemscore.Rot>
4.2246

> <Gold.Chemscore.Internal.Correction>
   9.000000E+99

> <Gold.Chemscore.Hbonds>
donor molecule, donor type, donor heavy atom, donor atom, acceptor molecule, acceptor atom, score
      L1  H     1    29       P1 10952  0.66
      P1  H  6896  6908       L1    13  0.65
      P1  H 10752 10765       L1    22  0.52
      P1  H 10785 10796       L1     1  0.09

> <Gold.Chemscore.Hbond.Weighted>
-9.0843

> <Gold.Chemscore.Metal.Weighted>
-0.0000

> <Gold.Chemscore.Lipo.Weighted>
-9.4118

> <Gold.Chemscore.Internal_Hbond.Weighted>
0.0000

> <Gold.Chemscore.DEClash.Weighted>
0.0060

> <Gold.Chemscore.DEInternal.Weighted>
3.2499

> <Gold.Chemscore.Rot.Weighted>
10.8149

> <Gold.Chemscore.Internal.Correction.Weighted>
   9.000000E+99

> <Gold.Protein.RotatedTorsions>
[ 6907 6896 6895 6894 ] final   79.30 input  -60.11 | X-H torsion
[ 7974 7965 7964 7962 ] final   65.88 input  175.53 | X-H torsion
[ 8008 7997 7996 7995 ] final  112.89 input   59.86 | X-H torsion
[ 10167 10162 10161 10158 ] final  133.05 input  -65.29 | X-H torsion
[ 10718 10713 10712 10709 ] final  131.77 input   66.30 | X-H torsion
[ 10763 10752 10751 10750 ] final  -98.40 input  -60.55 | X-H torsion
[ 11005 11000 10999 10996 ] final -103.18 input  -57.11 | X-H torsion

> <Gold.Protein.ActiveResidues>
 VAL166  LYS551  ARG553  GLY616  TRP617  ASP618  TYR619  PRO620  LYS621  CYS622 
 ASP623  PHE694  ASN695  SER759  ASP760  ASP761  ALA762  ILE779  LEU786  VAL792 
 PHE793  MET794  SER795  GLU796  ALA797  LYS798  CYS799  TRP800  GLU811  SER814 

> <Gold.Protein.RotatedAtoms>
  152.5193  134.3532  159.9258 H   0  0  0  0  0  0  0  0  0  0  0  0  # atno 6907 bound_to 6896
  151.3483  133.3929  159.2685 H   0  0  0  0  0  0  0  0  0  0  0  0  # atno 6908 bound_to 6896
  150.9747  134.9132  159.7867 H   0  0  0  0  0  0  0  0  0  0  0  0  # atno 6909 bound_to 6896
  145.8332  139.3151  143.0975 H   0  0  0  0  0  0  0  0  0  0  0  0  # atno 7974 bound_to 7965
  156.2222  140.2990  155.9980 H   0  0  0  0  0  0  0  0  0  0  0  0  # atno 8008 bound_to 7997
  155.2451  140.0424  157.2997 H   0  0  0  0  0  0  0  0  0  0  0  0  # atno 8009 bound_to 7997
  154.5858  140.2388  155.7997 H   0  0  0  0  0  0  0  0  0  0  0  0  # atno 8010 bound_to 7997
  139.5313  144.6633  151.4941 H   0  0  0  0  0  0  0  0  0  0  0  0  # atno 10167 bound_to 10162
  157.4936  131.1091  150.9523 H   0  0  0  0  0  0  0  0  0  0  0  0  # atno 10718 bound_to 10713
  154.7410  135.5011  153.9123 H   0  0  0  0  0  0  0  0  0  0  0  0  # atno 10763 bound_to 10752
  153.1044  135.6693  153.9622 H   0  0  0  0  0  0  0  0  0  0  0  0  # atno 10764 bound_to 10752
  153.9399  135.3069  155.3422 H   0  0  0  0  0  0  0  0  0  0  0  0  # atno 10765 bound_to 10752
  141.1157  133.8619  157.1454 H   0  0  0  0  0  0  0  0  0  0  0  0  # atno 11005 bound_to 11000
  145.9548  140.8881  143.0241 LP  0  0  0  0  0  0  0  0  0  0  0  0  # atno 17320 bound_to 7965
  144.6738  140.1730  143.7412 LP  0  0  0  0  0  0  0  0  0  0  0  0  # atno 17321 bound_to 7965
  140.6493  143.8730  150.6769 LP  0  0  0  0  0  0  0  0  0  0  0  0  # atno 17342 bound_to 10162
  140.2089  143.3899  152.1733 LP  0  0  0  0  0  0  0  0  0  0  0  0  # atno 17343 bound_to 10162
  157.0217  130.5676  149.5332 LP  0  0  0  0  0  0  0  0  0  0  0  0  # atno 17370 bound_to 10713
  156.0187  130.5282  150.8212 LP  0  0  0  0  0  0  0  0  0  0  0  0  # atno 17371 bound_to 10713
  140.0078  135.0001  157.0329 LP  0  0  0  0  0  0  0  0  0  0  0  0  # atno 17394 bound_to 11000
  140.4652  134.1442  155.7196 LP  0  0  0  0  0  0  0  0  0  0  0  0  # atno 17395 bound_to 11000

$$$$
