AV-unprocessed.smi:1824|AV-procd|sdf|7398|dock9
  -GOLD-   22720 9 73D 1   1.00000     0.00000
 Structure written by MMmdl.
 44 46  0  0  0  0  0  0  0  0  1 V2000
  143.0108  139.9304  156.1980 C   0  0  0  0  0  0  0  0  0  0  0  0
  144.3637  140.6492  156.1750 C   0  0  1  0  0  0  0  0  0  0  0  0
  145.3918  139.9210  155.2910 C   0  0  0  0  0  0  0  0  0  0  0  0
  146.6525  140.6473  155.2068 N   0  0  0  0  0  0  0  0  0  0  0  0
  147.6276  139.9103  154.4013 C   0  0  0  0  0  0  0  0  0  0  0  0
  149.0972  140.3473  154.5687 C   0  0  1  0  0  0  0  0  0  0  0  0
  149.5571  140.8786  153.3406 O   0  0  0  0  0  0  0  0  0  0  0  0
  149.2467  141.4156  155.6683 C   0  0  0  0  0  0  0  0  0  0  0  0
  150.4497  141.2309  156.4603 N   0  0  0  0  0  0  0  0  0  0  0  0
  151.3952  140.2854  156.2981 C   0  0  0  0  0  0  0  0  0  0  0  0
  152.4215  140.2987  157.1441 N   0  0  0  0  0  0  0  0  0  0  0  0
  152.1059  141.3793  157.9497 C   0  0  0  0  0  0  0  0  0  0  0  0
  152.7934  141.9330  159.0534 C   0  0  0  0  0  0  0  0  0  0  0  0
  152.2720  143.0549  159.7308 C   0  0  0  0  0  0  0  0  0  0  0  0
  152.9436  143.5729  160.7864 F   0  0  0  0  0  0  0  0  0  0  0  0
  151.0572  143.6396  159.3153 C   0  0  0  0  0  0  0  0  0  0  0  0
  150.5639  144.7165  159.9713 F   0  0  0  0  0  0  0  0  0  0  0  0
  150.3543  143.1052  158.2183 C   0  0  0  0  0  0  0  0  0  0  0  0
  150.8783  141.9859  157.5463 C   0  0  0  0  0  0  0  0  0  0  0  0
  146.3909  141.9903  154.6911 C   0  0  0  0  0  0  0  0  0  0  0  0
  145.3394  142.7538  155.5214 C   0  0  2  0  0  0  0  0  0  0  0  0
  145.8745  143.2428  156.8780 C   0  0  0  0  0  0  0  0  0  0  0  0
  144.1566  141.9670  155.6704 O   0  0  0  0  0  0  0  0  0  0  0  0
  143.1109  138.9182  156.5905 H   0  0  0  0  0  0  0  0  0  0  0  0
  142.5835  139.8614  155.1973 H   0  0  0  0  0  0  0  0  0  0  0  0
  142.2982  140.4623  156.8289 H   0  0  0  0  0  0  0  0  0  0  0  0
  144.7383  140.7073  157.1973 H   0  0  0  0  0  0  0  0  0  0  0  0
  145.5676  138.9240  155.6972 H   0  0  0  0  0  0  0  0  0  0  0  0
  144.9794  139.7807  154.2901 H   0  0  0  0  0  0  0  0  0  0  0  0
  147.5640  138.8478  154.6422 H   0  0  0  0  0  0  0  0  0  0  0  0
  147.3482  139.9893  153.3495 H   0  0  0  0  0  0  0  0  0  0  0  0
  149.7264  139.4981  154.8311 H   0  0  0  0  0  0  0  0  0  0  0  0
  149.4487  140.2224  152.6696 H   0  0  0  0  0  0  0  0  0  0  0  0
  149.2629  142.4158  155.2325 H   0  0  0  0  0  0  0  0  0  0  0  0
  148.3904  141.3833  156.3429 H   0  0  0  0  0  0  0  0  0  0  0  0
  151.3243  139.5433  155.5162 H   0  0  0  0  0  0  0  0  0  0  0  0
  153.7240  141.4940  159.3805 H   0  0  0  0  0  0  0  0  0  0  0  0
  149.4237  143.5493  157.8984 H   0  0  0  0  0  0  0  0  0  0  0  0
  147.3061  142.5800  154.6635 H   0  0  0  0  0  0  0  0  0  0  0  0
  146.0402  141.9192  153.6603 H   0  0  0  0  0  0  0  0  0  0  0  0
  145.0473  143.6402  154.9576 H   0  0  0  0  0  0  0  0  0  0  0  0
  146.7046  143.9360  156.7397 H   0  0  0  0  0  0  0  0  0  0  0  0
  146.2372  142.4219  157.4962 H   0  0  0  0  0  0  0  0  0  0  0  0
  145.0979  143.7652  157.4370 H   0  0  0  0  0  0  0  0  0  0  0  0
  1  2  1  0  0  0  0
  1 24  1  0  0  0  0
  1 25  1  0  0  0  0
  1 26  1  0  0  0  0
  2 23  1  0  0  0  0
  2  3  1  0  0  0  0
  2 27  1  0  0  0  0
  3  4  1  0  0  0  0
  3 28  1  0  0  0  0
  3 29  1  0  0  0  0
  4  5  1  0  0  0  0
  4 20  1  0  0  0  0
  5  6  1  0  0  0  0
  5 30  1  0  0  0  0
  5 31  1  0  0  0  0
  6  7  1  0  0  0  0
  6  8  1  0  0  0  0
  6 32  1  0  0  0  0
  7 33  1  0  0  0  0
  8  9  1  0  0  0  0
  8 34  1  0  0  0  0
  8 35  1  0  0  0  0
  9 19  1  0  0  0  0
  9 10  1  0  0  0  0
 10 11  2  0  0  0  0
 10 36  1  0  0  0  0
 11 12  1  0  0  0  0
 12 19  2  0  0  0  0
 12 13  1  0  0  0  0
 13 14  2  0  0  0  0
 13 37  1  0  0  0  0
 14 15  1  0  0  0  0
 14 16  1  0  0  0  0
 16 17  1  0  0  0  0
 16 18  2  0  0  0  0
 18 19  1  0  0  0  0
 18 38  1  0  0  0  0
 20 21  1  0  0  0  0
 20 39  1  0  0  0  0
 20 40  1  0  0  0  0
 21 22  1  0  0  0  0
 21 23  1  0  0  0  0
 21 41  1  0  0  0  0
 22 42  1  0  0  0  0
 22 43  1  0  0  0  0
 22 44  1  0  0  0  0
M  END
> <s_m_source_file>
AV-unprocessed.smi

> <i_m_source_file_index>
1824

> <i_lp_mmshare_version>
43012

> <i_f3d_flags>
0

> <s_epik_input>
W0NIM11bQ0BASF0xW0NIMl1OKFtDSDJdW0NASF0oTzEpW0NIM10pW0NIMl1bQ0BIXShbT0hdKVtDSDJdbihbY0hdbjIpYyhjMjMpW2NIXWMoRiljKEYpW2NIXTM=

> <s_epik_cmdline>
J2VwaWtfcHl0aG9uJywgJy1waCcsICc3LjAnLCAnLXRuJywgJzgnLCAnLW1hJywgJzIwMCcsICctbWV0YWxfYmluZGluZycsICctaW1hZScsICc8aW5maWxlLm1hZT4nLCAnLW9tYWUnLCAnPG91dGZpbGUubWFlPic=

> <r_epik_Ionization_Penalty>
0.273778

> <r_epik_Ionization_Penalty_Charging>
0

> <r_epik_Ionization_Penalty_Neutral>
0.273778

> <r_epik_State_Penalty>
0.246794

> <r_epik_Charging_Adjusted_Penalty>
0.246794

> <i_epik_Tot_Q>
0

> <i_epik_Tot_abs_Q>
0

> <r_epik_Metal_State_Penalty>
0.238234

> <b_epik_Metal_Only>
0

> <s_lp_Force_Field>
OPLS_2005

> <r_lp_Energy>
30.0542

> <b_lp_Chiralities_Consistent>
1

> <s_lp_Variant>
AV-unprocessed.smi:1824-6

> <Gold.Version>
5.8.1

> <Gold.Id.Protein>
6NUR|6NUR_protein|mol2

> <Gold.PLP.Fitness>
44.9670

> <Gold.PLP.PLP>
-38.5033

> <Gold.PLP.part.hbond>
-3.4052

> <Gold.PLP.part.metal>
0.0000

> <Gold.PLP.part.buried>
-6.6528

> <Gold.PLP.part.nonpolar>
-29.3263

> <Gold.PLP.part.repulsive>
0.1989

> <Gold.PLP.ligand.clash>
0.0000

> <Gold.PLP.ligand.torsion>
1.4027

> <Gold.PLP.Chemscore.Hbond>
3.0891

> <Gold.PLP.Chemscore.CHOScore>
0.0000

> <Gold.PLP.Chemscore.Metal>
0.0000

> <Gold.Chemscore.Hbonds>
donor molecule, donor type, donor heavy atom, donor atom, acceptor molecule, acceptor atom, score
      L1  H     7    33       P1  7957  0.79
      P1  H  7989  7998       L1     7  0.24
      P1  H  7997  8010       L1    11  0.99
      P1  H  8011  8017       L1     7  1.00

> <Gold.PLP.Chemscore.Internal.Correction>
0.0019

> <Gold.Rescore>
     Score         DG    S(hbond)    S(metal)    S(lipo)     H(rot)  DE(clash)    DE(int)     intcor
     14.91     -16.41       2.14        0.00      81.71       2.26       0.07       1.44       ----

> <Gold.Chemscore.Fitness>
14.9061

> <Gold.Chemscore.DG>
-16.4120

> <Gold.Chemscore.ZeroCoef>
-5.4800

> <Gold.Chemscore.Hbond>
2.1445

> <Gold.Chemscore.Metal>
0.0000

> <Gold.Chemscore.Lipo>
81.7079

> <Gold.Chemscore.Internal_Hbond>
0.0000

> <Gold.Chemscore.DEClash>
0.0669

> <Gold.Chemscore.DEInternal>
1.4390

> <Gold.Chemscore.Rot>
2.2619

> <Gold.Chemscore.Internal.Correction>
   9.000000E+99

> <Gold.Chemscore.Hbonds>
donor molecule, donor type, donor heavy atom, donor atom, acceptor molecule, acceptor atom, score
      L1  H     7    33       P1  7957  0.73
      P1  H  7989  7998       L1     7  0.03
      P1  H  7997  8010       L1    11  0.82
      P1  H  8011  8017       L1     7  0.30

> <Gold.Chemscore.Hbond.Weighted>
-7.1626

> <Gold.Chemscore.Metal.Weighted>
-0.0000

> <Gold.Chemscore.Lipo.Weighted>
-9.5598

> <Gold.Chemscore.Internal_Hbond.Weighted>
0.0000

> <Gold.Chemscore.DEClash.Weighted>
0.0669

> <Gold.Chemscore.DEInternal.Weighted>
1.4390

> <Gold.Chemscore.Rot.Weighted>
5.7904

> <Gold.Chemscore.Internal.Correction.Weighted>
   9.000000E+99

> <Gold.Protein.RotatedTorsions>
[ 6907 6896 6895 6894 ] final   49.66 input  -60.11 | X-H torsion
[ 7974 7965 7964 7962 ] final -140.42 input  175.53 | X-H torsion
[ 8008 7997 7996 7995 ] final   65.73 input   59.86 | X-H torsion
[ 10167 10162 10161 10158 ] final -170.00 input  -65.29 | X-H torsion
[ 10718 10713 10712 10709 ] final  165.15 input   66.30 | X-H torsion
[ 10763 10752 10751 10750 ] final  130.60 input  -60.55 | X-H torsion
[ 11005 11000 10999 10996 ] final -120.66 input  -57.11 | X-H torsion

> <Gold.Protein.ActiveResidues>
 VAL166  LYS551  ARG553  GLY616  TRP617  ASP618  TYR619  PRO620  LYS621  CYS622 
 ASP623  PHE694  ASN695  SER759  ASP760  ASP761  ALA762  ILE779  LEU786  VAL792 
 PHE793  MET794  SER795  GLU796  ALA797  LYS798  CYS799  TRP800  GLU811  SER814 

> <Gold.Protein.RotatedAtoms>
  152.2933  134.7696  160.0373 H   0  0  0  0  0  0  0  0  0  0  0  0  # atno 6907 bound_to 6896
  151.8235  133.3393  159.3599 H   0  0  0  0  0  0  0  0  0  0  0  0  # atno 6908 bound_to 6896
  150.7240  134.5480  159.5825 H   0  0  0  0  0  0  0  0  0  0  0  0  # atno 6909 bound_to 6896
  144.8598  140.6202  143.5335 H   0  0  0  0  0  0  0  0  0  0  0  0  # atno 7974 bound_to 7965
  155.6663  140.3497  155.4801 H   0  0  0  0  0  0  0  0  0  0  0  0  # atno 8008 bound_to 7997
  155.9726  140.1159  157.0821 H   0  0  0  0  0  0  0  0  0  0  0  0  # atno 8009 bound_to 7997
  154.4170  140.1154  156.5313 H   0  0  0  0  0  0  0  0  0  0  0  0  # atno 8010 bound_to 7997
  139.5888  144.1259  152.1609 H   0  0  0  0  0  0  0  0  0  0  0  0  # atno 10167 bound_to 10162
  157.0843  131.0400  151.2563 H   0  0  0  0  0  0  0  0  0  0  0  0  # atno 10718 bound_to 10713
  153.7607  135.3196  155.3336 H   0  0  0  0  0  0  0  0  0  0  0  0  # atno 10763 bound_to 10752
  154.8231  135.4589  154.0841 H   0  0  0  0  0  0  0  0  0  0  0  0  # atno 10764 bound_to 10752
  153.2071  135.6930  153.8243 H   0  0  0  0  0  0  0  0  0  0  0  0  # atno 10765 bound_to 10752
  141.0127  134.0240  157.3391 H   0  0  0  0  0  0  0  0  0  0  0  0  # atno 11005 bound_to 11000
  145.4334  139.1546  143.4010 LP  0  0  0  0  0  0  0  0  0  0  0  0  # atno 17320 bound_to 7965
  146.2852  140.4451  142.8761 LP  0  0  0  0  0  0  0  0  0  0  0  0  # atno 17321 bound_to 7965
  140.0828  144.5686  150.7110 LP  0  0  0  0  0  0  0  0  0  0  0  0  # atno 17342 bound_to 10162
  140.7155  143.2541  151.4448 LP  0  0  0  0  0  0  0  0  0  0  0  0  # atno 17343 bound_to 10162
  157.4774  130.7745  149.7381 LP  0  0  0  0  0  0  0  0  0  0  0  0  # atno 17370 bound_to 10713
  155.9915  130.3937  150.2982 LP  0  0  0  0  0  0  0  0  0  0  0  0  # atno 17371 bound_to 10713
  139.9099  135.0188  156.7648 LP  0  0  0  0  0  0  0  0  0  0  0  0  # atno 17394 bound_to 11000
  140.6706  133.9563  155.7854 LP  0  0  0  0  0  0  0  0  0  0  0  0  # atno 17395 bound_to 11000

$$$$
