AV-unprocessed.smi:3032|AV-procd|sdf|11566|dock8
  -GOLD-   2272016533D 1   1.00000     0.00000
 Structure written by MMmdl.
 37 38  0  0  0  0  0  0  0  0  1 V2000
  151.6066  145.5149  160.0254 C   0  0  0  0  0  0  0  0  0  0  0  0
  151.9771  144.2352  159.2622 C   0  0  1  0  0  0  0  0  0  0  0  0
  152.5502  143.1619  160.2075 C   0  0  0  0  0  0  0  0  0  0  0  0
  152.9084  141.8741  159.4492 C   0  0  0  0  0  0  0  0  0  0  0  0
  151.6972  141.3283  158.6774 C   0  0  0  0  0  0  0  0  0  0  0  0
  151.1291  142.3891  157.7120 C   0  0  1  0  0  0  0  0  0  0  0  0
  149.9036  141.8563  156.9591 C   0  0  0  0  0  0  0  0  0  0  0  0
  148.9404  141.4093  157.5820 O   0  0  0  0  0  0  0  0  0  0  0  0
  149.9433  141.9352  155.6192 N   0  0  0  0  0  0  0  0  0  0  0  0
  148.8476  141.5862  154.7174 C   0  0  0  0  0  0  0  0  0  0  0  0
  148.7417  140.0651  154.4941 C   0  0  0  0  0  0  0  0  0  0  0  0
  150.0629  139.3761  154.3508 C   0  0  0  0  0  0  0  0  0  0  0  0
  151.2310  139.8665  154.7823 N   0  0  0  0  0  0  0  0  0  0  0  0
  152.1757  138.8979  154.4811 N   0  0  0  0  0  0  0  0  0  0  0  0
  151.4858  137.9177  153.8960 C   0  0  0  0  0  0  0  0  0  0  0  0
  150.1752  138.1631  153.7869 N   0  0  0  0  0  0  0  0  0  0  0  0
  150.7702  143.6779  158.4825 C   0  0  0  0  0  0  0  0  0  0  0  0
  149.4533  137.5790  153.3911 H   0  0  0  0  0  0  0  0  0  0  0  0
  150.8217  145.3256  160.7582 H   0  0  0  0  0  0  0  0  0  0  0  0
  151.2472  146.2874  159.3451 H   0  0  0  0  0  0  0  0  0  0  0  0
  152.4680  145.9195  160.5575 H   0  0  0  0  0  0  0  0  0  0  0  0
  152.7524  144.4961  158.5403 H   0  0  0  0  0  0  0  0  0  0  0  0
  153.4366  143.5451  160.7137 H   0  0  0  0  0  0  0  0  0  0  0  0
  151.8241  142.9323  160.9885 H   0  0  0  0  0  0  0  0  0  0  0  0
  153.7258  142.0733  158.7551 H   0  0  0  0  0  0  0  0  0  0  0  0
  153.2731  141.1214  160.1486 H   0  0  0  0  0  0  0  0  0  0  0  0
  151.9895  140.4345  158.1247 H   0  0  0  0  0  0  0  0  0  0  0  0
  150.9312  141.0149  159.3889 H   0  0  0  0  0  0  0  0  0  0  0  0
  151.9031  142.6325  156.9820 H   0  0  0  0  0  0  0  0  0  0  0  0
  150.7795  142.3088  155.1943 H   0  0  0  0  0  0  0  0  0  0  0  0
  147.9185  141.9565  155.1505 H   0  0  0  0  0  0  0  0  0  0  0  0
  148.9585  142.0955  153.7587 H   0  0  0  0  0  0  0  0  0  0  0  0
  148.1980  139.6101  155.3231 H   0  0  0  0  0  0  0  0  0  0  0  0
  148.1509  139.8680  153.5989 H   0  0  0  0  0  0  0  0  0  0  0  0
  151.9445  137.0062  153.5423 H   0  0  0  0  0  0  0  0  0  0  0  0
  149.9507  143.4817  159.1762 H   0  0  0  0  0  0  0  0  0  0  0  0
  150.4057  144.4341  157.7856 H   0  0  0  0  0  0  0  0  0  0  0  0
  1  2  1  0  0  0  0
  1 19  1  0  0  0  0
  1 20  1  0  0  0  0
  1 21  1  0  0  0  0
  2 17  1  0  0  0  0
  2  3  1  0  0  0  0
  2 22  1  0  0  0  0
  3  4  1  0  0  0  0
  3 23  1  0  0  0  0
  3 24  1  0  0  0  0
  4  5  1  0  0  0  0
  4 25  1  0  0  0  0
  4 26  1  0  0  0  0
  5  6  1  0  0  0  0
  5 27  1  0  0  0  0
  5 28  1  0  0  0  0
  6  7  1  0  0  0  0
  6 17  1  0  0  0  0
  6 29  1  0  0  0  0
  7  8  2  0  0  0  0
  7  9  1  0  0  0  0
  9 10  1  0  0  0  0
  9 30  1  0  0  0  0
 10 11  1  0  0  0  0
 10 31  1  0  0  0  0
 10 32  1  0  0  0  0
 11 12  1  0  0  0  0
 11 33  1  0  0  0  0
 11 34  1  0  0  0  0
 12 16  1  0  0  0  0
 12 13  2  0  0  0  0
 13 14  1  0  0  0  0
 14 15  2  0  0  0  0
 15 16  1  0  0  0  0
 15 35  1  0  0  0  0
 16 18  1  0  0  0  0
 17 36  1  0  0  0  0
 17 37  1  0  0  0  0
M  END
> <s_m_source_file>
AV-unprocessed.smi

> <i_m_source_file_index>
3032

> <i_lp_mmshare_version>
43012

> <i_f3d_flags>
0

> <s_epik_input>
W0NIM11bQ0BASF0xW0NIMl1bQ0gyXVtDSDJdW0NASF0oW0NIMl0xKUMoPU8pW05IXVtDSDJdW0NIMl1jMm5uW2NIXVtuSF0y

> <s_epik_cmdline>
J2VwaWtfcHl0aG9uJywgJy1waCcsICc3LjAnLCAnLXRuJywgJzgnLCAnLW1hJywgJzIwMCcsICctbWV0YWxfYmluZGluZycsICctaW1hZScsICc8aW5maWxlLm1hZT4nLCAnLW9tYWUnLCAnPG91dGZpbGUubWFlPic=

> <r_lp_tautomer_probability>
0.0517155

> <r_epik_Ionization_Penalty>
0.00149837

> <r_epik_Ionization_Penalty_Charging>
0

> <r_epik_Ionization_Penalty_Neutral>
0.00149837

> <r_epik_State_Penalty>
2.1109

> <r_epik_Charging_Adjusted_Penalty>
2.1109

> <i_epik_Tot_Q>
0

> <i_epik_Tot_abs_Q>
0

> <r_epik_Metal_State_Penalty>
2.23635

> <b_epik_Metal_Only>
0

> <s_lp_Force_Field>
OPLS_2005

> <r_lp_Energy>
11.6052

> <b_lp_Chiralities_Consistent>
1

> <s_lp_Variant>
AV-unprocessed.smi:3032-10

> <Gold.Version>
5.8.1

> <Gold.Id.Protein>
6NUR|6NUR_protein|mol2

> <Gold.PLP.Fitness>
45.9852

> <Gold.PLP.PLP>
-40.1258

> <Gold.PLP.part.hbond>
-3.1745

> <Gold.PLP.part.metal>
0.0000

> <Gold.PLP.part.buried>
-4.5106

> <Gold.PLP.part.nonpolar>
-33.6073

> <Gold.PLP.part.repulsive>
0.4350

> <Gold.PLP.ligand.clash>
0.0000

> <Gold.PLP.ligand.torsion>
0.6105

> <Gold.PLP.Chemscore.Hbond>
1.6441

> <Gold.PLP.Chemscore.CHOScore>
0.7106

> <Gold.PLP.Chemscore.Metal>
0.0000

> <Gold.Chemscore.Hbonds>
donor molecule, donor type, donor heavy atom, donor atom, acceptor molecule, acceptor atom, score
      L1  H    16    18       P1  7948  0.80
      P1  H  7989  7998       L1    13  0.75
      L1  C    15    35       P1  7949  0.80

> <Gold.PLP.Chemscore.Internal.Correction>
0.0164

> <Gold.Rescore>
     Score         DG    S(hbond)    S(metal)    S(lipo)     H(rot)  DE(clash)    DE(int)     intcor
     11.93     -13.51       0.98        0.00      89.97       2.25       0.08       1.50       ----

> <Gold.Chemscore.Fitness>
11.9318

> <Gold.Chemscore.DG>
-13.5106

> <Gold.Chemscore.ZeroCoef>
-5.4800

> <Gold.Chemscore.Hbond>
0.9773

> <Gold.Chemscore.Metal>
0.0000

> <Gold.Chemscore.Lipo>
89.9704

> <Gold.Chemscore.Internal_Hbond>
0.0000

> <Gold.Chemscore.DEClash>
0.0775

> <Gold.Chemscore.DEInternal>
1.5012

> <Gold.Chemscore.Rot>
2.2501

> <Gold.Chemscore.Internal.Correction>
   9.000000E+99

> <Gold.Chemscore.Hbonds>
donor molecule, donor type, donor heavy atom, donor atom, acceptor molecule, acceptor atom, score
      L1  H    16    18       P1  7948  0.71
      P1  H  7989  7998       L1    13  0.03

> <Gold.Chemscore.Hbond.Weighted>
-3.2643

> <Gold.Chemscore.Metal.Weighted>
-0.0000

> <Gold.Chemscore.Lipo.Weighted>
-10.5265

> <Gold.Chemscore.Internal_Hbond.Weighted>
0.0000

> <Gold.Chemscore.DEClash.Weighted>
0.0775

> <Gold.Chemscore.DEInternal.Weighted>
1.5012

> <Gold.Chemscore.Rot.Weighted>
5.7603

> <Gold.Chemscore.Internal.Correction.Weighted>
   9.000000E+99

> <Gold.Protein.RotatedTorsions>
[ 6907 6896 6895 6894 ] final -146.85 input  -60.11 | X-H torsion
[ 7974 7965 7964 7962 ] final  166.35 input  175.53 | X-H torsion
[ 8008 7997 7996 7995 ] final   94.11 input   59.86 | X-H torsion
[ 10167 10162 10161 10158 ] final   81.79 input  -65.29 | X-H torsion
[ 10718 10713 10712 10709 ] final  -91.23 input   66.30 | X-H torsion
[ 10763 10752 10751 10750 ] final -145.76 input  -60.55 | X-H torsion
[ 11005 11000 10999 10996 ] final -122.79 input  -57.11 | X-H torsion

> <Gold.Protein.ActiveResidues>
 VAL166  LYS551  ARG553  GLY616  TRP617  ASP618  TYR619  PRO620  LYS621  CYS622 
 ASP623  PHE694  ASN695  SER759  ASP760  ASP761  ALA762  ILE779  LEU786  VAL792 
 PHE793  MET794  SER795  GLU796  ALA797  LYS798  CYS799  TRP800  GLU811  SER814 

> <Gold.Protein.RotatedAtoms>
  151.1474  133.4930  159.2595 H   0  0  0  0  0  0  0  0  0  0  0  0  # atno 6907 bound_to 6896
  151.1590  135.0264  159.8712 H   0  0  0  0  0  0  0  0  0  0  0  0  # atno 6908 bound_to 6896
  152.5463  134.1350  159.8508 H   0  0  0  0  0  0  0  0  0  0  0  0  # atno 6909 bound_to 6896
  144.7466  139.8602  143.6380 H   0  0  0  0  0  0  0  0  0  0  0  0  # atno 7974 bound_to 7965
  156.0543  140.3304  155.7387 H   0  0  0  0  0  0  0  0  0  0  0  0  # atno 8008 bound_to 7997
  155.5553  140.0614  157.2858 H   0  0  0  0  0  0  0  0  0  0  0  0  # atno 8009 bound_to 7997
  154.4450  140.1887  156.0716 H   0  0  0  0  0  0  0  0  0  0  0  0  # atno 8010 bound_to 7997
  139.9355  144.6124  150.8302 H   0  0  0  0  0  0  0  0  0  0  0  0  # atno 10167 bound_to 10162
  155.9992  130.4940  150.5443 H   0  0  0  0  0  0  0  0  0  0  0  0  # atno 10718 bound_to 10713
  154.8368  135.3404  154.6555 H   0  0  0  0  0  0  0  0  0  0  0  0  # atno 10763 bound_to 10752
  153.7169  135.6960  153.5027 H   0  0  0  0  0  0  0  0  0  0  0  0  # atno 10764 bound_to 10752
  153.2410  135.4384  155.0651 H   0  0  0  0  0  0  0  0  0  0  0  0  # atno 10765 bound_to 10752
  140.9969  134.0459  157.3587 H   0  0  0  0  0  0  0  0  0  0  0  0  # atno 11005 bound_to 11000
  146.1354  139.4398  143.0142 LP  0  0  0  0  0  0  0  0  0  0  0  0  # atno 17320 bound_to 7965
  145.7100  141.0109  143.1458 LP  0  0  0  0  0  0  0  0  0  0  0  0  # atno 17321 bound_to 7965
  140.7625  143.3201  151.2642 LP  0  0  0  0  0  0  0  0  0  0  0  0  # atno 17342 bound_to 10162
  139.6747  143.9959  152.2774 LP  0  0  0  0  0  0  0  0  0  0  0  0  # atno 17343 bound_to 10162
  157.3375  131.0711  151.1814 LP  0  0  0  0  0  0  0  0  0  0  0  0  # atno 17370 bound_to 10713
  157.2673  130.6687  149.6003 LP  0  0  0  0  0  0  0  0  0  0  0  0  # atno 17371 bound_to 10713
  139.9019  135.0167  156.7308 LP  0  0  0  0  0  0  0  0  0  0  0  0  # atno 17394 bound_to 11000
  140.6952  133.9355  155.7990 LP  0  0  0  0  0  0  0  0  0  0  0  0  # atno 17395 bound_to 11000

$$$$
