AV-unprocessed.smi:1240|AV-procd|sdf|5208|dock1
  -GOLD-   22720 4293D 1   1.00000     0.00000
 Structure written by MMmdl.
 49 51  0  0  0  0  0  0  0  0  3 V2000
  145.5851  135.2894  155.0977 O   0  0  0  0  0  0  0  0  0  0  0  0
  146.4870  135.4565  154.2771 C   0  0  0  0  0  0  0  0  0  0  0  0
  147.7505  135.7451  154.6198 N   0  0  0  0  0  0  0  0  0  0  0  0
  148.2318  135.9021  155.9877 C   0  0  0  0  0  0  0  0  0  0  0  0
  148.3342  137.3819  156.4587 C   0  0  1  0  0  0  0  0  0  0  0  0
  148.1421  137.5750  157.9904 C   0  0  2  0  0  0  0  0  0  0  0  0
  148.5467  136.3991  158.8682 C   0  0  0  0  0  0  0  0  0  0  0  0
  147.7559  136.6239  160.1570 C   0  0  0  0  0  0  0  0  0  0  0  0
  146.6781  137.4888  159.8182 O   0  0  0  0  0  0  0  0  0  0  0  0
  146.6790  137.7217  158.4183 C   0  0  0  0  0  0  0  0  0  0  0  0
  149.6178  138.0115  156.0241 N   0  3  0  0  0  0  0  0  0  0  0  0
  150.0787  137.6770  154.6525 C   0  0  0  0  0  0  0  0  0  0  0  0
  151.4903  138.2417  154.4235 C   0  0  0  0  0  0  0  0  0  0  0  0
  151.4786  139.6486  154.6359 O   0  0  0  0  0  0  0  0  0  0  0  0
  151.1088  139.9870  155.9676 C   0  0  0  0  0  0  0  0  0  0  0  0
  149.6876  139.4745  156.2582 C   0  0  0  0  0  0  0  0  0  0  0  0
  146.3475  135.3892  152.9419 N   0  0  0  0  0  0  0  0  0  0  0  0
  145.1810  135.0845  152.1888 C   0  0  0  0  0  0  0  0  0  0  0  0
  144.0372  134.6563  152.8987 C   0  0  0  0  0  0  0  0  0  0  0  0
  142.8521  134.3606  152.1947 C   0  0  0  0  0  0  0  0  0  0  0  0
  142.8157  134.4980  150.8522 N   0  3  0  0  0  0  0  0  0  0  0  0
  143.8783  134.9172  150.1318 C   0  0  0  0  0  0  0  0  0  0  0  0
  145.0908  135.2278  150.7807 C   0  0  0  0  0  0  0  0  0  0  0  0
  148.4289  135.8723  153.8824 H   0  0  0  0  0  0  0  0  0  0  0  0
  147.5445  135.3497  156.6281 H   0  0  0  0  0  0  0  0  0  0  0  0
  149.1953  135.3979  156.0694 H   0  0  0  0  0  0  0  0  0  0  0  0
  147.5397  137.9494  155.9724 H   0  0  0  0  0  0  0  0  0  0  0  0
  148.6909  138.4553  158.3272 H   0  0  0  0  0  0  0  0  0  0  0  0
  148.2383  135.4588  158.4089 H   0  0  0  0  0  0  0  0  0  0  0  0
  149.6191  136.3491  159.0569 H   0  0  0  0  0  0  0  0  0  0  0  0
  147.3880  135.6858  160.5734 H   0  0  0  0  0  0  0  0  0  0  0  0
  148.3709  137.1116  160.9139 H   0  0  0  0  0  0  0  0  0  0  0  0
  146.2658  138.7042  158.1880 H   0  0  0  0  0  0  0  0  0  0  0  0
  146.0548  136.9681  157.9352 H   0  0  0  0  0  0  0  0  0  0  0  0
  150.0909  136.5975  154.5044 H   0  0  0  0  0  0  0  0  0  0  0  0
  149.3996  138.0982  153.9105 H   0  0  0  0  0  0  0  0  0  0  0  0
  152.2139  137.7654  155.0872 H   0  0  0  0  0  0  0  0  0  0  0  0
  151.8141  138.0412  153.4022 H   0  0  0  0  0  0  0  0  0  0  0  0
  151.8262  139.5663  156.6742 H   0  0  0  0  0  0  0  0  0  0  0  0
  151.1481  141.0704  156.0814 H   0  0  0  0  0  0  0  0  0  0  0  0
  148.9724  139.9941  155.6203 H   0  0  0  0  0  0  0  0  0  0  0  0
  149.4226  139.7028  157.2911 H   0  0  0  0  0  0  0  0  0  0  0  0
  147.1605  135.6391  152.3979 H   0  0  0  0  0  0  0  0  0  0  0  0
  144.0648  134.5480  153.9734 H   0  0  0  0  0  0  0  0  0  0  0  0
  141.9385  134.0231  152.6622 H   0  0  0  0  0  0  0  0  0  0  0  0
  143.7264  134.9974  149.0654 H   0  0  0  0  0  0  0  0  0  0  0  0
  145.9209  135.5808  150.1880 H   0  0  0  0  0  0  0  0  0  0  0  0
  150.3139  137.6219  156.6437 H   0  0  0  0  0  0  0  0  0  0  0  0
  141.9477  134.2806  150.3619 H   0  0  0  0  0  0  0  0  0  0  0  0
  1  2  2  0  0  0  0
  2  3  1  0  0  0  0
  2 17  1  0  0  0  0
  3  4  1  0  0  0  0
  3 24  1  0  0  0  0
  4  5  1  0  0  0  0
  4 25  1  0  0  0  0
  4 26  1  0  0  0  0
  5  6  1  0  0  0  0
  5 11  1  0  0  0  0
  5 27  1  0  0  0  0
  6 10  1  0  0  0  0
  6  7  1  0  0  0  0
  6 28  1  0  0  0  0
  7  8  1  0  0  0  0
  7 29  1  0  0  0  0
  7 30  1  0  0  0  0
  8  9  1  0  0  0  0
  8 31  1  0  0  0  0
  8 32  1  0  0  0  0
  9 10  1  0  0  0  0
 10 33  1  0  0  0  0
 10 34  1  0  0  0  0
 11 16  1  0  0  0  0
 11 12  1  0  0  0  0
 11 48  1  0  0  0  0
 12 13  1  0  0  0  0
 12 35  1  0  0  0  0
 12 36  1  0  0  0  0
 13 14  1  0  0  0  0
 13 37  1  0  0  0  0
 13 38  1  0  0  0  0
 14 15  1  0  0  0  0
 15 16  1  0  0  0  0
 15 39  1  0  0  0  0
 15 40  1  0  0  0  0
 16 41  1  0  0  0  0
 16 42  1  0  0  0  0
 17 18  1  0  0  0  0
 17 43  1  0  0  0  0
 18 23  1  0  0  0  0
 18 19  2  0  0  0  0
 19 20  1  0  0  0  0
 19 44  1  0  0  0  0
 20 21  2  0  0  0  0
 20 45  1  0  0  0  0
 21 22  1  0  0  0  0
 21 49  1  0  0  0  0
 22 23  2  0  0  0  0
 22 46  1  0  0  0  0
 23 47  1  0  0  0  0
M  CHG  1  11   1
M  CHG  1  21   1
M  END
> <s_m_source_file>
AV-unprocessed.smi

> <i_m_source_file_index>
1240

> <i_lp_mmshare_version>
43012

> <i_f3d_flags>
0

> <s_epik_input>
W2NIXTFbY0hdbltjSF1bY0hdYzFbTkhdQyg9TylbTkhdW0NIMl1bQ0BIXShbQ0BASF0yW0NIMl1bQ0gyXU9bQ0gyXTIpTjNbQ0gyXVtDSDJdT1tDSDJdW0NIMl0z

> <s_epik_cmdline>
J2VwaWtfcHl0aG9uJywgJy1waCcsICc3LjAnLCAnLXRuJywgJzgnLCAnLW1hJywgJzIwMCcsICctbWV0YWxfYmluZGluZycsICctaW1hZScsICc8aW5maWxlLm1hZT4nLCAnLW9tYWUnLCAnPG91dGZpbGUubWFlPic=

> <r_epik_Ionization_Penalty>
2.08105

> <r_epik_Ionization_Penalty_Charging>
2.08103

> <r_epik_Ionization_Penalty_Neutral>
2.04144e-05

> <r_epik_State_Penalty>
2.15598

> <r_epik_Charging_Adjusted_Penalty>
4.23701

> <i_epik_Tot_Q>
2

> <i_epik_Tot_abs_Q>
2

> <r_epik_Metal_State_Penalty>
2.25158

> <b_epik_Metal_Only>
0

> <s_lp_Force_Field>
OPLS_2005

> <r_lp_Energy>
49.9195

> <b_lp_Chiralities_Consistent>
1

> <s_lp_Variant>
AV-unprocessed.smi:1240-14

> <Gold.Version>
5.8.1

> <Gold.Id.Protein>
6NUR|6NUR_protein|mol2

> <Gold.PLP.Fitness>
44.4094

> <Gold.PLP.PLP>
-29.7657

> <Gold.PLP.part.hbond>
-4.9346

> <Gold.PLP.part.metal>
0.0000

> <Gold.PLP.part.buried>
-3.7988

> <Gold.PLP.part.nonpolar>
-21.1886

> <Gold.PLP.part.repulsive>
0.0997

> <Gold.PLP.ligand.clash>
0.0000

> <Gold.PLP.ligand.torsion>
1.4523

> <Gold.PLP.Chemscore.Hbond>
5.7338

> <Gold.PLP.Chemscore.CHOScore>
0.0000

> <Gold.PLP.Chemscore.Metal>
0.0000

> <Gold.Chemscore.Hbonds>
donor molecule, donor type, donor heavy atom, donor atom, acceptor molecule, acceptor atom, score
      L1  H     3    24       P1  7948  0.81
      L1  H    17    43       P1  7948  1.00
      L1  H    21    49       P1 10186  0.55
      P1  H  6934  6947       L1     9  0.95
      P1  H  7989  7998       L1    14  1.00

> <Gold.PLP.Chemscore.Internal.Correction>
0.3469

> <Gold.Rescore>
     Score         DG    S(hbond)    S(metal)    S(lipo)     H(rot)  DE(clash)    DE(int)     intcor
     19.06     -22.94       4.28        0.00      65.23       1.74       0.03       3.86       ----

> <Gold.Chemscore.Fitness>
19.0568

> <Gold.Chemscore.DG>
-22.9436

> <Gold.Chemscore.ZeroCoef>
-5.4800

> <Gold.Chemscore.Hbond>
4.2789

> <Gold.Chemscore.Metal>
0.0000

> <Gold.Chemscore.Lipo>
65.2272

> <Gold.Chemscore.Internal_Hbond>
0.0000

> <Gold.Chemscore.DEClash>
0.0309

> <Gold.Chemscore.DEInternal>
3.8559

> <Gold.Chemscore.Rot>
1.7421

> <Gold.Chemscore.Internal.Correction>
   9.000000E+99

> <Gold.Chemscore.Hbonds>
donor molecule, donor type, donor heavy atom, donor atom, acceptor molecule, acceptor atom, score
      L1  H     3    24       P1  7948  0.78
      L1  H    17    43       P1  7948  0.99
      L1  H    21    49       P1 10186  0.11
      P1  H  6934  6947       L1     9  0.19
      P1  H  7989  7998       L1    14  0.97

> <Gold.Chemscore.Hbond.Weighted>
-14.2917

> <Gold.Chemscore.Metal.Weighted>
-0.0000

> <Gold.Chemscore.Lipo.Weighted>
-7.6316

> <Gold.Chemscore.Internal_Hbond.Weighted>
0.0000

> <Gold.Chemscore.DEClash.Weighted>
0.0309

> <Gold.Chemscore.DEInternal.Weighted>
3.8559

> <Gold.Chemscore.Rot.Weighted>
4.4597

> <Gold.Chemscore.Internal.Correction.Weighted>
   9.000000E+99

> <Gold.Protein.RotatedTorsions>
[ 6907 6896 6895 6894 ] final -122.78 input  -60.11 | X-H torsion
[ 7974 7965 7964 7962 ] final   47.26 input  175.53 | X-H torsion
[ 8008 7997 7996 7995 ] final   74.00 input   59.86 | X-H torsion
[ 10167 10162 10161 10158 ] final  132.44 input  -65.29 | X-H torsion
[ 10718 10713 10712 10709 ] final   84.51 input   66.30 | X-H torsion
[ 10763 10752 10751 10750 ] final -124.05 input  -60.55 | X-H torsion
[ 11005 11000 10999 10996 ] final -124.22 input  -57.11 | X-H torsion

> <Gold.Protein.ActiveResidues>
 VAL166  LYS551  ARG553  GLY616  TRP617  ASP618  TYR619  PRO620  LYS621  CYS622 
 ASP623  PHE694  ASN695  SER759  ASP760  ASP761  ALA762  ILE779  LEU786  VAL792 
 PHE793  MET794  SER795  GLU796  ALA797  LYS798  CYS799  TRP800  GLU811  SER814 

> <Gold.Protein.RotatedAtoms>
  150.8608  133.7646  159.2992 H   0  0  0  0  0  0  0  0  0  0  0  0  # atno 6907 bound_to 6896
  151.5289  135.1066  159.9907 H   0  0  0  0  0  0  0  0  0  0  0  0  # atno 6908 bound_to 6896
  152.4625  133.7808  159.6905 H   0  0  0  0  0  0  0  0  0  0  0  0  # atno 6909 bound_to 6896
  146.0314  139.4768  142.9835 H   0  0  0  0  0  0  0  0  0  0  0  0  # atno 7974 bound_to 7965
  155.7919  140.3479  155.5354 H   0  0  0  0  0  0  0  0  0  0  0  0  # atno 8008 bound_to 7997
  155.8625  140.0973  157.1624 H   0  0  0  0  0  0  0  0  0  0  0  0  # atno 8009 bound_to 7997
  154.4012  140.1356  156.3966 H   0  0  0  0  0  0  0  0  0  0  0  0  # atno 8010 bound_to 7997
  139.5339  144.6661  151.4853 H   0  0  0  0  0  0  0  0  0  0  0  0  # atno 10167 bound_to 10162
  157.6899  131.0136  150.2684 H   0  0  0  0  0  0  0  0  0  0  0  0  # atno 10718 bound_to 10713
  154.8717  135.4077  154.3043 H   0  0  0  0  0  0  0  0  0  0  0  0  # atno 10763 bound_to 10752
  153.3897  135.7014  153.6509 H   0  0  0  0  0  0  0  0  0  0  0  0  # atno 10764 bound_to 10752
  153.5297  135.3670  155.2641 H   0  0  0  0  0  0  0  0  0  0  0  0  # atno 10765 bound_to 10752
  140.9858  134.0609  157.3713 H   0  0  0  0  0  0  0  0  0  0  0  0  # atno 11005 bound_to 11000
  145.7034  141.0129  143.1492 LP  0  0  0  0  0  0  0  0  0  0  0  0  # atno 17320 bound_to 7965
  144.7032  139.8672  143.7438 LP  0  0  0  0  0  0  0  0  0  0  0  0  # atno 17321 bound_to 7965
  140.6535  143.8648  150.6810 LP  0  0  0  0  0  0  0  0  0  0  0  0  # atno 17342 bound_to 10162
  140.2020  143.3951  152.1784 LP  0  0  0  0  0  0  0  0  0  0  0  0  # atno 17343 bound_to 10162
  156.3251  130.3792  149.7540 LP  0  0  0  0  0  0  0  0  0  0  0  0  # atno 17370 bound_to 10713
  156.5098  130.8167  151.3164 LP  0  0  0  0  0  0  0  0  0  0  0  0  # atno 17371 bound_to 10713
  139.8970  135.0148  156.7078 LP  0  0  0  0  0  0  0  0  0  0  0  0  # atno 17394 bound_to 11000
  140.7117  133.9218  155.8088 LP  0  0  0  0  0  0  0  0  0  0  0  0  # atno 17395 bound_to 11000

$$$$
