AV-unprocessed.smi:2706|AV-procd|sdf|10451|dock1
  -GOLD-   2272014493D 1   1.00000     0.00000
 Structure written by MMmdl.
 44 47  0  0  0  0  0  0  0  0  2 V2000
  145.6648  132.3393  150.7220 C   0  0  0  0  0  0  0  0  0  0  0  0
  146.5028  133.4390  151.1739 N   0  0  0  0  0  0  0  0  0  0  0  0
  147.5499  133.0932  152.1230 C   0  0  0  0  0  0  0  0  0  0  0  0
  145.7574  134.5551  151.5714 C   0  0  0  0  0  0  0  0  0  0  0  0
  144.3689  134.5094  151.8250 C   0  0  0  0  0  0  0  0  0  0  0  0
  143.7075  135.6860  152.2272 C   0  0  0  0  0  0  0  0  0  0  0  0
  144.4415  136.8822  152.3614 C   0  0  0  0  0  0  0  0  0  0  0  0
  145.8315  136.8856  152.0807 C   0  0  0  0  0  0  0  0  0  0  0  0
  146.6727  138.0254  152.1942 N   0  0  0  0  0  0  0  0  0  0  0  0
  146.6626  138.9832  153.1381 C   0  0  0  0  0  0  0  0  0  0  0  0
  145.8889  139.0310  154.0941 O   0  0  0  0  0  0  0  0  0  0  0  0
  147.6037  139.9064  152.8990 N   0  0  0  0  0  0  0  0  0  0  0  0
  147.8642  141.0597  153.6986 C   0  0  2  0  0  0  0  0  0  0  0  0
  149.2025  141.2591  154.3870 C   0  0  2  0  0  0  0  0  0  0  0  0
  150.2156  140.2474  154.9345 C   0  0  2  0  0  0  0  0  0  0  0  0
  149.8999  138.7921  154.5354 C   0  0  0  0  0  0  0  0  0  0  0  0
  148.6350  138.4888  155.3676 C   0  0  0  0  0  0  0  0  0  0  0  0
  148.4083  139.8157  156.1203 C   0  0  1  0  0  0  0  0  0  0  0  0
  149.8496  140.2153  156.4143 C   0  0  0  0  0  0  0  0  0  0  0  0
  147.9513  140.9618  155.2103 C   0  0  2  0  0  0  0  0  0  0  0  0
  146.4193  135.7244  151.7114 N   0  3  0  0  0  0  0  0  0  0  0  0
  144.9066  132.6894  150.0204 H   0  0  0  0  0  0  0  0  0  0  0  0
  145.1622  131.8591  151.5627 H   0  0  0  0  0  0  0  0  0  0  0  0
  146.2711  131.5893  150.2137 H   0  0  0  0  0  0  0  0  0  0  0  0
  148.1345  133.9732  152.3945 H   0  0  0  0  0  0  0  0  0  0  0  0
  148.2289  132.3622  151.6835 H   0  0  0  0  0  0  0  0  0  0  0  0
  147.1293  132.6632  153.0327 H   0  0  0  0  0  0  0  0  0  0  0  0
  143.8176  133.5864  151.7181 H   0  0  0  0  0  0  0  0  0  0  0  0
  142.6477  135.6710  152.4354 H   0  0  0  0  0  0  0  0  0  0  0  0
  143.9228  137.7705  152.6880 H   0  0  0  0  0  0  0  0  0  0  0  0
  147.3208  138.1630  151.4327 H   0  0  0  0  0  0  0  0  0  0  0  0
  148.1909  139.7879  152.0862 H   0  0  0  0  0  0  0  0  0  0  0  0
  147.4056  141.9802  153.3400 H   0  0  0  0  0  0  0  0  0  0  0  0
  149.5601  142.2865  154.4251 H   0  0  0  0  0  0  0  0  0  0  0  0
  151.2434  140.5484  154.7299 H   0  0  0  0  0  0  0  0  0  0  0  0
  149.7698  138.6612  153.4620 H   0  0  0  0  0  0  0  0  0  0  0  0
  150.7137  138.1317  154.8382 H   0  0  0  0  0  0  0  0  0  0  0  0
  147.7752  138.1780  154.7760 H   0  0  0  0  0  0  0  0  0  0  0  0
  148.8386  137.6839  156.0752 H   0  0  0  0  0  0  0  0  0  0  0  0
  147.7762  139.7201  157.0035 H   0  0  0  0  0  0  0  0  0  0  0  0
  150.4052  139.4740  156.9922 H   0  0  0  0  0  0  0  0  0  0  0  0
  149.9373  141.1878  156.9026 H   0  0  0  0  0  0  0  0  0  0  0  0
  147.5373  141.8059  155.7592 H   0  0  0  0  0  0  0  0  0  0  0  0
  147.4214  135.7265  151.5203 H   0  0  0  0  0  0  0  0  0  0  0  0
  1  2  1  0  0  0  0
  1 22  1  0  0  0  0
  1 23  1  0  0  0  0
  1 24  1  0  0  0  0
  2  3  1  0  0  0  0
  2  4  1  0  0  0  0
  3 25  1  0  0  0  0
  3 26  1  0  0  0  0
  3 27  1  0  0  0  0
  4 21  1  0  0  0  0
  4  5  2  0  0  0  0
  5  6  1  0  0  0  0
  5 28  1  0  0  0  0
  6  7  2  0  0  0  0
  6 29  1  0  0  0  0
  7  8  1  0  0  0  0
  7 30  1  0  0  0  0
  8  9  1  0  0  0  0
  8 21  2  0  0  0  0
  9 10  1  0  0  0  0
  9 31  1  0  0  0  0
 10 11  2  0  0  0  0
 10 12  1  0  0  0  0
 12 13  1  0  0  0  0
 12 32  1  0  0  0  0
 13 20  1  0  0  0  0
 13 14  1  0  0  0  0
 13 33  1  0  0  0  0
 14 20  1  0  0  0  0
 14 15  1  0  0  0  0
 14 34  1  0  0  0  0
 15 19  1  0  0  0  0
 15 16  1  0  0  0  0
 15 35  1  0  0  0  0
 16 17  1  0  0  0  0
 16 36  1  0  0  0  0
 16 37  1  0  0  0  0
 17 18  1  0  0  0  0
 17 38  1  0  0  0  0
 17 39  1  0  0  0  0
 18 19  1  0  0  0  0
 18 20  1  0  0  0  0
 18 40  1  0  0  0  0
 19 41  1  0  0  0  0
 19 42  1  0  0  0  0
 20 43  1  0  0  0  0
 21 44  1  0  0  0  0
M  CHG  1  21   1
M  END
> <s_m_source_file>
AV-unprocessed.smi

> <i_m_source_file_index>
2706

> <i_lp_mmshare_version>
43012

> <i_f3d_flags>
0

> <s_epik_input>
W0NIM11OKFtDSDNdKWMxW2NIXVtjSF1bY0hdYyhuMSlbTkhdQyg9TylbTkhdW0NASF0yW0NAQEhdM1tDQEBIXShbQ0gyXTQpW0NIMl1bQ0gyXVtDQEBIXTRbQ0BIXTIz

> <s_epik_cmdline>
J2VwaWtfcHl0aG9uJywgJy1waCcsICc3LjAnLCAnLXRuJywgJzgnLCAnLW1hJywgJzIwMCcsICctbWV0YWxfYmluZGluZycsICctaW1hZScsICc8aW5maWxlLm1hZT4nLCAnLW9tYWUnLCAnPG91dGZpbGUubWFlPic=

> <r_lp_tautomer_probability>
0.999994

> <r_epik_Ionization_Penalty>
1.8105

> <r_epik_Ionization_Penalty_Charging>
1.79227

> <r_epik_Ionization_Penalty_Neutral>
0.0182286

> <r_epik_State_Penalty>
1.90588

> <r_epik_Charging_Adjusted_Penalty>
3.69815

> <i_epik_Tot_Q>
1

> <i_epik_Tot_abs_Q>
1

> <r_epik_Metal_State_Penalty>
1.93501

> <b_epik_Metal_Only>
0

> <s_lp_Force_Field>
OPLS_2005

> <r_lp_Energy>
97.8144

> <b_lp_Chiralities_Consistent>
1

> <s_lp_Variant>
AV-unprocessed.smi:2706-8

> <Gold.Version>
5.8.1

> <Gold.Id.Protein>
6NUR|6NUR_protein|mol2

> <Gold.PLP.Fitness>
41.2916

> <Gold.PLP.PLP>
-33.1966

> <Gold.PLP.part.hbond>
-2.9612

> <Gold.PLP.part.metal>
0.0000

> <Gold.PLP.part.buried>
-2.6497

> <Gold.PLP.part.nonpolar>
-28.0343

> <Gold.PLP.part.repulsive>
0.7203

> <Gold.PLP.ligand.clash>
0.0000

> <Gold.PLP.ligand.torsion>
0.5939

> <Gold.PLP.Chemscore.Hbond>
3.0000

> <Gold.PLP.Chemscore.CHOScore>
0.0000

> <Gold.PLP.Chemscore.Metal>
0.0000

> <Gold.Chemscore.Hbonds>
donor molecule, donor type, donor heavy atom, donor atom, acceptor molecule, acceptor atom, score
      L1  H    12    32       P1  7957  1.00
      L1  H    21    44       P1  7948  2.00

> <Gold.PLP.Chemscore.Internal.Correction>
0.2829

> <Gold.Rescore>
     Score         DG    S(hbond)    S(metal)    S(lipo)     H(rot)  DE(clash)    DE(int)     intcor
     16.24     -17.03       1.96        0.00      69.09       1.21       0.16       0.63       ----

> <Gold.Chemscore.Fitness>
16.2361

> <Gold.Chemscore.DG>
-17.0265

> <Gold.Chemscore.ZeroCoef>
-5.4800

> <Gold.Chemscore.Hbond>
1.9638

> <Gold.Chemscore.Metal>
0.0000

> <Gold.Chemscore.Lipo>
69.0853

> <Gold.Chemscore.Internal_Hbond>
0.0000

> <Gold.Chemscore.DEClash>
0.1560

> <Gold.Chemscore.DEInternal>
0.6344

> <Gold.Chemscore.Rot>
1.2092

> <Gold.Chemscore.Internal.Correction>
   9.000000E+99

> <Gold.Chemscore.Hbonds>
donor molecule, donor type, donor heavy atom, donor atom, acceptor molecule, acceptor atom, score
      L1  H    12    32       P1  7957  0.98
      L1  H    21    44       P1  7948  0.95

> <Gold.Chemscore.Hbond.Weighted>
-6.5591

> <Gold.Chemscore.Metal.Weighted>
-0.0000

> <Gold.Chemscore.Lipo.Weighted>
-8.0830

> <Gold.Chemscore.Internal_Hbond.Weighted>
0.0000

> <Gold.Chemscore.DEClash.Weighted>
0.1560

> <Gold.Chemscore.DEInternal.Weighted>
0.6344

> <Gold.Chemscore.Rot.Weighted>
3.0956

> <Gold.Chemscore.Internal.Correction.Weighted>
   9.000000E+99

> <Gold.Protein.RotatedTorsions>
[ 6907 6896 6895 6894 ] final   47.38 input  -60.11 | X-H torsion
[ 7974 7965 7964 7962 ] final -103.01 input  175.53 | X-H torsion
[ 8008 7997 7996 7995 ] final -162.35 input   59.86 | X-H torsion
[ 10167 10162 10161 10158 ] final  -81.26 input  -65.29 | X-H torsion
[ 10718 10713 10712 10709 ] final -133.28 input   66.30 | X-H torsion
[ 10763 10752 10751 10750 ] final  146.50 input  -60.55 | X-H torsion
[ 11005 11000 10999 10996 ] final   79.69 input  -57.11 | X-H torsion

> <Gold.Protein.ActiveResidues>
 VAL166  LYS551  ARG553  GLY616  TRP617  ASP618  TYR619  PRO620  LYS621  CYS622 
 ASP623  PHE694  ASN695  SER759  ASP760  ASP761  ALA762  ILE779  LEU786  VAL792 
 PHE793  MET794  SER795  GLU796  ALA797  LYS798  CYS799  TRP800  GLU811  SER814 

> <Gold.Protein.RotatedAtoms>
  152.2673  134.7970  160.0420 H   0  0  0  0  0  0  0  0  0  0  0  0  # atno 6907 bound_to 6896
  151.8595  133.3449  159.3707 H   0  0  0  0  0  0  0  0  0  0  0  0  # atno 6908 bound_to 6896
  150.7139  134.5148  159.5669 H   0  0  0  0  0  0  0  0  0  0  0  0  # atno 6909 bound_to 6896
  145.2613  140.9270  143.3039 H   0  0  0  0  0  0  0  0  0  0  0  0  # atno 7974 bound_to 7965
  155.8055  140.0898  157.1933 H   0  0  0  0  0  0  0  0  0  0  0  0  # atno 8008 bound_to 7997
  154.3981  140.1464  156.3384 H   0  0  0  0  0  0  0  0  0  0  0  0  # atno 8009 bound_to 7997
  155.8419  140.3438  155.5640 H   0  0  0  0  0  0  0  0  0  0  0  0  # atno 8010 bound_to 7997
  140.4428  143.2509  151.8600 H   0  0  0  0  0  0  0  0  0  0  0  0  # atno 10167 bound_to 10162
  156.2433  130.7109  151.0979 H   0  0  0  0  0  0  0  0  0  0  0  0  # atno 10718 bound_to 10713
  154.0229  135.2904  155.3378 H   0  0  0  0  0  0  0  0  0  0  0  0  # atno 10763 bound_to 10752
  154.7035  135.5179  153.8564 H   0  0  0  0  0  0  0  0  0  0  0  0  # atno 10764 bound_to 10752
  153.0673  135.6635  154.0449 H   0  0  0  0  0  0  0  0  0  0  0  0  # atno 10765 bound_to 10752
  139.9163  134.7862  156.1812 H   0  0  0  0  0  0  0  0  0  0  0  0  # atno 11005 bound_to 11000
  144.9416  139.4183  143.6446 LP  0  0  0  0  0  0  0  0  0  0  0  0  # atno 17320 bound_to 7965
  146.3274  139.8378  142.8896 LP  0  0  0  0  0  0  0  0  0  0  0  0  # atno 17321 bound_to 7965
  139.4791  144.5209  151.8803 LP  0  0  0  0  0  0  0  0  0  0  0  0  # atno 17342 bound_to 10162
  140.4298  144.2131  150.5888 LP  0  0  0  0  0  0  0  0  0  0  0  0  # atno 17343 bound_to 10162
  157.7184  131.0696  150.6234 LP  0  0  0  0  0  0  0  0  0  0  0  0  # atno 17370 bound_to 10713
  156.6309  130.4431  149.5787 LP  0  0  0  0  0  0  0  0  0  0  0  0  # atno 17371 bound_to 10713
  141.0641  133.6827  156.2010 LP  0  0  0  0  0  0  0  0  0  0  0  0  # atno 17394 bound_to 11000
  140.6613  134.4964  157.5583 LP  0  0  0  0  0  0  0  0  0  0  0  0  # atno 17395 bound_to 11000

$$$$
