AV-unprocessed.smi:212|AV-procd|sdf|1628|dock1
  -GOLD-   2262019573D 1   1.00000     0.00000
 Structure written by MMmdl.
 65 68  0  0  0  0  0  0  0  0  2 V2000
  144.2340  137.3738  153.9073 C   0  0  0  0  0  0  0  0  0  0  0  0
  145.0000  136.0369  153.9263 C   0  0  1  0  0  0  0  0  0  0  0  0
  145.3602  135.5146  152.5184 C   0  0  0  0  0  0  0  0  0  0  0  0
  146.0358  134.1917  152.5960 N   0  3  1  0  0  0  0  0  0  0  0  0
  146.3433  133.6091  151.2626 C   0  0  0  0  0  0  0  0  0  0  0  0
  145.2222  132.6781  150.7435 C   0  0  0  0  0  0  0  0  0  0  0  0
  145.4849  131.2319  151.1959 C   0  0  0  0  0  0  0  0  0  0  0  0
  143.8245  133.1333  151.2030 C   0  0  0  0  0  0  0  0  0  0  0  0
  145.2442  132.6663  149.3299 O   0  0  0  0  0  0  0  0  0  0  0  0
  147.2063  134.2056  153.5115 C   0  0  0  0  0  0  0  0  0  0  0  0
  146.8145  134.7213  154.9093 C   0  0  0  0  0  0  0  0  0  0  0  0
  146.1654  136.0256  154.8200 N   0  0  0  0  0  0  0  0  0  0  0  0
  147.0499  137.0557  154.8357 C   0  0  0  0  0  0  0  0  0  0  0  0
  147.1459  137.9056  153.7797 N   0  0  0  0  0  0  0  0  0  0  0  0
  148.0349  138.9034  153.7969 C   0  0  0  0  0  0  0  0  0  0  0  0
  148.9135  139.2214  154.7495 N   0  0  0  0  0  0  0  0  0  0  0  0
  148.8269  138.3656  155.8075 C   0  0  0  0  0  0  0  0  0  0  0  0
  147.9361  137.2628  155.9274 C   0  0  0  0  0  0  0  0  0  0  0  0
  148.1421  136.6136  157.1381 N   0  0  0  0  0  0  0  0  0  0  0  0
  149.0999  137.2959  157.7047 C   0  0  0  0  0  0  0  0  0  0  0  0
  149.5570  138.3764  156.9830 N   0  0  0  0  0  0  0  0  0  0  0  0
  150.6065  139.3016  157.3688 C   0  0  0  0  0  0  0  0  0  0  0  0
  150.2184  140.8027  157.2804 C   0  0  2  0  0  0  0  0  0  0  0  0
  150.4850  141.2967  155.8416 C   0  0  0  0  0  0  0  0  0  0  0  0
  149.3783  142.0078  155.3258 O   0  0  0  0  0  0  0  0  0  0  0  0
  150.8690  141.7565  158.3294 C   0  0  1  0  0  0  0  0  0  0  0  0
  152.3704  141.6619  158.5343 C   0  0  0  0  0  0  0  0  0  0  0  0
  152.6378  142.9217  159.3500 C   0  0  0  0  0  0  0  0  0  0  0  0
  151.7159  143.8941  158.8652 O   0  0  0  0  0  0  0  0  0  0  0  0
  150.6675  143.2624  158.1334 C   0  0  0  0  0  0  0  0  0  0  0  0
  143.2938  137.2689  153.3654 H   0  0  0  0  0  0  0  0  0  0  0  0
  144.7947  138.1717  153.4217 H   0  0  0  0  0  0  0  0  0  0  0  0
  143.9924  137.7014  154.9190 H   0  0  0  0  0  0  0  0  0  0  0  0
  144.3091  135.3119  154.3591 H   0  0  0  0  0  0  0  0  0  0  0  0
  144.4519  135.4258  151.9225 H   0  0  0  0  0  0  0  0  0  0  0  0
  146.0035  136.2213  151.9943 H   0  0  0  0  0  0  0  0  0  0  0  0
  146.5489  134.4034  150.5425 H   0  0  0  0  0  0  0  0  0  0  0  0
  147.2659  133.0288  151.3205 H   0  0  0  0  0  0  0  0  0  0  0  0
  145.4772  131.1516  152.2835 H   0  0  0  0  0  0  0  0  0  0  0  0
  146.4549  130.8743  150.8474 H   0  0  0  0  0  0  0  0  0  0  0  0
  144.7258  130.5488  150.8124 H   0  0  0  0  0  0  0  0  0  0  0  0
  143.7614  133.1696  152.2911 H   0  0  0  0  0  0  0  0  0  0  0  0
  143.0499  132.4499  150.8529 H   0  0  0  0  0  0  0  0  0  0  0  0
  143.5749  134.1251  150.8248 H   0  0  0  0  0  0  0  0  0  0  0  0
  145.5128  133.5202  149.0245 H   0  0  0  0  0  0  0  0  0  0  0  0
  147.6139  133.1979  153.6007 H   0  0  0  0  0  0  0  0  0  0  0  0
  147.9921  134.8315  153.0855 H   0  0  0  0  0  0  0  0  0  0  0  0
  146.1216  134.0238  155.3812 H   0  0  0  0  0  0  0  0  0  0  0  0
  147.6936  134.7608  155.5540 H   0  0  0  0  0  0  0  0  0  0  0  0
  148.0432  139.5381  152.9231 H   0  0  0  0  0  0  0  0  0  0  0  0
  149.4937  137.0326  158.6758 H   0  0  0  0  0  0  0  0  0  0  0  0
  150.9455  139.0498  158.3737 H   0  0  0  0  0  0  0  0  0  0  0  0
  151.4571  139.1057  156.7144 H   0  0  0  0  0  0  0  0  0  0  0  0
  149.1390  140.8586  157.4287 H   0  0  0  0  0  0  0  0  0  0  0  0
  151.3728  141.9291  155.8049 H   0  0  0  0  0  0  0  0  0  0  0  0
  150.6675  140.4536  155.1747 H   0  0  0  0  0  0  0  0  0  0  0  0
  149.4337  142.9048  155.6184 H   0  0  0  0  0  0  0  0  0  0  0  0
  150.4433  141.5121  159.3038 H   0  0  0  0  0  0  0  0  0  0  0  0
  152.6741  140.7517  159.0521 H   0  0  0  0  0  0  0  0  0  0  0  0
  152.9246  141.7195  157.6021 H   0  0  0  0  0  0  0  0  0  0  0  0
  152.4311  142.7412  160.4058 H   0  0  0  0  0  0  0  0  0  0  0  0
  153.6678  143.2676  159.2611 H   0  0  0  0  0  0  0  0  0  0  0  0
  150.7715  143.5603  157.0918 H   0  0  0  0  0  0  0  0  0  0  0  0
  149.6890  143.5953  158.4804 H   0  0  0  0  0  0  0  0  0  0  0  0
  145.3695  133.5628  153.0209 H   0  0  0  0  0  0  0  0  0  0  0  0
  1  2  1  0  0  0  0
  1 31  1  0  0  0  0
  1 32  1  0  0  0  0
  1 33  1  0  0  0  0
  2 12  1  0  0  0  0
  2  3  1  0  0  0  0
  2 34  1  0  0  0  0
  3  4  1  0  0  0  0
  3 35  1  0  0  0  0
  3 36  1  0  0  0  0
  4  5  1  0  0  0  0
  4 10  1  0  0  0  0
  4 65  1  0  0  0  0
  5  6  1  0  0  0  0
  5 37  1  0  0  0  0
  5 38  1  0  0  0  0
  6  7  1  0  0  0  0
  6  8  1  0  0  0  0
  6  9  1  0  0  0  0
  7 39  1  0  0  0  0
  7 40  1  0  0  0  0
  7 41  1  0  0  0  0
  8 42  1  0  0  0  0
  8 43  1  0  0  0  0
  8 44  1  0  0  0  0
  9 45  1  0  0  0  0
 10 11  1  0  0  0  0
 10 46  1  0  0  0  0
 10 47  1  0  0  0  0
 11 12  1  0  0  0  0
 11 48  1  0  0  0  0
 11 49  1  0  0  0  0
 12 13  1  0  0  0  0
 13 18  1  0  0  0  0
 13 14  2  0  0  0  0
 14 15  1  0  0  0  0
 15 16  2  0  0  0  0
 15 50  1  0  0  0  0
 16 17  1  0  0  0  0
 17 21  1  0  0  0  0
 17 18  2  0  0  0  0
 18 19  1  0  0  0  0
 19 20  2  0  0  0  0
 20 21  1  0  0  0  0
 20 51  1  0  0  0  0
 21 22  1  0  0  0  0
 22 23  1  0  0  0  0
 22 52  1  0  0  0  0
 22 53  1  0  0  0  0
 23 24  1  0  0  0  0
 23 26  1  0  0  0  0
 23 54  1  0  0  0  0
 24 25  1  0  0  0  0
 24 55  1  0  0  0  0
 24 56  1  0  0  0  0
 25 57  1  0  0  0  0
 26 30  1  0  0  0  0
 26 27  1  0  0  0  0
 26 58  1  0  0  0  0
 27 28  1  0  0  0  0
 27 59  1  0  0  0  0
 27 60  1  0  0  0  0
 28 29  1  0  0  0  0
 28 61  1  0  0  0  0
 28 62  1  0  0  0  0
 29 30  1  0  0  0  0
 30 63  1  0  0  0  0
 30 64  1  0  0  0  0
M  CHG  1   4   1
M  END
> <s_m_source_file>
AV-unprocessed.smi

> <i_m_source_file_index>
212

> <i_lp_mmshare_version>
43012

> <i_f3d_flags>
0

> <s_epik_input>
W0NIM11bQ0BASF0xW0NIMl1OKFtDSDJdQyhbQ0gzXSkoW0NIM10pW09IXSlbQ0gyXVtDSDJdTjFjKG5bY0hdbjIpYyhjMjMpbltjSF1uM1tDSDJdW0NASF0oW0NIMl1bT0hdKVtDQEBIXTRbQ0gyXVtDSDJdT1tDSDJdNA==

> <s_epik_cmdline>
J2VwaWtfcHl0aG9uJywgJy1waCcsICc3LjAnLCAnLXRuJywgJzgnLCAnLW1hJywgJzIwMCcsICctbWV0YWxfYmluZGluZycsICctaW1hZScsICc8aW5maWxlLm1hZT4nLCAnLW9tYWUnLCAnPG91dGZpbGUubWFlPic=

> <r_lp_tautomer_probability>
1

> <r_epik_Ionization_Penalty>
0.00182193

> <r_epik_Ionization_Penalty_Charging>
0.00173996

> <r_epik_Ionization_Penalty_Neutral>
8.19718e-05

> <r_epik_State_Penalty>
-0

> <r_epik_Charging_Adjusted_Penalty>
0.00173996

> <i_epik_Tot_Q>
1

> <i_epik_Tot_abs_Q>
1

> <r_epik_Metal_State_Penalty>
-0

> <b_epik_Metal_Only>
0

> <s_lp_Force_Field>
OPLS_2005

> <r_lp_Energy>
60.5032

> <b_lp_Chiralities_Consistent>
1

> <s_lp_Variant>
AV-unprocessed.smi:212-12

> <Gold.Version>
5.8.1

> <Gold.Id.Protein>
6NUR|6NUR_protein|mol2

> <Gold.PLP.Fitness>
40.5643

> <Gold.PLP.PLP>
-34.8480

> <Gold.PLP.part.hbond>
-2.0000

> <Gold.PLP.part.metal>
0.0000

> <Gold.PLP.part.buried>
-6.3688

> <Gold.PLP.part.nonpolar>
-26.1625

> <Gold.PLP.part.repulsive>
0.5053

> <Gold.PLP.ligand.clash>
0.0000

> <Gold.PLP.ligand.torsion>
2.5075

> <Gold.PLP.Chemscore.Hbond>
2.0000

> <Gold.PLP.Chemscore.CHOScore>
1.0000

> <Gold.PLP.Chemscore.Metal>
0.0000

> <Gold.Chemscore.Hbonds>
donor molecule, donor type, donor heavy atom, donor atom, acceptor molecule, acceptor atom, score
      L1  H     9    45       P1  7921  1.00
      L1  H    25    57       P1  8028  1.00
      L1  C    15    50       P1  7957  1.00

> <Gold.PLP.Chemscore.Internal.Correction>
1.7313

> <Gold.Rescore>
     Score         DG    S(hbond)    S(metal)    S(lipo)     H(rot)  DE(clash)    DE(int)     intcor
      7.66     -12.77       1.71        0.00      94.04       3.68       0.07       5.03       ----

> <Gold.Chemscore.Fitness>
7.6602

> <Gold.Chemscore.DG>
-12.7658

> <Gold.Chemscore.ZeroCoef>
-5.4800

> <Gold.Chemscore.Hbond>
1.7088

> <Gold.Chemscore.Metal>
0.0000

> <Gold.Chemscore.Lipo>
94.0381

> <Gold.Chemscore.Internal_Hbond>
0.0000

> <Gold.Chemscore.DEClash>
0.0731

> <Gold.Chemscore.DEInternal>
5.0325

> <Gold.Chemscore.Rot>
3.6812

> <Gold.Chemscore.Internal.Correction>
   9.000000E+99

> <Gold.Chemscore.Hbonds>
donor molecule, donor type, donor heavy atom, donor atom, acceptor molecule, acceptor atom, score
      L1  H     9    45       P1  7921  0.28
      L1  H    25    57       P1  8028  0.97

> <Gold.Chemscore.Hbond.Weighted>
-5.7073

> <Gold.Chemscore.Metal.Weighted>
-0.0000

> <Gold.Chemscore.Lipo.Weighted>
-11.0025

> <Gold.Chemscore.Internal_Hbond.Weighted>
0.0000

> <Gold.Chemscore.DEClash.Weighted>
0.0731

> <Gold.Chemscore.DEInternal.Weighted>
5.0325

> <Gold.Chemscore.Rot.Weighted>
9.4239

> <Gold.Chemscore.Internal.Correction.Weighted>
   9.000000E+99

> <Gold.Protein.RotatedTorsions>
[ 6907 6896 6895 6894 ] final -109.71 input  -60.11 | X-H torsion
[ 7974 7965 7964 7962 ] final  -72.35 input  175.53 | X-H torsion
[ 8008 7997 7996 7995 ] final   71.64 input   59.86 | X-H torsion
[ 10167 10162 10161 10158 ] final  -12.37 input  -65.29 | X-H torsion
[ 10718 10713 10712 10709 ] final  101.78 input   66.30 | X-H torsion
[ 10763 10752 10751 10750 ] final    7.61 input  -60.55 | X-H torsion
[ 11005 11000 10999 10996 ] final   65.72 input  -57.11 | X-H torsion

> <Gold.Protein.ActiveResidues>
 VAL166  LYS551  ARG553  GLY616  TRP617  ASP618  TYR619  PRO620  LYS621  CYS622 
 ASP623  PHE694  ASN695  SER759  ASP760  ASP761  ALA762  ILE779  LEU786  VAL792 
 PHE793  MET794  SER795  GLU796  ALA797  LYS798  CYS799  TRP800  GLU811  SER814 

> <Gold.Protein.RotatedAtoms>
  150.7579  133.9488  159.3479 H   0  0  0  0  0  0  0  0  0  0  0  0  # atno 6907 bound_to 6896
  151.7404  135.0853  160.0324 H   0  0  0  0  0  0  0  0  0  0  0  0  # atno 6908 bound_to 6896
  152.3532  133.6168  159.5996 H   0  0  0  0  0  0  0  0  0  0  0  0  # atno 6909 bound_to 6896
  145.6663  140.9236  143.0907 H   0  0  0  0  0  0  0  0  0  0  0  0  # atno 7974 bound_to 7965
  155.7569  140.3487  155.5178 H   0  0  0  0  0  0  0  0  0  0  0  0  # atno 8008 bound_to 7997
  155.8951  140.1024  157.1411 H   0  0  0  0  0  0  0  0  0  0  0  0  # atno 8009 bound_to 7997
  154.4037  140.1297  156.4352 H   0  0  0  0  0  0  0  0  0  0  0  0  # atno 8010 bound_to 7997
  140.7160  143.5539  150.9270 H   0  0  0  0  0  0  0  0  0  0  0  0  # atno 10167 bound_to 10162
  157.6820  131.0735  150.5304 H   0  0  0  0  0  0  0  0  0  0  0  0  # atno 10718 bound_to 10713
  153.2344  135.6896  153.7854 H   0  0  0  0  0  0  0  0  0  0  0  0  # atno 10763 bound_to 10752
  153.7006  135.3298  155.3225 H   0  0  0  0  0  0  0  0  0  0  0  0  # atno 10764 bound_to 10752
  154.8328  135.4567  154.1241 H   0  0  0  0  0  0  0  0  0  0  0  0  # atno 10765 bound_to 10752
  139.9876  134.6642  156.0147 H   0  0  0  0  0  0  0  0  0  0  0  0  # atno 11005 bound_to 11000
  144.7072  139.8514  143.7426 LP  0  0  0  0  0  0  0  0  0  0  0  0  # atno 17320 bound_to 7965
  146.1083  139.4085  143.0303 LP  0  0  0  0  0  0  0  0  0  0  0  0  # atno 17321 bound_to 7965
  139.9264  143.6545  152.3086 LP  0  0  0  0  0  0  0  0  0  0  0  0  # atno 17342 bound_to 10162
  139.6980  144.7639  151.1323 LP  0  0  0  0  0  0  0  0  0  0  0  0  # atno 17343 bound_to 10162
  156.5614  130.4256  149.6061 LP  0  0  0  0  0  0  0  0  0  0  0  0  # atno 17370 bound_to 10713
  156.2818  130.7075  151.1901 LP  0  0  0  0  0  0  0  0  0  0  0  0  # atno 17371 bound_to 10713
  141.1538  133.6545  156.4098 LP  0  0  0  0  0  0  0  0  0  0  0  0  # atno 17394 bound_to 11000
  140.4971  134.6521  157.5234 LP  0  0  0  0  0  0  0  0  0  0  0  0  # atno 17395 bound_to 11000

$$$$
