AV-unprocessed.smi:557|AV-procd|sdf|2921|dock1
  -GOLD-   2262023413D 1   1.00000     0.00000
 Structure written by MMmdl.
 47 49  0  0  0  0  0  0  0  0  2 V2000
  152.2268  144.2179  158.5663 C   0  0  0  0  0  0  0  0  0  0  0  0
  151.5213  143.0085  158.1995 N   0  0  0  0  0  0  0  0  0  0  0  0
  150.9825  142.6640  156.9789 C   0  0  0  0  0  0  0  0  0  0  0  0
  150.4162  141.4278  157.1145 C   0  0  0  0  0  0  0  0  0  0  0  0
  149.6962  140.6078  156.0810 C   0  0  0  0  0  0  0  0  0  0  0  0
  149.7789  141.2559  154.6928 C   0  0  0  0  0  0  0  0  0  0  0  0
  149.2244  140.3659  153.6767 N   0  0  0  0  0  0  0  0  0  0  0  0
  147.9666  139.8992  153.6069 C   0  0  0  0  0  0  0  0  0  0  0  0
  147.1131  140.2017  154.4381 O   0  0  0  0  0  0  0  0  0  0  0  0
  147.7285  139.0921  152.5585 N   0  0  0  0  0  0  0  0  0  0  0  0
  146.4564  138.4324  152.2702 C   0  0  1  0  0  0  0  0  0  0  0  0
  146.4966  137.5666  150.9966 C   0  0  0  0  0  0  0  0  0  0  0  0
  145.6856  136.3172  151.3557 C   0  0  0  0  0  0  0  0  0  0  0  0
  145.9815  136.1378  152.7816 N   0  3  2  0  0  0  0  0  0  0  0  0
  145.1899  135.1600  153.5546 C   0  0  0  0  0  0  0  0  0  0  0  0
  145.8253  135.0213  154.9552 C   0  0  0  0  0  0  0  0  0  0  0  0
  146.0165  136.3883  155.6523 C   0  0  0  0  0  0  0  0  0  0  0  0
  146.7297  137.4082  154.7375 C   0  0  0  0  0  0  0  0  0  0  0  0
  145.9849  137.4782  153.3924 C   0  0  1  0  0  0  0  0  0  0  0  0
  150.6696  141.0959  158.4761 C   0  0  0  0  0  0  0  0  0  0  0  0
  151.3287  142.0441  159.1225 N   0  0  0  0  0  0  0  0  0  0  0  0
  152.2631  144.9018  157.7179 H   0  0  0  0  0  0  0  0  0  0  0  0
  153.2456  143.9733  158.8685 H   0  0  0  0  0  0  0  0  0  0  0  0
  151.7145  144.7083  159.3946 H   0  0  0  0  0  0  0  0  0  0  0  0
  151.0443  143.3200  156.1231 H   0  0  0  0  0  0  0  0  0  0  0  0
  150.1164  139.6022  156.0364 H   0  0  0  0  0  0  0  0  0  0  0  0
  148.6488  140.4791  156.3572 H   0  0  0  0  0  0  0  0  0  0  0  0
  149.2352  142.2020  154.6896 H   0  0  0  0  0  0  0  0  0  0  0  0
  150.8199  141.4755  154.4492 H   0  0  0  0  0  0  0  0  0  0  0  0
  149.8377  140.1360  152.9078 H   0  0  0  0  0  0  0  0  0  0  0  0
  148.4907  138.9144  151.9206 H   0  0  0  0  0  0  0  0  0  0  0  0
  145.6850  139.1918  152.1253 H   0  0  0  0  0  0  0  0  0  0  0  0
  146.1008  138.0845  150.1224 H   0  0  0  0  0  0  0  0  0  0  0  0
  147.5234  137.2747  150.7699 H   0  0  0  0  0  0  0  0  0  0  0  0
  144.6181  136.4980  151.2195 H   0  0  0  0  0  0  0  0  0  0  0  0
  145.9699  135.4456  150.7655 H   0  0  0  0  0  0  0  0  0  0  0  0
  144.1517  135.4882  153.6269 H   0  0  0  0  0  0  0  0  0  0  0  0
  145.1913  134.1969  153.0432 H   0  0  0  0  0  0  0  0  0  0  0  0
  145.2170  134.3654  155.5788 H   0  0  0  0  0  0  0  0  0  0  0  0
  146.7967  134.5347  154.8582 H   0  0  0  0  0  0  0  0  0  0  0  0
  145.0405  136.7831  155.9377 H   0  0  0  0  0  0  0  0  0  0  0  0
  146.5771  136.2603  156.5788 H   0  0  0  0  0  0  0  0  0  0  0  0
  146.7463  138.3869  155.2180 H   0  0  0  0  0  0  0  0  0  0  0  0
  147.7680  137.1108  154.5828 H   0  0  0  0  0  0  0  0  0  0  0  0
  144.9467  137.7460  153.6019 H   0  0  0  0  0  0  0  0  0  0  0  0
  150.3939  140.1989  159.0110 H   0  0  0  0  0  0  0  0  0  0  0  0
  146.9384  135.8168  152.8144 H   0  0  0  0  0  0  0  0  0  0  0  0
  1  2  1  0  0  0  0
  1 22  1  0  0  0  0
  1 23  1  0  0  0  0
  1 24  1  0  0  0  0
  2 21  1  0  0  0  0
  2  3  1  0  0  0  0
  3  4  2  0  0  0  0
  3 25  1  0  0  0  0
  4  5  1  0  0  0  0
  4 20  1  0  0  0  0
  5  6  1  0  0  0  0
  5 26  1  0  0  0  0
  5 27  1  0  0  0  0
  6  7  1  0  0  0  0
  6 28  1  0  0  0  0
  6 29  1  0  0  0  0
  7  8  1  0  0  0  0
  7 30  1  0  0  0  0
  8  9  2  0  0  0  0
  8 10  1  0  0  0  0
 10 11  1  0  0  0  0
 10 31  1  0  0  0  0
 11 19  1  0  0  0  0
 11 12  1  0  0  0  0
 11 32  1  0  0  0  0
 12 13  1  0  0  0  0
 12 33  1  0  0  0  0
 12 34  1  0  0  0  0
 13 14  1  0  0  0  0
 13 35  1  0  0  0  0
 13 36  1  0  0  0  0
 14 19  1  0  0  0  0
 14 15  1  0  0  0  0
 14 47  1  0  0  0  0
 15 16  1  0  0  0  0
 15 37  1  0  0  0  0
 15 38  1  0  0  0  0
 16 17  1  0  0  0  0
 16 39  1  0  0  0  0
 16 40  1  0  0  0  0
 17 18  1  0  0  0  0
 17 41  1  0  0  0  0
 17 42  1  0  0  0  0
 18 19  1  0  0  0  0
 18 43  1  0  0  0  0
 18 44  1  0  0  0  0
 19 45  1  0  0  0  0
 20 21  2  0  0  0  0
 20 46  1  0  0  0  0
M  CHG  1  14   1
M  END
> <s_m_source_file>
AV-unprocessed.smi

> <i_m_source_file_index>
557

> <i_lp_mmshare_version>
43012

> <i_f3d_flags>
0

> <s_epik_input>
W0NIM11uMVtjSF1jKFtjSF1uMSlbQ0gyXVtDSDJdW05IXUMoPU8pW05IXVtDQEhdKFtDSDJdW0NIMl0yKVtDQEhdKE4yMylbQ0gyXVtDSDJdW0NIMl1bQ0gyXTM=

> <s_epik_cmdline>
J2VwaWtfcHl0aG9uJywgJy1waCcsICc3LjAnLCAnLXRuJywgJzgnLCAnLW1hJywgJzIwMCcsICctbWV0YWxfYmluZGluZycsICctaW1hZScsICc8aW5maWxlLm1hZT4nLCAnLW9tYWUnLCAnPG91dGZpbGUubWFlPic=

> <r_lp_tautomer_probability>
1

> <r_epik_Ionization_Penalty>
0.000956547

> <r_epik_Ionization_Penalty_Charging>
0.000435796

> <r_epik_Ionization_Penalty_Neutral>
0.000520752

> <r_epik_State_Penalty>
-0

> <r_epik_Charging_Adjusted_Penalty>
0.000435796

> <i_epik_Tot_Q>
1

> <i_epik_Tot_abs_Q>
1

> <r_epik_Metal_State_Penalty>
-0

> <b_epik_Metal_Only>
0

> <s_lp_Force_Field>
OPLS_2005

> <r_lp_Energy>
46.7552

> <b_lp_Chiralities_Consistent>
1

> <s_lp_Variant>
AV-unprocessed.smi:557-8

> <Gold.Version>
5.8.1

> <Gold.Id.Protein>
6NUR|6NUR_protein|mol2

> <Gold.PLP.Fitness>
47.0428

> <Gold.PLP.PLP>
-32.2130

> <Gold.PLP.part.hbond>
-3.0000

> <Gold.PLP.part.metal>
0.0000

> <Gold.PLP.part.buried>
1.4100

> <Gold.PLP.part.nonpolar>
-31.1902

> <Gold.PLP.part.repulsive>
0.3030

> <Gold.PLP.ligand.clash>
0.0000

> <Gold.PLP.ligand.torsion>
0.0562

> <Gold.PLP.Chemscore.Hbond>
3.9760

> <Gold.PLP.Chemscore.CHOScore>
1.0000

> <Gold.PLP.Chemscore.Metal>
0.0000

> <Gold.Chemscore.Hbonds>
donor molecule, donor type, donor heavy atom, donor atom, acceptor molecule, acceptor atom, score
      L1  H     7    30       P1  7957  0.69
      L1  H    10    31       P1  7957  0.62
      L1  H    14    47       P1  7948  0.70
      L1  C     3    25       P1  8028  0.58

> <Gold.PLP.Chemscore.Internal.Correction>
0.0141

> <Gold.Rescore>
     Score         DG    S(hbond)    S(metal)    S(lipo)     H(rot)  DE(clash)    DE(int)     intcor
     18.05     -20.75       2.93        0.00      81.88       1.60       1.51       1.19       ----

> <Gold.Chemscore.Fitness>
18.0478

> <Gold.Chemscore.DG>
-20.7470

> <Gold.Chemscore.ZeroCoef>
-5.4800

> <Gold.Chemscore.Hbond>
2.9305

> <Gold.Chemscore.Metal>
0.0000

> <Gold.Chemscore.Lipo>
81.8766

> <Gold.Chemscore.Internal_Hbond>
0.0000

> <Gold.Chemscore.DEClash>
1.5121

> <Gold.Chemscore.DEInternal>
1.1871

> <Gold.Chemscore.Rot>
1.6018

> <Gold.Chemscore.Internal.Correction>
   9.000000E+99

> <Gold.Chemscore.Hbonds>
donor molecule, donor type, donor heavy atom, donor atom, acceptor molecule, acceptor atom, score
      L1  H     7    30       P1  7957  0.68
      L1  H    10    31       P1  7957  0.56
      L1  H    14    47       P1  7948  0.35

> <Gold.Chemscore.Hbond.Weighted>
-9.7880

> <Gold.Chemscore.Metal.Weighted>
-0.0000

> <Gold.Chemscore.Lipo.Weighted>
-9.5796

> <Gold.Chemscore.Internal_Hbond.Weighted>
0.0000

> <Gold.Chemscore.DEClash.Weighted>
1.5121

> <Gold.Chemscore.DEInternal.Weighted>
1.1871

> <Gold.Chemscore.Rot.Weighted>
4.1006

> <Gold.Chemscore.Internal.Correction.Weighted>
   9.000000E+99

> <Gold.Protein.RotatedTorsions>
[ 6907 6896 6895 6894 ] final  141.07 input  -60.11 | X-H torsion
[ 7974 7965 7964 7962 ] final   10.43 input  175.53 | X-H torsion
[ 8008 7997 7996 7995 ] final -147.25 input   59.86 | X-H torsion
[ 10167 10162 10161 10158 ] final -125.50 input  -65.29 | X-H torsion
[ 10718 10713 10712 10709 ] final -126.15 input   66.30 | X-H torsion
[ 10763 10752 10751 10750 ] final  -95.51 input  -60.55 | X-H torsion
[ 11005 11000 10999 10996 ] final  -28.64 input  -57.11 | X-H torsion

> <Gold.Protein.ActiveResidues>
 VAL166  LYS551  ARG553  GLY616  TRP617  ASP618  TYR619  PRO620  LYS621  CYS622 
 ASP623  PHE694  ASN695  SER759  ASP760  ASP761  ALA762  ILE779  LEU786  VAL792 
 PHE793  MET794  SER795  GLU796  ALA797  LYS798  CYS799  TRP800  GLU811  SER814 

> <Gold.Protein.RotatedAtoms>
  152.2354  133.5091  159.5239 H   0  0  0  0  0  0  0  0  0  0  0  0  # atno 6907 bound_to 6896
  150.7049  134.1161  159.4027 H   0  0  0  0  0  0  0  0  0  0  0  0  # atno 6908 bound_to 6896
  151.9082  135.0350  160.0563 H   0  0  0  0  0  0  0  0  0  0  0  0  # atno 6909 bound_to 6896
  146.2388  139.9635  142.8455 H   0  0  0  0  0  0  0  0  0  0  0  0  # atno 7974 bound_to 7965
  155.5725  140.0635  157.2803 H   0  0  0  0  0  0  0  0  0  0  0  0  # atno 8008 bound_to 7997
  154.4356  140.1866  156.0940 H   0  0  0  0  0  0  0  0  0  0  0  0  # atno 8009 bound_to 7997
  156.0365  140.3300  155.7200 H   0  0  0  0  0  0  0  0  0  0  0  0  # atno 8010 bound_to 7997
  139.9814  143.5738  152.2377 H   0  0  0  0  0  0  0  0  0  0  0  0  # atno 10167 bound_to 10162
  156.1739  130.6686  151.0216 H   0  0  0  0  0  0  0  0  0  0  0  0  # atno 10718 bound_to 10713
  154.7154  135.5118  153.8730 H   0  0  0  0  0  0  0  0  0  0  0  0  # atno 10763 bound_to 10752
  153.0816  135.6633  154.0042 H   0  0  0  0  0  0  0  0  0  0  0  0  # atno 10764 bound_to 10752
  153.9875  135.3023  155.3394 H   0  0  0  0  0  0  0  0  0  0  0  0  # atno 10765 bound_to 10752
  140.9226  133.7389  156.0823 H   0  0  0  0  0  0  0  0  0  0  0  0  # atno 11005 bound_to 11000
  145.1748  140.9738  143.4300 LP  0  0  0  0  0  0  0  0  0  0  0  0  # atno 17320 bound_to 7965
  144.9996  139.3611  143.6174 LP  0  0  0  0  0  0  0  0  0  0  0  0  # atno 17321 bound_to 7965
  139.6407  144.7654  151.2345 LP  0  0  0  0  0  0  0  0  0  0  0  0  # atno 17342 bound_to 10162
  140.7488  143.6322  150.8412 LP  0  0  0  0  0  0  0  0  0  0  0  0  # atno 17343 bound_to 10162
  157.6822  131.0835  150.7339 LP  0  0  0  0  0  0  0  0  0  0  0  0  # atno 17370 bound_to 10713
  156.7398  130.4735  149.5480 LP  0  0  0  0  0  0  0  0  0  0  0  0  # atno 17371 bound_to 10713
  140.7967  134.3555  157.5450 LP  0  0  0  0  0  0  0  0  0  0  0  0  # atno 17394 bound_to 11000
  139.8779  134.9173  156.3175 LP  0  0  0  0  0  0  0  0  0  0  0  0  # atno 17395 bound_to 11000

$$$$
