#       Name:                AV-unprocessed.smi:157
#       Creating user name   scv26
#       Creation time:       Thu Mar 26 19:00:48 2020


#       File generated by GOLD software.
#

@<TRIPOS>MOLECULE
AV-unprocessed.smi:157
    45    47     1
SMALL
NO_CHARGES


@<TRIPOS>ATOM
      1 ****        -4.9062   2.0079   1.0583 O.3            1 S1                 0.0000
      2 ****        -3.7336   1.2248   0.9826 C.3            1 S1                 0.0000
      3 ****        -2.4753   2.1119   1.0697 C.3            1 S1                 0.0000
      4 ****        -1.3819   1.2492   1.3943 O.3            1 S1                 0.0000
      5 ****        -0.4099   1.3015   0.3961 C.3            1 S1                 0.0000
      6 ****         0.1153  -0.0781   0.1715 N.pl3          1 S1                 0.0000
      7 ****        -0.6107  -1.2157   0.1782 C.2            1 S1                 0.0000
      8 ****         0.0917  -2.3120  -0.0521 N.pl3          1 S1                 1.0000
      9 ****         1.3973  -1.9080  -0.2350 C.2            1 S1                 0.0000
     10 ****         1.3936  -0.5187  -0.0836 C.2            1 S1                 0.0000
     11 ****         2.4540   0.3967  -0.1676 N.2            1 S1                 0.0000
     12 ****         3.6965   0.0411  -0.1128 C.2            1 S1                 0.0000
     13 ****         4.2391  -1.2323  -0.0621 N.pl3          1 S1                 0.0000
     14 ****         3.8100  -2.3104  -0.9352 C.3            1 S1                 0.0000
     15 ****         2.4570  -2.9192  -0.5434 C.3            1 S1                 0.0000
     16 ****         2.6620  -3.8300   0.5168 O.3            1 S1                 0.0000
     17 ****        -1.1000   1.8242  -0.8556 C.3            1 S1                 0.0000
     18 ****        -2.0545   2.8193  -0.2351 C.3            1 S1                 0.0000
     19 ****        -3.1142   3.1310  -1.1164 O.3            1 S1                 0.0000
     20 ****        -2.5941   2.8380   1.8752 H              1 S1                 0.0000
     21 ****         0.4363   1.9090   0.7190 H              1 S1                 0.0000
     22 ****         2.1080  -3.5154  -1.3873 H              1 S1                 0.0000
     23 ****        -1.5136   3.7354   0.0072 H              1 S1                 0.0000
     24 ****        -5.6556   1.4334   1.0168 H              1 S1                 0.0000
     25 ****        -3.7540   0.5289   1.8219 H              1 S1                 0.0000
     26 ****        -3.7384   0.6255   0.0718 H              1 S1                 0.0000
     27 ****        -1.6716  -1.2226   0.3539 H              1 S1                 0.0000
     28 ****         4.4668   0.8138  -0.1106 H              1 S1                 0.0000
     29 ****         5.2089  -1.3346   0.2016 H              1 S1                 0.0000
     30 ****         3.7348  -1.9020  -1.9442 H              1 S1                 0.0000
     31 ****         4.5829  -3.0786  -0.9771 H              1 S1                 0.0000
     32 ****         1.8729  -4.3340   0.6430 H              1 S1                 0.0000
     33 ****        -0.3854   2.2640  -1.5518 H              1 S1                 0.0000
     34 ****        -1.6402   1.0145  -1.3497 H              1 S1                 0.0000
     35 ****        -3.7214   3.6994  -0.6669 H              1 S1                 0.0000
     36 ****        -0.2661  -3.2578  -0.0930 H              1 S1                 0.0000
     37 ****        -4.9319   2.6510   0.2930 LP             1 S1                 0.0000
     38 ****        -4.9177   2.5149   1.9202 LP             1 S1                 0.0000
     39 ****        -1.7165   0.3107   1.4798 LP             1 S1                 0.0000
     40 ****        -0.9791   1.5398   2.2623 LP             1 S1                 0.0000
     41 ****         2.2394   1.3675  -0.2746 LP             1 S1                 0.0000
     42 ****         2.8773  -3.3277   1.3543 LP             1 S1                 0.0000
     43 ****         3.4195  -4.4427   0.2916 LP             1 S1                 0.0000
     44 ****        -3.5806   2.2909  -1.3935 LP             1 S1                 0.0000
     45 ****        -2.7542   3.5949  -1.9259 LP             1 S1                 0.0000
@<TRIPOS>BOND
    1    1    2 1     
    2    1   24 1     
    3    2    3 1     
    4    2   25 1     
    5    2   26 1     
    6    3   20 1     
    7    3   18 1     
    8    3    4 1     
    9    4    5 1     
   10    5   21 1     
   11    5    6 1     
   12    5   17 1     
   13    6   10 1     
   14    6    7 1     
   15    7    8 2     
   16    7   27 1     
   17    8    9 1     
   18    8   36 1     
   19    9   15 1     
   20    9   10 2     
   21   10   11 1     
   22   11   12 2     
   23   12   13 1     
   24   12   28 1     
   25   13   14 1     
   26   13   29 1     
   27   14   15 1     
   28   14   30 1     
   29   14   31 1     
   30   15   22 1     
   31   15   16 1     
   32   16   32 1     
   33   17   18 1     
   34   17   33 1     
   35   17   34 1     
   36   18   23 1     
   37   18   19 1     
   38   19   35 1     
   39    1   37 1     
   40    1   38 1     
   41    4   39 1     
   42    4   40 1     
   43   11   41 1     
   44   16   42 1     
   45   16   43 1     
   46   19   44 1     
   47   19   45 1     
@<TRIPOS>SUBSTRUCTURE
      1 S1             1
@<TRIPOS>SET
LONE_PAIRS      STATIC     ATOMS    <user>   **** ""
9 37 38 39 40 41 42 43 44 45
DONOR_HYDROGENS      STATIC     ATOMS    <user>   **** ""
5 24 36 29 32 35
ATOM$BLUE        STATIC     ATOMS    COLORGROUP SYSTEM
9 37 38 39 40 41 42 43 44 45
ATOM$RED        STATIC     ATOMS    COLORGROUP SYSTEM
5 24 36 29 32 35
