AV-unprocessed.smi:1044|AV-procd|sdf|4542|dock6
  -GOLD-   22720 2563D 1   1.00000     0.00000
 Structure written by MMmdl.
 45 46  0  0  0  0  0  0  0  0  1 V2000
  149.5290  140.7497  156.4242 C   0  0  0  0  0  0  0  0  0  0  0  0
  150.9842  140.4005  156.1041 C   0  0  0  0  0  0  0  0  0  0  0  0
  151.7557  140.5323  157.2942 O   0  0  0  0  0  0  0  0  0  0  0  0
  151.8642  141.7787  157.8812 C   0  0  0  0  0  0  0  0  0  0  0  0
  151.1076  142.7921  157.3900 N   0  0  0  0  0  0  0  0  0  0  0  0
  151.2155  144.0099  157.9600 C   0  0  0  0  0  0  0  0  0  0  0  0
  152.0804  144.2832  159.0355 C   0  0  0  0  0  0  0  0  0  0  0  0
  152.8660  143.2339  159.5469 C   0  0  0  0  0  0  0  0  0  0  0  0
  152.7519  141.9462  158.9694 C   0  0  0  0  0  0  0  0  0  0  0  0
  153.5163  140.8262  159.3969 N   0  0  0  0  0  0  0  0  0  0  0  0
  153.9328  140.5296  160.6393 C   0  0  0  0  0  0  0  0  0  0  0  0
  153.6879  141.1945  161.6458 O   0  0  0  0  0  0  0  0  0  0  0  0
  154.6384  139.3896  160.6519 N   0  0  0  0  0  0  0  0  0  0  0  0
  155.2108  138.7507  161.8337 C   0  0  2  0  0  0  0  0  0  0  0  0
  154.1427  137.9159  162.5509 C   0  0  0  0  0  0  0  0  0  0  0  0
  154.7517  137.2947  163.8110 C   0  0  0  0  0  0  0  0  0  0  0  0
  155.3482  138.3692  164.7355 C   0  0  0  0  0  0  0  0  0  0  0  0
  156.3140  139.2269  164.0182 N   0  0  0  0  0  0  0  0  0  0  0  0
  157.3962  140.1931  164.9684 S   0  0  0  0  0  0  0  0  0  0  0  0
  156.6129  140.1845  166.6340 C   0  0  0  0  0  0  0  0  0  0  0  0
  158.6850  139.4876  165.0371 O   0  0  0  0  0  0  0  0  0  0  0  0
  157.3398  141.5714  164.4575 O   0  0  0  0  0  0  0  0  0  0  0  0
  155.7878  139.8231  162.7746 C   0  0  0  0  0  0  0  0  0  0  0  0
  148.9021  140.6548  155.5374 H   0  0  0  0  0  0  0  0  0  0  0  0
  149.4432  141.7745  156.7867 H   0  0  0  0  0  0  0  0  0  0  0  0
  149.1270  140.0873  157.1912 H   0  0  0  0  0  0  0  0  0  0  0  0
  151.0411  139.3792  155.7238 H   0  0  0  0  0  0  0  0  0  0  0  0
  151.3582  141.0714  155.3291 H   0  0  0  0  0  0  0  0  0  0  0  0
  150.5993  144.7915  157.5411 H   0  0  0  0  0  0  0  0  0  0  0  0
  152.1442  145.2762  159.4551 H   0  0  0  0  0  0  0  0  0  0  0  0
  153.5484  143.4384  160.3574 H   0  0  0  0  0  0  0  0  0  0  0  0
  153.7057  140.1358  158.6850 H   0  0  0  0  0  0  0  0  0  0  0  0
  154.7823  138.9165  159.7717 H   0  0  0  0  0  0  0  0  0  0  0  0
  156.0255  138.0835  161.5453 H   0  0  0  0  0  0  0  0  0  0  0  0
  153.2892  138.5400  162.8205 H   0  0  0  0  0  0  0  0  0  0  0  0
  153.7668  137.1320  161.8924 H   0  0  0  0  0  0  0  0  0  0  0  0
  153.9946  136.7224  164.3475 H   0  0  0  0  0  0  0  0  0  0  0  0
  155.5307  136.5850  163.5286 H   0  0  0  0  0  0  0  0  0  0  0  0
  154.5585  138.9969  165.1499 H   0  0  0  0  0  0  0  0  0  0  0  0
  155.8389  137.8800  165.5766 H   0  0  0  0  0  0  0  0  0  0  0  0
  157.1788  140.8359  167.2994 H   0  0  0  0  0  0  0  0  0  0  0  0
  156.6103  139.1758  167.0439 H   0  0  0  0  0  0  0  0  0  0  0  0
  155.5892  140.5501  166.5567 H   0  0  0  0  0  0  0  0  0  0  0  0
  156.5820  140.3652  162.2628 H   0  0  0  0  0  0  0  0  0  0  0  0
  155.0243  140.5578  163.0341 H   0  0  0  0  0  0  0  0  0  0  0  0
  1  2  1  0  0  0  0
  1 24  1  0  0  0  0
  1 25  1  0  0  0  0
  1 26  1  0  0  0  0
  2  3  1  0  0  0  0
  2 27  1  0  0  0  0
  2 28  1  0  0  0  0
  3  4  1  0  0  0  0
  4  9  1  0  0  0  0
  4  5  2  0  0  0  0
  5  6  1  0  0  0  0
  6  7  2  0  0  0  0
  6 29  1  0  0  0  0
  7  8  1  0  0  0  0
  7 30  1  0  0  0  0
  8  9  2  0  0  0  0
  8 31  1  0  0  0  0
  9 10  1  0  0  0  0
 10 11  1  0  0  0  0
 10 32  1  0  0  0  0
 11 12  2  0  0  0  0
 11 13  1  0  0  0  0
 13 14  1  0  0  0  0
 13 33  1  0  0  0  0
 14 23  1  0  0  0  0
 14 15  1  0  0  0  0
 14 34  1  0  0  0  0
 15 16  1  0  0  0  0
 15 35  1  0  0  0  0
 15 36  1  0  0  0  0
 16 17  1  0  0  0  0
 16 37  1  0  0  0  0
 16 38  1  0  0  0  0
 17 18  1  0  0  0  0
 17 39  1  0  0  0  0
 17 40  1  0  0  0  0
 18 19  1  0  0  0  0
 18 23  1  0  0  0  0
 19 20  1  0  0  0  0
 19 21  2  0  0  0  0
 19 22  2  0  0  0  0
 20 41  1  0  0  0  0
 20 42  1  0  0  0  0
 20 43  1  0  0  0  0
 23 44  1  0  0  0  0
 23 45  1  0  0  0  0
M  END
> <s_m_source_file>
AV-unprocessed.smi

> <i_m_source_file_index>
1044

> <i_lp_mmshare_version>
43012

> <i_f3d_flags>
0

> <s_epik_input>
W0NIM11bQ0gyXU9jMW5bY0hdW2NIXVtjSF1jMVtOSF1DKD1PKVtOSF1bQ0BASF0yW0NIMl1bQ0gyXVtDSDJdTihbQ0gyXTIpUyg9TykoPU8pW0NIM10=

> <s_epik_cmdline>
J2VwaWtfcHl0aG9uJywgJy1waCcsICc3LjAnLCAnLXRuJywgJzgnLCAnLW1hJywgJzIwMCcsICctbWV0YWxfYmluZGluZycsICctaW1hZScsICc8aW5maWxlLm1hZT4nLCAnLW9tYWUnLCAnPG91dGZpbGUubWFlPic=

> <r_lp_tautomer_probability>
1

> <r_epik_Ionization_Penalty>
0.000106941

> <r_epik_Ionization_Penalty_Charging>
0

> <r_epik_Ionization_Penalty_Neutral>
0.000106941

> <r_epik_State_Penalty>
-0

> <r_epik_Charging_Adjusted_Penalty>
0

> <i_epik_Tot_Q>
0

> <i_epik_Tot_abs_Q>
0

> <r_epik_Metal_State_Penalty>
-0

> <b_epik_Metal_Only>
0

> <s_lp_Force_Field>
OPLS_2005

> <r_lp_Energy>
2.99573

> <b_lp_Chiralities_Consistent>
1

> <s_lp_Variant>
AV-unprocessed.smi:1044-1

> <Gold.Version>
5.8.1

> <Gold.Id.Protein>
6NUR|6NUR_protein|mol2

> <Gold.PLP.Fitness>
39.4529

> <Gold.PLP.PLP>
-37.7553

> <Gold.PLP.part.hbond>
-1.0000

> <Gold.PLP.part.metal>
0.0000

> <Gold.PLP.part.buried>
-6.4489

> <Gold.PLP.part.nonpolar>
-30.7436

> <Gold.PLP.part.repulsive>
0.2350

> <Gold.PLP.ligand.clash>
0.0000

> <Gold.PLP.ligand.torsion>
0.9774

> <Gold.PLP.Chemscore.Hbond>
0.0000

> <Gold.PLP.Chemscore.CHOScore>
0.9628

> <Gold.PLP.Chemscore.Metal>
0.0000

> <Gold.Chemscore.Hbonds>
donor molecule, donor type, donor heavy atom, donor atom, acceptor molecule, acceptor atom, score
      L1  C     6    29       P1  8028  1.00

> <Gold.PLP.Chemscore.Internal.Correction>
0.7640

> <Gold.Rescore>
     Score         DG    S(hbond)    S(metal)    S(lipo)     H(rot)  DE(clash)    DE(int)     intcor
      9.49     -12.81       0.00        0.00     101.43       1.77       0.03       3.29       ----

> <Gold.Chemscore.Fitness>
9.4917

> <Gold.Chemscore.DG>
-12.8129

> <Gold.Chemscore.ZeroCoef>
-5.4800

> <Gold.Chemscore.Hbond>
0.0000

> <Gold.Chemscore.Metal>
0.0000

> <Gold.Chemscore.Lipo>
101.4268

> <Gold.Chemscore.Internal_Hbond>
0.0000

> <Gold.Chemscore.DEClash>
0.0291

> <Gold.Chemscore.DEInternal>
3.2920

> <Gold.Chemscore.Rot>
1.7711

> <Gold.Chemscore.Internal.Correction>
   9.000000E+99

> <Gold.Chemscore.Hbond.Weighted>
-0.0000

> <Gold.Chemscore.Metal.Weighted>
-0.0000

> <Gold.Chemscore.Lipo.Weighted>
-11.8669

> <Gold.Chemscore.Internal_Hbond.Weighted>
0.0000

> <Gold.Chemscore.DEClash.Weighted>
0.0291

> <Gold.Chemscore.DEInternal.Weighted>
3.2920

> <Gold.Chemscore.Rot.Weighted>
4.5340

> <Gold.Chemscore.Internal.Correction.Weighted>
   9.000000E+99

> <Gold.Protein.RotatedTorsions>
[ 6907 6896 6895 6894 ] final -118.92 input  -60.11 | X-H torsion
[ 7974 7965 7964 7962 ] final  -35.67 input  175.53 | X-H torsion
[ 8008 7997 7996 7995 ] final   22.40 input   59.86 | X-H torsion
[ 10167 10162 10161 10158 ] final -106.75 input  -65.29 | X-H torsion
[ 10718 10713 10712 10709 ] final -152.72 input   66.30 | X-H torsion
[ 10763 10752 10751 10750 ] final  157.93 input  -60.55 | X-H torsion
[ 11005 11000 10999 10996 ] final  159.05 input  -57.11 | X-H torsion

> <Gold.Protein.ActiveResidues>
 VAL166  LYS551  ARG553  GLY616  TRP617  ASP618  TYR619  PRO620  LYS621  CYS622 
 ASP623  PHE694  ASN695  SER759  ASP760  ASP761  ALA762  ILE779  LEU786  VAL792 
 PHE793  MET794  SER795  GLU796  ALA797  LYS798  CYS799  TRP800  GLU811  SER814 

> <Gold.Protein.RotatedAtoms>
  150.8261  133.8169  159.3117 H   0  0  0  0  0  0  0  0  0  0  0  0  # atno 6907 bound_to 6896
  151.5913  135.1051  160.0049 H   0  0  0  0  0  0  0  0  0  0  0  0  # atno 6908 bound_to 6896
  152.4346  133.7296  159.6636 H   0  0  0  0  0  0  0  0  0  0  0  0  # atno 6909 bound_to 6896
  146.0727  140.6187  142.8945 H   0  0  0  0  0  0  0  0  0  0  0  0  # atno 7974 bound_to 7965
  154.9651  140.3083  155.5013 H   0  0  0  0  0  0  0  0  0  0  0  0  # atno 8008 bound_to 7997
  156.2972  140.2294  156.4679 H   0  0  0  0  0  0  0  0  0  0  0  0  # atno 8009 bound_to 7997
  154.7928  140.0439  157.1202 H   0  0  0  0  0  0  0  0  0  0  0  0  # atno 8010 bound_to 7997
  140.1844  143.3941  152.1256 H   0  0  0  0  0  0  0  0  0  0  0  0  # atno 10167 bound_to 10162
  156.4763  130.8282  151.2510 H   0  0  0  0  0  0  0  0  0  0  0  0  # atno 10718 bound_to 10713
  154.2081  135.2787  155.2968 H   0  0  0  0  0  0  0  0  0  0  0  0  # atno 10763 bound_to 10752
  154.5801  135.5592  153.7180 H   0  0  0  0  0  0  0  0  0  0  0  0  # atno 10764 bound_to 10752
  153.0071  135.6342  154.2219 H   0  0  0  0  0  0  0  0  0  0  0  0  # atno 10765 bound_to 10752
  140.1925  134.8397  157.2927 H   0  0  0  0  0  0  0  0  0  0  0  0  # atno 11005 bound_to 11000
  144.7242  140.4471  143.6986 LP  0  0  0  0  0  0  0  0  0  0  0  0  # atno 17320 bound_to 7965
  145.6362  139.1543  143.2941 LP  0  0  0  0  0  0  0  0  0  0  0  0  # atno 17321 bound_to 7965
  139.5282  144.7128  151.5151 LP  0  0  0  0  0  0  0  0  0  0  0  0  # atno 17342 bound_to 10162
  140.6498  143.8720  150.6774 LP  0  0  0  0  0  0  0  0  0  0  0  0  # atno 17343 bound_to 10162
  157.7487  131.0060  150.3134 LP  0  0  0  0  0  0  0  0  0  0  0  0  # atno 17370 bound_to 10713
  156.3567  130.3840  149.7284 LP  0  0  0  0  0  0  0  0  0  0  0  0  # atno 17371 bound_to 10713
  140.2144  134.4099  155.7596 LP  0  0  0  0  0  0  0  0  0  0  0  0  # atno 17394 bound_to 11000
  141.2226  133.7134  156.8390 LP  0  0  0  0  0  0  0  0  0  0  0  0  # atno 17395 bound_to 11000

$$$$
