AV-unprocessed.smi:2696|AV-procd|sdf|10413|dock9
  -GOLD-   2272014453D 1   1.00000     0.00000
 Structure written by MMmdl.
 43 44  0  0  0  0  0  0  0  0  1 V2000
  152.1845  143.3406  159.5531 C   0  0  0  0  0  0  0  0  0  0  0  0
  151.8794  141.8457  159.3739 C   0  0  0  0  0  0  0  0  0  0  0  0
  153.1164  140.9761  159.6501 C   0  0  0  0  0  0  0  0  0  0  0  0
  151.2862  141.5571  158.0013 C   0  0  0  0  0  0  0  0  0  0  0  0
  151.8884  140.7354  157.1085 C   0  0  0  0  0  0  0  0  0  0  0  0
  151.2764  140.4639  155.8081 C   0  0  0  0  0  0  0  0  0  0  0  0
  151.8108  139.7444  154.9647 O   0  0  0  0  0  0  0  0  0  0  0  0
  150.0647  141.0591  155.6060 N   0  0  0  0  0  0  0  0  0  0  0  0
  149.2941  140.8150  154.3680 C   0  0  0  0  0  0  0  0  0  0  0  0
  147.7988  140.4304  154.5939 C   0  0  1  0  0  0  0  0  0  0  0  0
  147.3079  139.5211  153.4472 C   0  0  0  0  0  0  0  0  0  0  0  0
  147.7608  139.5605  155.7116 O   0  0  0  0  0  0  0  0  0  0  0  0
  146.8822  141.6523  154.7663 C   0  0  0  0  0  0  0  0  0  0  0  0
  146.5961  142.5109  153.6783 C   0  0  0  0  0  0  0  0  0  0  0  0
  145.7229  143.6027  153.8389 C   0  0  0  0  0  0  0  0  0  0  0  0
  145.1214  143.8475  155.0864 C   0  0  0  0  0  0  0  0  0  0  0  0
  145.3869  143.0001  156.1811 C   0  0  0  0  0  0  0  0  0  0  0  0
  144.7198  143.2731  157.5211 C   0  0  0  0  0  0  0  0  0  0  0  0
  145.1425  142.4335  158.4671 F   0  0  0  0  0  0  0  0  0  0  0  0
  144.9948  144.5194  157.9040 F   0  0  0  0  0  0  0  0  0  0  0  0
  143.3985  143.1409  157.4046 F   0  0  0  0  0  0  0  0  0  0  0  0
  146.2702  141.9109  156.0151 C   0  0  0  0  0  0  0  0  0  0  0  0
  149.5002  141.9384  156.5538 C   0  0  0  0  0  0  0  0  0  0  0  0
  150.0701  142.1747  157.6918 N   0  0  0  0  0  0  0  0  0  0  0  0
  151.2914  143.9442  159.3883 H   0  0  0  0  0  0  0  0  0  0  0  0
  152.9508  143.6811  158.8561 H   0  0  0  0  0  0  0  0  0  0  0  0
  152.5401  143.5488  160.5626 H   0  0  0  0  0  0  0  0  0  0  0  0
  151.1278  141.5784  160.1186 H   0  0  0  0  0  0  0  0  0  0  0  0
  152.8830  139.9168  159.5375 H   0  0  0  0  0  0  0  0  0  0  0  0
  153.4801  141.1262  160.6669 H   0  0  0  0  0  0  0  0  0  0  0  0
  153.9352  141.2114  158.9697 H   0  0  0  0  0  0  0  0  0  0  0  0
  152.8275  140.2621  157.3550 H   0  0  0  0  0  0  0  0  0  0  0  0
  149.3204  141.7203  153.7582 H   0  0  0  0  0  0  0  0  0  0  0  0
  149.7963  140.0740  153.7427 H   0  0  0  0  0  0  0  0  0  0  0  0
  147.3443  140.0201  152.4791 H   0  0  0  0  0  0  0  0  0  0  0  0
  146.2786  139.1982  153.6099 H   0  0  0  0  0  0  0  0  0  0  0  0
  147.9233  138.6245  153.3593 H   0  0  0  0  0  0  0  0  0  0  0  0
  148.1988  138.7551  155.4827 H   0  0  0  0  0  0  0  0  0  0  0  0
  147.0299  142.3372  152.7049 H   0  0  0  0  0  0  0  0  0  0  0  0
  145.5099  144.2500  153.0011 H   0  0  0  0  0  0  0  0  0  0  0  0
  144.4499  144.6857  155.2013 H   0  0  0  0  0  0  0  0  0  0  0  0
  146.4626  141.2534  156.8488 H   0  0  0  0  0  0  0  0  0  0  0  0
  148.5497  142.3922  156.2688 H   0  0  0  0  0  0  0  0  0  0  0  0
  1  2  1  0  0  0  0
  1 25  1  0  0  0  0
  1 26  1  0  0  0  0
  1 27  1  0  0  0  0
  2  3  1  0  0  0  0
  2  4  1  0  0  0  0
  2 28  1  0  0  0  0
  3 29  1  0  0  0  0
  3 30  1  0  0  0  0
  3 31  1  0  0  0  0
  4 24  1  0  0  0  0
  4  5  2  0  0  0  0
  5  6  1  0  0  0  0
  5 32  1  0  0  0  0
  6  7  2  0  0  0  0
  6  8  1  0  0  0  0
  8  9  1  0  0  0  0
  8 23  1  0  0  0  0
  9 10  1  0  0  0  0
  9 33  1  0  0  0  0
  9 34  1  0  0  0  0
 10 11  1  0  0  0  0
 10 12  1  0  0  0  0
 10 13  1  0  0  0  0
 11 35  1  0  0  0  0
 11 36  1  0  0  0  0
 11 37  1  0  0  0  0
 12 38  1  0  0  0  0
 13 22  1  0  0  0  0
 13 14  2  0  0  0  0
 14 15  1  0  0  0  0
 14 39  1  0  0  0  0
 15 16  2  0  0  0  0
 15 40  1  0  0  0  0
 16 17  1  0  0  0  0
 16 41  1  0  0  0  0
 17 18  1  0  0  0  0
 17 22  2  0  0  0  0
 18 19  1  0  0  0  0
 18 20  1  0  0  0  0
 18 21  1  0  0  0  0
 22 42  1  0  0  0  0
 23 24  2  0  0  0  0
 23 43  1  0  0  0  0
M  END
> <s_m_source_file>
AV-unprocessed.smi

> <i_m_source_file_index>
2696

> <i_lp_mmshare_version>
43012

> <i_f3d_flags>
0

> <s_epik_input>
W0NIM11bQ0hdKFtDSDNdKWMxW2NIXWMoPU8pbihbY0hdbjEpW0NIMl1bQ0BAXShbQ0gzXSkoW09IXSljMltjSF1bY0hdW2NIXWMoQyhGKShGKUYpW2NIXTI=

> <s_epik_cmdline>
J2VwaWtfcHl0aG9uJywgJy1waCcsICc3LjAnLCAnLXRuJywgJzgnLCAnLW1hJywgJzIwMCcsICctbWV0YWxfYmluZGluZycsICctaW1hZScsICc8aW5maWxlLm1hZT4nLCAnLW9tYWUnLCAnPG91dGZpbGUubWFlPic=

> <r_lp_tautomer_probability>
1

> <r_epik_Ionization_Penalty>
2.71388e-05

> <r_epik_Ionization_Penalty_Charging>
4.19927e-06

> <r_epik_Ionization_Penalty_Neutral>
2.29395e-05

> <r_epik_State_Penalty>
-0

> <r_epik_Charging_Adjusted_Penalty>
4.19927e-06

> <i_epik_Tot_Q>
0

> <i_epik_Tot_abs_Q>
0

> <r_epik_Metal_State_Penalty>
-0

> <b_epik_Metal_Only>
0

> <s_lp_Force_Field>
OPLS_2005

> <r_lp_Energy>
19.4026

> <b_lp_Chiralities_Consistent>
1

> <s_lp_Variant>
AV-unprocessed.smi:2696-1

> <Gold.Version>
5.8.1

> <Gold.Id.Protein>
6NUR|6NUR_protein|mol2

> <Gold.PLP.Fitness>
44.6176

> <Gold.PLP.PLP>
-41.1441

> <Gold.PLP.part.hbond>
-1.0000

> <Gold.PLP.part.metal>
0.0000

> <Gold.PLP.part.buried>
-5.2663

> <Gold.PLP.part.nonpolar>
-34.8235

> <Gold.PLP.part.repulsive>
0.1533

> <Gold.PLP.ligand.clash>
0.0339

> <Gold.PLP.ligand.torsion>
0.7964

> <Gold.PLP.Chemscore.Hbond>
1.0000

> <Gold.PLP.Chemscore.CHOScore>
0.5788

> <Gold.PLP.Chemscore.Metal>
0.0000

> <Gold.Chemscore.Hbonds>
donor molecule, donor type, donor heavy atom, donor atom, acceptor molecule, acceptor atom, score
      P1  H  7989  7998       L1     7  0.95
      L1  C    23    43       P1  8028  0.62

> <Gold.PLP.Chemscore.Internal.Correction>
0.3639

> <Gold.Rescore>
     Score         DG    S(hbond)    S(metal)    S(lipo)     H(rot)  DE(clash)    DE(int)     intcor
     10.88     -11.60       0.63        0.00      83.05       2.23       0.02       0.70       ----

> <Gold.Chemscore.Fitness>
10.8808

> <Gold.Chemscore.DG>
-11.5989

> <Gold.Chemscore.ZeroCoef>
-5.4800

> <Gold.Chemscore.Hbond>
0.6329

> <Gold.Chemscore.Metal>
0.0000

> <Gold.Chemscore.Lipo>
83.0494

> <Gold.Chemscore.Internal_Hbond>
0.0000

> <Gold.Chemscore.DEClash>
0.0222

> <Gold.Chemscore.DEInternal>
0.6958

> <Gold.Chemscore.Rot>
2.2312

> <Gold.Chemscore.Internal.Correction>
   9.000000E+99

> <Gold.Chemscore.Hbonds>
donor molecule, donor type, donor heavy atom, donor atom, acceptor molecule, acceptor atom, score
      P1  H  7989  7998       L1     7  0.20

> <Gold.Chemscore.Hbond.Weighted>
-2.1139

> <Gold.Chemscore.Metal.Weighted>
-0.0000

> <Gold.Chemscore.Lipo.Weighted>
-9.7168

> <Gold.Chemscore.Internal_Hbond.Weighted>
0.0000

> <Gold.Chemscore.DEClash.Weighted>
0.0222

> <Gold.Chemscore.DEInternal.Weighted>
0.6958

> <Gold.Chemscore.Rot.Weighted>
5.7118

> <Gold.Chemscore.Internal.Correction.Weighted>
   9.000000E+99

> <Gold.Protein.RotatedTorsions>
[ 6907 6896 6895 6894 ] final  139.71 input  -60.11 | X-H torsion
[ 7974 7965 7964 7962 ] final   81.34 input  175.53 | X-H torsion
[ 8008 7997 7996 7995 ] final   96.94 input   59.86 | X-H torsion
[ 10167 10162 10161 10158 ] final  -40.30 input  -65.29 | X-H torsion
[ 10718 10713 10712 10709 ] final -148.73 input   66.30 | X-H torsion
[ 10763 10752 10751 10750 ] final  139.63 input  -60.55 | X-H torsion
[ 11005 11000 10999 10996 ] final -109.52 input  -57.11 | X-H torsion

> <Gold.Protein.ActiveResidues>
 VAL166  LYS551  ARG553  GLY616  TRP617  ASP618  TYR619  PRO620  LYS621  CYS622 
 ASP623  PHE694  ASN695  SER759  ASP760  ASP761  ALA762  ILE779  LEU786  VAL792 
 PHE793  MET794  SER795  GLU796  ALA797  LYS798  CYS799  TRP800  GLU811  SER814 

> <Gold.Protein.RotatedAtoms>
  152.2516  133.5220  159.5328 H   0  0  0  0  0  0  0  0  0  0  0  0  # atno 6907 bound_to 6896
  150.7095  134.0952  159.3955 H   0  0  0  0  0  0  0  0  0  0  0  0  # atno 6908 bound_to 6896
  151.8871  135.0431  160.0545 H   0  0  0  0  0  0  0  0  0  0  0  0  # atno 6909 bound_to 6896
  145.6394  139.2422  143.2039 H   0  0  0  0  0  0  0  0  0  0  0  0  # atno 7974 bound_to 7965
  156.0849  140.3265  155.7740 H   0  0  0  0  0  0  0  0  0  0  0  0  # atno 8008 bound_to 7997
  155.5093  140.0575  157.2943 H   0  0  0  0  0  0  0  0  0  0  0  0  # atno 8009 bound_to 7997
  154.4603  140.1963  156.0280 H   0  0  0  0  0  0  0  0  0  0  0  0  # atno 8010 bound_to 7997
  140.7038  143.3161  151.2905 H   0  0  0  0  0  0  0  0  0  0  0  0  # atno 10167 bound_to 10162
  156.4240  130.8043  151.2267 H   0  0  0  0  0  0  0  0  0  0  0  0  # atno 10718 bound_to 10713
  153.9094  135.3013  155.3448 H   0  0  0  0  0  0  0  0  0  0  0  0  # atno 10763 bound_to 10752
  154.7631  135.4924  153.9505 H   0  0  0  0  0  0  0  0  0  0  0  0  # atno 10764 bound_to 10752
  153.1201  135.6780  153.9451 H   0  0  0  0  0  0  0  0  0  0  0  0  # atno 10765 bound_to 10752
  141.0843  133.9166  157.2220 H   0  0  0  0  0  0  0  0  0  0  0  0  # atno 11005 bound_to 11000
  146.1293  140.7207  142.9420 LP  0  0  0  0  0  0  0  0  0  0  0  0  # atno 17320 bound_to 7965
  144.7163  140.4221  143.7042 LP  0  0  0  0  0  0  0  0  0  0  0  0  # atno 17321 bound_to 7965
  139.6600  144.0206  152.2686 LP  0  0  0  0  0  0  0  0  0  0  0  0  # atno 17342 bound_to 10162
  139.9770  144.6454  150.7936 LP  0  0  0  0  0  0  0  0  0  0  0  0  # atno 17343 bound_to 10162
  157.7508  131.0219  150.3769 LP  0  0  0  0  0  0  0  0  0  0  0  0  # atno 17370 bound_to 10713
  156.4093  130.3931  149.6903 LP  0  0  0  0  0  0  0  0  0  0  0  0  # atno 17371 bound_to 10713
  139.9660  135.0142  156.9387 LP  0  0  0  0  0  0  0  0  0  0  0  0  # atno 17394 bound_to 11000
  140.5398  134.0731  155.7338 LP  0  0  0  0  0  0  0  0  0  0  0  0  # atno 17395 bound_to 11000

$$$$
