#       Name:                AV-unprocessed.smi:626
#       Creating user name   scv26
#       Creation time:       Fri Mar 27 00:03:33 2020


#       File generated by GOLD software.
#

@<TRIPOS>MOLECULE
AV-unprocessed.smi:626
    40    42     1
SMALL
NO_CHARGES


@<TRIPOS>ATOM
      1 ****        -5.1779  -1.1156  -2.9430 C.3            1 S1                 0.0000
      2 ****        -3.8447  -1.5904  -2.6058 N.am           1 S1                 0.0000
      3 ****        -2.7743  -0.7952  -2.4621 C.2            1 S1                 0.0000
      4 ****        -2.8160   0.4266  -2.6086 O.2            1 S1                 0.0000
      5 ****        -1.4545  -1.4801  -2.0993 C.3            1 S1                 0.0000
      6 ****        -1.0458  -1.1379  -0.7024 C.2            1 S1                 0.0000
      7 ****        -1.5178  -1.8104   0.3406 N.2            1 S1                 0.0000
      8 ****        -0.8830  -1.2010   1.4321 O.3            1 S1                 0.0000
      9 ****        -0.1243  -0.2033   0.9162 C.2            1 S1                 0.0000
     10 ****         0.7622   0.5683   1.8500 C.3            1 S1                 0.0000
     11 ****         1.0909   2.0127   1.4084 C.3            1 S1                 0.0000
     12 ****         2.6275   2.0550   1.5186 C.3            1 S1                 0.0000
     13 ****         3.2434   1.2301   0.3720 C.3            1 S1                 0.0000
     14 ****         2.9574  -0.2211   0.8030 C.3            1 S1                 0.0000
     15 ****         2.1627  -0.0351   2.1117 C.3            1 S1                 0.0000
     16 ****         2.8886   1.1591   2.7246 C.3            1 S1                 0.0000
     17 ****        -0.1553  -0.1492  -0.4151 N.2            1 S1                 0.0000
     18 ****        -5.8473  -1.9629  -3.0928 H              1 S1                 0.0000
     19 ****        -5.1640  -0.5266  -3.8611 H              1 S1                 0.0000
     20 ****        -5.5822  -0.4990  -2.1393 H              1 S1                 0.0000
     21 ****        -3.7291  -2.5841  -2.4675 H              1 S1                 0.0000
     22 ****        -1.5405  -2.5631  -2.2018 H              1 S1                 0.0000
     23 ****        -0.6802  -1.1579  -2.7966 H              1 S1                 0.0000
     24 ****         0.2378   0.6243   2.8056 H              1 S1                 0.0000
     25 ****         0.7564   2.2516   0.3983 H              1 S1                 0.0000
     26 ****         0.6279   2.7333   2.0837 H              1 S1                 0.0000
     27 ****         3.0320   3.0646   1.5964 H              1 S1                 0.0000
     28 ****         2.7989   1.4711  -0.5944 H              1 S1                 0.0000
     29 ****         4.3178   1.4033   0.2989 H              1 S1                 0.0000
     30 ****         2.4226  -0.7922   0.0453 H              1 S1                 0.0000
     31 ****         3.8930  -0.7464   0.9996 H              1 S1                 0.0000
     32 ****         2.1416  -0.9298   2.7347 H              1 S1                 0.0000
     33 ****         3.9492   0.9764   2.9071 H              1 S1                 0.0000
     34 ****         2.4264   1.5248   3.6432 H              1 S1                 0.0000
     35 ****        -3.6788   0.8725  -2.8467 LP             1 S1                 0.0000
     36 ****        -1.9870   0.9730  -2.4895 LP             1 S1                 0.0000
     37 ****        -2.1693  -2.5690   0.3463 LP             1 S1                 0.0000
     38 ****        -0.3068  -1.8625   1.9122 LP             1 S1                 0.0000
     39 ****        -1.5619  -0.8290   2.0651 LP             1 S1                 0.0000
     40 ****         0.3424   0.4558  -1.0366 LP             1 S1                 0.0000
@<TRIPOS>BOND
    1    1    2 1     
    2    1   18 1     
    3    1   19 1     
    4    1   20 1     
    5    2    3 am    
    6    2   21 1     
    7    3    4 2     
    8    3    5 1     
    9    5    6 1     
   10    5   22 1     
   11    5   23 1     
   12    6   17 1     
   13    6    7 2     
   14    7    8 1     
   15    8    9 1     
   16    9   10 1     
   17    9   17 2     
   18   10   15 1     
   19   10   11 1     
   20   10   24 1     
   21   11   12 1     
   22   11   25 1     
   23   11   26 1     
   24   12   16 1     
   25   12   13 1     
   26   12   27 1     
   27   13   14 1     
   28   13   28 1     
   29   13   29 1     
   30   14   15 1     
   31   14   30 1     
   32   14   31 1     
   33   15   16 1     
   34   15   32 1     
   35   16   33 1     
   36   16   34 1     
   37    4   35 1     
   38    4   36 1     
   39    7   37 1     
   40    8   38 1     
   41    8   39 1     
   42   17   40 1     
@<TRIPOS>SUBSTRUCTURE
      1 S1             1
@<TRIPOS>SET
LONE_PAIRS      STATIC     ATOMS    <user>   **** ""
6 35 36 37 38 39 40
DONOR_HYDROGENS      STATIC     ATOMS    <user>   **** ""
1 21
ATOM$BLUE        STATIC     ATOMS    COLORGROUP SYSTEM
6 35 36 37 38 39 40
ATOM$RED        STATIC     ATOMS    COLORGROUP SYSTEM
1 21
