#       Name:                AV-unprocessed.smi:308
#       Creating user name   scv26
#       Creation time:       Thu Mar 26 22:18:35 2020


#       File generated by GOLD software.
#

@<TRIPOS>MOLECULE
AV-unprocessed.smi:308
    53    54     1
SMALL
NO_CHARGES


@<TRIPOS>ATOM
      1 ****        -6.3447   2.3183   4.1324 C.3            1 S1                 0.0000
      2 ****        -4.8674   2.0430   3.8190 C.3            1 S1                 0.0000
      3 ****        -4.4822   2.5328   2.4132 C.3            1 S1                 0.0000
      4 ****        -3.0084   2.2251   2.0989 C.3            1 S1                 0.0000
      5 ****        -2.7191   0.7739   2.2365 N.4            1 S1                 1.0000
      6 ****        -1.3373   0.4365   1.8109 C.3            1 S1                 0.0000
      7 ****        -1.1874  -1.0466   1.4191 C.3            1 S1                 0.0000
      8 ****         0.1628  -1.3472   0.9559 N.am           1 S1                 0.0000
      9 ****         0.6325  -1.0686  -0.2685 C.2            1 S1                 0.0000
     10 ****        -0.0370  -0.5096  -1.1366 O.2            1 S1                 0.0000
     11 ****         1.9013  -1.4891  -0.4129 N.am           1 S1                 0.0000
     12 ****         2.7497  -1.3781  -1.5486 C.ar           1 S1                 0.0000
     13 ****         3.9011  -2.1916  -1.5907 C.ar           1 S1                 0.0000
     14 ****         4.7801  -2.1098  -2.6901 C.ar           1 S1                 0.0000
     15 ****         4.5076  -1.2043  -3.7448 C.ar           1 S1                 0.0000
     16 ****         5.3374  -1.0647  -4.8783 N.pl3          1 S1                 0.0000
     17 ****         6.5406  -1.8774  -5.0008 C.3            1 S1                 0.0000
     18 ****         4.9913  -0.0991  -5.9156 C.3            1 S1                 0.0000
     19 ****         3.3956  -0.4347  -3.6536 N.pl3          1 S1                 1.0000
     20 ****         2.5267  -0.4815  -2.6209 C.ar           1 S1                 0.0000
     21 ****        -3.0527   0.2801   3.5994 C.3            1 S1                 0.0000
     22 ****        -4.5276   0.5486   3.9430 C.3            1 S1                 0.0000
     23 ****        -7.0032   1.7977   3.4362 H              1 S1                 0.0000
     24 ****        -6.5678   3.3836   4.0677 H              1 S1                 0.0000
     25 ****        -6.5999   1.9897   5.1403 H              1 S1                 0.0000
     26 ****        -4.2662   2.5902   4.5469 H              1 S1                 0.0000
     27 ****        -5.1202   2.0570   1.6668 H              1 S1                 0.0000
     28 ****        -4.6579   3.6059   2.3300 H              1 S1                 0.0000
     29 ****        -2.7877   2.5514   1.0816 H              1 S1                 0.0000
     30 ****        -2.3544   2.7926   2.7631 H              1 S1                 0.0000
     31 ****        -1.0773   1.0470   0.9450 H              1 S1                 0.0000
     32 ****        -0.6307   0.7043   2.5981 H              1 S1                 0.0000
     33 ****        -1.3869  -1.6962   2.2704 H              1 S1                 0.0000
     34 ****        -1.9127  -1.3136   0.6483 H              1 S1                 0.0000
     35 ****         0.7763  -1.8131   1.6089 H              1 S1                 0.0000
     36 ****         2.2928  -1.9907   0.3709 H              1 S1                 0.0000
     37 ****         4.1124  -2.8820  -0.7870 H              1 S1                 0.0000
     38 ****         5.6523  -2.7460  -2.7043 H              1 S1                 0.0000
     39 ****         7.2210  -1.6821  -4.1716 H              1 S1                 0.0000
     40 ****         7.0737  -1.6601  -5.9266 H              1 S1                 0.0000
     41 ****         6.2883  -2.9381  -5.0035 H              1 S1                 0.0000
     42 ****         4.9683   0.9113  -5.5061 H              1 S1                 0.0000
     43 ****         4.0120  -0.3250  -6.3389 H              1 S1                 0.0000
     44 ****         5.7168  -0.1129  -6.7291 H              1 S1                 0.0000
     45 ****         1.7004   0.2086  -2.6971 H              1 S1                 0.0000
     46 ****        -2.8665  -0.7907   3.6730 H              1 S1                 0.0000
     47 ****        -2.4042   0.7635   4.3319 H              1 S1                 0.0000
     48 ****        -4.7363   0.2015   4.9556 H              1 S1                 0.0000
     49 ****        -5.1681  -0.0344   3.2793 H              1 S1                 0.0000
     50 ****        -3.3384   0.3037   1.5916 H              1 S1                 0.0000
     51 ****         3.2031   0.2219  -4.4102 H              1 S1                 0.0000
     52 ****        -0.9805  -0.2399  -0.9440 LP             1 S1                 0.0000
     53 ****         0.3624  -0.3251  -2.0346 LP             1 S1                 0.0000
@<TRIPOS>BOND
    1    1    2 1     
    2    1   23 1     
    3    1   24 1     
    4    1   25 1     
    5    2   22 1     
    6    2    3 1     
    7    2   26 1     
    8    3    4 1     
    9    3   27 1     
   10    3   28 1     
   11    4    5 1     
   12    4   29 1     
   13    4   30 1     
   14    5    6 1     
   15    5   21 1     
   16    5   50 1     
   17    6    7 1     
   18    6   31 1     
   19    6   32 1     
   20    7    8 1     
   21    7   33 1     
   22    7   34 1     
   23    8    9 am    
   24    8   35 1     
   25    9   10 2     
   26    9   11 am    
   27   11   12 1     
   28   11   36 1     
   29   12   20 ar    
   30   12   13 ar    
   31   13   14 ar    
   32   13   37 1     
   33   14   15 ar    
   34   14   38 1     
   35   15   16 1     
   36   15   19 ar    
   37   16   17 1     
   38   16   18 1     
   39   17   39 1     
   40   17   40 1     
   41   17   41 1     
   42   18   42 1     
   43   18   43 1     
   44   18   44 1     
   45   19   20 ar    
   46   19   51 1     
   47   20   45 1     
   48   21   22 1     
   49   21   46 1     
   50   21   47 1     
   51   22   48 1     
   52   22   49 1     
   53   10   52 1     
   54   10   53 1     
@<TRIPOS>SUBSTRUCTURE
      1 S1             1
@<TRIPOS>SET
LONE_PAIRS      STATIC     ATOMS    <user>   **** ""
2 52 53
DONOR_HYDROGENS      STATIC     ATOMS    <user>   **** ""
4 50 35 36 51
ATOM$BLUE        STATIC     ATOMS    COLORGROUP SYSTEM
2 52 53
ATOM$RED        STATIC     ATOMS    COLORGROUP SYSTEM
4 50 35 36 51
