AV-unprocessed.smi:2512|AV-procd|sdf|9890|dock5
  -GOLD-   2272013523D 1   1.00000     0.00000
 Structure written by MMmdl.
 27 28  0  0  0  0  0  0  0  0  1 V2000
  148.2606  141.4108  153.9942 C   0  0  0  0  0  0  0  0  0  0  0  0
  149.3591  140.7667  154.8608 C   0  0  0  0  0  0  0  0  0  0  0  0
  148.7373  139.8300  155.9095 C   0  0  0  0  0  0  0  0  0  0  0  0
  150.1427  139.9611  154.0013 O   0  0  0  0  0  0  0  0  0  0  0  0
  150.2768  141.8092  155.5481 C   0  0  0  0  0  0  0  0  0  0  0  0
  151.1641  141.2522  156.5589 N   0  0  0  0  0  0  0  0  0  0  0  0
  151.7830  140.0594  156.3249 N   0  0  0  0  0  0  0  0  0  0  0  0
  152.5199  139.7626  157.3530 N   0  0  0  0  0  0  0  0  0  0  0  0
  152.3942  140.7844  158.2789 C   0  0  0  0  0  0  0  0  0  0  0  0
  152.9711  140.9755  159.5541 C   0  0  0  0  0  0  0  0  0  0  0  0
  152.6733  142.1329  160.3065 C   0  0  0  0  0  0  0  0  0  0  0  0
  153.4000  142.3310  161.8615 Cl  0  0  0  0  0  0  0  0  0  0  0  0
  151.7931  143.1141  159.7896 C   0  0  0  0  0  0  0  0  0  0  0  0
  151.4195  144.5373  160.6949 Cl  0  0  0  0  0  0  0  0  0  0  0  0
  151.2097  142.9356  158.5195 C   0  0  0  0  0  0  0  0  0  0  0  0
  151.5178  141.7762  157.7877 C   0  0  0  0  0  0  0  0  0  0  0  0
  147.6386  142.0845  154.5844 H   0  0  0  0  0  0  0  0  0  0  0  0
  147.6055  140.6550  153.5597 H   0  0  0  0  0  0  0  0  0  0  0  0
  148.6789  141.9849  153.1668 H   0  0  0  0  0  0  0  0  0  0  0  0
  148.1037  140.3830  156.6038 H   0  0  0  0  0  0  0  0  0  0  0  0
  149.5045  139.3237  156.4965 H   0  0  0  0  0  0  0  0  0  0  0  0
  148.1198  139.0615  155.4426 H   0  0  0  0  0  0  0  0  0  0  0  0
  149.6942  139.8777  153.1737 H   0  0  0  0  0  0  0  0  0  0  0  0
  150.8878  142.3139  154.7978 H   0  0  0  0  0  0  0  0  0  0  0  0
  149.6770  142.5893  156.0188 H   0  0  0  0  0  0  0  0  0  0  0  0
  153.6449  140.2315  159.9528 H   0  0  0  0  0  0  0  0  0  0  0  0
  150.5356  143.6759  158.1145 H   0  0  0  0  0  0  0  0  0  0  0  0
  1  2  1  0  0  0  0
  1 17  1  0  0  0  0
  1 18  1  0  0  0  0
  1 19  1  0  0  0  0
  2  3  1  0  0  0  0
  2  4  1  0  0  0  0
  2  5  1  0  0  0  0
  3 20  1  0  0  0  0
  3 21  1  0  0  0  0
  3 22  1  0  0  0  0
  4 23  1  0  0  0  0
  5  6  1  0  0  0  0
  5 24  1  0  0  0  0
  5 25  1  0  0  0  0
  6 16  1  0  0  0  0
  6  7  1  0  0  0  0
  7  8  2  0  0  0  0
  8  9  1  0  0  0  0
  9 16  2  0  0  0  0
  9 10  1  0  0  0  0
 10 11  2  0  0  0  0
 10 26  1  0  0  0  0
 11 12  1  0  0  0  0
 11 13  1  0  0  0  0
 13 14  1  0  0  0  0
 13 15  2  0  0  0  0
 15 16  1  0  0  0  0
 15 27  1  0  0  0  0
M  END
> <s_m_source_file>
AV-unprocessed.smi

> <i_m_source_file_index>
2512

> <i_lp_mmshare_version>
43012

> <i_f3d_flags>
0

> <s_epik_input>
W0NIM11DKFtDSDNdKShbT0hdKVtDSDJdbihubjEpYyhjMTIpW2NIXWMoQ2wpYyhDbClbY0hdMg==

> <s_epik_cmdline>
J2VwaWtfcHl0aG9uJywgJy1waCcsICc3LjAnLCAnLXRuJywgJzgnLCAnLW1hJywgJzIwMCcsICctbWV0YWxfYmluZGluZycsICctaW1hZScsICc8aW5maWxlLm1hZT4nLCAnLW9tYWUnLCAnPG91dGZpbGUubWFlPic=

> <r_lp_tautomer_probability>
1

> <r_epik_Ionization_Penalty>
2.14984e-07

> <r_epik_Ionization_Penalty_Charging>
0

> <r_epik_Ionization_Penalty_Neutral>
2.14984e-07

> <r_epik_State_Penalty>
-0

> <r_epik_Charging_Adjusted_Penalty>
0

> <i_epik_Tot_Q>
0

> <i_epik_Tot_abs_Q>
0

> <r_epik_Metal_State_Penalty>
-0

> <b_epik_Metal_Only>
0

> <s_lp_Force_Field>
OPLS_2005

> <r_lp_Energy>
5.86035

> <b_lp_Chiralities_Consistent>
1

> <s_lp_Variant>
AV-unprocessed.smi:2512-1

> <Gold.Version>
5.8.1

> <Gold.Id.Protein>
6NUR|6NUR_protein|mol2

> <Gold.PLP.Fitness>
44.4335

> <Gold.PLP.PLP>
-36.2753

> <Gold.PLP.part.hbond>
-3.0000

> <Gold.PLP.part.metal>
0.0000

> <Gold.PLP.part.buried>
-4.3927

> <Gold.PLP.part.nonpolar>
-28.7138

> <Gold.PLP.part.repulsive>
0.0000

> <Gold.PLP.ligand.clash>
0.0000

> <Gold.PLP.ligand.torsion>
0.3876

> <Gold.PLP.Chemscore.Hbond>
2.9760

> <Gold.PLP.Chemscore.CHOScore>
0.0000

> <Gold.PLP.Chemscore.Metal>
0.0000

> <Gold.Chemscore.Hbonds>
donor molecule, donor type, donor heavy atom, donor atom, acceptor molecule, acceptor atom, score
      L1  H     4    23       P1  7957  1.00
      P1  H  7989  7998       L1     4  0.96
      P1  H  7997  8009       L1     8  1.00

> <Gold.PLP.Chemscore.Internal.Correction>
0.0054

> <Gold.Rescore>
     Score         DG    S(hbond)    S(metal)    S(lipo)     H(rot)  DE(clash)    DE(int)     intcor
     18.00     -19.89       2.11        0.00      98.44       1.62       0.27       1.61       ----

> <Gold.Chemscore.Fitness>
18.0038

> <Gold.Chemscore.DG>
-19.8866

> <Gold.Chemscore.ZeroCoef>
-5.4800

> <Gold.Chemscore.Hbond>
2.1073

> <Gold.Chemscore.Metal>
0.0000

> <Gold.Chemscore.Lipo>
98.4443

> <Gold.Chemscore.Internal_Hbond>
0.0000

> <Gold.Chemscore.DEClash>
0.2705

> <Gold.Chemscore.DEInternal>
1.6123

> <Gold.Chemscore.Rot>
1.6210

> <Gold.Chemscore.Internal.Correction>
   9.000000E+99

> <Gold.Chemscore.Hbonds>
donor molecule, donor type, donor heavy atom, donor atom, acceptor molecule, acceptor atom, score
      L1  H     4    23       P1  7957  0.91
      P1  H  7989  7998       L1     4  0.18
      P1  H  7997  8009       L1     8  0.13

> <Gold.Chemscore.Hbond.Weighted>
-7.0383

> <Gold.Chemscore.Metal.Weighted>
-0.0000

> <Gold.Chemscore.Lipo.Weighted>
-11.5180

> <Gold.Chemscore.Internal_Hbond.Weighted>
0.0000

> <Gold.Chemscore.DEClash.Weighted>
0.2705

> <Gold.Chemscore.DEInternal.Weighted>
1.6123

> <Gold.Chemscore.Rot.Weighted>
4.1497

> <Gold.Chemscore.Internal.Correction.Weighted>
   9.000000E+99

> <Gold.Protein.RotatedTorsions>
[ 6907 6896 6895 6894 ] final   41.44 input  -60.11 | X-H torsion
[ 7974 7965 7964 7962 ] final   24.12 input  175.53 | X-H torsion
[ 8008 7997 7996 7995 ] final  172.13 input   59.86 | X-H torsion
[ 10167 10162 10161 10158 ] final -101.12 input  -65.29 | X-H torsion
[ 10718 10713 10712 10709 ] final  -64.22 input   66.30 | X-H torsion
[ 10763 10752 10751 10750 ] final   23.46 input  -60.55 | X-H torsion
[ 11005 11000 10999 10996 ] final   -3.70 input  -57.11 | X-H torsion

> <Gold.Protein.ActiveResidues>
 VAL166  LYS551  ARG553  GLY616  TRP617  ASP618  TYR619  PRO620  LYS621  CYS622 
 ASP623  PHE694  ASN695  SER759  ASP760  ASP761  ALA762  ILE779  LEU786  VAL792 
 PHE793  MET794  SER795  GLU796  ALA797  LYS798  CYS799  TRP800  GLU811  SER814 

> <Gold.Protein.RotatedAtoms>
  152.1953  134.8636  160.0513 H   0  0  0  0  0  0  0  0  0  0  0  0  # atno 6907 bound_to 6896
  151.9510  133.3661  159.4008 H   0  0  0  0  0  0  0  0  0  0  0  0  # atno 6908 bound_to 6896
  150.6943  134.4264  159.5272 H   0  0  0  0  0  0  0  0  0  0  0  0  # atno 6909 bound_to 6896
  146.1952  139.7649  142.8802 H   0  0  0  0  0  0  0  0  0  0  0  0  # atno 7974 bound_to 7965
  156.1204  140.1494  156.9212 H   0  0  0  0  0  0  0  0  0  0  0  0  # atno 8008 bound_to 7997
  154.4831  140.0873  156.7466 H   0  0  0  0  0  0  0  0  0  0  0  0  # atno 8009 bound_to 7997
  155.4438  140.3432  155.4295 H   0  0  0  0  0  0  0  0  0  0  0  0  # atno 8010 bound_to 7997
  140.2447  143.3514  152.0770 H   0  0  0  0  0  0  0  0  0  0  0  0  # atno 10167 bound_to 10162
  156.0742  130.4230  150.1389 H   0  0  0  0  0  0  0  0  0  0  0  0  # atno 10718 bound_to 10713
  153.0837  135.6626  153.9993 H   0  0  0  0  0  0  0  0  0  0  0  0  # atno 10763 bound_to 10752
  153.9608  135.2974  155.3435 H   0  0  0  0  0  0  0  0  0  0  0  0  # atno 10764 bound_to 10752
  154.7241  135.5152  153.8930 H   0  0  0  0  0  0  0  0  0  0  0  0  # atno 10765 bound_to 10752
  140.6722  133.9226  155.8502 H   0  0  0  0  0  0  0  0  0  0  0  0  # atno 11005 bound_to 11000
  145.3665  141.0335  143.3255 LP  0  0  0  0  0  0  0  0  0  0  0  0  # atno 17320 bound_to 7965
  144.8567  139.5239  143.6831 LP  0  0  0  0  0  0  0  0  0  0  0  0  # atno 17321 bound_to 7965
  139.5066  144.6816  151.5994 LP  0  0  0  0  0  0  0  0  0  0  0  0  # atno 17342 bound_to 10162
  140.6087  143.9477  150.6437 LP  0  0  0  0  0  0  0  0  0  0  0  0  # atno 17343 bound_to 10162
  156.9434  130.9751  151.3512 LP  0  0  0  0  0  0  0  0  0  0  0  0  # atno 17370 bound_to 10713
  157.5829  130.8389  149.8548 LP  0  0  0  0  0  0  0  0  0  0  0  0  # atno 17371 bound_to 10713
  141.0383  134.0658  157.3932 LP  0  0  0  0  0  0  0  0  0  0  0  0  # atno 17394 bound_to 11000
  139.8978  135.0152  156.7117 LP  0  0  0  0  0  0  0  0  0  0  0  0  # atno 17395 bound_to 11000

$$$$
