AV-unprocessed.smi:497|AV-procd|sdf|2727|dock4
  -GOLD-   2262023173D 1   1.00000     0.00000
 Structure written by MMmdl.
 39 41  0  0  0  0  0  0  0  0  3 V2000
  151.3870  138.0796  154.0932 C   0  0  0  0  0  0  0  0  0  0  0  0
  151.2293  139.4171  154.5319 O   0  0  0  0  0  0  0  0  0  0  0  0
  151.9455  139.6831  155.7265 C   0  0  0  0  0  0  0  0  0  0  0  0
  151.0652  140.4599  156.7197 C   0  0  0  0  0  0  0  0  0  0  0  0
  151.8037  140.8782  157.9312 N   0  0  0  0  0  0  0  0  0  0  0  0
  152.5242  140.1593  158.8541 C   0  0  0  0  0  0  0  0  0  0  0  0
  152.7875  138.6811  158.8997 C   0  0  0  0  0  0  0  0  0  0  0  0
  153.9804  138.3369  158.1336 N   0  5  0  0  0  0  0  0  0  0  0  0
  154.0112  137.4071  157.1380 C   0  0  0  0  0  0  0  0  0  0  0  0
  153.0816  136.9084  156.4947 O   0  0  0  0  0  0  0  0  0  0  0  0
  155.3889  136.9494  156.8406 C   0  0  0  0  0  0  0  0  0  0  0  0
  156.5737  137.2725  157.4469 C   0  0  0  0  0  0  0  0  0  0  0  0
  157.5966  136.5670  156.7546 C   0  0  0  0  0  0  0  0  0  0  0  0
  156.9659  135.8604  155.7718 C   0  0  0  0  0  0  0  0  0  0  0  0
  155.6243  136.0809  155.8088 O   0  0  0  0  0  0  0  0  0  0  0  0
  152.9825  141.0472  159.7809 N   0  3  0  0  0  0  0  0  0  0  0  0
  152.5641  142.3370  159.4584 C   0  0  0  0  0  0  0  0  0  0  0  0
  152.7845  143.5515  160.1008 C   0  0  0  0  0  0  0  0  0  0  0  0
  152.2097  144.6945  159.5079 C   0  0  0  0  0  0  0  0  0  0  0  0
  151.4501  144.6027  158.3239 C   0  0  0  0  0  0  0  0  0  0  0  0
  151.2344  143.3652  157.6828 C   0  0  0  0  0  0  0  0  0  0  0  0
  151.8073  142.2381  158.2735 C   0  0  0  0  0  0  0  0  0  0  0  0
  150.8182  137.9259  153.1766 H   0  0  0  0  0  0  0  0  0  0  0  0
  151.0191  137.3741  154.8393 H   0  0  0  0  0  0  0  0  0  0  0  0
  152.4332  137.8542  153.8833 H   0  0  0  0  0  0  0  0  0  0  0  0
  152.2719  138.7444  156.1735 H   0  0  0  0  0  0  0  0  0  0  0  0
  152.8435  140.2593  155.4995 H   0  0  0  0  0  0  0  0  0  0  0  0
  150.6630  141.3516  156.2388 H   0  0  0  0  0  0  0  0  0  0  0  0
  150.1989  139.8687  157.0153 H   0  0  0  0  0  0  0  0  0  0  0  0
  152.8535  138.3914  159.9492 H   0  0  0  0  0  0  0  0  0  0  0  0
  151.9084  138.1653  158.5121 H   0  0  0  0  0  0  0  0  0  0  0  0
  156.6897  137.9411  158.2871 H   0  0  0  0  0  0  0  0  0  0  0  0
  158.6584  136.5770  156.9500 H   0  0  0  0  0  0  0  0  0  0  0  0
  157.3011  135.1867  154.9973 H   0  0  0  0  0  0  0  0  0  0  0  0
  153.3644  143.6217  161.0092 H   0  0  0  0  0  0  0  0  0  0  0  0
  152.3527  145.6598  159.9712 H   0  0  0  0  0  0  0  0  0  0  0  0
  151.0219  145.4989  157.8992 H   0  0  0  0  0  0  0  0  0  0  0  0
  150.6438  143.3066  156.7807 H   0  0  0  0  0  0  0  0  0  0  0  0
  153.5379  140.7761  160.5817 H   0  0  0  0  0  0  0  0  0  0  0  0
  1  2  1  0  0  0  0
  1 23  1  0  0  0  0
  1 24  1  0  0  0  0
  1 25  1  0  0  0  0
  2  3  1  0  0  0  0
  3  4  1  0  0  0  0
  3 26  1  0  0  0  0
  3 27  1  0  0  0  0
  4  5  1  0  0  0  0
  4 28  1  0  0  0  0
  4 29  1  0  0  0  0
  5 22  1  0  0  0  0
  5  6  1  0  0  0  0
  6  7  1  0  0  0  0
  6 16  2  0  0  0  0
  7  8  1  0  0  0  0
  7 30  1  0  0  0  0
  7 31  1  0  0  0  0
  8  9  1  0  0  0  0
  9 10  2  0  0  0  0
  9 11  1  0  0  0  0
 11 15  1  0  0  0  0
 11 12  2  0  0  0  0
 12 13  1  0  0  0  0
 12 32  1  0  0  0  0
 13 14  2  0  0  0  0
 13 33  1  0  0  0  0
 14 15  1  0  0  0  0
 14 34  1  0  0  0  0
 16 17  1  0  0  0  0
 16 39  1  0  0  0  0
 17 22  2  0  0  0  0
 17 18  1  0  0  0  0
 18 19  2  0  0  0  0
 18 35  1  0  0  0  0
 19 20  1  0  0  0  0
 19 36  1  0  0  0  0
 20 21  2  0  0  0  0
 20 37  1  0  0  0  0
 21 22  1  0  0  0  0
 21 38  1  0  0  0  0
M  CHG  1   8  -1
M  CHG  1  16   1
M  END
> <s_m_source_file>
AV-unprocessed.smi

> <i_m_source_file_index>
497

> <i_lp_mmshare_version>
43012

> <i_f3d_flags>
0

> <s_epik_input>
W2NIXTFbY0hdW2NIXVtjSF1jKGMxMiluKFtDSDJdW0NIMl1PW0NIM10pYyhuMilbQ0gyXVtOSF1DKD1PKWMzW2NIXVtjSF1bY0hdbzM=

> <s_epik_cmdline>
J2VwaWtfcHl0aG9uJywgJy1waCcsICc3LjAnLCAnLXRuJywgJzgnLCAnLW1hJywgJzIwMCcsICctbWV0YWxfYmluZGluZycsICctaW1hZScsICc8aW5maWxlLm1hZT4nLCAnLW9tYWUnLCAnPG91dGZpbGUubWFlPic=

> <r_epik_Ionization_Penalty>
6.0511

> <r_epik_Ionization_Penalty_Charging>
6.0511

> <r_epik_Ionization_Penalty_Neutral>
2.61117e-12

> <r_epik_State_Penalty>
7.24158

> <r_epik_Charging_Adjusted_Penalty>
13.2927

> <i_epik_Tot_Q>
0

> <i_epik_Tot_abs_Q>
2

> <r_epik_Metal_State_Penalty>
3.25464

> <b_epik_Metal_Only>
1

> <s_lp_Force_Field>
OPLS_2005

> <r_lp_Energy>
9.23096

> <b_lp_Chiralities_Consistent>
1

> <s_lp_Variant>
AV-unprocessed.smi:497-4

> <Gold.Version>
5.8.1

> <Gold.Id.Protein>
6NUR|6NUR_protein|mol2

> <Gold.PLP.Fitness>
54.1543

> <Gold.PLP.PLP>
-41.8584

> <Gold.PLP.part.hbond>
-4.0000

> <Gold.PLP.part.metal>
0.0000

> <Gold.PLP.part.buried>
-4.9779

> <Gold.PLP.part.nonpolar>
-33.4021

> <Gold.PLP.part.repulsive>
0.2007

> <Gold.PLP.ligand.clash>
0.0000

> <Gold.PLP.ligand.torsion>
0.8186

> <Gold.PLP.Chemscore.Hbond>
4.6000

> <Gold.PLP.Chemscore.CHOScore>
0.0000

> <Gold.PLP.Chemscore.Metal>
0.0000

> <Gold.Chemscore.Hbonds>
donor molecule, donor type, donor heavy atom, donor atom, acceptor molecule, acceptor atom, score
      P1  H  7989  7998       L1     2  1.00
      P1  H  7997  8008       L1     8  1.62
      P1  H 10752 10763       L1    10  0.72
      P1  H 10752 10764       L1    15  0.77

> <Gold.PLP.Chemscore.Internal.Correction>
0.1331

> <Gold.Rescore>
     Score         DG    S(hbond)    S(metal)    S(lipo)     H(rot)  DE(clash)    DE(int)     intcor
     22.68     -24.04       3.12        0.00     110.82       1.89       0.23       1.13       ----

> <Gold.Chemscore.Fitness>
22.6767

> <Gold.Chemscore.DG>
-24.0376

> <Gold.Chemscore.ZeroCoef>
-5.4800

> <Gold.Chemscore.Hbond>
3.1222

> <Gold.Chemscore.Metal>
0.0000

> <Gold.Chemscore.Lipo>
110.8171

> <Gold.Chemscore.Internal_Hbond>
0.0000

> <Gold.Chemscore.DEClash>
0.2350

> <Gold.Chemscore.DEInternal>
1.1259

> <Gold.Chemscore.Rot>
1.8892

> <Gold.Chemscore.Internal.Correction>
   9.000000E+99

> <Gold.Chemscore.Hbonds>
donor molecule, donor type, donor heavy atom, donor atom, acceptor molecule, acceptor atom, score
      P1  H  7989  7998       L1     2  0.39
      P1  H  7997  8008       L1     8  0.27
      P1  H 10752 10763       L1    10  0.69
      P1  H 10752 10764       L1    15  0.65

> <Gold.Chemscore.Hbond.Weighted>
-10.4283

> <Gold.Chemscore.Metal.Weighted>
-0.0000

> <Gold.Chemscore.Lipo.Weighted>
-12.9656

> <Gold.Chemscore.Internal_Hbond.Weighted>
0.0000

> <Gold.Chemscore.DEClash.Weighted>
0.2350

> <Gold.Chemscore.DEInternal.Weighted>
1.1259

> <Gold.Chemscore.Rot.Weighted>
4.8363

> <Gold.Chemscore.Internal.Correction.Weighted>
   9.000000E+99

> <Gold.Protein.RotatedTorsions>
[ 6907 6896 6895 6894 ] final  150.13 input  -60.11 | X-H torsion
[ 7974 7965 7964 7962 ] final   31.24 input  175.53 | X-H torsion
[ 8008 7997 7996 7995 ] final -111.22 input   59.86 | X-H torsion
[ 10167 10162 10161 10158 ] final   68.44 input  -65.29 | X-H torsion
[ 10718 10713 10712 10709 ] final -114.81 input   66.30 | X-H torsion
[ 10763 10752 10751 10750 ] final   91.42 input  -60.55 | X-H torsion
[ 11005 11000 10999 10996 ] final -148.76 input  -57.11 | X-H torsion

> <Gold.Protein.ActiveResidues>
 VAL166  LYS551  ARG553  GLY616  TRP617  ASP618  TYR619  PRO620  LYS621  CYS622 
 ASP623  PHE694  ASN695  SER759  ASP760  ASP761  ALA762  ILE779  LEU786  VAL792 
 PHE793  MET794  SER795  GLU796  ALA797  LYS798  CYS799  TRP800  GLU811  SER814 

> <Gold.Protein.RotatedAtoms>
  152.1186  133.4340  159.4664 H   0  0  0  0  0  0  0  0  0  0  0  0  # atno 6907 bound_to 6896
  150.6871  134.2562  159.4540 H   0  0  0  0  0  0  0  0  0  0  0  0  # atno 6908 bound_to 6896
  152.0437  134.9696  160.0625 H   0  0  0  0  0  0  0  0  0  0  0  0  # atno 6909 bound_to 6896
  146.1562  139.6683  142.9065 H   0  0  0  0  0  0  0  0  0  0  0  0  # atno 7974 bound_to 7965
  154.9865  140.0395  157.2301 H   0  0  0  0  0  0  0  0  0  0  0  0  # atno 8008 bound_to 7997
  154.7666  140.2794  155.6148 H   0  0  0  0  0  0  0  0  0  0  0  0  # atno 8009 bound_to 7997
  156.2914  140.2618  156.2459 H   0  0  0  0  0  0  0  0  0  0  0  0  # atno 8010 bound_to 7997
  140.0787  144.5090  150.7177 H   0  0  0  0  0  0  0  0  0  0  0  0  # atno 10167 bound_to 10162
  156.0854  130.6047  150.8823 H   0  0  0  0  0  0  0  0  0  0  0  0  # atno 10718 bound_to 10713
  153.2081  135.4398  155.0347 H   0  0  0  0  0  0  0  0  0  0  0  0  # atno 10763 bound_to 10752
  154.8185  135.3326  154.7110 H   0  0  0  0  0  0  0  0  0  0  0  0  # atno 10764 bound_to 10752
  153.7550  135.6995  153.4993 H   0  0  0  0  0  0  0  0  0  0  0  0  # atno 10765 bound_to 10752
  140.7578  134.3332  157.5109 H   0  0  0  0  0  0  0  0  0  0  0  0  # atno 11005 bound_to 11000
  145.4701  141.0436  143.2703 LP  0  0  0  0  0  0  0  0  0  0  0  0  # atno 17320 bound_to 7965
  144.7967  139.6220  143.7089 LP  0  0  0  0  0  0  0  0  0  0  0  0  # atno 17321 bound_to 7965
  140.7089  143.2489  151.4642 LP  0  0  0  0  0  0  0  0  0  0  0  0  # atno 17342 bound_to 10162
  139.5793  144.1747  152.1946 LP  0  0  0  0  0  0  0  0  0  0  0  0  # atno 17343 bound_to 10162
  157.5986  131.0942  150.8998 LP  0  0  0  0  0  0  0  0  0  0  0  0  # atno 17370 bound_to 10713
  156.9160  130.5298  149.5279 LP  0  0  0  0  0  0  0  0  0  0  0  0  # atno 17371 bound_to 10713
  139.8776  134.9183  156.3199 LP  0  0  0  0  0  0  0  0  0  0  0  0  # atno 17394 bound_to 11000
  140.9691  133.7339  156.0509 LP  0  0  0  0  0  0  0  0  0  0  0  0  # atno 17395 bound_to 11000

$$$$
