AV-unprocessed.smi:237|AV-procd|sdf|1817|dock2
  -GOLD-   2262020403D 1   1.00000     0.00000
 Structure written by MMmdl.
 53 56  0  0  0  0  0  0  0  0  1 V2000
  152.2765  142.4200  160.0539 C   0  0  0  0  0  0  0  0  0  0  0  0
  151.2708  142.2510  158.9126 C   0  0  0  0  0  0  0  0  0  0  0  0
  151.9604  141.7720  157.7677 O   0  0  0  0  0  0  0  0  0  0  0  0
  151.1802  141.7353  156.5784 C   0  0  0  0  0  0  0  0  0  0  0  0
  150.8789  140.2982  156.0754 C   0  0  2  0  0  0  0  0  0  0  0  0
  152.2105  139.5293  155.9243 C   0  0  0  0  0  0  0  0  0  0  0  0
  151.9978  138.1159  155.3650 C   0  0  0  0  0  0  0  0  0  0  0  0
  151.2365  138.1914  154.0369 C   0  0  0  0  0  0  0  0  0  0  0  0
  149.9172  138.9529  154.2227 C   0  0  0  0  0  0  0  0  0  0  0  0
  150.1465  140.2785  154.7976 N   0  0  0  0  0  0  0  0  0  0  0  0
  149.0111  141.0114  154.7684 C   0  0  0  0  0  0  0  0  0  0  0  0
  148.5560  141.4010  153.5526 N   0  0  0  0  0  0  0  0  0  0  0  0
  147.4535  142.1511  153.4629 C   0  0  0  0  0  0  0  0  0  0  0  0
  146.6729  142.6100  154.4438 N   0  0  0  0  0  0  0  0  0  0  0  0
  147.1222  142.2057  155.6670 C   0  0  0  0  0  0  0  0  0  0  0  0
  148.2717  141.4069  155.9189 C   0  0  0  0  0  0  0  0  0  0  0  0
  148.4179  141.2032  157.2855 N   0  0  0  0  0  0  0  0  0  0  0  0
  147.4177  141.8550  157.8119 C   0  0  0  0  0  0  0  0  0  0  0  0
  146.5814  142.4777  156.9119 N   0  0  0  0  0  0  0  0  0  0  0  0
  145.4039  143.2790  157.2139 C   0  0  0  0  0  0  0  0  0  0  0  0
  144.9979  143.3022  158.7074 C   0  0  0  0  0  0  0  0  0  0  0  0
  146.0931  144.0431  159.4864 C   0  0  0  0  0  0  0  0  0  0  0  0
  146.1437  145.4095  159.1287 O   0  0  0  0  0  0  0  0  0  0  0  0
  143.5453  143.6759  159.0532 C   0  0  0  0  0  0  0  0  0  0  0  0
  143.1748  142.2916  159.2254 O   0  0  0  0  0  0  0  0  0  0  0  0
  144.5743  141.9495  159.3040 C   0  0  0  0  0  0  0  0  0  0  0  0
  151.7872  142.7973  160.9520 H   0  0  0  0  0  0  0  0  0  0  0  0
  153.0643  143.1226  159.7823 H   0  0  0  0  0  0  0  0  0  0  0  0
  152.7478  141.4691  160.3030 H   0  0  0  0  0  0  0  0  0  0  0  0
  150.4938  141.5442  159.2073 H   0  0  0  0  0  0  0  0  0  0  0  0
  150.7862  143.2051  158.7075 H   0  0  0  0  0  0  0  0  0  0  0  0
  150.2415  142.2569  156.7688 H   0  0  0  0  0  0  0  0  0  0  0  0
  151.6895  142.3162  155.8076 H   0  0  0  0  0  0  0  0  0  0  0  0
  150.2870  139.7650  156.8184 H   0  0  0  0  0  0  0  0  0  0  0  0
  152.8796  140.0805  155.2618 H   0  0  0  0  0  0  0  0  0  0  0  0
  152.7162  139.4644  156.8883 H   0  0  0  0  0  0  0  0  0  0  0  0
  152.9573  137.6184  155.2222 H   0  0  0  0  0  0  0  0  0  0  0  0
  151.4352  137.5152  156.0808 H   0  0  0  0  0  0  0  0  0  0  0  0
  151.8495  138.6950  153.2881 H   0  0  0  0  0  0  0  0  0  0  0  0
  151.0404  137.1886  153.6571 H   0  0  0  0  0  0  0  0  0  0  0  0
  149.4130  139.0479  153.2594 H   0  0  0  0  0  0  0  0  0  0  0  0
  149.2543  138.3813  154.8737 H   0  0  0  0  0  0  0  0  0  0  0  0
  147.1555  142.4259  152.4619 H   0  0  0  0  0  0  0  0  0  0  0  0
  147.2668  141.9018  158.8802 H   0  0  0  0  0  0  0  0  0  0  0  0
  145.5950  144.2927  156.8598 H   0  0  0  0  0  0  0  0  0  0  0  0
  144.5894  142.9018  156.5950 H   0  0  0  0  0  0  0  0  0  0  0  0
  145.9139  143.9870  160.5605 H   0  0  0  0  0  0  0  0  0  0  0  0
  147.0715  143.5949  159.3104 H   0  0  0  0  0  0  0  0  0  0  0  0
  146.8396  145.5312  158.5010 H   0  0  0  0  0  0  0  0  0  0  0  0
  143.4459  144.2357  159.9848 H   0  0  0  0  0  0  0  0  0  0  0  0
  142.9929  144.1689  158.2546 H   0  0  0  0  0  0  0  0  0  0  0  0
  144.8367  141.0829  158.6985 H   0  0  0  0  0  0  0  0  0  0  0  0
  144.8925  141.8006  160.3373 H   0  0  0  0  0  0  0  0  0  0  0  0
  1  2  1  0  0  0  0
  1 27  1  0  0  0  0
  1 28  1  0  0  0  0
  1 29  1  0  0  0  0
  2  3  1  0  0  0  0
  2 30  1  0  0  0  0
  2 31  1  0  0  0  0
  3  4  1  0  0  0  0
  4  5  1  0  0  0  0
  4 32  1  0  0  0  0
  4 33  1  0  0  0  0
  5 10  1  0  0  0  0
  5  6  1  0  0  0  0
  5 34  1  0  0  0  0
  6  7  1  0  0  0  0
  6 35  1  0  0  0  0
  6 36  1  0  0  0  0
  7  8  1  0  0  0  0
  7 37  1  0  0  0  0
  7 38  1  0  0  0  0
  8  9  1  0  0  0  0
  8 39  1  0  0  0  0
  8 40  1  0  0  0  0
  9 10  1  0  0  0  0
  9 41  1  0  0  0  0
  9 42  1  0  0  0  0
 10 11  1  0  0  0  0
 11 16  1  0  0  0  0
 11 12  2  0  0  0  0
 12 13  1  0  0  0  0
 13 14  2  0  0  0  0
 13 43  1  0  0  0  0
 14 15  1  0  0  0  0
 15 19  1  0  0  0  0
 15 16  2  0  0  0  0
 16 17  1  0  0  0  0
 17 18  2  0  0  0  0
 18 19  1  0  0  0  0
 18 44  1  0  0  0  0
 19 20  1  0  0  0  0
 20 21  1  0  0  0  0
 20 45  1  0  0  0  0
 20 46  1  0  0  0  0
 21 26  1  0  0  0  0
 21 22  1  0  0  0  0
 21 24  1  0  0  0  0
 22 23  1  0  0  0  0
 22 47  1  0  0  0  0
 22 48  1  0  0  0  0
 23 49  1  0  0  0  0
 24 25  1  0  0  0  0
 24 50  1  0  0  0  0
 24 51  1  0  0  0  0
 25 26  1  0  0  0  0
 26 52  1  0  0  0  0
 26 53  1  0  0  0  0
M  END
> <s_m_source_file>
AV-unprocessed.smi

> <i_m_source_file_index>
237

> <i_lp_mmshare_version>
43012

> <i_f3d_flags>
0

> <s_epik_input>
W0NIM11bQ0gyXU9bQ0gyXVtDQEBIXTFbQ0gyXVtDSDJdW0NIMl1bQ0gyXU4xYyhuW2NIXW4yKWMoYzIzKW5bY0hdbjNbQ0gyXUM0KFtDSDJdW09IXSlbQ0gyXU9bQ0gyXTQ=

> <s_epik_cmdline>
J2VwaWtfcHl0aG9uJywgJy1waCcsICc3LjAnLCAnLXRuJywgJzgnLCAnLW1hJywgJzIwMCcsICctbWV0YWxfYmluZGluZycsICctaW1hZScsICc8aW5maWxlLm1hZT4nLCAnLW9tYWUnLCAnPG91dGZpbGUubWFlPic=

> <r_lp_tautomer_probability>
1

> <r_epik_Ionization_Penalty>
0.00358373

> <r_epik_Ionization_Penalty_Charging>
0

> <r_epik_Ionization_Penalty_Neutral>
0.00358373

> <r_epik_State_Penalty>
0.00240903

> <r_epik_Charging_Adjusted_Penalty>
0.00240903

> <i_epik_Tot_Q>
0

> <i_epik_Tot_abs_Q>
0

> <r_epik_Metal_State_Penalty>
-0

> <b_epik_Metal_Only>
0

> <s_lp_Force_Field>
OPLS_2005

> <r_lp_Energy>
38.4441

> <b_lp_Chiralities_Consistent>
1

> <s_lp_Variant>
AV-unprocessed.smi:237-1

> <Gold.Version>
5.8.1

> <Gold.Id.Protein>
6NUR|6NUR_protein|mol2

> <Gold.PLP.Fitness>
40.3066

> <Gold.PLP.PLP>
-34.0371

> <Gold.PLP.part.hbond>
-3.0000

> <Gold.PLP.part.metal>
0.0000

> <Gold.PLP.part.buried>
-3.6503

> <Gold.PLP.part.nonpolar>
-26.7464

> <Gold.PLP.part.repulsive>
1.6159

> <Gold.PLP.ligand.clash>
0.0000

> <Gold.PLP.ligand.torsion>
1.0154

> <Gold.PLP.Chemscore.Hbond>
2.5356

> <Gold.PLP.Chemscore.CHOScore>
0.0000

> <Gold.PLP.Chemscore.Metal>
0.0000

> <Gold.Chemscore.Hbonds>
donor molecule, donor type, donor heavy atom, donor atom, acceptor molecule, acceptor atom, score
      L1  H    23    49       P1  8029  1.00
      P1  H  7989  7998       L1    10  0.80
      P1  H  8011  8017       L1    12  0.78

> <Gold.PLP.Chemscore.Internal.Correction>
0.6935

> <Gold.Rescore>
     Score         DG    S(hbond)    S(metal)    S(lipo)     H(rot)  DE(clash)    DE(int)     intcor
      4.85     -10.41       1.17        0.00      75.65       3.06       0.88       4.67       ----

> <Gold.Chemscore.Fitness>
4.8483

> <Gold.Chemscore.DG>
-10.4061

> <Gold.Chemscore.ZeroCoef>
-5.4800

> <Gold.Chemscore.Hbond>
1.1718

> <Gold.Chemscore.Metal>
0.0000

> <Gold.Chemscore.Lipo>
75.6484

> <Gold.Chemscore.Internal_Hbond>
0.0000

> <Gold.Chemscore.DEClash>
0.8832

> <Gold.Chemscore.DEInternal>
4.6745

> <Gold.Chemscore.Rot>
3.0620

> <Gold.Chemscore.Internal.Correction>
   9.000000E+99

> <Gold.Chemscore.Hbonds>
donor molecule, donor type, donor heavy atom, donor atom, acceptor molecule, acceptor atom, score
      L1  H    23    49       P1  8029  1.00
      P1  H  7989  7998       L1    10  0.03
      P1  H  8011  8017       L1    12  0.18

> <Gold.Chemscore.Hbond.Weighted>
-3.9140

> <Gold.Chemscore.Metal.Weighted>
-0.0000

> <Gold.Chemscore.Lipo.Weighted>
-8.8509

> <Gold.Chemscore.Internal_Hbond.Weighted>
0.0000

> <Gold.Chemscore.DEClash.Weighted>
0.8832

> <Gold.Chemscore.DEInternal.Weighted>
4.6745

> <Gold.Chemscore.Rot.Weighted>
7.8388

> <Gold.Chemscore.Internal.Correction.Weighted>
   9.000000E+99

> <Gold.Protein.RotatedTorsions>
[ 6907 6896 6895 6894 ] final   87.74 input  -60.11 | X-H torsion
[ 7974 7965 7964 7962 ] final -146.56 input  175.53 | X-H torsion
[ 8008 7997 7996 7995 ] final  104.48 input   59.86 | X-H torsion
[ 10167 10162 10161 10158 ] final  161.03 input  -65.29 | X-H torsion
[ 10718 10713 10712 10709 ] final -101.13 input   66.30 | X-H torsion
[ 10763 10752 10751 10750 ] final  -10.90 input  -60.55 | X-H torsion
[ 11005 11000 10999 10996 ] final  -14.54 input  -57.11 | X-H torsion

> <Gold.Protein.ActiveResidues>
 VAL166  LYS551  ARG553  GLY616  TRP617  ASP618  TYR619  PRO620  LYS621  CYS622 
 ASP623  PHE694  ASN695  SER759  ASP760  ASP761  ALA762  ILE779  LEU786  VAL792 
 PHE793  MET794  SER795  GLU796  ALA797  LYS798  CYS799  TRP800  GLU811  SER814 

> <Gold.Protein.RotatedAtoms>
  152.5415  134.2230  159.8794 H   0  0  0  0  0  0  0  0  0  0  0  0  # atno 6907 bound_to 6896
  151.2206  133.4498  159.2608 H   0  0  0  0  0  0  0  0  0  0  0  0  # atno 6908 bound_to 6896
  151.0809  134.9870  159.8411 H   0  0  0  0  0  0  0  0  0  0  0  0  # atno 6909 bound_to 6896
  144.8151  140.5440  143.5616 H   0  0  0  0  0  0  0  0  0  0  0  0  # atno 7974 bound_to 7965
  156.1576  140.3147  155.8752 H   0  0  0  0  0  0  0  0  0  0  0  0  # atno 8008 bound_to 7997
  155.3847  140.0490  157.3059 H   0  0  0  0  0  0  0  0  0  0  0  0  # atno 8009 bound_to 7997
  154.5116  140.2166  155.9157 H   0  0  0  0  0  0  0  0  0  0  0  0  # atno 8010 bound_to 7997
  139.4845  144.4577  151.8747 H   0  0  0  0  0  0  0  0  0  0  0  0  # atno 10167 bound_to 10162
  156.0185  130.5359  150.6919 H   0  0  0  0  0  0  0  0  0  0  0  0  # atno 10718 bound_to 10713
  153.4759  135.7017  153.5966 H   0  0  0  0  0  0  0  0  0  0  0  0  # atno 10763 bound_to 10752
  153.4200  135.3828  155.2105 H   0  0  0  0  0  0  0  0  0  0  0  0  # atno 10764 bound_to 10752
  154.8723  135.3925  154.4203 H   0  0  0  0  0  0  0  0  0  0  0  0  # atno 10765 bound_to 10752
  140.7874  133.8315  155.9348 H   0  0  0  0  0  0  0  0  0  0  0  0  # atno 11005 bound_to 11000
  145.5233  139.1476  143.3540 LP  0  0  0  0  0  0  0  0  0  0  0  0  # atno 17320 bound_to 7965
  146.2453  140.5374  142.8916 LP  0  0  0  0  0  0  0  0  0  0  0  0  # atno 17321 bound_to 7965
  140.4037  144.2460  150.5892 LP  0  0  0  0  0  0  0  0  0  0  0  0  # atno 17342 bound_to 10162
  140.5033  143.2311  151.8646 LP  0  0  0  0  0  0  0  0  0  0  0  0  # atno 17343 bound_to 10162
  157.4598  131.0882  151.0757 LP  0  0  0  0  0  0  0  0  0  0  0  0  # atno 17370 bound_to 10713
  157.1248  130.6077  149.5514 LP  0  0  0  0  0  0  0  0  0  0  0  0  # atno 17371 bound_to 10713
  140.9423  134.1885  157.4789 LP  0  0  0  0  0  0  0  0  0  0  0  0  # atno 17394 bound_to 11000
  139.8735  134.9877  156.5378 LP  0  0  0  0  0  0  0  0  0  0  0  0  # atno 17395 bound_to 11000

$$$$
