#       Name:                AV-unprocessed.smi:1999
#       Creating user name   scv26
#       Creation time:       Fri Mar 27 10:31:45 2020


#       File generated by GOLD software.
#

@<TRIPOS>MOLECULE
AV-unprocessed.smi:1999
    45    46     1
SMALL
NO_CHARGES


@<TRIPOS>ATOM
      1 ****        -5.1321   4.7537   0.2840 C.3            1 S1                 0.0000
      2 ****        -4.2320   3.7080   0.8471 C.2            1 S1                 0.0000
      3 ****        -4.0420   3.5478   2.1590 N.2            1 S1                 0.0000
      4 ****        -3.1591   2.5143   2.4367 N.2            1 S1                 0.0000
      5 ****        -2.6882   1.9141   1.3343 C.2            1 S1                 0.0000
      6 ****        -1.8233   0.8877   1.3867 N.pl3          1 S1                -1.0000
      7 ****        -0.5011   1.1083   1.2060 C.2            1 S1                 0.0000
      8 ****         0.0338   2.1977   0.9867 O.2            1 S1                 0.0000
      9 ****         0.2467  -0.0019   1.2841 N.am           1 S1                 0.0000
     10 ****         1.6968  -0.0815   1.1144 C.3            1 S1                 0.0000
     11 ****         2.4006   0.2281   2.4448 C.3            1 S1                 0.0000
     12 ****         2.0887  -1.4778   0.5883 C.3            1 S1                 0.0000
     13 ****         1.4329  -1.8983  -0.6518 N.3            1 S1                 0.0000
     14 ****         1.8112  -1.0779  -1.8003 C.3            1 S1                 0.0000
     15 ****         1.1291  -1.5544  -3.0947 C.3            1 S1                 0.0000
     16 ****         1.4347  -2.9264  -3.3228 O.3            1 S1                 0.0000
     17 ****         1.0333  -3.7632  -2.2431 C.3            1 S1                 0.0000
     18 ****         1.7213  -3.2968  -0.9488 C.3            1 S1                 0.0000
     19 ****        -3.3320   2.5888  -0.1625 S.3            1 S1                 0.0000
     20 ****        -4.5991   5.7015   0.2082 H              1 S1                 0.0000
     21 ****        -6.0033   4.8899   0.9254 H              1 S1                 0.0000
     22 ****        -5.4737   4.4626  -0.7094 H              1 S1                 0.0000
     23 ****        -0.2361  -0.8707   1.4602 H              1 S1                 0.0000
     24 ****         2.0190   0.6678   0.3907 H              1 S1                 0.0000
     25 ****         3.4841   0.1800   2.3344 H              1 S1                 0.0000
     26 ****         2.1122  -0.4812   3.2213 H              1 S1                 0.0000
     27 ****         2.1518   1.2288   2.7996 H              1 S1                 0.0000
     28 ****         3.1711  -1.5214   0.4589 H              1 S1                 0.0000
     29 ****         1.8548  -2.2035   1.3687 H              1 S1                 0.0000
     30 ****         1.5365  -0.0376  -1.6295 H              1 S1                 0.0000
     31 ****         2.8939  -1.1003  -1.9319 H              1 S1                 0.0000
     32 ****         0.0479  -1.4216  -3.0313 H              1 S1                 0.0000
     33 ****         1.4751  -0.9659  -3.9444 H              1 S1                 0.0000
     34 ****        -0.0522  -3.7367  -2.1354 H              1 S1                 0.0000
     35 ****         1.3081  -4.7935  -2.4689 H              1 S1                 0.0000
     36 ****         2.7989  -3.4409  -1.0423 H              1 S1                 0.0000
     37 ****         1.3930  -3.9263  -0.1210 H              1 S1                 0.0000
     38 ****        -4.4845   4.1075   2.8596 LP             1 S1                 0.0000
     39 ****        -2.9005   2.2446   3.3642 LP             1 S1                 0.0000
     40 ****        -2.1568  -0.0392   1.5592 LP             1 S1                 0.0000
     41 ****        -0.5238   3.0257   0.9282 LP             1 S1                 0.0000
     42 ****         1.0251   2.2529   0.8673 LP             1 S1                 0.0000
     43 ****         0.4522  -1.7787  -0.4970 LP             1 S1                 0.0000
     44 ****         2.4225  -3.0179  -3.4490 LP             1 S1                 0.0000
     45 ****         0.9636  -3.2259  -4.1525 LP             1 S1                 0.0000
@<TRIPOS>BOND
    1    1    2 1     
    2    1   20 1     
    3    1   21 1     
    4    1   22 1     
    5    2   19 1     
    6    2    3 2     
    7    3    4 1     
    8    4    5 2     
    9    5    6 1     
   10    5   19 1     
   11    6    7 1     
   12    7    8 2     
   13    7    9 am    
   14    9   10 1     
   15    9   23 1     
   16   10   11 1     
   17   10   12 1     
   18   10   24 1     
   19   11   25 1     
   20   11   26 1     
   21   11   27 1     
   22   12   13 1     
   23   12   28 1     
   24   12   29 1     
   25   13   18 1     
   26   13   14 1     
   27   14   15 1     
   28   14   30 1     
   29   14   31 1     
   30   15   16 1     
   31   15   32 1     
   32   15   33 1     
   33   16   17 1     
   34   17   18 1     
   35   17   34 1     
   36   17   35 1     
   37   18   36 1     
   38   18   37 1     
   39    3   38 1     
   40    4   39 1     
   41    6   40 1     
   42    8   41 1     
   43    8   42 1     
   44   13   43 1     
   45   16   44 1     
   46   16   45 1     
@<TRIPOS>SUBSTRUCTURE
      1 S1             1
@<TRIPOS>SET
LONE_PAIRS      STATIC     ATOMS    <user>   **** ""
8 38 39 40 41 42 43 44 45
DONOR_HYDROGENS      STATIC     ATOMS    <user>   **** ""
1 23
ATOM$BLUE        STATIC     ATOMS    COLORGROUP SYSTEM
8 38 39 40 41 42 43 44 45
ATOM$RED        STATIC     ATOMS    COLORGROUP SYSTEM
1 23
