AV-unprocessed.smi:1976|AV-procd|sdf|7984|dock4
  -GOLD-   2272010163D 1   1.00000     0.00000
 Structure written by MMmdl.
 45 47  0  0  0  0  0  0  0  0  2 V2000
  152.5280  140.2754  155.3870 O   0  0  0  0  0  0  0  0  0  0  0  0
  151.8183  139.7242  156.2289 C   0  0  0  0  0  0  0  0  0  0  0  0
  152.4196  139.2037  157.5416 C   0  0  0  0  0  0  0  0  0  0  0  0
  152.7114  140.2799  158.5030 N   0  0  0  0  0  0  0  0  0  0  0  0
  152.0157  141.4942  158.3403 C   0  0  0  0  0  0  0  0  0  0  0  0
  152.1939  142.5552  159.1509 C   0  0  0  0  0  0  0  0  0  0  0  0
  151.3795  143.8299  158.9924 C   0  0  0  0  0  0  0  0  0  0  0  0
  151.6089  144.4015  157.8099 F   0  0  0  0  0  0  0  0  0  0  0  0
  150.0796  143.5494  159.0723 F   0  0  0  0  0  0  0  0  0  0  0  0
  151.6730  144.7124  159.9482 F   0  0  0  0  0  0  0  0  0  0  0  0
  153.1333  142.3827  160.2417 C   0  0  0  0  0  0  0  0  0  0  0  0
  153.7964  141.2233  160.4197 C   0  0  0  0  0  0  0  0  0  0  0  0
  153.6017  140.0833  159.5212 C   0  0  0  0  0  0  0  0  0  0  0  0
  154.1988  139.0171  159.6746 O   0  0  0  0  0  0  0  0  0  0  0  0
  150.5037  139.5202  156.0567 N   0  0  0  0  0  0  0  0  0  0  0  0
  149.7434  139.9391  154.8816 C   0  0  1  0  0  0  0  0  0  0  0  0
  149.2277  138.7679  154.0190 C   0  0  0  0  0  0  0  0  0  0  0  0
  147.7966  139.1627  153.6399 C   0  0  0  0  0  0  0  0  0  0  0  0
  147.3467  139.9317  154.8064 N   0  3  2  0  0  0  0  0  0  0  0  0
  146.0887  140.6989  154.7036 C   0  0  0  0  0  0  0  0  0  0  0  0
  145.7505  141.2731  156.0967 C   0  0  0  0  0  0  0  0  0  0  0  0
  146.9310  142.0614  156.7094 C   0  0  0  0  0  0  0  0  0  0  0  0
  148.2432  141.2483  156.6729 C   0  0  0  0  0  0  0  0  0  0  0  0
  148.4856  140.7626  155.2333 C   0  0  1  0  0  0  0  0  0  0  0  0
  151.7474  138.4699  157.9910 H   0  0  0  0  0  0  0  0  0  0  0  0
  153.3274  138.6484  157.3021 H   0  0  0  0  0  0  0  0  0  0  0  0
  151.3143  141.5028  157.5185 H   0  0  0  0  0  0  0  0  0  0  0  0
  153.3111  143.1983  160.9270 H   0  0  0  0  0  0  0  0  0  0  0  0
  154.4898  141.1315  161.2428 H   0  0  0  0  0  0  0  0  0  0  0  0
  149.9935  139.0586  156.7959 H   0  0  0  0  0  0  0  0  0  0  0  0
  150.3920  140.5705  154.2709 H   0  0  0  0  0  0  0  0  0  0  0  0
  149.8542  138.5831  153.1458 H   0  0  0  0  0  0  0  0  0  0  0  0
  149.2029  137.8479  154.6053 H   0  0  0  0  0  0  0  0  0  0  0  0
  147.7959  139.8005  152.7544 H   0  0  0  0  0  0  0  0  0  0  0  0
  147.1578  138.3002  153.4478 H   0  0  0  0  0  0  0  0  0  0  0  0
  146.1945  141.4979  153.9683 H   0  0  0  0  0  0  0  0  0  0  0  0
  145.2854  140.0461  154.3600 H   0  0  0  0  0  0  0  0  0  0  0  0
  144.8680  141.9103  156.0339 H   0  0  0  0  0  0  0  0  0  0  0  0
  145.4876  140.4527  156.7659 H   0  0  0  0  0  0  0  0  0  0  0  0
  147.0678  142.9901  156.1536 H   0  0  0  0  0  0  0  0  0  0  0  0
  146.6971  142.3500  157.7345 H   0  0  0  0  0  0  0  0  0  0  0  0
  149.0751  141.8661  157.0131 H   0  0  0  0  0  0  0  0  0  0  0  0
  148.1743  140.4005  157.3560 H   0  0  0  0  0  0  0  0  0  0  0  0
  148.5070  141.6415  154.5849 H   0  0  0  0  0  0  0  0  0  0  0  0
  147.2077  139.2501  155.5387 H   0  0  0  0  0  0  0  0  0  0  0  0
  1  2  2  0  0  0  0
  2  3  1  0  0  0  0
  2 15  1  0  0  0  0
  3  4  1  0  0  0  0
  3 25  1  0  0  0  0
  3 26  1  0  0  0  0
  4 13  1  0  0  0  0
  4  5  1  0  0  0  0
  5  6  2  0  0  0  0
  5 27  1  0  0  0  0
  6  7  1  0  0  0  0
  6 11  1  0  0  0  0
  7  8  1  0  0  0  0
  7  9  1  0  0  0  0
  7 10  1  0  0  0  0
 11 12  2  0  0  0  0
 11 28  1  0  0  0  0
 12 13  1  0  0  0  0
 12 29  1  0  0  0  0
 13 14  2  0  0  0  0
 15 16  1  0  0  0  0
 15 30  1  0  0  0  0
 16 24  1  0  0  0  0
 16 17  1  0  0  0  0
 16 31  1  0  0  0  0
 17 18  1  0  0  0  0
 17 32  1  0  0  0  0
 17 33  1  0  0  0  0
 18 19  1  0  0  0  0
 18 34  1  0  0  0  0
 18 35  1  0  0  0  0
 19 24  1  0  0  0  0
 19 20  1  0  0  0  0
 19 45  1  0  0  0  0
 20 21  1  0  0  0  0
 20 36  1  0  0  0  0
 20 37  1  0  0  0  0
 21 22  1  0  0  0  0
 21 38  1  0  0  0  0
 21 39  1  0  0  0  0
 22 23  1  0  0  0  0
 22 40  1  0  0  0  0
 22 41  1  0  0  0  0
 23 24  1  0  0  0  0
 23 42  1  0  0  0  0
 23 43  1  0  0  0  0
 24 44  1  0  0  0  0
M  CHG  1  19   1
M  END
> <s_m_source_file>
AV-unprocessed.smi

> <i_m_source_file_index>
1976

> <i_lp_mmshare_version>
43012

> <i_f3d_flags>
0

> <s_epik_input>
W0NIMl0xW0NIMl1bQ0gyXVtDSDJdW0NASF0oTjEyKVtDQEBIXShbQ0gyXVtDSDJdMilbTkhdQyg9TylbQ0gyXW4zW2NIXWMoQyhGKShGKUYpW2NIXVtjSF1jMz1P

> <s_epik_cmdline>
J2VwaWtfcHl0aG9uJywgJy1waCcsICc3LjAnLCAnLXRuJywgJzgnLCAnLW1hJywgJzIwMCcsICctbWV0YWxfYmluZGluZycsICctaW1hZScsICc8aW5maWxlLm1hZT4nLCAnLW9tYWUnLCAnPG91dGZpbGUubWFlPic=

> <r_lp_tautomer_probability>
1

> <r_epik_Ionization_Penalty>
0.00171506

> <r_epik_Ionization_Penalty_Charging>
0.00171498

> <r_epik_Ionization_Penalty_Neutral>
7.81737e-08

> <r_epik_State_Penalty>
0.00115937

> <r_epik_Charging_Adjusted_Penalty>
0.00287436

> <i_epik_Tot_Q>
1

> <i_epik_Tot_abs_Q>
1

> <r_epik_Metal_State_Penalty>
-0

> <b_epik_Metal_Only>
0

> <s_lp_Force_Field>
OPLS_2005

> <r_lp_Energy>
52.9518

> <b_lp_Chiralities_Consistent>
1

> <s_lp_Variant>
AV-unprocessed.smi:1976-2

> <Gold.Version>
5.8.1

> <Gold.Id.Protein>
6NUR|6NUR_protein|mol2

> <Gold.PLP.Fitness>
47.5263

> <Gold.PLP.PLP>
-44.6974

> <Gold.PLP.part.hbond>
-2.0000

> <Gold.PLP.part.metal>
0.0000

> <Gold.PLP.part.buried>
-2.4322

> <Gold.PLP.part.nonpolar>
-40.1138

> <Gold.PLP.part.repulsive>
0.0487

> <Gold.PLP.ligand.clash>
0.0000

> <Gold.PLP.ligand.torsion>
0.5698

> <Gold.PLP.Chemscore.Hbond>
1.3003

> <Gold.PLP.Chemscore.CHOScore>
0.0000

> <Gold.PLP.Chemscore.Metal>
0.0000

> <Gold.Chemscore.Hbonds>
donor molecule, donor type, donor heavy atom, donor atom, acceptor molecule, acceptor atom, score
      P1  H  7989  7998       L1     1  0.37
      P1  H  7997  8009       L1     1  1.00

> <Gold.PLP.Chemscore.Internal.Correction>
0.0676

> <Gold.Rescore>
     Score         DG    S(hbond)    S(metal)    S(lipo)     H(rot)  DE(clash)    DE(int)     intcor
     15.33     -16.05       1.13        0.00      92.74       1.58       0.03       0.68       ----

> <Gold.Chemscore.Fitness>
15.3287

> <Gold.Chemscore.DG>
-16.0480

> <Gold.Chemscore.ZeroCoef>
-5.4800

> <Gold.Chemscore.Hbond>
1.1285

> <Gold.Chemscore.Metal>
0.0000

> <Gold.Chemscore.Lipo>
92.7441

> <Gold.Chemscore.Internal_Hbond>
0.0000

> <Gold.Chemscore.DEClash>
0.0346

> <Gold.Chemscore.DEInternal>
0.6847

> <Gold.Chemscore.Rot>
1.5830

> <Gold.Chemscore.Internal.Correction>
   9.000000E+99

> <Gold.Chemscore.Hbonds>
donor molecule, donor type, donor heavy atom, donor atom, acceptor molecule, acceptor atom, score
      P1  H  7989  7998       L1     1  0.36
      P1  H  7997  8009       L1     1  0.54

> <Gold.Chemscore.Hbond.Weighted>
-3.7693

> <Gold.Chemscore.Metal.Weighted>
-0.0000

> <Gold.Chemscore.Lipo.Weighted>
-10.8511

> <Gold.Chemscore.Internal_Hbond.Weighted>
0.0000

> <Gold.Chemscore.DEClash.Weighted>
0.0346

> <Gold.Chemscore.DEInternal.Weighted>
0.6847

> <Gold.Chemscore.Rot.Weighted>
4.0524

> <Gold.Chemscore.Internal.Correction.Weighted>
   9.000000E+99

> <Gold.Protein.RotatedTorsions>
[ 6907 6896 6895 6894 ] final   -8.93 input  -60.11 | X-H torsion
[ 7974 7965 7964 7962 ] final   68.86 input  175.53 | X-H torsion
[ 8008 7997 7996 7995 ] final -148.22 input   59.86 | X-H torsion
[ 10167 10162 10161 10158 ] final   41.22 input  -65.29 | X-H torsion
[ 10718 10713 10712 10709 ] final   14.46 input   66.30 | X-H torsion
[ 10763 10752 10751 10750 ] final -162.45 input  -60.55 | X-H torsion
[ 11005 11000 10999 10996 ] final   10.63 input  -57.11 | X-H torsion

> <Gold.Protein.ActiveResidues>
 VAL166  LYS551  ARG553  GLY616  TRP617  ASP618  TYR619  PRO620  LYS621  CYS622 
 ASP623  PHE694  ASN695  SER759  ASP760  ASP761  ALA762  ILE779  LEU786  VAL792 
 PHE793  MET794  SER795  GLU796  ALA797  LYS798  CYS799  TRP800  GLU811  SER814 

> <Gold.Protein.RotatedAtoms>
  151.4259  135.1003  159.9627 H   0  0  0  0  0  0  0  0  0  0  0  0  # atno 6907 bound_to 6896
  152.4973  133.8663  159.7286 H   0  0  0  0  0  0  0  0  0  0  0  0  # atno 6908 bound_to 6896
  150.9190  133.6846  159.2864 H   0  0  0  0  0  0  0  0  0  0  0  0  # atno 6909 bound_to 6896
  145.7975  139.2965  143.1174 H   0  0  0  0  0  0  0  0  0  0  0  0  # atno 7974 bound_to 7965
  155.5881  140.0650  157.2766 H   0  0  0  0  0  0  0  0  0  0  0  0  # atno 8008 bound_to 7997
  154.4313  140.1840  156.1092 H   0  0  0  0  0  0  0  0  0  0  0  0  # atno 8009 bound_to 7997
  156.0254  140.3312  155.7086 H   0  0  0  0  0  0  0  0  0  0  0  0  # atno 8010 bound_to 7997
  140.3665  144.2161  150.6135 H   0  0  0  0  0  0  0  0  0  0  0  0  # atno 10167 bound_to 10162
  157.0394  130.6225  149.5748 H   0  0  0  0  0  0  0  0  0  0  0  0  # atno 10718 bound_to 10713
  154.7212  135.3026  154.9043 H   0  0  0  0  0  0  0  0  0  0  0  0  # atno 10763 bound_to 10752
  153.9915  135.6718  153.4758 H   0  0  0  0  0  0  0  0  0  0  0  0  # atno 10764 bound_to 10752
  153.0836  135.4996  154.8469 H   0  0  0  0  0  0  0  0  0  0  0  0  # atno 10765 bound_to 10752
  140.5124  134.0639  155.7822 H   0  0  0  0  0  0  0  0  0  0  0  0  # atno 11005 bound_to 11000
  145.9913  140.8600  143.0065 LP  0  0  0  0  0  0  0  0  0  0  0  0  # atno 17320 bound_to 7965
  144.6773  140.2219  143.7365 LP  0  0  0  0  0  0  0  0  0  0  0  0  # atno 17321 bound_to 7965
  140.5076  143.2300  151.8584 LP  0  0  0  0  0  0  0  0  0  0  0  0  # atno 17342 bound_to 10162
  139.4808  144.4987  151.9089 LP  0  0  0  0  0  0  0  0  0  0  0  0  # atno 17343 bound_to 10162
  156.0043  130.5127  150.7775 LP  0  0  0  0  0  0  0  0  0  0  0  0  # atno 17370 bound_to 10713
  157.5116  131.0926  151.0191 LP  0  0  0  0  0  0  0  0  0  0  0  0  # atno 17371 bound_to 10713
  141.1378  133.9190  157.2393 LP  0  0  0  0  0  0  0  0  0  0  0  0  # atno 17394 bound_to 11000
  139.9652  135.0144  156.9367 LP  0  0  0  0  0  0  0  0  0  0  0  0  # atno 17395 bound_to 11000

$$$$
