#       Name:                AV-unprocessed.smi:2062
#       Creating user name   scv26
#       Creation time:       Fri Mar 27 11:08:37 2020


#       File generated by GOLD software.
#

@<TRIPOS>MOLECULE
AV-unprocessed.smi:2062
    48    49     1
SMALL
NO_CHARGES


@<TRIPOS>ATOM
      1 ****        -3.3188   2.5859   2.4813 C.3            1 S1                 0.0000
      2 ****        -3.9346   2.1648   1.1364 C.3            1 S1                 0.0000
      3 ****        -5.4681   2.1852   1.2202 C.3            1 S1                 0.0000
      4 ****        -3.4353   0.7755   0.6842 C.3            1 S1                 0.0000
      5 ****        -1.9689   0.7298   0.4510 N.4            1 S1                 1.0000
      6 ****        -1.5473   1.3716  -0.8185 C.3            1 S1                 0.0000
      7 ****        -0.0190   1.3096  -0.9676 C.3            1 S1                 0.0000
      8 ****         0.4078  -0.0437  -0.8946 O.3            1 S1                 0.0000
      9 ****         0.1059  -0.6416   0.3621 C.3            1 S1                 0.0000
     10 ****         0.6892  -2.0658   0.3924 C.3            1 S1                 0.0000
     11 ****         2.1485  -2.0538   0.3733 N.am           1 S1                 0.0000
     12 ****         2.9029  -2.0658  -0.7352 C.2            1 S1                 0.0000
     13 ****         2.4338  -2.0984  -1.8732 O.2            1 S1                 0.0000
     14 ****         4.2128  -2.0324  -0.4348 N.am           1 S1                 0.0000
     15 ****         5.3165  -2.0189  -1.3277 C.2            1 S1                 0.0000
     16 ****         5.2086  -2.0518  -2.6611 N.2            1 S1                 0.0000
     17 ****         6.4565  -2.0289  -3.2890 C.2            1 S1                 0.0000
     18 ****         7.5112  -1.9760  -2.4120 C.2            1 S1                 0.0000
     19 ****         6.9762  -1.9557  -0.7529 S.3            1 S1                 0.0000
     20 ****        -1.4253  -0.6466   0.5399 C.3            1 S1                 0.0000
     21 ****        -3.5670   1.8760   3.2710 H              1 S1                 0.0000
     22 ****        -3.6845   3.5658   2.7896 H              1 S1                 0.0000
     23 ****        -2.2323   2.6508   2.4210 H              1 S1                 0.0000
     24 ****        -3.6523   2.9074   0.3906 H              1 S1                 0.0000
     25 ****        -5.8355   1.4687   1.9556 H              1 S1                 0.0000
     26 ****        -5.9184   1.9355   0.2590 H              1 S1                 0.0000
     27 ****        -5.8339   3.1719   1.5060 H              1 S1                 0.0000
     28 ****        -3.7015   0.0504   1.4550 H              1 S1                 0.0000
     29 ****        -3.9525   0.4561  -0.2222 H              1 S1                 0.0000
     30 ****        -2.0219   0.8658  -1.6608 H              1 S1                 0.0000
     31 ****        -1.8680   2.4122  -0.8488 H              1 S1                 0.0000
     32 ****         0.2826   1.7236  -1.9298 H              1 S1                 0.0000
     33 ****         0.4749   1.9031  -0.1966 H              1 S1                 0.0000
     34 ****         0.5627  -0.0559   1.1625 H              1 S1                 0.0000
     35 ****         0.3805  -2.5685   1.3092 H              1 S1                 0.0000
     36 ****         0.2941  -2.6625  -0.4319 H              1 S1                 0.0000
     37 ****         2.6163  -2.0318   1.2677 H              1 S1                 0.0000
     38 ****         4.4500  -2.0093   0.5460 H              1 S1                 0.0000
     39 ****         6.5015  -2.0529  -4.3677 H              1 S1                 0.0000
     40 ****         8.5662  -1.9490  -2.6408 H              1 S1                 0.0000
     41 ****        -1.6791  -1.0782   1.5089 H              1 S1                 0.0000
     42 ****        -1.8929  -1.2718  -0.2227 H              1 S1                 0.0000
     43 ****        -1.5412   1.2508   1.2033 H              1 S1                 0.0000
     44 ****         1.3972  -0.0764  -1.0363 LP             1 S1                 0.0000
     45 ****        -0.0496  -0.5640  -1.6158 LP             1 S1                 0.0000
     46 ****         1.4427  -2.1175  -2.0051 LP             1 S1                 0.0000
     47 ****         3.0439  -2.1058  -2.6654 LP             1 S1                 0.0000
     48 ****         4.3373  -2.0885  -3.1505 LP             1 S1                 0.0000
@<TRIPOS>BOND
    1    1    2 1     
    2    1   21 1     
    3    1   22 1     
    4    1   23 1     
    5    2    3 1     
    6    2    4 1     
    7    2   24 1     
    8    3   25 1     
    9    3   26 1     
   10    3   27 1     
   11    4    5 1     
   12    4   28 1     
   13    4   29 1     
   14    5   20 1     
   15    5    6 1     
   16    5   43 1     
   17    6    7 1     
   18    6   30 1     
   19    6   31 1     
   20    7    8 1     
   21    7   32 1     
   22    7   33 1     
   23    8    9 1     
   24    9   10 1     
   25    9   20 1     
   26    9   34 1     
   27   10   11 1     
   28   10   35 1     
   29   10   36 1     
   30   11   12 am    
   31   11   37 1     
   32   12   13 2     
   33   12   14 am    
   34   14   15 1     
   35   14   38 1     
   36   15   19 1     
   37   15   16 2     
   38   16   17 1     
   39   17   18 2     
   40   17   39 1     
   41   18   19 1     
   42   18   40 1     
   43   20   41 1     
   44   20   42 1     
   45    8   44 1     
   46    8   45 1     
   47   13   46 1     
   48   13   47 1     
   49   16   48 1     
@<TRIPOS>SUBSTRUCTURE
      1 S1             1
@<TRIPOS>SET
LONE_PAIRS      STATIC     ATOMS    <user>   **** ""
5 44 45 46 47 48
DONOR_HYDROGENS      STATIC     ATOMS    <user>   **** ""
3 43 37 38
ATOM$BLUE        STATIC     ATOMS    COLORGROUP SYSTEM
5 44 45 46 47 48
ATOM$RED        STATIC     ATOMS    COLORGROUP SYSTEM
3 43 37 38
