AV-unprocessed.smi:490|AV-procd|sdf|2706|dock10
  -GOLD-   2262023143D 1   1.00000     0.00000
 Structure written by MMmdl.
 50 52  0  0  0  0  0  0  0  0  2 V2000
  147.0596  133.1693  152.5123 C   0  0  0  0  0  0  0  0  0  0  0  0
  148.1660  133.3792  153.5320 C   0  0  0  0  0  0  0  0  0  0  0  0
  149.1769  132.4041  153.6530 C   0  0  0  0  0  0  0  0  0  0  0  0
  150.2121  132.5643  154.5904 C   0  0  0  0  0  0  0  0  0  0  0  0
  150.2525  133.7063  155.4134 C   0  0  0  0  0  0  0  0  0  0  0  0
  151.3739  133.8562  156.4250 C   0  0  0  0  0  0  0  0  0  0  0  0
  149.2517  134.6983  155.2885 C   0  0  0  0  0  0  0  0  0  0  0  0
  149.2966  135.8112  156.0885 O   0  0  0  0  0  0  0  0  0  0  0  0
  150.3609  136.6971  155.7734 C   0  0  0  0  0  0  0  0  0  0  0  0
  149.9999  138.1016  156.2787 C   0  0  1  0  0  0  0  0  0  0  0  0
  149.3544  137.9757  157.5301 O   0  0  0  0  0  0  0  0  0  0  0  0
  151.2471  138.9928  156.4390 C   0  0  0  0  0  0  0  0  0  0  0  0
  150.9216  140.4285  156.4796 N   0  0  0  0  0  0  0  0  0  0  0  0
  150.0559  141.1535  155.7128 C   0  0  0  0  0  0  0  0  0  0  0  0
  149.1881  140.6453  154.6085 C   0  0  0  0  0  0  0  0  0  0  0  0
  149.5455  141.1834  153.3547 O   0  0  0  0  0  0  0  0  0  0  0  0
  150.1140  142.4436  156.1481 N   0  3  0  0  0  0  0  0  0  0  0  0
  151.0211  142.5466  157.2032 C   0  0  0  0  0  0  0  0  0  0  0  0
  151.4115  143.6451  157.9630 C   0  0  0  0  0  0  0  0  0  0  0  0
  152.3617  143.4073  158.9777 C   0  0  0  0  0  0  0  0  0  0  0  0
  152.8841  142.1178  159.2058 C   0  0  0  0  0  0  0  0  0  0  0  0
  152.4812  141.0120  158.4280 C   0  0  0  0  0  0  0  0  0  0  0  0
  151.5430  141.2554  157.4243 C   0  0  0  0  0  0  0  0  0  0  0  0
  148.1950  134.5301  154.3586 C   0  0  0  0  0  0  0  0  0  0  0  0
  147.0990  135.5817  154.2453 C   0  0  0  0  0  0  0  0  0  0  0  0
  147.2688  132.3125  151.8708 H   0  0  0  0  0  0  0  0  0  0  0  0
  146.9527  134.0450  151.8715 H   0  0  0  0  0  0  0  0  0  0  0  0
  146.1092  132.9880  153.0147 H   0  0  0  0  0  0  0  0  0  0  0  0
  149.1607  131.5228  153.0284 H   0  0  0  0  0  0  0  0  0  0  0  0
  150.9758  131.8051  154.6751 H   0  0  0  0  0  0  0  0  0  0  0  0
  151.0121  134.3134  157.3464 H   0  0  0  0  0  0  0  0  0  0  0  0
  152.1681  134.4821  156.0182 H   0  0  0  0  0  0  0  0  0  0  0  0
  151.8016  132.8864  156.6811 H   0  0  0  0  0  0  0  0  0  0  0  0
  151.3081  136.3553  156.1940 H   0  0  0  0  0  0  0  0  0  0  0  0
  150.4845  136.7203  154.6891 H   0  0  0  0  0  0  0  0  0  0  0  0
  149.3143  138.5738  155.5741 H   0  0  0  0  0  0  0  0  0  0  0  0
  149.8671  137.3943  158.0714 H   0  0  0  0  0  0  0  0  0  0  0  0
  151.8162  138.7222  157.3285 H   0  0  0  0  0  0  0  0  0  0  0  0
  151.9227  138.8406  155.5971 H   0  0  0  0  0  0  0  0  0  0  0  0
  149.2613  139.5585  154.5616 H   0  0  0  0  0  0  0  0  0  0  0  0
  148.1455  140.8850  154.8169 H   0  0  0  0  0  0  0  0  0  0  0  0
  149.4803  140.5010  152.7040 H   0  0  0  0  0  0  0  0  0  0  0  0
  151.0099  144.6332  157.7923 H   0  0  0  0  0  0  0  0  0  0  0  0
  152.6941  144.2293  159.5952 H   0  0  0  0  0  0  0  0  0  0  0  0
  153.6075  141.9723  159.9950 H   0  0  0  0  0  0  0  0  0  0  0  0
  152.8831  140.0281  158.6183 H   0  0  0  0  0  0  0  0  0  0  0  0
  147.1086  136.2834  155.0790 H   0  0  0  0  0  0  0  0  0  0  0  0
  146.1141  135.1147  154.2339 H   0  0  0  0  0  0  0  0  0  0  0  0
  147.2202  136.1521  153.3241 H   0  0  0  0  0  0  0  0  0  0  0  0
  149.5655  143.1964  155.7532 H   0  0  0  0  0  0  0  0  0  0  0  0
  1  2  1  0  0  0  0
  1 26  1  0  0  0  0
  1 27  1  0  0  0  0
  1 28  1  0  0  0  0
  2 24  1  0  0  0  0
  2  3  2  0  0  0  0
  3  4  1  0  0  0  0
  3 29  1  0  0  0  0
  4  5  2  0  0  0  0
  4 30  1  0  0  0  0
  5  6  1  0  0  0  0
  5  7  1  0  0  0  0
  6 31  1  0  0  0  0
  6 32  1  0  0  0  0
  6 33  1  0  0  0  0
  7  8  1  0  0  0  0
  7 24  2  0  0  0  0
  8  9  1  0  0  0  0
  9 10  1  0  0  0  0
  9 34  1  0  0  0  0
  9 35  1  0  0  0  0
 10 11  1  0  0  0  0
 10 12  1  0  0  0  0
 10 36  1  0  0  0  0
 11 37  1  0  0  0  0
 12 13  1  0  0  0  0
 12 38  1  0  0  0  0
 12 39  1  0  0  0  0
 13 23  1  0  0  0  0
 13 14  1  0  0  0  0
 14 15  1  0  0  0  0
 14 17  2  0  0  0  0
 15 16  1  0  0  0  0
 15 40  1  0  0  0  0
 15 41  1  0  0  0  0
 16 42  1  0  0  0  0
 17 18  1  0  0  0  0
 17 50  1  0  0  0  0
 18 23  2  0  0  0  0
 18 19  1  0  0  0  0
 19 20  2  0  0  0  0
 19 43  1  0  0  0  0
 20 21  1  0  0  0  0
 20 44  1  0  0  0  0
 21 22  2  0  0  0  0
 21 45  1  0  0  0  0
 22 23  1  0  0  0  0
 22 46  1  0  0  0  0
 24 25  1  0  0  0  0
 25 47  1  0  0  0  0
 25 48  1  0  0  0  0
 25 49  1  0  0  0  0
M  CHG  1  17   1
M  END
> <s_m_source_file>
AV-unprocessed.smi

> <i_m_source_file_index>
490

> <i_lp_mmshare_version>
43012

> <i_f3d_flags>
0

> <s_epik_input>
W0NIM11jMVtjSF1bY0hdYyhbQ0gzXSljKGMxW0NIM10pT1tDSDJdW0NASF0oW09IXSlbQ0gyXW4oYyhuMilbQ0gyXVtPSF0pYyhjMjMpW2NIXVtjSF1bY0hdW2NIXTM=

> <s_epik_cmdline>
J2VwaWtfcHl0aG9uJywgJy1waCcsICc3LjAnLCAnLXRuJywgJzgnLCAnLW1hJywgJzIwMCcsICctbWV0YWxfYmluZGluZycsICctaW1hZScsICc8aW5maWxlLm1hZT4nLCAnLW9tYWUnLCAnPG91dGZpbGUubWFlPic=

> <r_lp_tautomer_probability>
1

> <r_epik_Ionization_Penalty>
1.43125

> <r_epik_Ionization_Penalty_Charging>
1.43039

> <r_epik_Ionization_Penalty_Neutral>
0.000858184

> <r_epik_State_Penalty>
1.51493

> <r_epik_Charging_Adjusted_Penalty>
2.94531

> <i_epik_Tot_Q>
1

> <i_epik_Tot_abs_Q>
1

> <r_epik_Metal_State_Penalty>
5.5599

> <b_epik_Metal_Only>
0

> <s_lp_Force_Field>
OPLS_2005

> <r_lp_Energy>
24.5509

> <b_lp_Chiralities_Consistent>
1

> <s_lp_Variant>
AV-unprocessed.smi:490-4

> <Gold.Version>
5.8.1

> <Gold.Id.Protein>
6NUR|6NUR_protein|mol2

> <Gold.PLP.Fitness>
55.6752

> <Gold.PLP.PLP>
-45.2267

> <Gold.PLP.part.hbond>
-3.6363

> <Gold.PLP.part.metal>
0.0000

> <Gold.PLP.part.buried>
-4.0432

> <Gold.PLP.part.nonpolar>
-36.7233

> <Gold.PLP.part.repulsive>
0.1568

> <Gold.PLP.ligand.clash>
0.0000

> <Gold.PLP.ligand.torsion>
0.8171

> <Gold.PLP.Chemscore.Hbond>
3.9760

> <Gold.PLP.Chemscore.CHOScore>
0.0000

> <Gold.PLP.Chemscore.Metal>
0.0000

> <Gold.Chemscore.Hbonds>
donor molecule, donor type, donor heavy atom, donor atom, acceptor molecule, acceptor atom, score
      L1  H    16    42       P1  7957  0.96
      L1  H    17    50       P1  8028  2.00
      P1  H  7989  7998       L1    16  0.06
      P1  H  8011  8017       L1    16  0.85

> <Gold.PLP.Chemscore.Internal.Correction>
0.1545

> <Gold.Rescore>
     Score         DG    S(hbond)    S(metal)    S(lipo)     H(rot)  DE(clash)    DE(int)     intcor
     18.45     -19.52       2.34        0.00     119.35       3.02       0.09       0.98       ----

> <Gold.Chemscore.Fitness>
18.4481

> <Gold.Chemscore.DG>
-19.5181

> <Gold.Chemscore.ZeroCoef>
-5.4800

> <Gold.Chemscore.Hbond>
2.3355

> <Gold.Chemscore.Metal>
0.0000

> <Gold.Chemscore.Lipo>
119.3460

> <Gold.Chemscore.Internal_Hbond>
0.0000

> <Gold.Chemscore.DEClash>
0.0932

> <Gold.Chemscore.DEInternal>
0.9767

> <Gold.Chemscore.Rot>
3.0180

> <Gold.Chemscore.Internal.Correction>
   9.000000E+99

> <Gold.Chemscore.Hbonds>
donor molecule, donor type, donor heavy atom, donor atom, acceptor molecule, acceptor atom, score
      L1  H    16    42       P1  7957  0.91
      L1  H    17    50       P1  8028  0.99
      P1  H  8011  8017       L1    16  0.14

> <Gold.Chemscore.Hbond.Weighted>
-7.8006

> <Gold.Chemscore.Metal.Weighted>
-0.0000

> <Gold.Chemscore.Lipo.Weighted>
-13.9635

> <Gold.Chemscore.Internal_Hbond.Weighted>
0.0000

> <Gold.Chemscore.DEClash.Weighted>
0.0932

> <Gold.Chemscore.DEInternal.Weighted>
0.9767

> <Gold.Chemscore.Rot.Weighted>
7.7260

> <Gold.Chemscore.Internal.Correction.Weighted>
   9.000000E+99

> <Gold.Protein.RotatedTorsions>
[ 6907 6896 6895 6894 ] final   92.97 input  -60.11 | X-H torsion
[ 7974 7965 7964 7962 ] final  138.34 input  175.53 | X-H torsion
[ 8008 7997 7996 7995 ] final -119.26 input   59.86 | X-H torsion
[ 10167 10162 10161 10158 ] final -177.60 input  -65.29 | X-H torsion
[ 10718 10713 10712 10709 ] final  -14.98 input   66.30 | X-H torsion
[ 10763 10752 10751 10750 ] final -139.22 input  -60.55 | X-H torsion
[ 11005 11000 10999 10996 ] final   62.65 input  -57.11 | X-H torsion

> <Gold.Protein.ActiveResidues>
 VAL166  LYS551  ARG553  GLY616  TRP617  ASP618  TYR619  PRO620  LYS621  CYS622 
 ASP623  PHE694  ASN695  SER759  ASP760  ASP761  ALA762  ILE779  LEU786  VAL792 
 PHE793  MET794  SER795  GLU796  ALA797  LYS798  CYS799  TRP800  GLU811  SER814 

> <Gold.Protein.RotatedAtoms>
  152.5453  134.1420  159.8482 H   0  0  0  0  0  0  0  0  0  0  0  0  # atno 6907 bound_to 6896
  151.1455  133.4935  159.2603 H   0  0  0  0  0  0  0  0  0  0  0  0  # atno 6908 bound_to 6896
  151.1527  135.0246  159.8730 H   0  0  0  0  0  0  0  0  0  0  0  0  # atno 6909 bound_to 6896
  144.9382  139.4963  143.5585 H   0  0  0  0  0  0  0  0  0  0  0  0  # atno 7974 bound_to 7965
  155.1128  140.0397  157.2728 H   0  0  0  0  0  0  0  0  0  0  0  0  # atno 8008 bound_to 7997
  154.6672  140.2604  155.7019 H   0  0  0  0  0  0  0  0  0  0  0  0  # atno 8009 bound_to 7997
  156.2644  140.2805  156.1168 H   0  0  0  0  0  0  0  0  0  0  0  0  # atno 8010 bound_to 7997
  139.5472  144.2203  152.1011 H   0  0  0  0  0  0  0  0  0  0  0  0  # atno 10167 bound_to 10162
  156.6083  130.4842  149.6212 H   0  0  0  0  0  0  0  0  0  0  0  0  # atno 10718 bound_to 10713
  154.8615  135.3589  154.5511 H   0  0  0  0  0  0  0  0  0  0  0  0  # atno 10763 bound_to 10752
  153.6129  135.7009  153.5344 H   0  0  0  0  0  0  0  0  0  0  0  0  # atno 10764 bound_to 10752
  153.3193  135.4156  155.1364 H   0  0  0  0  0  0  0  0  0  0  0  0  # atno 10765 bound_to 10752
  140.0078  134.6343  155.9828 H   0  0  0  0  0  0  0  0  0  0  0  0  # atno 11005 bound_to 11000
  146.3275  139.8382  142.8895 LP  0  0  0  0  0  0  0  0  0  0  0  0  # atno 17320 bound_to 7965
  145.3033  141.0200  143.3596 LP  0  0  0  0  0  0  0  0  0  0  0  0  # atno 17321 bound_to 7965
  140.1692  144.4952  150.6589 LP  0  0  0  0  0  0  0  0  0  0  0  0  # atno 17342 bound_to 10162
  140.6724  143.2291  151.5591 LP  0  0  0  0  0  0  0  0  0  0  0  0  # atno 17343 bound_to 10162
  156.2411  130.6852  151.1556 LP  0  0  0  0  0  0  0  0  0  0  0  0  # atno 17370 bound_to 10713
  157.7261  131.0648  150.5924 LP  0  0  0  0  0  0  0  0  0  0  0  0  # atno 17371 bound_to 10713
  141.1689  133.6537  156.4580 LP  0  0  0  0  0  0  0  0  0  0  0  0  # atno 17394 bound_to 11000
  140.4610  134.6842  157.5085 LP  0  0  0  0  0  0  0  0  0  0  0  0  # atno 17395 bound_to 11000

$$$$
