#       Name:                AV-unprocessed.smi:1295
#       Creating user name   scv26
#       Creation time:       Fri Mar 27 04:56:23 2020


#       File generated by GOLD software.
#

@<TRIPOS>MOLECULE
AV-unprocessed.smi:1295
    48    49     1
SMALL
NO_CHARGES


@<TRIPOS>ATOM
      1 ****        -4.2921  -0.2219  -2.3779 C.3            1 S1                 0.0000
      2 ****        -2.7860  -0.0684  -2.3728 C.2            1 S1                 0.0000
      3 ****        -2.1745   1.0485  -2.5937 N.2            1 S1                 0.0000
      4 ****        -0.7735   1.0683  -2.5590 C.2            1 S1                 0.0000
      5 ****        -0.1300   2.4209  -2.8103 C.3            1 S1                 0.0000
      6 ****        -0.0477  -0.0595  -2.3040 C.2            1 S1                 0.0000
      7 ****         1.4806  -0.0653  -2.2387 C.3            1 S1                 0.0000
      8 ****         2.0857   0.4211  -0.9200 C.2            1 S1                 0.0000
      9 ****         3.0555   1.1780  -0.9274 O.2            1 S1                 0.0000
     10 ****         1.4933  -0.0211   0.1992 N.am           1 S1                 0.0000
     11 ****         1.8218   0.3595   1.5709 C.3            1 S1                 0.0000
     12 ****         2.6037  -0.7744   2.2642 C.3            1 S1                 0.0000
     13 ****         1.7259  -2.0127   2.5173 C.3            1 S1                 0.0000
     14 ****         0.4615  -1.6453   3.3085 C.3            1 S1                 0.0000
     15 ****        -0.3338  -0.5306   2.6100 C.3            1 S1                 0.0000
     16 ****         0.5376   0.7184   2.3595 C.3            1 S1                 0.0000
     17 ****        -0.2732   1.8454   1.6947 C.3            1 S1                 0.0000
     18 ****        -0.7567  -1.3286  -2.0488 C.2            1 S1                 0.0000
     19 ****        -0.2035  -2.3954  -1.7866 O.2            1 S1                 0.0000
     20 ****        -2.1053  -1.2543  -2.1025 N.am           1 S1                 0.0000
     21 ****        -2.6364  -2.0962  -1.9335 H              1 S1                 0.0000
     22 ****        -4.7382   0.4366  -1.6324 H              1 S1                 0.0000
     23 ****        -4.5938  -1.2458  -2.1529 H              1 S1                 0.0000
     24 ****        -4.6935   0.0453  -3.3558 H              1 S1                 0.0000
     25 ****         0.5020   2.3863  -3.6978 H              1 S1                 0.0000
     26 ****         0.4811   2.7191  -1.9582 H              1 S1                 0.0000
     27 ****        -0.8822   3.1952  -2.9666 H              1 S1                 0.0000
     28 ****         1.8708  -1.0622  -2.4466 H              1 S1                 0.0000
     29 ****         1.8678   0.5571  -3.0458 H              1 S1                 0.0000
     30 ****         0.7146  -0.6544   0.0901 H              1 S1                 0.0000
     31 ****         2.4592   1.2453   1.5542 H              1 S1                 0.0000
     32 ****         3.4759  -1.0496   1.6698 H              1 S1                 0.0000
     33 ****         2.9898  -0.4111   3.2175 H              1 S1                 0.0000
     34 ****         1.4440  -2.4676   1.5667 H              1 S1                 0.0000
     35 ****         2.2968  -2.7665   3.0602 H              1 S1                 0.0000
     36 ****        -0.1669  -2.5276   3.4334 H              1 S1                 0.0000
     37 ****         0.7404  -1.3206   4.3117 H              1 S1                 0.0000
     38 ****        -0.7320  -0.9037   1.6654 H              1 S1                 0.0000
     39 ****        -1.1971  -0.2646   3.2207 H              1 S1                 0.0000
     40 ****         0.8549   1.0917   3.3345 H              1 S1                 0.0000
     41 ****        -0.6868   1.5358   0.7342 H              1 S1                 0.0000
     42 ****         0.3473   2.7250   1.5214 H              1 S1                 0.0000
     43 ****        -1.1070   2.1513   2.3270 H              1 S1                 0.0000
     44 ****        -2.6912   1.8828  -2.7858 LP             1 S1                 0.0000
     45 ****         3.4500   1.4766  -1.7964 LP             1 S1                 0.0000
     46 ****         3.4493   1.4945  -0.0644 LP             1 S1                 0.0000
     47 ****         0.7941  -2.4419  -1.7348 LP             1 S1                 0.0000
     48 ****        -0.7513  -3.2163  -1.6252 LP             1 S1                 0.0000
@<TRIPOS>BOND
    1    1    2 1     
    2    1   22 1     
    3    1   23 1     
    4    1   24 1     
    5    2   20 1     
    6    2    3 2     
    7    3    4 1     
    8    4    5 1     
    9    4    6 2     
   10    5   25 1     
   11    5   26 1     
   12    5   27 1     
   13    6    7 1     
   14    6   18 1     
   15    7    8 1     
   16    7   28 1     
   17    7   29 1     
   18    8    9 2     
   19    8   10 am    
   20   10   11 1     
   21   10   30 1     
   22   11   16 1     
   23   11   12 1     
   24   11   31 1     
   25   12   13 1     
   26   12   32 1     
   27   12   33 1     
   28   13   14 1     
   29   13   34 1     
   30   13   35 1     
   31   14   15 1     
   32   14   36 1     
   33   14   37 1     
   34   15   16 1     
   35   15   38 1     
   36   15   39 1     
   37   16   17 1     
   38   16   40 1     
   39   17   41 1     
   40   17   42 1     
   41   17   43 1     
   42   18   19 2     
   43   18   20 am    
   44   20   21 1     
   45    3   44 1     
   46    9   45 1     
   47    9   46 1     
   48   19   47 1     
   49   19   48 1     
@<TRIPOS>SUBSTRUCTURE
      1 S1             1
@<TRIPOS>SET
LONE_PAIRS      STATIC     ATOMS    <user>   **** ""
5 44 45 46 47 48
DONOR_HYDROGENS      STATIC     ATOMS    <user>   **** ""
2 30 21
ATOM$BLUE        STATIC     ATOMS    COLORGROUP SYSTEM
5 44 45 46 47 48
ATOM$RED        STATIC     ATOMS    COLORGROUP SYSTEM
2 30 21
