AV-unprocessed.smi:2853|AV-procd|sdf|10973|dock9
  -GOLD-   2272015423D 1   1.00000     0.00000
 Structure written by MMmdl.
 43 44  0  0  0  0  0  0  0  0  1 V2000
  148.9861  129.2150  153.6962 C   0  0  0  0  0  0  0  0  0  0  0  0
  148.7328  130.6752  153.5396 C   0  0  0  0  0  0  0  0  0  0  0  0
  147.7407  131.1805  152.8084 N   0  0  0  0  0  0  0  0  0  0  0  0
  147.7197  132.5784  152.8155 C   0  0  0  0  0  0  0  0  0  0  0  0
  146.6547  133.2893  152.0262 C   0  0  0  0  0  0  0  0  0  0  0  0
  145.6218  132.3360  151.3902 C   0  0  0  0  0  0  0  0  0  0  0  0
  145.8645  132.1258  149.8855 C   0  0  0  0  0  0  0  0  0  0  0  0
  144.1907  132.8312  151.6466 C   0  0  0  0  0  0  0  0  0  0  0  0
  148.7205  133.1550  153.5678 C   0  0  0  0  0  0  0  0  0  0  0  0
  148.9136  134.4948  153.6963 N   0  0  0  0  0  0  0  0  0  0  0  0
  149.5271  135.1757  154.6797 C   0  0  0  0  0  0  0  0  0  0  0  0
  149.9438  134.6910  155.7313 O   0  0  0  0  0  0  0  0  0  0  0  0
  149.6153  136.4804  154.3698 N   0  0  0  0  0  0  0  0  0  0  0  0
  150.2091  137.5713  155.1551 C   0  0  1  0  0  0  0  0  0  0  0  0
  149.5254  137.5705  156.5351 C   0  0  0  0  0  0  0  0  0  0  0  0
  151.7341  137.4376  155.3102 C   0  0  0  0  0  0  0  0  0  0  0  0
  152.2947  138.6788  154.6184 C   0  0  0  0  0  0  0  0  0  0  0  0
  151.2526  139.6297  154.7523 O   0  0  0  0  0  0  0  0  0  0  0  0
  150.0400  138.9476  154.4747 C   0  0  0  0  0  0  0  0  0  0  0  0
  149.7220  131.9093  154.2977 S   0  0  0  0  0  0  0  0  0  0  0  0
  148.1850  128.6341  153.2382 H   0  0  0  0  0  0  0  0  0  0  0  0
  149.0432  128.9577  154.7540 H   0  0  0  0  0  0  0  0  0  0  0  0
  149.9289  128.9480  153.2189 H   0  0  0  0  0  0  0  0  0  0  0  0
  146.1351  133.9891  152.6821 H   0  0  0  0  0  0  0  0  0  0  0  0
  147.1054  133.9082  151.2495 H   0  0  0  0  0  0  0  0  0  0  0  0
  145.7155  131.3655  151.8798 H   0  0  0  0  0  0  0  0  0  0  0  0
  145.8200  133.0699  149.3415 H   0  0  0  0  0  0  0  0  0  0  0  0
  145.1151  131.4597  149.4570 H   0  0  0  0  0  0  0  0  0  0  0  0
  146.8397  131.6774  149.6956 H   0  0  0  0  0  0  0  0  0  0  0  0
  144.0190  133.8041  151.1844 H   0  0  0  0  0  0  0  0  0  0  0  0
  143.9935  132.9303  152.7144 H   0  0  0  0  0  0  0  0  0  0  0  0
  143.4549  132.1359  151.2414 H   0  0  0  0  0  0  0  0  0  0  0  0
  148.5758  135.0491  152.9234 H   0  0  0  0  0  0  0  0  0  0  0  0
  149.2306  136.7560  153.4784 H   0  0  0  0  0  0  0  0  0  0  0  0
  149.8986  138.3802  157.1636 H   0  0  0  0  0  0  0  0  0  0  0  0
  149.7015  136.6335  157.0649 H   0  0  0  0  0  0  0  0  0  0  0  0
  148.4463  137.7000  156.4434 H   0  0  0  0  0  0  0  0  0  0  0  0
  152.0183  137.4565  156.3631 H   0  0  0  0  0  0  0  0  0  0  0  0
  152.1472  136.5194  154.8912 H   0  0  0  0  0  0  0  0  0  0  0  0
  153.2216  139.0302  155.0720 H   0  0  0  0  0  0  0  0  0  0  0  0
  152.4819  138.4879  153.5607 H   0  0  0  0  0  0  0  0  0  0  0  0
  149.9295  138.8744  153.3924 H   0  0  0  0  0  0  0  0  0  0  0  0
  149.1822  139.5076  154.8484 H   0  0  0  0  0  0  0  0  0  0  0  0
  1  2  1  0  0  0  0
  1 21  1  0  0  0  0
  1 22  1  0  0  0  0
  1 23  1  0  0  0  0
  2 20  1  0  0  0  0
  2  3  2  0  0  0  0
  3  4  1  0  0  0  0
  4  5  1  0  0  0  0
  4  9  2  0  0  0  0
  5  6  1  0  0  0  0
  5 24  1  0  0  0  0
  5 25  1  0  0  0  0
  6  7  1  0  0  0  0
  6  8  1  0  0  0  0
  6 26  1  0  0  0  0
  7 27  1  0  0  0  0
  7 28  1  0  0  0  0
  7 29  1  0  0  0  0
  8 30  1  0  0  0  0
  8 31  1  0  0  0  0
  8 32  1  0  0  0  0
  9 10  1  0  0  0  0
  9 20  1  0  0  0  0
 10 11  1  0  0  0  0
 10 33  1  0  0  0  0
 11 12  2  0  0  0  0
 11 13  1  0  0  0  0
 13 14  1  0  0  0  0
 13 34  1  0  0  0  0
 14 19  1  0  0  0  0
 14 15  1  0  0  0  0
 14 16  1  0  0  0  0
 15 35  1  0  0  0  0
 15 36  1  0  0  0  0
 15 37  1  0  0  0  0
 16 17  1  0  0  0  0
 16 38  1  0  0  0  0
 16 39  1  0  0  0  0
 17 18  1  0  0  0  0
 17 40  1  0  0  0  0
 17 41  1  0  0  0  0
 18 19  1  0  0  0  0
 19 42  1  0  0  0  0
 19 43  1  0  0  0  0
M  END
> <s_m_source_file>
AV-unprocessed.smi

> <i_m_source_file_index>
2853

> <i_lp_mmshare_version>
43012

> <i_f3d_flags>
0

> <s_epik_input>
W0NIM11jMW5jKFtDSDJdW0NIXShbQ0gzXSlbQ0gzXSljKHMxKVtOSF1DKD1PKVtOSF1bQ0BAXTIoW0NIM10pW0NIMl1bQ0gyXU9bQ0gyXTI=

> <s_epik_cmdline>
J2VwaWtfcHl0aG9uJywgJy1waCcsICc3LjAnLCAnLXRuJywgJzgnLCAnLW1hJywgJzIwMCcsICctbWV0YWxfYmluZGluZycsICctaW1hZScsICc8aW5maWxlLm1hZT4nLCAnLW9tYWUnLCAnPG91dGZpbGUubWFlPic=

> <r_epik_Ionization_Penalty>
0.000723394

> <r_epik_Ionization_Penalty_Charging>
0

> <r_epik_Ionization_Penalty_Neutral>
0.000723394

> <r_epik_State_Penalty>
0.000446791

> <r_epik_Charging_Adjusted_Penalty>
0.000446791

> <i_epik_Tot_Q>
0

> <i_epik_Tot_abs_Q>
0

> <r_epik_Metal_State_Penalty>
-0

> <b_epik_Metal_Only>
0

> <s_lp_Force_Field>
OPLS_2005

> <r_lp_Energy>
15.1609

> <b_lp_Chiralities_Consistent>
1

> <s_lp_Variant>
AV-unprocessed.smi:2853-1

> <Gold.Version>
5.8.1

> <Gold.Id.Protein>
6NUR|6NUR_protein|mol2

> <Gold.PLP.Fitness>
42.4017

> <Gold.PLP.PLP>
-35.5136

> <Gold.PLP.part.hbond>
-2.9999

> <Gold.PLP.part.metal>
0.0000

> <Gold.PLP.part.buried>
-3.4649

> <Gold.PLP.part.nonpolar>
-29.7766

> <Gold.PLP.part.repulsive>
1.1007

> <Gold.PLP.ligand.clash>
0.0000

> <Gold.PLP.ligand.torsion>
0.8255

> <Gold.PLP.Chemscore.Hbond>
2.8400

> <Gold.PLP.Chemscore.CHOScore>
0.0000

> <Gold.PLP.Chemscore.Metal>
0.0000

> <Gold.Chemscore.Hbonds>
donor molecule, donor type, donor heavy atom, donor atom, acceptor molecule, acceptor atom, score
      L1  H    10    33       P1  7948  0.88
      L1  H    13    34       P1  7948  0.86
      P1  H  7989  7998       L1    18  1.00

> <Gold.PLP.Chemscore.Internal.Correction>
0.0192

> <Gold.Rescore>
     Score         DG    S(hbond)    S(metal)    S(lipo)     H(rot)  DE(clash)    DE(int)     intcor
     17.41     -18.96       2.12        0.00      82.46       1.28       0.12       1.43       ----

> <Gold.Chemscore.Fitness>
17.4076

> <Gold.Chemscore.DG>
-18.9553

> <Gold.Chemscore.ZeroCoef>
-5.4800

> <Gold.Chemscore.Hbond>
2.1233

> <Gold.Chemscore.Metal>
0.0000

> <Gold.Chemscore.Lipo>
82.4625

> <Gold.Chemscore.Internal_Hbond>
0.0000

> <Gold.Chemscore.DEClash>
0.1220

> <Gold.Chemscore.DEInternal>
1.4256

> <Gold.Chemscore.Rot>
1.2753

> <Gold.Chemscore.Internal.Correction>
   9.000000E+99

> <Gold.Chemscore.Hbonds>
donor molecule, donor type, donor heavy atom, donor atom, acceptor molecule, acceptor atom, score
      L1  H    10    33       P1  7948  0.51
      L1  H    13    34       P1  7948  0.83
      P1  H  7989  7998       L1    18  0.33

> <Gold.Chemscore.Hbond.Weighted>
-7.0918

> <Gold.Chemscore.Metal.Weighted>
-0.0000

> <Gold.Chemscore.Lipo.Weighted>
-9.6481

> <Gold.Chemscore.Internal_Hbond.Weighted>
0.0000

> <Gold.Chemscore.DEClash.Weighted>
0.1220

> <Gold.Chemscore.DEInternal.Weighted>
1.4256

> <Gold.Chemscore.Rot.Weighted>
3.2646

> <Gold.Chemscore.Internal.Correction.Weighted>
   9.000000E+99

> <Gold.Protein.RotatedTorsions>
[ 6907 6896 6895 6894 ] final -167.26 input  -60.11 | X-H torsion
[ 7974 7965 7964 7962 ] final  -10.87 input  175.53 | X-H torsion
[ 8008 7997 7996 7995 ] final  -90.89 input   59.86 | X-H torsion
[ 10167 10162 10161 10158 ] final   37.61 input  -65.29 | X-H torsion
[ 10718 10713 10712 10709 ] final  -97.32 input   66.30 | X-H torsion
[ 10763 10752 10751 10750 ] final  106.13 input  -60.55 | X-H torsion
[ 11005 11000 10999 10996 ] final -114.79 input  -57.11 | X-H torsion

> <Gold.Protein.ActiveResidues>
 VAL166  LYS551  ARG553  GLY616  TRP617  ASP618  TYR619  PRO620  LYS621  CYS622 
 ASP623  PHE694  ASN695  SER759  ASP760  ASP761  ALA762  ILE779  LEU786  VAL792 
 PHE793  MET794  SER795  GLU796  ALA797  LYS798  CYS799  TRP800  GLU811  SER814 

> <Gold.Protein.RotatedAtoms>
  151.4566  133.3603  159.2802 H   0  0  0  0  0  0  0  0  0  0  0  0  # atno 6907 bound_to 6896
  150.9054  134.8470  159.7399 H   0  0  0  0  0  0  0  0  0  0  0  0  # atno 6908 bound_to 6896
  152.4903  134.4491  159.9620 H   0  0  0  0  0  0  0  0  0  0  0  0  # atno 6909 bound_to 6896
  146.2206  140.2828  142.8363 H   0  0  0  0  0  0  0  0  0  0  0  0  # atno 7974 bound_to 7965
  154.7040  140.0525  157.0486 H   0  0  0  0  0  0  0  0  0  0  0  0  # atno 8008 bound_to 7997
  155.0645  140.3193  155.4631 H   0  0  0  0  0  0  0  0  0  0  0  0  # atno 8009 bound_to 7997
  156.2769  140.2093  156.5772 H   0  0  0  0  0  0  0  0  0  0  0  0  # atno 8010 bound_to 7997
  140.4016  144.1716  150.6134 H   0  0  0  0  0  0  0  0  0  0  0  0  # atno 10167 bound_to 10162
  156.0081  130.5189  150.6357 H   0  0  0  0  0  0  0  0  0  0  0  0  # atno 10718 bound_to 10713
  153.3888  135.3887  155.1908 H   0  0  0  0  0  0  0  0  0  0  0  0  # atno 10763 bound_to 10752
  154.8717  135.3743  154.4764 H   0  0  0  0  0  0  0  0  0  0  0  0  # atno 10764 bound_to 10752
  153.5248  135.7086  153.5774 H   0  0  0  0  0  0  0  0  0  0  0  0  # atno 10765 bound_to 10752
  141.0530  133.9658  157.2804 H   0  0  0  0  0  0  0  0  0  0  0  0  # atno 11005 bound_to 11000
  144.9185  140.7840  143.5763 LP  0  0  0  0  0  0  0  0  0  0  0  0  # atno 17320 bound_to 7965
  145.2763  139.1935  143.4815 LP  0  0  0  0  0  0  0  0  0  0  0  0  # atno 17321 bound_to 7965
  140.4734  143.2405  151.9057 LP  0  0  0  0  0  0  0  0  0  0  0  0  # atno 17342 bound_to 10162
  139.4784  144.5346  151.8617 LP  0  0  0  0  0  0  0  0  0  0  0  0  # atno 17343 bound_to 10162
  157.4147  131.0828  151.1188 LP  0  0  0  0  0  0  0  0  0  0  0  0  # atno 17370 bound_to 10713
  157.1809  130.6309  149.5671 LP  0  0  0  0  0  0  0  0  0  0  0  0  # atno 17371 bound_to 10713
  139.9366  135.0196  156.8575 LP  0  0  0  0  0  0  0  0  0  0  0  0  # atno 17394 bound_to 11000
  140.6019  134.0163  155.7541 LP  0  0  0  0  0  0  0  0  0  0  0  0  # atno 17395 bound_to 11000

$$$$
