AV-unprocessed.smi:2093|AV-procd|sdf|8545|dock8
  -GOLD-   2272011263D 1   1.00000     0.00000
 Structure written by MMmdl.
 31 32  0  0  0  0  0  0  0  0  1 V2000
  144.3581  135.3437  153.0228 C   0  0  0  0  0  0  0  0  0  0  0  0
  145.0075  135.7434  151.6899 C   0  0  1  0  0  0  0  0  0  0  0  0
  146.2058  136.5340  151.9683 N   0  0  0  0  0  0  0  0  0  0  0  0
  146.2501  137.6731  152.6756 C   0  0  0  0  0  0  0  0  0  0  0  0
  145.2602  138.2000  153.1839 O   0  0  0  0  0  0  0  0  0  0  0  0
  147.5043  138.1525  152.7420 N   0  0  0  0  0  0  0  0  0  0  0  0
  147.9622  139.3270  153.3949 C   0  0  0  0  0  0  0  0  0  0  0  0
  149.0854  139.3996  154.1187 N   0  0  0  0  0  0  0  0  0  0  0  0
  149.2900  140.6786  154.6425 C   0  0  0  0  0  0  0  0  0  0  0  0
  148.3054  141.5737  154.3054 C   0  0  0  0  0  0  0  0  0  0  0  0
  147.0753  140.8418  153.3101 S   0  0  0  0  0  0  0  0  0  0  0  0
  145.3634  134.5124  150.8310 C   0  0  2  0  0  0  0  0  0  0  0  0
  144.1866  133.5889  150.5064 C   0  0  0  0  0  0  0  0  0  0  0  0
  144.8906  132.2792  150.2389 C   0  0  0  0  0  0  0  0  0  0  0  0
  145.9924  132.3019  151.2932 C   0  0  0  0  0  0  0  0  0  0  0  0
  146.2975  133.6770  151.5125 O   0  0  0  0  0  0  0  0  0  0  0  0
  143.4341  134.7882  152.8599 H   0  0  0  0  0  0  0  0  0  0  0  0
  144.1090  136.2235  153.6169 H   0  0  0  0  0  0  0  0  0  0  0  0
  145.0228  134.7161  153.6177 H   0  0  0  0  0  0  0  0  0  0  0  0
  144.2829  136.3471  151.1406 H   0  0  0  0  0  0  0  0  0  0  0  0
  147.0720  136.1835  151.5864 H   0  0  0  0  0  0  0  0  0  0  0  0
  148.2154  137.6155  152.2682 H   0  0  0  0  0  0  0  0  0  0  0  0
  150.1660  140.8647  155.2462 H   0  0  0  0  0  0  0  0  0  0  0  0
  148.2300  142.6152  154.5808 H   0  0  0  0  0  0  0  0  0  0  0  0
  145.8282  134.8304  149.8961 H   0  0  0  0  0  0  0  0  0  0  0  0
  143.5271  133.4871  151.3697 H   0  0  0  0  0  0  0  0  0  0  0  0
  143.5923  133.9352  149.6604 H   0  0  0  0  0  0  0  0  0  0  0  0
  144.2355  131.4120  150.3244 H   0  0  0  0  0  0  0  0  0  0  0  0
  145.3248  132.2850  149.2382 H   0  0  0  0  0  0  0  0  0  0  0  0
  145.6316  131.8754  152.2300 H   0  0  0  0  0  0  0  0  0  0  0  0
  146.8748  131.7417  150.9835 H   0  0  0  0  0  0  0  0  0  0  0  0
  1  2  1  0  0  0  0
  1 17  1  0  0  0  0
  1 18  1  0  0  0  0
  1 19  1  0  0  0  0
  2  3  1  0  0  0  0
  2 12  1  0  0  0  0
  2 20  1  0  0  0  0
  3  4  1  0  0  0  0
  3 21  1  0  0  0  0
  4  5  2  0  0  0  0
  4  6  1  0  0  0  0
  6  7  1  0  0  0  0
  6 22  1  0  0  0  0
  7 11  1  0  0  0  0
  7  8  2  0  0  0  0
  8  9  1  0  0  0  0
  9 10  2  0  0  0  0
  9 23  1  0  0  0  0
 10 11  1  0  0  0  0
 10 24  1  0  0  0  0
 12 16  1  0  0  0  0
 12 13  1  0  0  0  0
 12 25  1  0  0  0  0
 13 14  1  0  0  0  0
 13 26  1  0  0  0  0
 13 27  1  0  0  0  0
 14 15  1  0  0  0  0
 14 28  1  0  0  0  0
 14 29  1  0  0  0  0
 15 16  1  0  0  0  0
 15 30  1  0  0  0  0
 15 31  1  0  0  0  0
M  END
> <s_m_source_file>
AV-unprocessed.smi

> <i_m_source_file_index>
2093

> <i_lp_mmshare_version>
43012

> <i_f3d_flags>
0

> <s_epik_input>
TzFbQ0gyXVtDSDJdW0NIMl1bQ0BIXTFbQ0BIXShbQ0gzXSlbTkhdQyg9TylbTkhdYzJuW2NIXVtjSF1zMg==

> <s_epik_cmdline>
J2VwaWtfcHl0aG9uJywgJy1waCcsICc3LjAnLCAnLXRuJywgJzgnLCAnLW1hJywgJzIwMCcsICctbWV0YWxfYmluZGluZycsICctaW1hZScsICc8aW5maWxlLm1hZT4nLCAnLW9tYWUnLCAnPG91dGZpbGUubWFlPic=

> <r_lp_tautomer_probability>
0.999

> <r_epik_Ionization_Penalty>
0.000334433

> <r_epik_Ionization_Penalty_Charging>
0

> <r_epik_Ionization_Penalty_Neutral>
0.000334433

> <r_epik_State_Penalty>
0.000177984

> <r_epik_Charging_Adjusted_Penalty>
0.000177984

> <i_epik_Tot_Q>
0

> <i_epik_Tot_abs_Q>
0

> <r_epik_Metal_State_Penalty>
0.00767616

> <b_epik_Metal_Only>
0

> <s_lp_Force_Field>
OPLS_2005

> <r_lp_Energy>
15.8348

> <b_lp_Chiralities_Consistent>
1

> <s_lp_Variant>
AV-unprocessed.smi:2093-2

> <Gold.Version>
5.8.1

> <Gold.Id.Protein>
6NUR|6NUR_protein|mol2

> <Gold.PLP.Fitness>
34.5311

> <Gold.PLP.PLP>
-26.5772

> <Gold.PLP.part.hbond>
-2.4244

> <Gold.PLP.part.metal>
0.0000

> <Gold.PLP.part.buried>
-3.2985

> <Gold.PLP.part.nonpolar>
-24.0303

> <Gold.PLP.part.repulsive>
3.0623

> <Gold.PLP.ligand.clash>
0.0000

> <Gold.PLP.ligand.torsion>
0.3470

> <Gold.PLP.Chemscore.Hbond>
1.8800

> <Gold.PLP.Chemscore.CHOScore>
1.0000

> <Gold.PLP.Chemscore.Metal>
0.0000

> <Gold.Chemscore.Hbonds>
donor molecule, donor type, donor heavy atom, donor atom, acceptor molecule, acceptor atom, score
      L1  H     3    21       P1  7948  0.86
      L1  H     6    22       P1  7948  1.00
      L1  C    10    24       P1  8028  1.00

> <Gold.PLP.Chemscore.Internal.Correction>
0.0079

> <Gold.Rescore>
     Score         DG    S(hbond)    S(metal)    S(lipo)     H(rot)  DE(clash)    DE(int)     intcor
     13.63     -15.04       1.95        0.00      54.30       1.29       0.01       1.39       ----

> <Gold.Chemscore.Fitness>
13.6273

> <Gold.Chemscore.DG>
-15.0351

> <Gold.Chemscore.ZeroCoef>
-5.4800

> <Gold.Chemscore.Hbond>
1.9503

> <Gold.Chemscore.Metal>
0.0000

> <Gold.Chemscore.Lipo>
54.3007

> <Gold.Chemscore.Internal_Hbond>
0.0000

> <Gold.Chemscore.DEClash>
0.0135

> <Gold.Chemscore.DEInternal>
1.3943

> <Gold.Chemscore.Rot>
1.2938

> <Gold.Chemscore.Internal.Correction>
   9.000000E+99

> <Gold.Chemscore.Hbonds>
donor molecule, donor type, donor heavy atom, donor atom, acceptor molecule, acceptor atom, score
      L1  H     3    21       P1  7948  0.85
      L1  H     6    22       P1  7948  0.96

> <Gold.Chemscore.Hbond.Weighted>
-6.5141

> <Gold.Chemscore.Metal.Weighted>
-0.0000

> <Gold.Chemscore.Lipo.Weighted>
-6.3532

> <Gold.Chemscore.Internal_Hbond.Weighted>
0.0000

> <Gold.Chemscore.DEClash.Weighted>
0.0135

> <Gold.Chemscore.DEInternal.Weighted>
1.3943

> <Gold.Chemscore.Rot.Weighted>
3.3122

> <Gold.Chemscore.Internal.Correction.Weighted>
   9.000000E+99

> <Gold.Protein.RotatedTorsions>
[ 6907 6896 6895 6894 ] final  -23.33 input  -60.11 | X-H torsion
[ 7974 7965 7964 7962 ] final  -27.34 input  175.53 | X-H torsion
[ 8008 7997 7996 7995 ] final   22.50 input   59.86 | X-H torsion
[ 10167 10162 10161 10158 ] final  136.88 input  -65.29 | X-H torsion
[ 10718 10713 10712 10709 ] final   77.80 input   66.30 | X-H torsion
[ 10763 10752 10751 10750 ] final -159.61 input  -60.55 | X-H torsion
[ 11005 11000 10999 10996 ] final  -74.35 input  -57.11 | X-H torsion

> <Gold.Protein.ActiveResidues>
 VAL166  LYS551  ARG553  GLY616  TRP617  ASP618  TYR619  PRO620  LYS621  CYS622 
 ASP623  PHE694  ASN695  SER759  ASP760  ASP761  ALA762  ILE779  LEU786  VAL792 
 PHE793  MET794  SER795  GLU796  ALA797  LYS798  CYS799  TRP800  GLU811  SER814 

> <Gold.Protein.RotatedAtoms>
  151.2055  135.0460  159.8889 H   0  0  0  0  0  0  0  0  0  0  0  0  # atno 6907 bound_to 6896
  152.5429  134.0802  159.8242 H   0  0  0  0  0  0  0  0  0  0  0  0  # atno 6908 bound_to 6896
  151.0948  133.5240  159.2645 H   0  0  0  0  0  0  0  0  0  0  0  0  # atno 6909 bound_to 6896
  146.1364  140.5139  142.8671 H   0  0  0  0  0  0  0  0  0  0  0  0  # atno 7974 bound_to 7965
  154.9667  140.3085  155.5006 H   0  0  0  0  0  0  0  0  0  0  0  0  # atno 8008 bound_to 7997
  156.2971  140.2291  156.4695 H   0  0  0  0  0  0  0  0  0  0  0  0  # atno 8009 bound_to 7997
  154.7914  140.0439  157.1192 H   0  0  0  0  0  0  0  0  0  0  0  0  # atno 8010 bound_to 7997
  139.5164  144.6441  151.5489 H   0  0  0  0  0  0  0  0  0  0  0  0  # atno 10167 bound_to 10162
  157.6723  130.9838  150.1694 H   0  0  0  0  0  0  0  0  0  0  0  0  # atno 10718 bound_to 10713
  154.7460  135.3080  154.8643 H   0  0  0  0  0  0  0  0  0  0  0  0  # atno 10763 bound_to 10752
  153.9444  135.6771  153.4748 H   0  0  0  0  0  0  0  0  0  0  0  0  # atno 10764 bound_to 10752
  153.1057  135.4890  154.8873 H   0  0  0  0  0  0  0  0  0  0  0  0  # atno 10765 bound_to 10752
  141.1634  133.6908  156.7351 H   0  0  0  0  0  0  0  0  0  0  0  0  # atno 11005 bound_to 11000
  144.7745  140.5709  143.6647 LP  0  0  0  0  0  0  0  0  0  0  0  0  # atno 17320 bound_to 7965
  145.5145  139.1478  143.3586 LP  0  0  0  0  0  0  0  0  0  0  0  0  # atno 17321 bound_to 7965
  140.6218  143.9243  150.6533 LP  0  0  0  0  0  0  0  0  0  0  0  0  # atno 17342 bound_to 10162
  140.2519  143.3587  152.1398 LP  0  0  0  0  0  0  0  0  0  0  0  0  # atno 17343 bound_to 10162
  156.2452  130.3695  149.8293 LP  0  0  0  0  0  0  0  0  0  0  0  0  # atno 17370 bound_to 10713
  156.6082  130.8575  151.3448 LP  0  0  0  0  0  0  0  0  0  0  0  0  # atno 17371 bound_to 10713
  140.2716  134.8388  157.3852 LP  0  0  0  0  0  0  0  0  0  0  0  0  # atno 17394 bound_to 11000
  140.1516  134.4842  155.7957 LP  0  0  0  0  0  0  0  0  0  0  0  0  # atno 17395 bound_to 11000

$$$$
