AV-unprocessed.smi:430|AV-procd|sdf|2546|dock1
  -GOLD-   2262022513D 1   1.00000     0.00000
 Structure written by MMmdl.
 37 38  0  0  0  0  0  0  0  0  1 V2000
  154.1233  134.4486  165.0156 C   0  0  0  0  0  0  0  0  0  0  0  0
  154.1536  135.9154  164.5580 C   0  0  0  0  0  0  0  0  0  0  0  0
  154.7253  136.1114  163.1500 C   0  0  0  0  0  0  0  0  0  0  0  0
  155.0039  135.1471  162.4365 O   0  0  0  0  0  0  0  0  0  0  0  0
  154.8969  137.3843  162.7623 N   0  0  0  0  0  0  0  0  0  0  0  0
  155.4142  137.8032  161.4628 C   0  0  0  0  0  0  0  0  0  0  0  0
  154.7258  139.0187  160.8549 C   0  0  0  0  0  0  0  0  0  0  0  0
  154.5662  140.1886  161.6218 C   0  0  0  0  0  0  0  0  0  0  0  0
  153.9397  141.3101  161.0459 C   0  0  0  0  0  0  0  0  0  0  0  0
  153.4831  141.2355  159.7056 C   0  0  0  0  0  0  0  0  0  0  0  0
  152.8536  142.3257  159.0628 N   0  0  0  0  0  0  0  0  0  0  0  0
  152.9362  143.6465  159.6807 C   0  0  0  0  0  0  0  0  0  0  0  0
  152.4943  144.7359  158.6889 C   0  0  0  0  0  0  0  0  0  0  0  0
  151.1952  144.4353  158.1920 O   0  0  0  0  0  0  0  0  0  0  0  0
  151.1781  143.2041  157.4782 C   0  0  0  0  0  0  0  0  0  0  0  0
  151.5703  142.0504  158.4171 C   0  0  0  0  0  0  0  0  0  0  0  0
  153.6445  140.1087  158.9703 N   0  0  0  0  0  0  0  0  0  0  0  0
  154.2477  139.0377  159.5269 C   0  0  0  0  0  0  0  0  0  0  0  0
  153.6935  134.3664  166.0138 H   0  0  0  0  0  0  0  0  0  0  0  0
  155.1264  134.0224  165.0534 H   0  0  0  0  0  0  0  0  0  0  0  0
  153.5193  133.8343  164.3469 H   0  0  0  0  0  0  0  0  0  0  0  0
  153.1428  136.3239  164.5813 H   0  0  0  0  0  0  0  0  0  0  0  0
  154.7456  136.5034  165.2605 H   0  0  0  0  0  0  0  0  0  0  0  0
  154.6433  138.1164  163.4099 H   0  0  0  0  0  0  0  0  0  0  0  0
  156.4862  137.9931  161.5400 H   0  0  0  0  0  0  0  0  0  0  0  0
  155.3000  136.9689  160.7709 H   0  0  0  0  0  0  0  0  0  0  0  0
  154.9186  140.2289  162.6421 H   0  0  0  0  0  0  0  0  0  0  0  0
  153.8153  142.1969  161.6483 H   0  0  0  0  0  0  0  0  0  0  0  0
  152.3037  143.6692  160.5690 H   0  0  0  0  0  0  0  0  0  0  0  0
  153.9591  143.8543  159.9966 H   0  0  0  0  0  0  0  0  0  0  0  0
  152.4698  145.7062  159.1848 H   0  0  0  0  0  0  0  0  0  0  0  0
  153.2016  144.8195  157.8621 H   0  0  0  0  0  0  0  0  0  0  0  0
  150.1769  143.0389  157.0805 H   0  0  0  0  0  0  0  0  0  0  0  0
  151.8546  143.2564  156.6235 H   0  0  0  0  0  0  0  0  0  0  0  0
  151.5990  141.1260  157.8404 H   0  0  0  0  0  0  0  0  0  0  0  0
  150.8102  141.9214  159.1886 H   0  0  0  0  0  0  0  0  0  0  0  0
  154.3505  138.1769  158.8831 H   0  0  0  0  0  0  0  0  0  0  0  0
  1  2  1  0  0  0  0
  1 19  1  0  0  0  0
  1 20  1  0  0  0  0
  1 21  1  0  0  0  0
  2  3  1  0  0  0  0
  2 22  1  0  0  0  0
  2 23  1  0  0  0  0
  3  4  2  0  0  0  0
  3  5  1  0  0  0  0
  5  6  1  0  0  0  0
  5 24  1  0  0  0  0
  6  7  1  0  0  0  0
  6 25  1  0  0  0  0
  6 26  1  0  0  0  0
  7 18  1  0  0  0  0
  7  8  2  0  0  0  0
  8  9  1  0  0  0  0
  8 27  1  0  0  0  0
  9 10  2  0  0  0  0
  9 28  1  0  0  0  0
 10 11  1  0  0  0  0
 10 17  1  0  0  0  0
 11 16  1  0  0  0  0
 11 12  1  0  0  0  0
 12 13  1  0  0  0  0
 12 29  1  0  0  0  0
 12 30  1  0  0  0  0
 13 14  1  0  0  0  0
 13 31  1  0  0  0  0
 13 32  1  0  0  0  0
 14 15  1  0  0  0  0
 15 16  1  0  0  0  0
 15 33  1  0  0  0  0
 15 34  1  0  0  0  0
 16 35  1  0  0  0  0
 16 36  1  0  0  0  0
 17 18  2  0  0  0  0
 18 37  1  0  0  0  0
M  END
> <s_m_source_file>
AV-unprocessed.smi

> <i_m_source_file_index>
430

> <i_lp_mmshare_version>
43012

> <i_f3d_flags>
0

> <s_epik_input>
W0NIM11bQ0gyXUMoPU8pW05IXVtDSDJdYzFbY0hdW2NIXWMobltjSF0xKU4yW0NIMl1bQ0gyXU9bQ0gyXVtDSDJdMg==

> <s_epik_cmdline>
J2VwaWtfcHl0aG9uJywgJy1waCcsICc3LjAnLCAnLXRuJywgJzgnLCAnLW1hJywgJzIwMCcsICctbWV0YWxfYmluZGluZycsICctaW1hZScsICc8aW5maWxlLm1hZT4nLCAnLW9tYWUnLCAnPG91dGZpbGUubWFlPic=

> <r_lp_tautomer_probability>
1

> <r_epik_Ionization_Penalty>
0.00505548

> <r_epik_Ionization_Penalty_Charging>
0

> <r_epik_Ionization_Penalty_Neutral>
0.00505548

> <r_epik_State_Penalty>
0.00367784

> <r_epik_Charging_Adjusted_Penalty>
0.00367784

> <i_epik_Tot_Q>
0

> <i_epik_Tot_abs_Q>
0

> <r_epik_Metal_State_Penalty>
-0

> <b_epik_Metal_Only>
0

> <s_lp_Force_Field>
OPLS_2005

> <r_lp_Energy>
16.0515

> <b_lp_Chiralities_Consistent>
1

> <s_lp_Variant>
AV-unprocessed.smi:430-1

> <Gold.Version>
5.8.1

> <Gold.Id.Protein>
6NUR|6NUR_protein|mol2

> <Gold.PLP.Fitness>
38.3292

> <Gold.PLP.PLP>
-36.6143

> <Gold.PLP.part.hbond>
-1.0000

> <Gold.PLP.part.metal>
0.0000

> <Gold.PLP.part.buried>
-4.4197

> <Gold.PLP.part.nonpolar>
-31.5702

> <Gold.PLP.part.repulsive>
0.1562

> <Gold.PLP.ligand.clash>
0.0000

> <Gold.PLP.ligand.torsion>
0.5089

> <Gold.PLP.Chemscore.Hbond>
0.7552

> <Gold.PLP.Chemscore.CHOScore>
0.0000

> <Gold.PLP.Chemscore.Metal>
0.0000

> <Gold.Chemscore.Hbonds>
donor molecule, donor type, donor heavy atom, donor atom, acceptor molecule, acceptor atom, score
      P1  H  7997  8010       L1    17  0.58

> <Gold.PLP.Chemscore.Internal.Correction>
0.4671

> <Gold.Rescore>
     Score         DG    S(hbond)    S(metal)    S(lipo)     H(rot)  DE(clash)    DE(int)     intcor
     14.06     -14.90       0.62        0.00      98.23       1.62       0.25       0.59       ----

> <Gold.Chemscore.Fitness>
14.0557

> <Gold.Chemscore.DG>
-14.8992

> <Gold.Chemscore.ZeroCoef>
-5.4800

> <Gold.Chemscore.Hbond>
0.6192

> <Gold.Chemscore.Metal>
0.0000

> <Gold.Chemscore.Lipo>
98.2264

> <Gold.Chemscore.Internal_Hbond>
0.0000

> <Gold.Chemscore.DEClash>
0.2495

> <Gold.Chemscore.DEInternal>
0.5940

> <Gold.Chemscore.Rot>
1.6178

> <Gold.Chemscore.Internal.Correction>
   9.000000E+99

> <Gold.Chemscore.Hbonds>
donor molecule, donor type, donor heavy atom, donor atom, acceptor molecule, acceptor atom, score
      P1  H  7997  8010       L1    17  0.07

> <Gold.Chemscore.Hbond.Weighted>
-2.0683

> <Gold.Chemscore.Metal.Weighted>
-0.0000

> <Gold.Chemscore.Lipo.Weighted>
-11.4925

> <Gold.Chemscore.Internal_Hbond.Weighted>
0.0000

> <Gold.Chemscore.DEClash.Weighted>
0.2495

> <Gold.Chemscore.DEInternal.Weighted>
0.5940

> <Gold.Chemscore.Rot.Weighted>
4.1416

> <Gold.Chemscore.Internal.Correction.Weighted>
   9.000000E+99

> <Gold.Protein.RotatedTorsions>
[ 6907 6896 6895 6894 ] final  110.39 input  -60.11 | X-H torsion
[ 7974 7965 7964 7962 ] final   80.75 input  175.53 | X-H torsion
[ 8008 7997 7996 7995 ] final   23.29 input   59.86 | X-H torsion
[ 10167 10162 10161 10158 ] final  -62.24 input  -65.29 | X-H torsion
[ 10718 10713 10712 10709 ] final  -63.49 input   66.30 | X-H torsion
[ 10763 10752 10751 10750 ] final   36.14 input  -60.55 | X-H torsion
[ 11005 11000 10999 10996 ] final   97.44 input  -57.11 | X-H torsion

> <Gold.Protein.ActiveResidues>
 VAL166  LYS551  ARG553  GLY616  TRP617  ASP618  TYR619  PRO620  LYS621  CYS622 
 ASP623  PHE694  ASN695  SER759  ASP760  ASP761  ALA762  ILE779  LEU786  VAL792 
 PHE793  MET794  SER795  GLU796  ALA797  LYS798  CYS799  TRP800  GLU811  SER814 

> <Gold.Protein.RotatedAtoms>
  152.5022  133.8808  159.7344 H   0  0  0  0  0  0  0  0  0  0  0  0  # atno 6907 bound_to 6896
  150.9271  133.6802  159.2826 H   0  0  0  0  0  0  0  0  0  0  0  0  # atno 6908 bound_to 6896
  151.4160  135.0996  159.9652 H   0  0  0  0  0  0  0  0  0  0  0  0  # atno 6909 bound_to 6896
  145.6471  139.2439  143.1998 H   0  0  0  0  0  0  0  0  0  0  0  0  # atno 7974 bound_to 7965
  154.9787  140.3099  155.4956 H   0  0  0  0  0  0  0  0  0  0  0  0  # atno 8008 bound_to 7997
  156.2956  140.2270  156.4824 H   0  0  0  0  0  0  0  0  0  0  0  0  # atno 8009 bound_to 7997
  154.7809  140.0446  157.1114 H   0  0  0  0  0  0  0  0  0  0  0  0  # atno 8010 bound_to 7997
  140.5953  143.2349  151.6050 H   0  0  0  0  0  0  0  0  0  0  0  0  # atno 10167 bound_to 10162
  156.0788  130.4221  150.1285 H   0  0  0  0  0  0  0  0  0  0  0  0  # atno 10718 bound_to 10713
  153.0089  135.6314  154.1938 H   0  0  0  0  0  0  0  0  0  0  0  0  # atno 10763 bound_to 10752
  154.1681  135.2820  155.3091 H   0  0  0  0  0  0  0  0  0  0  0  0  # atno 10764 bound_to 10752
  154.5930  135.5611  153.7357 H   0  0  0  0  0  0  0  0  0  0  0  0  # atno 10765 bound_to 10752
  139.8776  134.9001  156.4308 H   0  0  0  0  0  0  0  0  0  0  0  0  # atno 11005 bound_to 11000
  146.1234  140.7279  142.9446 LP  0  0  0  0  0  0  0  0  0  0  0  0  # atno 17320 bound_to 7965
  144.7136  140.4129  143.7061 LP  0  0  0  0  0  0  0  0  0  0  0  0  # atno 17321 bound_to 7965
  139.5254  144.3076  152.1020 LP  0  0  0  0  0  0  0  0  0  0  0  0  # atno 17342 bound_to 10162
  140.2247  144.4430  150.6326 LP  0  0  0  0  0  0  0  0  0  0  0  0  # atno 17343 bound_to 10162
  156.9320  130.9717  151.3531 LP  0  0  0  0  0  0  0  0  0  0  0  0  # atno 17370 bound_to 10713
  157.5895  130.8433  149.8638 LP  0  0  0  0  0  0  0  0  0  0  0  0  # atno 17371 bound_to 10713
  140.9068  133.7740  155.9744 LP  0  0  0  0  0  0  0  0  0  0  0  0  # atno 17394 bound_to 11000
  140.8590  134.2863  157.5242 LP  0  0  0  0  0  0  0  0  0  0  0  0  # atno 17395 bound_to 11000

$$$$
