AV-unprocessed.smi:859|AV-procd|sdf|3963|dock7
  -GOLD-   22720 1433D 1   1.00000     0.00000
 Structure written by MMmdl.
 36 37  0  0  0  0  0  0  0  0  2 V2000
  152.5597  139.8345  157.2429 O   0  0  0  0  0  0  0  0  0  0  0  0
  151.8003  140.7953  157.3731 C   0  0  0  0  0  0  0  0  0  0  0  0
  150.6170  140.8880  156.7455 N   0  0  0  0  0  0  0  0  0  0  0  0
  150.0764  139.9041  155.8119 C   0  0  0  0  0  0  0  0  0  0  0  0
  149.6500  140.5445  154.4772 C   0  0  0  0  0  0  0  0  0  0  0  0
  148.2406  140.9499  154.4659 N   0  0  0  0  0  0  0  0  0  0  0  0
  147.6212  141.8228  155.3233 C   0  0  0  0  0  0  0  0  0  0  0  0
  146.3051  141.8766  154.9424 C   0  0  0  0  0  0  0  0  0  0  0  0
  146.1779  141.0389  153.8669 N   0  3  0  0  0  0  0  0  0  0  0  0
  147.3569  140.4803  153.5755 C   0  0  0  0  0  0  0  0  0  0  0  0
  152.1980  141.9798  158.2623 C   0  0  0  0  0  0  0  0  0  0  0  0
  152.3210  141.5400  159.7372 C   0  0  0  0  0  0  0  0  0  0  0  0
  152.7167  142.7198  160.6397 C   0  0  0  0  0  0  0  0  0  0  0  0
  151.7245  143.8852  160.4999 C   0  0  0  0  0  0  0  0  0  0  0  0
  151.5807  144.3227  159.0333 C   0  0  0  0  0  0  0  0  0  0  0  0
  151.1876  143.1393  158.1336 C   0  0  0  0  0  0  0  0  0  0  0  0
  150.0552  141.7098  156.9165 H   0  0  0  0  0  0  0  0  0  0  0  0
  150.7851  139.0916  155.6423 H   0  0  0  0  0  0  0  0  0  0  0  0
  149.2049  139.4508  156.2842 H   0  0  0  0  0  0  0  0  0  0  0  0
  150.2447  141.4383  154.2859 H   0  0  0  0  0  0  0  0  0  0  0  0
  149.8274  139.8625  153.6442 H   0  0  0  0  0  0  0  0  0  0  0  0
  148.1474  142.3206  156.1250 H   0  0  0  0  0  0  0  0  0  0  0  0
  145.4707  142.4313  155.3467 H   0  0  0  0  0  0  0  0  0  0  0  0
  147.5519  139.7771  152.7854 H   0  0  0  0  0  0  0  0  0  0  0  0
  153.1737  142.3429  157.9336 H   0  0  0  0  0  0  0  0  0  0  0  0
  151.3740  141.1245  160.0860 H   0  0  0  0  0  0  0  0  0  0  0  0
  153.0606  140.7438  159.8326 H   0  0  0  0  0  0  0  0  0  0  0  0
  152.7625  142.3939  161.6794 H   0  0  0  0  0  0  0  0  0  0  0  0
  153.7195  143.0596  160.3779 H   0  0  0  0  0  0  0  0  0  0  0  0
  150.7505  143.5840  160.8878 H   0  0  0  0  0  0  0  0  0  0  0  0
  152.0527  144.7280  161.1088 H   0  0  0  0  0  0  0  0  0  0  0  0
  150.8351  145.1143  158.9530 H   0  0  0  0  0  0  0  0  0  0  0  0
  152.5220  144.7493  158.6850 H   0  0  0  0  0  0  0  0  0  0  0  0
  151.1285  143.4744  157.0973 H   0  0  0  0  0  0  0  0  0  0  0  0
  150.1867  142.7998  158.4054 H   0  0  0  0  0  0  0  0  0  0  0  0
  145.3164  140.8629  153.3655 H   0  0  0  0  0  0  0  0  0  0  0  0
  1  2  2  0  0  0  0
  2  3  1  0  0  0  0
  2 11  1  0  0  0  0
  3  4  1  0  0  0  0
  3 17  1  0  0  0  0
  4  5  1  0  0  0  0
  4 18  1  0  0  0  0
  4 19  1  0  0  0  0
  5  6  1  0  0  0  0
  5 20  1  0  0  0  0
  5 21  1  0  0  0  0
  6 10  1  0  0  0  0
  6  7  1  0  0  0  0
  7  8  2  0  0  0  0
  7 22  1  0  0  0  0
  8  9  1  0  0  0  0
  8 23  1  0  0  0  0
  9 10  2  0  0  0  0
  9 36  1  0  0  0  0
 10 24  1  0  0  0  0
 11 16  1  0  0  0  0
 11 12  1  0  0  0  0
 11 25  1  0  0  0  0
 12 13  1  0  0  0  0
 12 26  1  0  0  0  0
 12 27  1  0  0  0  0
 13 14  1  0  0  0  0
 13 28  1  0  0  0  0
 13 29  1  0  0  0  0
 14 15  1  0  0  0  0
 14 30  1  0  0  0  0
 14 31  1  0  0  0  0
 15 16  1  0  0  0  0
 15 32  1  0  0  0  0
 15 33  1  0  0  0  0
 16 34  1  0  0  0  0
 16 35  1  0  0  0  0
M  CHG  1   9   1
M  END
> <s_m_source_file>
AV-unprocessed.smi

> <i_m_source_file_index>
859

> <i_lp_mmshare_version>
43012

> <i_f3d_flags>
0

> <s_epik_input>
W0NIMl0xW0NIMl1bQ0gyXVtDSDJdW0NIMl1bQ0hdMUMoPU8pW05IXVtDSDJdW0NIMl1uMltjSF1bY0hdbltjSF0y

> <s_epik_cmdline>
J2VwaWtfcHl0aG9uJywgJy1waCcsICc3LjAnLCAnLXRuJywgJzgnLCAnLW1hJywgJzIwMCcsICctbWV0YWxfYmluZGluZycsICctaW1hZScsICc8aW5maWxlLm1hZT4nLCAnLW9tYWUnLCAnPG91dGZpbGUubWFlPic=

> <r_lp_tautomer_probability>
1

> <r_epik_Ionization_Penalty>
0.267085

> <r_epik_Ionization_Penalty_Charging>
0

> <r_epik_Ionization_Penalty_Neutral>
0.267085

> <r_epik_State_Penalty>
0.259064

> <r_epik_Charging_Adjusted_Penalty>
0.259064

> <i_epik_Tot_Q>
1

> <i_epik_Tot_abs_Q>
1

> <r_epik_Metal_State_Penalty>
0.54496

> <b_epik_Metal_Only>
0

> <s_lp_Force_Field>
OPLS_2005

> <r_lp_Energy>
13.141

> <b_lp_Chiralities_Consistent>
1

> <s_lp_Variant>
AV-unprocessed.smi:859-1

> <Gold.Version>
5.8.1

> <Gold.Id.Protein>
6NUR|6NUR_protein|mol2

> <Gold.PLP.Fitness>
46.8941

> <Gold.PLP.PLP>
-35.1384

> <Gold.PLP.part.hbond>
-2.0000

> <Gold.PLP.part.metal>
0.0000

> <Gold.PLP.part.buried>
0.3677

> <Gold.PLP.part.nonpolar>
-32.9573

> <Gold.PLP.part.repulsive>
0.0926

> <Gold.PLP.ligand.clash>
1.5983

> <Gold.PLP.ligand.torsion>
0.2975

> <Gold.PLP.Chemscore.Hbond>
2.9913

> <Gold.PLP.Chemscore.CHOScore>
1.6509

> <Gold.PLP.Chemscore.Metal>
0.0000

> <Gold.Chemscore.Hbonds>
donor molecule, donor type, donor heavy atom, donor atom, acceptor molecule, acceptor atom, score
      L1  H     9    36       P1 10175  2.00
      P1  H  7997  8008       L1     1  1.00
      L1  C     7    22       P1  8028  0.69
      L1  C    10    24       P1  7957  0.66

> <Gold.PLP.Chemscore.Internal.Correction>
0.0227

> <Gold.Rescore>
     Score         DG    S(hbond)    S(metal)    S(lipo)     H(rot)  DE(clash)    DE(int)     intcor
     17.14     -17.71       1.93        0.00      90.09       1.86       0.16       0.41       ----

> <Gold.Chemscore.Fitness>
17.1367

> <Gold.Chemscore.DG>
-17.7108

> <Gold.Chemscore.ZeroCoef>
-5.4800

> <Gold.Chemscore.Hbond>
1.9291

> <Gold.Chemscore.Metal>
0.0000

> <Gold.Chemscore.Lipo>
90.0931

> <Gold.Chemscore.Internal_Hbond>
0.0000

> <Gold.Chemscore.DEClash>
0.1644

> <Gold.Chemscore.DEInternal>
0.4096

> <Gold.Chemscore.Rot>
1.8567

> <Gold.Chemscore.Internal.Correction>
   9.000000E+99

> <Gold.Chemscore.Hbonds>
donor molecule, donor type, donor heavy atom, donor atom, acceptor molecule, acceptor atom, score
      L1  H     9    36       P1 10175  0.74
      P1  H  7997  8008       L1     1  0.98

> <Gold.Chemscore.Hbond.Weighted>
-6.4430

> <Gold.Chemscore.Metal.Weighted>
-0.0000

> <Gold.Chemscore.Lipo.Weighted>
-10.5409

> <Gold.Chemscore.Internal_Hbond.Weighted>
0.0000

> <Gold.Chemscore.DEClash.Weighted>
0.1644

> <Gold.Chemscore.DEInternal.Weighted>
0.4096

> <Gold.Chemscore.Rot.Weighted>
4.7531

> <Gold.Chemscore.Internal.Correction.Weighted>
   9.000000E+99

> <Gold.Protein.RotatedTorsions>
[ 6907 6896 6895 6894 ] final   89.94 input  -60.11 | X-H torsion
[ 7974 7965 7964 7962 ] final   11.74 input  175.53 | X-H torsion
[ 8008 7997 7996 7995 ] final  -64.97 input   59.86 | X-H torsion
[ 10167 10162 10161 10158 ] final  104.98 input  -65.29 | X-H torsion
[ 10718 10713 10712 10709 ] final  151.08 input   66.30 | X-H torsion
[ 10763 10752 10751 10750 ] final -164.09 input  -60.55 | X-H torsion
[ 11005 11000 10999 10996 ] final -133.75 input  -57.11 | X-H torsion

> <Gold.Protein.ActiveResidues>
 VAL166  LYS551  ARG553  GLY616  TRP617  ASP618  TYR619  PRO620  LYS621  CYS622 
 ASP623  PHE694  ASN695  SER759  ASP760  ASP761  ALA762  ILE779  LEU786  VAL792 
 PHE793  MET794  SER795  GLU796  ALA797  LYS798  CYS799  TRP800  GLU811  SER814 

> <Gold.Protein.RotatedAtoms>
  152.5440  134.1889  159.8665 H   0  0  0  0  0  0  0  0  0  0  0  0  # atno 6907 bound_to 6896
  151.1886  133.4674  159.2602 H   0  0  0  0  0  0  0  0  0  0  0  0  # atno 6908 bound_to 6896
  151.1106  135.0036  159.8547 H   0  0  0  0  0  0  0  0  0  0  0  0  # atno 6909 bound_to 6896
  146.2365  139.9440  142.8479 H   0  0  0  0  0  0  0  0  0  0  0  0  # atno 7974 bound_to 7965
  154.4643  140.0943  156.6978 H   0  0  0  0  0  0  0  0  0  0  0  0  # atno 8008 bound_to 7997
  155.4903  140.3470  155.4335 H   0  0  0  0  0  0  0  0  0  0  0  0  # atno 8009 bound_to 7997
  156.0928  140.1402  156.9558 H   0  0  0  0  0  0  0  0  0  0  0  0  # atno 8010 bound_to 7997
  139.7131  144.7073  151.0994 H   0  0  0  0  0  0  0  0  0  0  0  0  # atno 10167 bound_to 10162
  157.2752  131.0825  151.1571 H   0  0  0  0  0  0  0  0  0  0  0  0  # atno 10718 bound_to 10713
  154.7061  135.2997  154.9267 H   0  0  0  0  0  0  0  0  0  0  0  0  # atno 10763 bound_to 10752
  154.0184  135.6686  153.4774 H   0  0  0  0  0  0  0  0  0  0  0  0  # atno 10764 bound_to 10752
  153.0719  135.5056  154.8233 H   0  0  0  0  0  0  0  0  0  0  0  0  # atno 10765 bound_to 10752
  140.9052  134.1639  157.4431 H   0  0  0  0  0  0  0  0  0  0  0  0  # atno 11005 bound_to 11000
  145.1925  140.9818  143.4202 LP  0  0  0  0  0  0  0  0  0  0  0  0  # atno 17320 bound_to 7965
  144.9844  139.3751  143.6246 LP  0  0  0  0  0  0  0  0  0  0  0  0  # atno 17321 bound_to 7965
  140.7738  143.5266  150.9473 LP  0  0  0  0  0  0  0  0  0  0  0  0  # atno 17342 bound_to 10162
  139.8951  143.6905  152.3140 LP  0  0  0  0  0  0  0  0  0  0  0  0  # atno 17343 bound_to 10162
  157.3027  130.6851  149.6173 LP  0  0  0  0  0  0  0  0  0  0  0  0  # atno 17370 bound_to 10713
  155.9663  130.4387  150.5228 LP  0  0  0  0  0  0  0  0  0  0  0  0  # atno 17371 bound_to 10713
  139.8748  134.9914  156.5547 LP  0  0  0  0  0  0  0  0  0  0  0  0  # atno 17394 bound_to 11000
  140.8180  133.8376  155.8869 LP  0  0  0  0  0  0  0  0  0  0  0  0  # atno 17395 bound_to 11000

$$$$
