#       Name:                AV-unprocessed.smi:205
#       Creating user name   scv26
#       Creation time:       Thu Mar 26 19:50:54 2020


#       File generated by GOLD software.
#

@<TRIPOS>MOLECULE
AV-unprocessed.smi:205
    67    69     1
SMALL
NO_CHARGES


@<TRIPOS>ATOM
      1 ****        -1.0518   1.6135   5.2428 O.3            1 S1                 0.0000
      2 ****        -2.3423   1.0409   5.2318 C.3            1 S1                 0.0000
      3 ****        -2.7081   0.5951   3.8110 C.3            1 S1                 0.0000
      4 ****        -2.1607  -0.6909   3.5724 O.3            1 S1                 0.0000
      5 ****        -2.4131  -1.1576   2.2578 C.3            1 S1                 0.0000
      6 ****        -1.7594  -2.5395   2.0766 C.3            1 S1                 0.0000
      7 ****        -0.3015  -2.5284   2.2069 N.pl3          1 S1                 0.0000
      8 ****         0.3671  -3.7979   2.4902 C.3            1 S1                 0.0000
      9 ****         0.3787  -4.7621   1.2896 C.3            1 S1                 0.0000
     10 ****        -0.7779  -5.5716   1.2960 O.3            1 S1                 0.0000
     11 ****         0.4286  -1.6498   1.4754 C.ar           1 S1                 0.0000
     12 ****         1.5148  -1.0980   2.0737 N.ar           1 S1                 0.0000
     13 ****         2.2696  -0.2134   1.4167 C.ar           1 S1                 0.0000
     14 ****         2.1191   0.2522   0.1757 N.ar           1 S1                 0.0000
     15 ****         1.0348  -0.3055  -0.4359 C.ar           1 S1                 0.0000
     16 ****         0.1497  -1.2667   0.1307 C.ar           1 S1                 0.0000
     17 ****        -0.8130  -1.6266  -0.8057 N.2            1 S1                 0.0000
     18 ****        -0.5232  -0.9099  -1.8564 C.2            1 S1                 0.0000
     19 ****         0.5503  -0.0615  -1.7096 N.pl3          1 S1                 0.0000
     20 ****         1.0953   0.8075  -2.7113 C.3            1 S1                 0.0000
     21 ****         1.6358   2.1932  -2.3463 C.3            1 S1                 0.0000
     22 ****         1.0772   2.7759  -3.6628 C.3            1 S1                 0.0000
     23 ****         0.3087   4.0979  -3.5136 C.3            1 S1                 0.0000
     24 ****         1.1497   5.1294  -3.0383 O.3            1 S1                 0.0000
     25 ****         2.0707   2.9567  -4.8317 C.3            1 S1                 0.0000
     26 ****         2.8097   1.7874  -5.1213 O.3            1 S1                 0.0000
     27 ****         0.1813   1.5182  -3.7152 C.3            1 S1                 0.0000
     28 ****        -0.8427   1.8668   6.1288 H              1 S1                 0.0000
     29 ****        -2.3993   0.2106   5.9364 H              1 S1                 0.0000
     30 ****        -3.0438   1.8029   5.5722 H              1 S1                 0.0000
     31 ****        -3.7935   0.5304   3.7216 H              1 S1                 0.0000
     32 ****        -2.3646   1.3222   3.0726 H              1 S1                 0.0000
     33 ****        -3.4898  -1.2471   2.1070 H              1 S1                 0.0000
     34 ****        -2.0500  -0.4407   1.5211 H              1 S1                 0.0000
     35 ****        -2.1679  -3.2228   2.8219 H              1 S1                 0.0000
     36 ****        -2.0322  -2.9572   1.1077 H              1 S1                 0.0000
     37 ****         1.3970  -3.5940   2.7853 H              1 S1                 0.0000
     38 ****        -0.0929  -4.2711   3.3585 H              1 S1                 0.0000
     39 ****         0.4752  -4.2389   0.3379 H              1 S1                 0.0000
     40 ****         1.2368  -5.4294   1.3717 H              1 S1                 0.0000
     41 ****        -0.7306  -6.1699   0.5660 H              1 S1                 0.0000
     42 ****         3.1110   0.1823   1.9662 H              1 S1                 0.0000
     43 ****        -1.0956  -0.9753  -2.7704 H              1 S1                 0.0000
     44 ****         1.8569   0.2229  -3.2289 H              1 S1                 0.0000
     45 ****         1.1486   2.6069  -1.4617 H              1 S1                 0.0000
     46 ****         2.7211   2.2398  -2.2494 H              1 S1                 0.0000
     47 ****        -0.1336   4.4084  -4.4609 H              1 S1                 0.0000
     48 ****        -0.5163   3.9928  -2.8081 H              1 S1                 0.0000
     49 ****         1.4835   4.8761  -2.1909 H              1 S1                 0.0000
     50 ****         1.5463   3.2491  -5.7421 H              1 S1                 0.0000
     51 ****         2.7872   3.7498  -4.6165 H              1 S1                 0.0000
     52 ****         3.3923   1.9717  -5.8423 H              1 S1                 0.0000
     53 ****         0.1253   1.0343  -4.6908 H              1 S1                 0.0000
     54 ****        -0.8180   1.6921  -3.3125 H              1 S1                 0.0000
     55 ****        -1.0350   2.4181   4.6493 LP             1 S1                 0.0000
     56 ****        -0.3836   0.9448   4.9168 LP             1 S1                 0.0000
     57 ****        -2.5622  -1.3353   4.2233 LP             1 S1                 0.0000
     58 ****        -1.1715  -0.6486   3.7124 LP             1 S1                 0.0000
     59 ****        -1.5918  -4.9972   1.2088 LP             1 S1                 0.0000
     60 ****        -0.8238  -6.0870   2.1517 LP             1 S1                 0.0000
     61 ****         1.7510  -1.3550   3.0108 LP             1 S1                 0.0000
     62 ****         2.7239   0.9242  -0.2516 LP             1 S1                 0.0000
     63 ****        -1.5580  -2.2850  -0.6982 LP             1 S1                 0.0000
     64 ****         0.6285   5.9788  -2.9557 LP             1 S1                 0.0000
     65 ****         1.9098   5.2651  -3.6738 LP             1 S1                 0.0000
     66 ****         2.1856   1.0475  -5.3725 LP             1 S1                 0.0000
     67 ****         3.3413   1.5169  -4.3187 LP             1 S1                 0.0000
@<TRIPOS>BOND
    1    1    2 1     
    2    1   28 1     
    3    2    3 1     
    4    2   29 1     
    5    2   30 1     
    6    3    4 1     
    7    3   31 1     
    8    3   32 1     
    9    4    5 1     
   10    5    6 1     
   11    5   33 1     
   12    5   34 1     
   13    6    7 1     
   14    6   35 1     
   15    6   36 1     
   16    7    8 1     
   17    7   11 1     
   18    8    9 1     
   19    8   37 1     
   20    8   38 1     
   21    9   10 1     
   22    9   39 1     
   23    9   40 1     
   24   10   41 1     
   25   11   16 ar    
   26   11   12 ar    
   27   12   13 ar    
   28   13   14 ar    
   29   13   42 1     
   30   14   15 ar    
   31   15   19 1     
   32   15   16 ar    
   33   16   17 1     
   34   17   18 2     
   35   18   19 1     
   36   18   43 1     
   37   19   20 1     
   38   20   27 1     
   39   20   21 1     
   40   20   44 1     
   41   21   22 1     
   42   21   45 1     
   43   21   46 1     
   44   22   23 1     
   45   22   25 1     
   46   22   27 1     
   47   23   24 1     
   48   23   47 1     
   49   23   48 1     
   50   24   49 1     
   51   25   26 1     
   52   25   50 1     
   53   25   51 1     
   54   26   52 1     
   55   27   53 1     
   56   27   54 1     
   57    1   55 1     
   58    1   56 1     
   59    4   57 1     
   60    4   58 1     
   61   10   59 1     
   62   10   60 1     
   63   12   61 1     
   64   14   62 1     
   65   17   63 1     
   66   24   64 1     
   67   24   65 1     
   68   26   66 1     
   69   26   67 1     
@<TRIPOS>SUBSTRUCTURE
      1 S1             1
@<TRIPOS>SET
LONE_PAIRS      STATIC     ATOMS    <user>   **** ""
13 55 56 57 58 59 60 61 62 63 64 65 66 67
DONOR_HYDROGENS      STATIC     ATOMS    <user>   **** ""
4 28 41 49 52
ATOM$BLUE        STATIC     ATOMS    COLORGROUP SYSTEM
13 55 56 57 58 59 60 61 62 63 64 65 66 67
ATOM$RED        STATIC     ATOMS    COLORGROUP SYSTEM
4 28 41 49 52
