AV-unprocessed.smi:3303|AV-procd|sdf|12660|dock4
  -GOLD-   2272018593D 1   1.00000     0.00000
 Structure written by MMmdl.
 45 46  0  0  0  0  0  0  0  0  3 V2000
  148.8385  139.2399  154.2188 C   0  0  0  0  0  0  0  0  0  0  0  0
  147.6713  140.2357  154.1118 C   0  0  1  0  0  0  0  0  0  0  0  0
  146.4735  139.8266  154.9927 C   0  0  0  0  0  0  0  0  0  0  0  0
  145.3225  140.7426  154.7893 N   0  3  1  0  0  0  0  0  0  0  0  0
  144.0812  140.2598  155.4368 C   0  0  0  0  0  0  0  0  0  0  0  0
  145.6429  142.1722  155.0681 C   0  0  1  0  0  0  0  0  0  0  0  0
  145.7730  142.4961  156.5728 C   0  0  0  0  0  0  0  0  0  0  0  0
  146.8671  142.6239  154.2378 C   0  0  0  0  0  0  0  0  0  0  0  0
  148.0987  141.6978  154.3736 C   0  0  1  0  0  0  0  0  0  0  0  0
  148.7858  141.8425  155.6807 N   0  3  0  0  0  0  0  0  0  0  0  0
  150.2157  141.4704  155.6937 C   0  0  0  0  0  0  0  0  0  0  0  0
  150.6404  140.9799  157.0840 C   0  0  0  0  0  0  0  0  0  0  0  0
  151.2163  142.0980  157.9313 C   0  0  0  0  0  0  0  0  0  0  0  0
  151.2858  143.4177  157.4365 C   0  0  0  0  0  0  0  0  0  0  0  0
  151.8238  144.4181  158.2696 C   0  0  0  0  0  0  0  0  0  0  0  0
  152.2672  144.0617  159.5578 C   0  0  0  0  0  0  0  0  0  0  0  0
  152.1531  142.7155  159.9581 C   0  0  0  0  0  0  0  0  0  0  0  0
  151.6380  141.7486  159.1675 N   0  0  0  0  0  0  0  0  0  0  0  0
  149.2172  139.1653  155.2385 H   0  0  0  0  0  0  0  0  0  0  0  0
  149.6675  139.5349  153.5745 H   0  0  0  0  0  0  0  0  0  0  0  0
  148.5271  138.2406  153.9126 H   0  0  0  0  0  0  0  0  0  0  0  0
  147.3289  140.1898  153.0764 H   0  0  0  0  0  0  0  0  0  0  0  0
  146.1659  138.8133  154.7298 H   0  0  0  0  0  0  0  0  0  0  0  0
  146.7548  139.7996  156.0460 H   0  0  0  0  0  0  0  0  0  0  0  0
  144.2033  140.1626  156.5160 H   0  0  0  0  0  0  0  0  0  0  0  0
  143.8045  139.2817  155.0425 H   0  0  0  0  0  0  0  0  0  0  0  0
  143.2520  140.9408  155.2419 H   0  0  0  0  0  0  0  0  0  0  0  0
  144.7954  142.7551  154.7041 H   0  0  0  0  0  0  0  0  0  0  0  0
  146.0752  143.5334  156.7202 H   0  0  0  0  0  0  0  0  0  0  0  0
  146.5041  141.8674  157.0786 H   0  0  0  0  0  0  0  0  0  0  0  0
  144.8225  142.3705  157.0914 H   0  0  0  0  0  0  0  0  0  0  0  0
  146.5722  142.6287  153.1875 H   0  0  0  0  0  0  0  0  0  0  0  0
  147.1177  143.6604  154.4614 H   0  0  0  0  0  0  0  0  0  0  0  0
  148.8216  141.9733  153.6040 H   0  0  0  0  0  0  0  0  0  0  0  0
  148.6918  142.7960  155.9997 H   0  0  0  0  0  0  0  0  0  0  0  0
  150.3931  140.6878  154.9548 H   0  0  0  0  0  0  0  0  0  0  0  0
  150.8245  142.3284  155.4093 H   0  0  0  0  0  0  0  0  0  0  0  0
  149.7851  140.5481  157.6065 H   0  0  0  0  0  0  0  0  0  0  0  0
  151.3785  140.1820  156.9911 H   0  0  0  0  0  0  0  0  0  0  0  0
  150.9369  143.6618  156.4435 H   0  0  0  0  0  0  0  0  0  0  0  0
  151.8941  145.4399  157.9265 H   0  0  0  0  0  0  0  0  0  0  0  0
  152.6855  144.8025  160.2236 H   0  0  0  0  0  0  0  0  0  0  0  0
  152.4831  142.4066  160.9389 H   0  0  0  0  0  0  0  0  0  0  0  0
  148.3170  141.2376  156.3405 H   0  0  0  0  0  0  0  0  0  0  0  0
  145.1287  140.7070  153.7983 H   0  0  0  0  0  0  0  0  0  0  0  0
  1  2  1  0  0  0  0
  1 19  1  0  0  0  0
  1 20  1  0  0  0  0
  1 21  1  0  0  0  0
  2  9  1  0  0  0  0
  2  3  1  0  0  0  0
  2 22  1  0  0  0  0
  3  4  1  0  0  0  0
  3 23  1  0  0  0  0
  3 24  1  0  0  0  0
  4  5  1  0  0  0  0
  4  6  1  0  0  0  0
  4 45  1  0  0  0  0
  5 25  1  0  0  0  0
  5 26  1  0  0  0  0
  5 27  1  0  0  0  0
  6  7  1  0  0  0  0
  6  8  1  0  0  0  0
  6 28  1  0  0  0  0
  7 29  1  0  0  0  0
  7 30  1  0  0  0  0
  7 31  1  0  0  0  0
  8  9  1  0  0  0  0
  8 32  1  0  0  0  0
  8 33  1  0  0  0  0
  9 10  1  0  0  0  0
  9 34  1  0  0  0  0
 10 11  1  0  0  0  0
 10 35  1  0  0  0  0
 10 44  1  0  0  0  0
 11 12  1  0  0  0  0
 11 36  1  0  0  0  0
 11 37  1  0  0  0  0
 12 13  1  0  0  0  0
 12 38  1  0  0  0  0
 12 39  1  0  0  0  0
 13 18  1  0  0  0  0
 13 14  2  0  0  0  0
 14 15  1  0  0  0  0
 14 40  1  0  0  0  0
 15 16  2  0  0  0  0
 15 41  1  0  0  0  0
 16 17  1  0  0  0  0
 16 42  1  0  0  0  0
 17 18  2  0  0  0  0
 17 43  1  0  0  0  0
M  CHG  1   4   1
M  CHG  1  10   1
M  END
> <s_m_source_file>
AV-unprocessed.smi

> <i_m_source_file_index>
3303

> <i_lp_mmshare_version>
43012

> <i_f3d_flags>
0

> <s_epik_input>
W0NIM11bQ0BASF0xW0NIMl1OKFtDSDNdKVtDQEBIXShbQ0gzXSlbQ0gyXVtDQEhdMVtOSF1bQ0gyXVtDSDJdYzJbY0hdW2NIXVtjSF1bY0hdbjI=

> <s_epik_cmdline>
J2VwaWtfcHl0aG9uJywgJy1waCcsICc3LjAnLCAnLXRuJywgJzgnLCAnLW1hJywgJzIwMCcsICctbWV0YWxfYmluZGluZycsICctaW1hZScsICc8aW5maWxlLm1hZT4nLCAnLW9tYWUnLCAnPG91dGZpbGUubWFlPic=

> <r_epik_Ionization_Penalty>
0.0769462

> <r_epik_Ionization_Penalty_Charging>
0.0759813

> <r_epik_Ionization_Penalty_Neutral>
0.000964829

> <r_epik_State_Penalty>
0.0654373

> <r_epik_Charging_Adjusted_Penalty>
0.141419

> <i_epik_Tot_Q>
2

> <i_epik_Tot_abs_Q>
2

> <r_epik_Metal_State_Penalty>
0.0656439

> <b_epik_Metal_Only>
0

> <s_lp_Force_Field>
OPLS_2005

> <r_lp_Energy>
33.2065

> <b_lp_Chiralities_Consistent>
1

> <s_lp_Variant>
AV-unprocessed.smi:3303-4

> <Gold.Version>
5.8.1

> <Gold.Id.Protein>
6NUR|6NUR_protein|mol2

> <Gold.PLP.Fitness>
48.3603

> <Gold.PLP.PLP>
-37.6635

> <Gold.PLP.part.hbond>
-2.0000

> <Gold.PLP.part.metal>
0.0000

> <Gold.PLP.part.buried>
-2.3150

> <Gold.PLP.part.nonpolar>
-33.2536

> <Gold.PLP.part.repulsive>
0.1126

> <Gold.PLP.ligand.clash>
0.0000

> <Gold.PLP.ligand.torsion>
0.6340

> <Gold.PLP.Chemscore.Hbond>
3.9840

> <Gold.PLP.Chemscore.CHOScore>
0.0000

> <Gold.PLP.Chemscore.Metal>
0.0000

> <Gold.Chemscore.Hbonds>
donor molecule, donor type, donor heavy atom, donor atom, acceptor molecule, acceptor atom, score
      L1  H     4    45       P1 10175  1.73
      L1  H    10    35       P1  8028  1.98

> <Gold.PLP.Chemscore.Internal.Correction>
0.0129

> <Gold.Rescore>
     Score         DG    S(hbond)    S(metal)    S(lipo)     H(rot)  DE(clash)    DE(int)     intcor
     19.18     -20.13       1.71        0.00     106.44       1.37       0.11       0.84       ----

> <Gold.Chemscore.Fitness>
19.1803

> <Gold.Chemscore.DG>
-20.1287

> <Gold.Chemscore.ZeroCoef>
-5.4800

> <Gold.Chemscore.Hbond>
1.7108

> <Gold.Chemscore.Metal>
0.0000

> <Gold.Chemscore.Lipo>
106.4382

> <Gold.Chemscore.Internal_Hbond>
0.0000

> <Gold.Chemscore.DEClash>
0.1069

> <Gold.Chemscore.DEInternal>
0.8416

> <Gold.Chemscore.Rot>
1.3744

> <Gold.Chemscore.Internal.Correction>
   9.000000E+99

> <Gold.Chemscore.Hbonds>
donor molecule, donor type, donor heavy atom, donor atom, acceptor molecule, acceptor atom, score
      L1  H     4    45       P1 10175  0.81
      L1  H    10    35       P1  8028  0.93

> <Gold.Chemscore.Hbond.Weighted>
-5.7139

> <Gold.Chemscore.Metal.Weighted>
-0.0000

> <Gold.Chemscore.Lipo.Weighted>
-12.4533

> <Gold.Chemscore.Internal_Hbond.Weighted>
0.0000

> <Gold.Chemscore.DEClash.Weighted>
0.1069

> <Gold.Chemscore.DEInternal.Weighted>
0.8416

> <Gold.Chemscore.Rot.Weighted>
3.5185

> <Gold.Chemscore.Internal.Correction.Weighted>
   9.000000E+99

> <Gold.Protein.RotatedTorsions>
[ 6907 6896 6895 6894 ] final  -24.63 input  -60.11 | X-H torsion
[ 7974 7965 7964 7962 ] final  -85.83 input  175.53 | X-H torsion
[ 8008 7997 7996 7995 ] final   36.90 input   59.86 | X-H torsion
[ 10167 10162 10161 10158 ] final  126.64 input  -65.29 | X-H torsion
[ 10718 10713 10712 10709 ] final -115.63 input   66.30 | X-H torsion
[ 10763 10752 10751 10750 ] final  149.92 input  -60.55 | X-H torsion
[ 11005 11000 10999 10996 ] final   47.28 input  -57.11 | X-H torsion

> <Gold.Protein.ActiveResidues>
 VAL166  LYS551  ARG553  GLY616  TRP617  ASP618  TYR619  PRO620  LYS621  CYS622 
 ASP623  PHE694  ASN695  SER759  ASP760  ASP761  ALA762  ILE779  LEU786  VAL792 
 PHE793  MET794  SER795  GLU796  ALA797  LYS798  CYS799  TRP800  GLU811  SER814 

> <Gold.Protein.RotatedAtoms>
  151.1868  135.0385  159.8815 H   0  0  0  0  0  0  0  0  0  0  0  0  # atno 6907 bound_to 6896
  152.5442  134.1001  159.8324 H   0  0  0  0  0  0  0  0  0  0  0  0  # atno 6908 bound_to 6896
  151.1125  133.5115  159.2637 H   0  0  0  0  0  0  0  0  0  0  0  0  # atno 6909 bound_to 6896
  145.4881  140.9554  143.1827 H   0  0  0  0  0  0  0  0  0  0  0  0  # atno 7974 bound_to 7965
  155.1949  140.3311  155.4352 H   0  0  0  0  0  0  0  0  0  0  0  0  # atno 8008 bound_to 7997
  156.2428  140.1904  156.6990 H   0  0  0  0  0  0  0  0  0  0  0  0  # atno 8009 bound_to 7997
  154.6180  140.0599  156.9565 H   0  0  0  0  0  0  0  0  0  0  0  0  # atno 8010 bound_to 7997
  139.5620  144.6888  151.4016 H   0  0  0  0  0  0  0  0  0  0  0  0  # atno 10167 bound_to 10162
  156.0909  130.6091  150.8931 H   0  0  0  0  0  0  0  0  0  0  0  0  # atno 10718 bound_to 10713
  154.0790  135.2861  155.3294 H   0  0  0  0  0  0  0  0  0  0  0  0  # atno 10763 bound_to 10752
  154.6696  135.5304  153.8124 H   0  0  0  0  0  0  0  0  0  0  0  0  # atno 10764 bound_to 10752
  153.0456  135.6554  154.0967 H   0  0  0  0  0  0  0  0  0  0  0  0  # atno 10765 bound_to 10752
  140.1293  134.4726  155.8534 H   0  0  0  0  0  0  0  0  0  0  0  0  # atno 11005 bound_to 11000
  144.7850  139.6446  143.7138 LP  0  0  0  0  0  0  0  0  0  0  0  0  # atno 17320 bound_to 7965
  146.2301  139.5797  142.9561 LP  0  0  0  0  0  0  0  0  0  0  0  0  # atno 17321 bound_to 7965
  140.6901  143.7882  150.7242 LP  0  0  0  0  0  0  0  0  0  0  0  0  # atno 17342 bound_to 10162
  140.1362  143.4482  152.2223 LP  0  0  0  0  0  0  0  0  0  0  0  0  # atno 17343 bound_to 10162
  157.6057  131.0939  150.8883 LP  0  0  0  0  0  0  0  0  0  0  0  0  # atno 17370 bound_to 10713
  156.9031  130.5254  149.5282 LP  0  0  0  0  0  0  0  0  0  0  0  0  # atno 17371 bound_to 10713
  141.2167  133.6790  156.7039 LP  0  0  0  0  0  0  0  0  0  0  0  0  # atno 17394 bound_to 11000
  140.2862  134.8277  157.3977 LP  0  0  0  0  0  0  0  0  0  0  0  0  # atno 17395 bound_to 11000

$$$$
