AV-unprocessed.smi:36|AV-procd|sdf|300|dock1
  -GOLD-   2262016103D 1   1.00000     0.00000
 Structure written by MMmdl.
 63 66  0  0  0  0  0  0  0  0  2 V2000
  145.3066  134.6204  162.1290 C   0  0  0  0  0  0  0  0  0  0  0  0
  146.6793  134.5333  161.4416 C   0  0  0  0  0  0  0  0  0  0  0  0
  147.3128  135.9323  161.3576 C   0  0  0  0  0  0  0  0  0  0  0  0
  147.6026  133.5932  162.2342 C   0  0  0  0  0  0  0  0  0  0  0  0
  146.4606  133.8459  159.6730 Si  0  0  0  0  0  0  0  0  0  0  0  0
  145.8304  132.0540  159.6992 C   0  0  0  0  0  0  0  0  0  0  0  0
  145.2654  134.9286  158.6650 C   0  0  0  0  0  0  0  0  0  0  0  0
  147.9734  133.8587  158.9146 O   0  0  0  0  0  0  0  0  0  0  0  0
  148.4101  132.8362  158.0436 C   0  0  0  0  0  0  0  0  0  0  0  0
  148.2464  133.2820  156.5836 C   0  0  1  0  0  0  0  0  0  0  0  0
  148.5036  134.6868  156.5431 O   0  0  0  0  0  0  0  0  0  0  0  0
  149.4865  134.9632  155.5981 C   0  0  1  0  0  0  0  0  0  0  0  0
  150.3092  136.1072  156.0883 N   0  0  0  0  0  0  0  0  0  0  0  0
  151.1727  136.1167  157.1230 C   0  0  0  0  0  0  0  0  0  0  0  0
  151.8087  137.2578  157.3806 N   0  0  0  0  0  0  0  0  0  0  0  0
  151.3036  138.0899  156.3922 C   0  0  0  0  0  0  0  0  0  0  0  0
  151.5411  139.4558  156.0757 C   0  0  0  0  0  0  0  0  0  0  0  0
  152.3956  140.2224  156.7692 N   0  5  0  0  0  0  0  0  0  0  0  0
  152.1720  140.4658  158.0856 C   0  0  0  0  0  0  0  0  0  0  0  0
  152.0064  139.6434  158.9892 O   0  0  0  0  0  0  0  0  0  0  0  0
  152.0576  141.9319  158.4085 C   0  0  0  0  0  0  0  0  0  0  0  0
  152.5491  142.4176  159.6420 C   0  0  0  0  0  0  0  0  0  0  0  0
  152.4726  143.7890  159.9538 C   0  0  0  0  0  0  0  0  0  0  0  0
  151.9115  144.6918  159.0315 C   0  0  0  0  0  0  0  0  0  0  0  0
  151.4320  144.2226  157.7943 C   0  0  0  0  0  0  0  0  0  0  0  0
  151.5086  142.8513  157.4815 C   0  0  0  0  0  0  0  0  0  0  0  0
  150.8732  139.9663  155.0098 N   0  0  0  0  0  0  0  0  0  0  0  0
  150.0248  139.2007  154.3141 C   0  0  0  0  0  0  0  0  0  0  0  0
  149.7013  137.9184  154.5052 N   0  0  0  0  0  0  0  0  0  0  0  0
  150.3728  137.3910  155.5704 C   0  0  0  0  0  0  0  0  0  0  0  0
  150.3235  133.6971  155.4547 C   0  0  0  0  0  0  0  0  0  0  0  0
  149.2627  132.6300  155.6262 C   0  0  2  0  0  0  0  0  0  0  0  0
  148.6486  132.3361  154.3868 O   0  0  0  0  0  0  0  0  0  0  0  0
  145.3958  135.0089  163.1440 H   0  0  0  0  0  0  0  0  0  0  0  0
  144.8311  133.6414  162.1925 H   0  0  0  0  0  0  0  0  0  0  0  0
  144.6305  135.2797  161.5842 H   0  0  0  0  0  0  0  0  0  0  0  0
  146.6749  136.6264  160.8100 H   0  0  0  0  0  0  0  0  0  0  0  0
  148.2768  135.9010  160.8485 H   0  0  0  0  0  0  0  0  0  0  0  0
  147.4779  136.3531  162.3501 H   0  0  0  0  0  0  0  0  0  0  0  0
  147.7708  133.9628  163.2463 H   0  0  0  0  0  0  0  0  0  0  0  0
  148.5761  133.4964  161.7526 H   0  0  0  0  0  0  0  0  0  0  0  0
  147.1760  132.5933  162.3174 H   0  0  0  0  0  0  0  0  0  0  0  0
  144.8615  131.9768  160.1917 H   0  0  0  0  0  0  0  0  0  0  0  0
  146.5180  131.3947  160.2282 H   0  0  0  0  0  0  0  0  0  0  0  0
  145.7144  131.6580  158.6903 H   0  0  0  0  0  0  0  0  0  0  0  0
  144.2716  134.9482  159.1115 H   0  0  0  0  0  0  0  0  0  0  0  0
  145.1535  134.5621  157.6448 H   0  0  0  0  0  0  0  0  0  0  0  0
  145.6118  135.9597  158.6020 H   0  0  0  0  0  0  0  0  0  0  0  0
  149.4574  132.6218  158.2575 H   0  0  0  0  0  0  0  0  0  0  0  0
  147.8536  131.9179  158.2287 H   0  0  0  0  0  0  0  0  0  0  0  0
  147.2211  133.0918  156.2622 H   0  0  0  0  0  0  0  0  0  0  0  0
  149.0365  135.2944  154.6611 H   0  0  0  0  0  0  0  0  0  0  0  0
  151.3429  135.2363  157.7251 H   0  0  0  0  0  0  0  0  0  0  0  0
  152.9840  141.7385  160.3608 H   0  0  0  0  0  0  0  0  0  0  0  0
  152.8457  144.1480  160.9015 H   0  0  0  0  0  0  0  0  0  0  0  0
  151.8531  145.7432  159.2706 H   0  0  0  0  0  0  0  0  0  0  0  0
  151.0073  144.9145  157.0823 H   0  0  0  0  0  0  0  0  0  0  0  0
  151.1438  142.5137  156.5220 H   0  0  0  0  0  0  0  0  0  0  0  0
  149.5325  139.6860  153.4848 H   0  0  0  0  0  0  0  0  0  0  0  0
  150.8508  133.6682  154.5005 H   0  0  0  0  0  0  0  0  0  0  0  0
  151.0505  133.6334  156.2647 H   0  0  0  0  0  0  0  0  0  0  0  0
  149.6825  131.7052  156.0214 H   0  0  0  0  0  0  0  0  0  0  0  0
  147.9007  131.7813  154.5471 H   0  0  0  0  0  0  0  0  0  0  0  0
  1  2  1  0  0  0  0
  1 34  1  0  0  0  0
  1 35  1  0  0  0  0
  1 36  1  0  0  0  0
  2  3  1  0  0  0  0
  2  4  1  0  0  0  0
  2  5  1  0  0  0  0
  3 37  1  0  0  0  0
  3 38  1  0  0  0  0
  3 39  1  0  0  0  0
  4 40  1  0  0  0  0
  4 41  1  0  0  0  0
  4 42  1  0  0  0  0
  5  6  1  0  0  0  0
  5  7  1  0  0  0  0
  5  8  1  0  0  0  0
  6 43  1  0  0  0  0
  6 44  1  0  0  0  0
  6 45  1  0  0  0  0
  7 46  1  0  0  0  0
  7 47  1  0  0  0  0
  7 48  1  0  0  0  0
  8  9  1  0  0  0  0
  9 10  1  0  0  0  0
  9 49  1  0  0  0  0
  9 50  1  0  0  0  0
 10 32  1  0  0  0  0
 10 11  1  0  0  0  0
 10 51  1  0  0  0  0
 11 12  1  0  0  0  0
 12 13  1  0  0  0  0
 12 31  1  0  0  0  0
 12 52  1  0  0  0  0
 13 30  1  0  0  0  0
 13 14  1  0  0  0  0
 14 15  2  0  0  0  0
 14 53  1  0  0  0  0
 15 16  1  0  0  0  0
 16 30  2  0  0  0  0
 16 17  1  0  0  0  0
 17 18  1  0  0  0  0
 17 27  2  0  0  0  0
 18 19  1  0  0  0  0
 19 20  2  0  0  0  0
 19 21  1  0  0  0  0
 21 26  1  0  0  0  0
 21 22  2  0  0  0  0
 22 23  1  0  0  0  0
 22 54  1  0  0  0  0
 23 24  2  0  0  0  0
 23 55  1  0  0  0  0
 24 25  1  0  0  0  0
 24 56  1  0  0  0  0
 25 26  2  0  0  0  0
 25 57  1  0  0  0  0
 26 58  1  0  0  0  0
 27 28  1  0  0  0  0
 28 29  2  0  0  0  0
 28 59  1  0  0  0  0
 29 30  1  0  0  0  0
 31 32  1  0  0  0  0
 31 60  1  0  0  0  0
 31 61  1  0  0  0  0
 32 33  1  0  0  0  0
 32 62  1  0  0  0  0
 33 63  1  0  0  0  0
M  CHG  1  18  -1
M  END
> <s_m_source_file>
AV-unprocessed.smi

> <i_m_source_file_index>
36

> <i_lp_mmshare_version>
43012

> <i_f3d_flags>
0

> <s_epik_input>
W0NIM11DKFtDSDNdKShbQ0gzXSlbU2ldKFtDSDNdKShbQ0gzXSlPW0NIMl1bQ0BASF0xT1tDQEhdKFtDSDJdW0NASF0xW09IXSluKFtjSF1uMiljKGMyMyluW2NIXW5jM1tOSF1DKD1PKWM0W2NIXVtjSF1bY0hdW2NIXVtjSF00

> <s_epik_cmdline>
J2VwaWtfcHl0aG9uJywgJy1waCcsICc3LjAnLCAnLXRuJywgJzgnLCAnLW1hJywgJzIwMCcsICctbWV0YWxfYmluZGluZycsICctaW1hZScsICc8aW5maWxlLm1hZT4nLCAnLW9tYWUnLCAnPG91dGZpbGUubWFlPic=

> <r_lp_tautomer_probability>
1

> <r_epik_Ionization_Penalty>
4.75685

> <r_epik_Ionization_Penalty_Charging>
3.55822

> <r_epik_Ionization_Penalty_Neutral>
1.19863

> <r_epik_State_Penalty>
3.564

> <r_epik_Charging_Adjusted_Penalty>
7.12222

> <i_epik_Tot_Q>
-1

> <i_epik_Tot_abs_Q>
1

> <r_epik_Metal_State_Penalty>
0.523258

> <b_epik_Metal_Only>
1

> <s_epik_Chemistry_Notes>
This compound contains an acetal/aminal-like group ( X-CH(R)-Y where X, Y are N, S, or O) that may be acid/base labile, releasing an aldehyde.

> <s_lp_Force_Field>
OPLS_2005

> <r_lp_Energy>
29.6254

> <b_lp_Chiralities_Consistent>
1

> <s_lp_Variant>
AV-unprocessed.smi:36-22

> <Gold.Version>
5.8.1

> <Gold.Id.Protein>
6NUR|6NUR_protein|mol2

> <Gold.PLP.Fitness>
54.8394

> <Gold.PLP.PLP>
-48.8124

> <Gold.PLP.part.hbond>
-2.0000

> <Gold.PLP.part.metal>
0.0000

> <Gold.PLP.part.buried>
-6.0964

> <Gold.PLP.part.nonpolar>
-40.5464

> <Gold.PLP.part.repulsive>
0.2586

> <Gold.PLP.ligand.clash>
0.0000

> <Gold.PLP.ligand.torsion>
3.2298

> <Gold.PLP.Chemscore.Hbond>
2.8000

> <Gold.PLP.Chemscore.CHOScore>
1.0000

> <Gold.PLP.Chemscore.Metal>
0.0000

> <Gold.Chemscore.Hbonds>
donor molecule, donor type, donor heavy atom, donor atom, acceptor molecule, acceptor atom, score
      P1  H  7989  7998       L1    27  0.85
      P1  H  7997  8008       L1    18  2.00
      L1  C    28    59       P1  7957  1.00

> <Gold.PLP.Chemscore.Internal.Correction>
1.0866

> <Gold.Rescore>
     Score         DG    S(hbond)    S(metal)    S(lipo)     H(rot)  DE(clash)    DE(int)     intcor
     11.07     -15.63       0.93        0.00     118.68       2.67       0.09       4.47       ----

> <Gold.Chemscore.Fitness>
11.0669

> <Gold.Chemscore.DG>
-15.6263

> <Gold.Chemscore.ZeroCoef>
-5.4800

> <Gold.Chemscore.Hbond>
0.9270

> <Gold.Chemscore.Metal>
0.0000

> <Gold.Chemscore.Lipo>
118.6834

> <Gold.Chemscore.Internal_Hbond>
0.0000

> <Gold.Chemscore.DEClash>
0.0868

> <Gold.Chemscore.DEInternal>
4.4727

> <Gold.Chemscore.Rot>
2.6702

> <Gold.Chemscore.Internal.Correction>
   9.000000E+99

> <Gold.Chemscore.Hbonds>
donor molecule, donor type, donor heavy atom, donor atom, acceptor molecule, acceptor atom, score
      P1  H  7989  7998       L1    27  0.15
      P1  H  7997  8008       L1    18  0.41

> <Gold.Chemscore.Hbond.Weighted>
-3.0961

> <Gold.Chemscore.Metal.Weighted>
-0.0000

> <Gold.Chemscore.Lipo.Weighted>
-13.8860

> <Gold.Chemscore.Internal_Hbond.Weighted>
0.0000

> <Gold.Chemscore.DEClash.Weighted>
0.0868

> <Gold.Chemscore.DEInternal.Weighted>
4.4727

> <Gold.Chemscore.Rot.Weighted>
6.8358

> <Gold.Chemscore.Internal.Correction.Weighted>
   9.000000E+99

> <Gold.Protein.RotatedTorsions>
[ 6907 6896 6895 6894 ] final  129.28 input  -60.11 | X-H torsion
[ 7974 7965 7964 7962 ] final -135.70 input  175.53 | X-H torsion
[ 8008 7997 7996 7995 ] final  -60.53 input   59.86 | X-H torsion
[ 10167 10162 10161 10158 ] final  -49.48 input  -65.29 | X-H torsion
[ 10718 10713 10712 10709 ] final -108.94 input   66.30 | X-H torsion
[ 10763 10752 10751 10750 ] final  113.75 input  -60.55 | X-H torsion
[ 11005 11000 10999 10996 ] final   23.11 input  -57.11 | X-H torsion

> <Gold.Protein.ActiveResidues>
 VAL166  LYS551  ARG553  GLY616  TRP617  ASP618  TYR619  PRO620  LYS621  CYS622 
 ASP623  PHE694  ASN695  SER759  ASP760  ASP761  ALA762  ILE779  LEU786  VAL792 
 PHE793  MET794  SER795  GLU796  ALA797  LYS798  CYS799  TRP800  GLU811  SER814 

> <Gold.Protein.RotatedAtoms>
  152.3639  133.6332  159.6035 H   0  0  0  0  0  0  0  0  0  0  0  0  # atno 6907 bound_to 6896
  150.7620  133.9379  159.3456 H   0  0  0  0  0  0  0  0  0  0  0  0  # atno 6908 bound_to 6896
  151.7213  135.0894  160.0336 H   0  0  0  0  0  0  0  0  0  0  0  0  # atno 6909 bound_to 6896
  144.8991  140.6747  143.5096 H   0  0  0  0  0  0  0  0  0  0  0  0  # atno 7974 bound_to 7965
  154.4403  140.1037  156.6289 H   0  0  0  0  0  0  0  0  0  0  0  0  # atno 8008 bound_to 7997
  155.5627  140.3488  155.4476 H   0  0  0  0  0  0  0  0  0  0  0  0  # atno 8009 bound_to 7997
  156.0448  140.1290  157.0105 H   0  0  0  0  0  0  0  0  0  0  0  0  # atno 8010 bound_to 7997
  140.6683  143.2696  151.4222 H   0  0  0  0  0  0  0  0  0  0  0  0  # atno 10167 bound_to 10162
  156.0511  130.5738  150.8031 H   0  0  0  0  0  0  0  0  0  0  0  0  # atno 10718 bound_to 10713
  153.4971  135.3646  155.2521 H   0  0  0  0  0  0  0  0  0  0  0  0  # atno 10763 bound_to 10752
  154.8749  135.3991  154.3521 H   0  0  0  0  0  0  0  0  0  0  0  0  # atno 10764 bound_to 10752
  153.4151  135.7079  153.6398 H   0  0  0  0  0  0  0  0  0  0  0  0  # atno 10765 bound_to 10752
  140.3732  134.2000  155.7666 H   0  0  0  0  0  0  0  0  0  0  0  0  # atno 11005 bound_to 11000
  145.3647  139.1673  143.4364 LP  0  0  0  0  0  0  0  0  0  0  0  0  # atno 17320 bound_to 7965
  146.3098  140.3713  142.8674 LP  0  0  0  0  0  0  0  0  0  0  0  0  # atno 17321 bound_to 7965
  139.5940  144.1437  152.2122 LP  0  0  0  0  0  0  0  0  0  0  0  0  # atno 17342 bound_to 10162
  140.0800  144.5708  150.7129 LP  0  0  0  0  0  0  0  0  0  0  0  0  # atno 17343 bound_to 10162
  157.5438  131.0941  150.9790 LP  0  0  0  0  0  0  0  0  0  0  0  0  # atno 17370 bound_to 10713
  157.0066  130.5620  149.5316 LP  0  0  0  0  0  0  0  0  0  0  0  0  # atno 17371 bound_to 10713
  141.1948  133.8120  157.0743 LP  0  0  0  0  0  0  0  0  0  0  0  0  # atno 17394 bound_to 11000
  140.0536  134.9792  157.1180 LP  0  0  0  0  0  0  0  0  0  0  0  0  # atno 17395 bound_to 11000

$$$$
