AV-unprocessed.smi:1390|AV-procd|sdf|5656|dock2
  -GOLD-   22720 5283D 1   1.00000     0.00000
 Structure written by MMmdl.
 44 45  0  0  0  0  0  0  0  0  1 V2000
  151.9460  145.0441  159.2336 C   0  0  0  0  0  0  0  0  0  0  0  0
  152.3048  143.6333  158.7562 C   0  0  2  0  0  0  0  0  0  0  0  0
  151.2845  143.0888  157.7377 C   0  0  0  0  0  0  0  0  0  0  0  0
  151.6193  141.7162  157.3816 N   0  0  0  0  0  0  0  0  0  0  0  0
  150.8075  141.1871  156.3695 C   0  0  0  0  0  0  0  0  0  0  0  0
  151.2168  140.0772  155.5946 C   0  0  0  0  0  0  0  0  0  0  0  0
  150.3555  139.6017  154.5876 C   0  0  0  0  0  0  0  0  0  0  0  0
  149.1196  140.2476  154.3821 C   0  0  0  0  0  0  0  0  0  0  0  0
  148.1686  139.7490  153.3050 C   0  0  0  0  0  0  0  0  0  0  0  0
  147.8362  138.3356  153.4360 N   0  0  0  0  0  0  0  0  0  0  0  0
  147.2595  137.7752  154.5094 C   0  0  0  0  0  0  0  0  0  0  0  0
  146.9774  138.4001  155.5313 O   0  0  0  0  0  0  0  0  0  0  0  0
  146.9696  136.2768  154.4257 C   0  0  0  0  0  0  0  0  0  0  0  0
  146.0680  136.0339  153.3564 O   0  0  0  0  0  0  0  0  0  0  0  0
  146.2546  134.7618  152.7570 C   0  0  0  0  0  0  0  0  0  0  0  0
  145.3929  134.6625  151.4923 C   0  0  0  0  0  0  0  0  0  0  0  0
  144.1078  134.6046  151.8398 F   0  0  0  0  0  0  0  0  0  0  0  0
  145.5799  135.7330  150.7209 F   0  0  0  0  0  0  0  0  0  0  0  0
  145.7020  133.5595  150.8107 F   0  0  0  0  0  0  0  0  0  0  0  0
  148.7999  141.3416  155.2179 C   0  0  0  0  0  0  0  0  0  0  0  0
  149.6204  141.8040  156.1847 N   0  0  0  0  0  0  0  0  0  0  0  0
  151.7364  140.8465  158.5445 C   0  0  0  0  0  0  0  0  0  0  0  0
  152.7362  141.4438  159.5489 C   0  0  0  0  0  0  0  0  0  0  0  0
  152.3360  142.7684  159.8898 O   0  0  0  0  0  0  0  0  0  0  0  0
  151.9283  145.7471  158.4003 H   0  0  0  0  0  0  0  0  0  0  0  0
  152.6752  145.4069  159.9584 H   0  0  0  0  0  0  0  0  0  0  0  0
  150.9650  145.0627  159.7090 H   0  0  0  0  0  0  0  0  0  0  0  0
  153.2971  143.6620  158.3024 H   0  0  0  0  0  0  0  0  0  0  0  0
  150.2799  143.1260  158.1616 H   0  0  0  0  0  0  0  0  0  0  0  0
  151.2802  143.7096  156.8407 H   0  0  0  0  0  0  0  0  0  0  0  0
  152.1703  139.5984  155.7638 H   0  0  0  0  0  0  0  0  0  0  0  0
  150.6437  138.7553  153.9816 H   0  0  0  0  0  0  0  0  0  0  0  0
  147.2447  140.3280  153.3376 H   0  0  0  0  0  0  0  0  0  0  0  0
  148.6311  139.9383  152.3348 H   0  0  0  0  0  0  0  0  0  0  0  0
  148.0386  137.7418  152.6445 H   0  0  0  0  0  0  0  0  0  0  0  0
  147.9070  135.7423  154.2657 H   0  0  0  0  0  0  0  0  0  0  0  0
  146.5420  135.9314  155.3685 H   0  0  0  0  0  0  0  0  0  0  0  0
  147.3059  134.6199  152.5014 H   0  0  0  0  0  0  0  0  0  0  0  0
  145.9789  133.9736  153.4597 H   0  0  0  0  0  0  0  0  0  0  0  0
  147.8605  141.8648  155.1162 H   0  0  0  0  0  0  0  0  0  0  0  0
  150.7621  140.7294  159.0203 H   0  0  0  0  0  0  0  0  0  0  0  0
  152.0656  139.8546  158.2320 H   0  0  0  0  0  0  0  0  0  0  0  0
  152.7674  140.8373  160.4541 H   0  0  0  0  0  0  0  0  0  0  0  0
  153.7460  141.4527  159.1358 H   0  0  0  0  0  0  0  0  0  0  0  0
  1  2  1  0  0  0  0
  1 25  1  0  0  0  0
  1 26  1  0  0  0  0
  1 27  1  0  0  0  0
  2 24  1  0  0  0  0
  2  3  1  0  0  0  0
  2 28  1  0  0  0  0
  3  4  1  0  0  0  0
  3 29  1  0  0  0  0
  3 30  1  0  0  0  0
  4  5  1  0  0  0  0
  4 22  1  0  0  0  0
  5 21  1  0  0  0  0
  5  6  2  0  0  0  0
  6  7  1  0  0  0  0
  6 31  1  0  0  0  0
  7  8  2  0  0  0  0
  7 32  1  0  0  0  0
  8  9  1  0  0  0  0
  8 20  1  0  0  0  0
  9 10  1  0  0  0  0
  9 33  1  0  0  0  0
  9 34  1  0  0  0  0
 10 11  1  0  0  0  0
 10 35  1  0  0  0  0
 11 12  2  0  0  0  0
 11 13  1  0  0  0  0
 13 14  1  0  0  0  0
 13 36  1  0  0  0  0
 13 37  1  0  0  0  0
 14 15  1  0  0  0  0
 15 16  1  0  0  0  0
 15 38  1  0  0  0  0
 15 39  1  0  0  0  0
 16 17  1  0  0  0  0
 16 18  1  0  0  0  0
 16 19  1  0  0  0  0
 20 21  2  0  0  0  0
 20 40  1  0  0  0  0
 22 23  1  0  0  0  0
 22 41  1  0  0  0  0
 22 42  1  0  0  0  0
 23 24  1  0  0  0  0
 23 43  1  0  0  0  0
 23 44  1  0  0  0  0
M  END
> <s_m_source_file>
AV-unprocessed.smi

> <i_m_source_file_index>
1390

> <i_lp_mmshare_version>
43012

> <i_f3d_flags>
0

> <s_epik_input>
W0NIM11bQ0BASF0xW0NIMl1OKFtDSDJdW0NIMl1PMSljMltjSF1bY0hdYyhbY0hdbjIpW0NIMl1bTkhdQyg9TylbQ0gyXU9bQ0gyXUMoRikoRilG

> <s_epik_cmdline>
J2VwaWtfcHl0aG9uJywgJy1waCcsICc3LjAnLCAnLXRuJywgJzgnLCAnLW1hJywgJzIwMCcsICctbWV0YWxfYmluZGluZycsICctaW1hZScsICc8aW5maWxlLm1hZT4nLCAnLW9tYWUnLCAnPG91dGZpbGUubWFlPic=

> <r_lp_tautomer_probability>
1

> <r_epik_Ionization_Penalty>
0.00481831

> <r_epik_Ionization_Penalty_Charging>
0

> <r_epik_Ionization_Penalty_Neutral>
0.00481831

> <r_epik_State_Penalty>
0.00349373

> <r_epik_Charging_Adjusted_Penalty>
0.00349373

> <i_epik_Tot_Q>
0

> <i_epik_Tot_abs_Q>
0

> <r_epik_Metal_State_Penalty>
-0

> <b_epik_Metal_Only>
0

> <s_lp_Force_Field>
OPLS_2005

> <r_lp_Energy>
18.3567

> <b_lp_Chiralities_Consistent>
1

> <s_lp_Variant>
AV-unprocessed.smi:1390-1

> <Gold.Version>
5.8.1

> <Gold.Id.Protein>
6NUR|6NUR_protein|mol2

> <Gold.PLP.Fitness>
44.3365

> <Gold.PLP.PLP>
-42.4621

> <Gold.PLP.part.hbond>
-1.0000

> <Gold.PLP.part.metal>
0.0000

> <Gold.PLP.part.buried>
-1.4875

> <Gold.PLP.part.nonpolar>
-40.4604

> <Gold.PLP.part.repulsive>
0.7887

> <Gold.PLP.ligand.clash>
0.0000

> <Gold.PLP.ligand.torsion>
0.6949

> <Gold.PLP.Chemscore.Hbond>
1.0000

> <Gold.PLP.Chemscore.CHOScore>
0.0000

> <Gold.PLP.Chemscore.Metal>
0.0000

> <Gold.Chemscore.Hbonds>
donor molecule, donor type, donor heavy atom, donor atom, acceptor molecule, acceptor atom, score
      L1  H    10    35       P1  7948  1.00

> <Gold.PLP.Chemscore.Internal.Correction>
0.2642

> <Gold.Rescore>
     Score         DG    S(hbond)    S(metal)    S(lipo)     H(rot)  DE(clash)    DE(int)     intcor
     11.20     -13.36       0.99        0.00      95.10       2.57       1.55       0.61       ----

> <Gold.Chemscore.Fitness>
11.2040

> <Gold.Chemscore.DG>
-13.3597

> <Gold.Chemscore.ZeroCoef>
-5.4800

> <Gold.Chemscore.Hbond>
0.9943

> <Gold.Chemscore.Metal>
0.0000

> <Gold.Chemscore.Lipo>
95.1015

> <Gold.Chemscore.Internal_Hbond>
0.0000

> <Gold.Chemscore.DEClash>
1.5458

> <Gold.Chemscore.DEInternal>
0.6100

> <Gold.Chemscore.Rot>
2.5657

> <Gold.Chemscore.Internal.Correction>
   9.000000E+99

> <Gold.Chemscore.Hbonds>
donor molecule, donor type, donor heavy atom, donor atom, acceptor molecule, acceptor atom, score
      L1  H    10    35       P1  7948  0.95

> <Gold.Chemscore.Hbond.Weighted>
-3.3210

> <Gold.Chemscore.Metal.Weighted>
-0.0000

> <Gold.Chemscore.Lipo.Weighted>
-11.1269

> <Gold.Chemscore.Internal_Hbond.Weighted>
0.0000

> <Gold.Chemscore.DEClash.Weighted>
1.5458

> <Gold.Chemscore.DEInternal.Weighted>
0.6100

> <Gold.Chemscore.Rot.Weighted>
6.5682

> <Gold.Chemscore.Internal.Correction.Weighted>
   9.000000E+99

> <Gold.Protein.RotatedTorsions>
[ 6907 6896 6895 6894 ] final  143.47 input  -60.11 | X-H torsion
[ 7974 7965 7964 7962 ] final  101.47 input  175.53 | X-H torsion
[ 8008 7997 7996 7995 ] final   -7.35 input   59.86 | X-H torsion
[ 10167 10162 10161 10158 ] final -130.71 input  -65.29 | X-H torsion
[ 10718 10713 10712 10709 ] final -130.52 input   66.30 | X-H torsion
[ 10763 10752 10751 10750 ] final  161.69 input  -60.55 | X-H torsion
[ 11005 11000 10999 10996 ] final -139.06 input  -57.11 | X-H torsion

> <Gold.Protein.ActiveResidues>
 VAL166  LYS551  ARG553  GLY616  TRP617  ASP618  TYR619  PRO620  LYS621  CYS622 
 ASP623  PHE694  ASN695  SER759  ASP760  ASP761  ALA762  ILE779  LEU786  VAL792 
 PHE793  MET794  SER795  GLU796  ALA797  LYS798  CYS799  TRP800  GLU811  SER814 

> <Gold.Protein.RotatedAtoms>
  152.2058  133.4875  159.5083 H   0  0  0  0  0  0  0  0  0  0  0  0  # atno 6907 bound_to 6896
  150.6979  134.1531  159.4157 H   0  0  0  0  0  0  0  0  0  0  0  0  # atno 6908 bound_to 6896
  151.9449  135.0196  160.0589 H   0  0  0  0  0  0  0  0  0  0  0  0  # atno 6909 bound_to 6896
  145.3719  139.2396  143.3450 H   0  0  0  0  0  0  0  0  0  0  0  0  # atno 7974 bound_to 7965
  154.5847  140.2409  155.8005 H   0  0  0  0  0  0  0  0  0  0  0  0  # atno 8008 bound_to 7997
  156.2204  140.2999  155.9895 H   0  0  0  0  0  0  0  0  0  0  0  0  # atno 8009 bound_to 7997
  155.2479  140.0409  157.2973 H   0  0  0  0  0  0  0  0  0  0  0  0  # atno 8010 bound_to 7997
  139.9264  143.6322  152.2541 H   0  0  0  0  0  0  0  0  0  0  0  0  # atno 10167 bound_to 10162
  156.2153  130.6944  151.0695 H   0  0  0  0  0  0  0  0  0  0  0  0  # atno 10718 bound_to 10713
  154.2668  135.2767  155.2755 H   0  0  0  0  0  0  0  0  0  0  0  0  # atno 10763 bound_to 10752
  154.5336  135.5723  153.6783 H   0  0  0  0  0  0  0  0  0  0  0  0  # atno 10764 bound_to 10752
  152.9952  135.6234  154.2821 H   0  0  0  0  0  0  0  0  0  0  0  0  # atno 10765 bound_to 10752
  140.8556  134.2232  157.4736 H   0  0  0  0  0  0  0  0  0  0  0  0  # atno 11005 bound_to 11000
  146.2881  140.4372  142.8750 LP  0  0  0  0  0  0  0  0  0  0  0  0  # atno 17320 bound_to 7965
  144.8570  140.7085  143.6132 LP  0  0  0  0  0  0  0  0  0  0  0  0  # atno 17321 bound_to 7965
  139.6818  144.7655  151.1595 LP  0  0  0  0  0  0  0  0  0  0  0  0  # atno 17342 bound_to 10162
  140.7649  143.5714  150.8992 LP  0  0  0  0  0  0  0  0  0  0  0  0  # atno 17343 bound_to 10162
  157.7060  131.0756  150.6666 LP  0  0  0  0  0  0  0  0  0  0  0  0  # atno 17370 bound_to 10713
  156.6727  130.4544  149.5652 LP  0  0  0  0  0  0  0  0  0  0  0  0  # atno 17371 bound_to 10713
  139.8705  134.9705  156.4703 LP  0  0  0  0  0  0  0  0  0  0  0  0  # atno 17394 bound_to 11000
  140.8741  133.7967  155.9395 LP  0  0  0  0  0  0  0  0  0  0  0  0  # atno 17395 bound_to 11000

$$$$
