AV-unprocessed.smi:3176|AV-procd|sdf|12125|dock3
  -GOLD-   2272017563D 1   1.00000     0.00000
 Structure written by MMmdl.
 32 33  0  0  0  0  0  0  0  0  1 V2000
  153.6392  138.7965  158.8164 O   0  0  0  0  0  0  0  0  0  0  0  0
  152.5719  139.2527  159.2269 C   0  0  0  0  0  0  0  0  0  0  0  0
  152.5033  140.2780  160.0903 N   0  0  0  0  0  0  0  0  0  0  0  0
  153.6461  140.9219  160.7301 C   0  0  0  0  0  0  0  0  0  0  0  0
  153.2570  142.2177  161.4706 C   0  0  0  0  0  0  0  0  0  0  0  0
  152.5360  143.2250  160.5897 C   0  0  0  0  0  0  0  0  0  0  0  0
  152.0321  144.4262  161.1337 C   0  0  0  0  0  0  0  0  0  0  0  0
  151.3468  145.3136  160.2824 C   0  0  0  0  0  0  0  0  0  0  0  0
  151.1965  144.9702  158.9252 C   0  0  0  0  0  0  0  0  0  0  0  0
  151.7402  143.7491  158.4786 C   0  0  0  0  0  0  0  0  0  0  0  0
  152.3966  142.8894  159.2874 N   0  0  0  0  0  0  0  0  0  0  0  0
  151.2368  138.6514  158.7567 C   0  0  1  0  0  0  0  0  0  0  0  0
  150.3185  139.6541  158.0331 C   0  0  0  0  0  0  0  0  0  0  0  0
  150.4711  139.2798  156.5740 C   0  0  0  0  0  0  0  0  0  0  0  0
  150.6651  137.7741  156.6672 C   0  0  0  0  0  0  0  0  0  0  0  0
  151.4924  137.6088  157.8097 O   0  0  0  0  0  0  0  0  0  0  0  0
  151.5856  140.5962  160.3678 H   0  0  0  0  0  0  0  0  0  0  0  0
  154.1455  140.2280  161.4077 H   0  0  0  0  0  0  0  0  0  0  0  0
  154.3649  141.1573  159.9452 H   0  0  0  0  0  0  0  0  0  0  0  0
  152.6192  141.9748  162.3214 H   0  0  0  0  0  0  0  0  0  0  0  0
  154.1493  142.6837  161.8902 H   0  0  0  0  0  0  0  0  0  0  0  0
  152.1570  144.6573  162.1814 H   0  0  0  0  0  0  0  0  0  0  0  0
  150.9419  146.2391  160.6645 H   0  0  0  0  0  0  0  0  0  0  0  0
  150.6771  145.6263  158.2428 H   0  0  0  0  0  0  0  0  0  0  0  0
  151.6437  143.4541  157.4442 H   0  0  0  0  0  0  0  0  0  0  0  0
  150.7234  138.2332  159.6231 H   0  0  0  0  0  0  0  0  0  0  0  0
  149.2863  139.4973  158.3489 H   0  0  0  0  0  0  0  0  0  0  0  0
  150.5560  140.7033  158.2126 H   0  0  0  0  0  0  0  0  0  0  0  0
  149.6123  139.5636  155.9656 H   0  0  0  0  0  0  0  0  0  0  0  0
  151.3611  139.7494  156.1540 H   0  0  0  0  0  0  0  0  0  0  0  0
  149.7116  137.2720  156.8367 H   0  0  0  0  0  0  0  0  0  0  0  0
  151.1252  137.3508  155.7745 H   0  0  0  0  0  0  0  0  0  0  0  0
  1  2  2  0  0  0  0
  2  3  1  0  0  0  0
  2 12  1  0  0  0  0
  3  4  1  0  0  0  0
  3 17  1  0  0  0  0
  4  5  1  0  0  0  0
  4 18  1  0  0  0  0
  4 19  1  0  0  0  0
  5  6  1  0  0  0  0
  5 20  1  0  0  0  0
  5 21  1  0  0  0  0
  6 11  1  0  0  0  0
  6  7  2  0  0  0  0
  7  8  1  0  0  0  0
  7 22  1  0  0  0  0
  8  9  2  0  0  0  0
  8 23  1  0  0  0  0
  9 10  1  0  0  0  0
  9 24  1  0  0  0  0
 10 11  2  0  0  0  0
 10 25  1  0  0  0  0
 12 16  1  0  0  0  0
 12 13  1  0  0  0  0
 12 26  1  0  0  0  0
 13 14  1  0  0  0  0
 13 27  1  0  0  0  0
 13 28  1  0  0  0  0
 14 15  1  0  0  0  0
 14 29  1  0  0  0  0
 14 30  1  0  0  0  0
 15 16  1  0  0  0  0
 15 31  1  0  0  0  0
 15 32  1  0  0  0  0
M  END
> <s_m_source_file>
AV-unprocessed.smi

> <i_m_source_file_index>
3176

> <i_lp_mmshare_version>
43012

> <i_f3d_flags>
0

> <s_epik_input>
TzFbQ0gyXVtDSDJdW0NIMl1bQ0BIXTFDKD1PKVtOSF1bQ0gyXVtDSDJdYzJbY0hdW2NIXVtjSF1bY0hdbjI=

> <s_epik_cmdline>
J2VwaWtfcHl0aG9uJywgJy1waCcsICc3LjAnLCAnLXRuJywgJzgnLCAnLW1hJywgJzIwMCcsICctbWV0YWxfYmluZGluZycsICctaW1hZScsICc8aW5maWxlLm1hZT4nLCAnLW9tYWUnLCAnPG91dGZpbGUubWFlPic=

> <r_epik_Ionization_Penalty>
0.0282744

> <r_epik_Ionization_Penalty_Charging>
0

> <r_epik_Ionization_Penalty_Neutral>
0.0282744

> <r_epik_State_Penalty>
0.0231919

> <r_epik_Charging_Adjusted_Penalty>
0.0231919

> <i_epik_Tot_Q>
0

> <i_epik_Tot_abs_Q>
0

> <r_epik_Metal_State_Penalty>
0.02213

> <b_epik_Metal_Only>
0

> <s_lp_Force_Field>
OPLS_2005

> <r_lp_Energy>
16.341

> <b_lp_Chiralities_Consistent>
1

> <s_lp_Variant>
AV-unprocessed.smi:3176-2

> <Gold.Version>
5.8.1

> <Gold.Id.Protein>
6NUR|6NUR_protein|mol2

> <Gold.PLP.Fitness>
43.3759

> <Gold.PLP.PLP>
-40.5111

> <Gold.PLP.part.hbond>
-1.0000

> <Gold.PLP.part.metal>
0.0000

> <Gold.PLP.part.buried>
-4.7431

> <Gold.PLP.part.nonpolar>
-34.7261

> <Gold.PLP.part.repulsive>
0.1222

> <Gold.PLP.ligand.clash>
0.0000

> <Gold.PLP.ligand.torsion>
0.0743

> <Gold.PLP.Chemscore.Hbond>
1.0000

> <Gold.PLP.Chemscore.CHOScore>
0.0000

> <Gold.PLP.Chemscore.Metal>
0.0000

> <Gold.PLP.Chemscore.Internal.Correction>
0.0134

> <Gold.Rescore>
     Score         DG    S(hbond)    S(metal)    S(lipo)     H(rot)  DE(clash)    DE(int)     intcor
     15.73     -17.40       0.90        0.00     109.30       1.52       0.11       1.56       ----

> <Gold.Chemscore.Fitness>
15.7344

> <Gold.Chemscore.DG>
-17.3994

> <Gold.Chemscore.ZeroCoef>
-5.4800

> <Gold.Chemscore.Hbond>
0.9018

> <Gold.Chemscore.Metal>
0.0000

> <Gold.Chemscore.Lipo>
109.2986

> <Gold.Chemscore.Internal_Hbond>
0.0000

> <Gold.Chemscore.DEClash>
0.1058

> <Gold.Chemscore.DEInternal>
1.5592

> <Gold.Chemscore.Rot>
1.5159

> <Gold.Chemscore.Internal.Correction>
   9.000000E+99

> <Gold.Chemscore.Hbonds>
donor molecule, donor type, donor heavy atom, donor atom, acceptor molecule, acceptor atom, score
      P1  H  7997  8010       L1     1  0.03

> <Gold.Chemscore.Hbond.Weighted>
-3.0121

> <Gold.Chemscore.Metal.Weighted>
-0.0000

> <Gold.Chemscore.Lipo.Weighted>
-12.7879

> <Gold.Chemscore.Internal_Hbond.Weighted>
0.0000

> <Gold.Chemscore.DEClash.Weighted>
0.1058

> <Gold.Chemscore.DEInternal.Weighted>
1.5592

> <Gold.Chemscore.Rot.Weighted>
3.8807

> <Gold.Chemscore.Internal.Correction.Weighted>
   9.000000E+99

> <Gold.Protein.RotatedTorsions>
[ 6907 6896 6895 6894 ] final -173.06 input  -60.11 | X-H torsion
[ 7974 7965 7964 7962 ] final -136.54 input  175.53 | X-H torsion
[ 8008 7997 7996 7995 ] final   -6.81 input   59.86 | X-H torsion
[ 10167 10162 10161 10158 ] final -162.04 input  -65.29 | X-H torsion
[ 10718 10713 10712 10709 ] final   77.90 input   66.30 | X-H torsion
[ 10763 10752 10751 10750 ] final   16.36 input  -60.55 | X-H torsion
[ 11005 11000 10999 10996 ] final  167.45 input  -57.11 | X-H torsion

> <Gold.Protein.ActiveResidues>
 VAL166  LYS551  ARG553  GLY616  TRP617  ASP618  TYR619  PRO620  LYS621  CYS622 
 ASP623  PHE694  ASN695  SER759  ASP760  ASP761  ALA762  ILE779  LEU786  VAL792 
 PHE793  MET794  SER795  GLU796  ALA797  LYS798  CYS799  TRP800  GLU811  SER814 

> <Gold.Protein.RotatedAtoms>
  151.5500  133.3419  159.2951 H   0  0  0  0  0  0  0  0  0  0  0  0  # atno 6907 bound_to 6896
  150.8484  134.7803  159.7000 H   0  0  0  0  0  0  0  0  0  0  0  0  # atno 6908 bound_to 6896
  152.4536  134.5348  159.9873 H   0  0  0  0  0  0  0  0  0  0  0  0  # atno 6909 bound_to 6896
  144.8918  140.6652  143.5140 H   0  0  0  0  0  0  0  0  0  0  0  0  # atno 7974 bound_to 7965
  154.5900  140.2423  155.7934 H   0  0  0  0  0  0  0  0  0  0  0  0  # atno 8008 bound_to 7997
  156.2240  140.2988  155.9977 H   0  0  0  0  0  0  0  0  0  0  0  0  # atno 8009 bound_to 7997
  155.2390  140.0406  157.2963 H   0  0  0  0  0  0  0  0  0  0  0  0  # atno 8010 bound_to 7997
  139.6421  144.0240  152.2100 H   0  0  0  0  0  0  0  0  0  0  0  0  # atno 10167 bound_to 10162
  157.6726  130.9843  150.1709 H   0  0  0  0  0  0  0  0  0  0  0  0  # atno 10718 bound_to 10713
  153.1438  135.6765  153.8986 H   0  0  0  0  0  0  0  0  0  0  0  0  # atno 10763 bound_to 10752
  153.8434  135.3102  155.3429 H   0  0  0  0  0  0  0  0  0  0  0  0  # atno 10764 bound_to 10752
  154.7809  135.4889  153.9927 H   0  0  0  0  0  0  0  0  0  0  0  0  # atno 10765 bound_to 10752
  140.2769  134.7782  157.3724 H   0  0  0  0  0  0  0  0  0  0  0  0  # atno 11005 bound_to 11000
  145.3770  139.1645  143.4301 LP  0  0  0  0  0  0  0  0  0  0  0  0  # atno 17320 bound_to 7965
  146.3058  140.3847  142.8688 LP  0  0  0  0  0  0  0  0  0  0  0  0  # atno 17321 bound_to 7965
  139.9932  144.6347  150.7796 LP  0  0  0  0  0  0  0  0  0  0  0  0  # atno 17342 bound_to 10162
  140.7496  143.2942  151.3250 LP  0  0  0  0  0  0  0  0  0  0  0  0  # atno 17343 bound_to 10162
  156.2463  130.3696  149.8281 LP  0  0  0  0  0  0  0  0  0  0  0  0  # atno 17370 bound_to 10713
  156.6067  130.8569  151.3444 LP  0  0  0  0  0  0  0  0  0  0  0  0  # atno 17371 bound_to 10713
  140.1320  134.5083  155.8098 LP  0  0  0  0  0  0  0  0  0  0  0  0  # atno 17394 bound_to 11000
  141.2169  133.6793  156.7056 LP  0  0  0  0  0  0  0  0  0  0  0  0  # atno 17395 bound_to 11000

$$$$
