AV-unprocessed.smi:218|AV-procd|sdf|1674|dock7
  -GOLD-   2262020 93D 1   1.00000     0.00000
 Structure written by MMmdl.
 54 57  0  0  0  0  0  0  0  0  1 V2000
  153.1400  142.0869  160.9091 C   0  0  0  0  0  0  0  0  0  0  0  0
  152.5881  142.7552  159.6442 C   0  0  0  0  0  0  0  0  0  0  0  0
  152.3237  144.2529  159.8770 C   0  0  0  0  0  0  0  0  0  0  0  0
  151.3710  142.0817  159.3159 O   0  0  0  0  0  0  0  0  0  0  0  0
  151.3444  141.1557  158.2906 C   0  0  0  0  0  0  0  0  0  0  0  0
  150.5888  141.4555  157.1385 C   0  0  0  0  0  0  0  0  0  0  0  0
  150.5473  140.5172  156.0864 C   0  0  0  0  0  0  0  0  0  0  0  0
  149.7471  140.7965  154.8261 C   0  0  0  0  0  0  0  0  0  0  0  0
  148.3107  140.9399  155.0364 N   0  0  0  0  0  0  0  0  0  0  0  0
  147.5352  139.8561  155.2625 C   0  0  0  0  0  0  0  0  0  0  0  0
  147.1062  139.5473  156.5144 N   0  0  0  0  0  0  0  0  0  0  0  0
  146.3377  138.4721  156.7111 C   0  0  0  0  0  0  0  0  0  0  0  0
  145.8881  137.5936  155.8129 N   0  0  0  0  0  0  0  0  0  0  0  0
  146.3111  137.9011  154.5526 C   0  0  0  0  0  0  0  0  0  0  0  0
  147.1295  139.0098  154.1982 C   0  0  0  0  0  0  0  0  0  0  0  0
  147.3548  139.0109  152.8279 N   0  0  0  0  0  0  0  0  0  0  0  0
  146.7062  137.9610  152.4012 C   0  0  0  0  0  0  0  0  0  0  0  0
  146.0564  137.2313  153.3722 N   0  0  0  0  0  0  0  0  0  0  0  0
  145.2528  135.9815  153.1865 C   0  0  2  0  0  0  0  0  0  0  0  0
  146.0635  135.0135  152.5985 O   0  0  0  0  0  0  0  0  0  0  0  0
  145.2727  134.2155  151.7256 C   0  0  2  0  0  0  0  0  0  0  0  0
  146.1548  133.4456  150.7272 C   0  0  0  0  0  0  0  0  0  0  0  0
  147.0648  132.6210  151.4229 O   0  0  0  0  0  0  0  0  0  0  0  0
  144.3003  135.2316  151.1077 C   0  0  2  0  0  0  0  0  0  0  0  0
  144.8851  135.8866  149.9951 O   0  0  0  0  0  0  0  0  0  0  0  0
  144.0242  136.1799  152.2731 C   0  0  2  0  0  0  0  0  0  0  0  0
  143.7603  137.5149  151.8709 O   0  0  0  0  0  0  0  0  0  0  0  0
  151.2617  139.3114  156.2300 C   0  0  0  0  0  0  0  0  0  0  0  0
  151.9898  139.1016  157.4167 C   0  0  0  0  0  0  0  0  0  0  0  0
  152.0326  139.9950  158.4278 N   0  0  0  0  0  0  0  0  0  0  0  0
  144.9786  135.6775  154.1977 H   0  0  0  0  0  0  0  0  0  0  0  0
  144.6920  133.5158  152.3302 H   0  0  0  0  0  0  0  0  0  0  0  0
  143.3844  134.7501  150.7639 H   0  0  0  0  0  0  0  0  0  0  0  0
  143.1583  135.8171  152.8284 H   0  0  0  0  0  0  0  0  0  0  0  0
  154.0751  142.5517  161.2235 H   0  0  0  0  0  0  0  0  0  0  0  0
  153.3381  141.0289  160.7357 H   0  0  0  0  0  0  0  0  0  0  0  0
  152.4335  142.1621  161.7364 H   0  0  0  0  0  0  0  0  0  0  0  0
  153.3352  142.6259  158.8596 H   0  0  0  0  0  0  0  0  0  0  0  0
  153.2398  144.7707  160.1624 H   0  0  0  0  0  0  0  0  0  0  0  0
  151.5942  144.4039  160.6730 H   0  0  0  0  0  0  0  0  0  0  0  0
  151.9398  144.7406  158.9814 H   0  0  0  0  0  0  0  0  0  0  0  0
  150.0522  142.3901  157.0655 H   0  0  0  0  0  0  0  0  0  0  0  0
  150.1334  141.6865  154.3276 H   0  0  0  0  0  0  0  0  0  0  0  0
  149.9049  139.9686  154.1347 H   0  0  0  0  0  0  0  0  0  0  0  0
  147.9303  141.8580  154.8567 H   0  0  0  0  0  0  0  0  0  0  0  0
  146.0398  138.2896  157.7330 H   0  0  0  0  0  0  0  0  0  0  0  0
  146.6897  137.6837  151.3572 H   0  0  0  0  0  0  0  0  0  0  0  0
  145.5389  132.7967  150.1040 H   0  0  0  0  0  0  0  0  0  0  0  0
  146.6909  134.1240  150.0626 H   0  0  0  0  0  0  0  0  0  0  0  0
  147.4654  132.0309  150.8030 H   0  0  0  0  0  0  0  0  0  0  0  0
  144.7396  136.8161  150.0869 H   0  0  0  0  0  0  0  0  0  0  0  0
  143.9702  137.5987  150.9533 H   0  0  0  0  0  0  0  0  0  0  0  0
  151.2590  138.5661  155.4483 H   0  0  0  0  0  0  0  0  0  0  0  0
  152.5516  138.1904  157.5583 H   0  0  0  0  0  0  0  0  0  0  0  0
  1  2  1  0  0  0  0
  1 35  1  0  0  0  0
  1 36  1  0  0  0  0
  1 37  1  0  0  0  0
  2  3  1  0  0  0  0
  2  4  1  0  0  0  0
  2 38  1  0  0  0  0
  3 39  1  0  0  0  0
  3 40  1  0  0  0  0
  3 41  1  0  0  0  0
  4  5  1  0  0  0  0
  5 30  1  0  0  0  0
  5  6  2  0  0  0  0
  6  7  1  0  0  0  0
  6 42  1  0  0  0  0
  7  8  1  0  0  0  0
  7 28  2  0  0  0  0
  8  9  1  0  0  0  0
  8 43  1  0  0  0  0
  8 44  1  0  0  0  0
  9 10  1  0  0  0  0
  9 45  1  0  0  0  0
 10 15  1  0  0  0  0
 10 11  2  0  0  0  0
 11 12  1  0  0  0  0
 12 13  2  0  0  0  0
 12 46  1  0  0  0  0
 13 14  1  0  0  0  0
 14 18  1  0  0  0  0
 14 15  2  0  0  0  0
 15 16  1  0  0  0  0
 16 17  2  0  0  0  0
 17 18  1  0  0  0  0
 17 47  1  0  0  0  0
 18 19  1  0  0  0  0
 19 31  1  0  0  0  0
 19 26  1  0  0  0  0
 19 20  1  0  0  0  0
 20 21  1  0  0  0  0
 21 32  1  0  0  0  0
 21 22  1  0  0  0  0
 21 24  1  0  0  0  0
 22 23  1  0  0  0  0
 22 48  1  0  0  0  0
 22 49  1  0  0  0  0
 23 50  1  0  0  0  0
 24 33  1  0  0  0  0
 24 25  1  0  0  0  0
 24 26  1  0  0  0  0
 25 51  1  0  0  0  0
 26 34  1  0  0  0  0
 26 27  1  0  0  0  0
 27 52  1  0  0  0  0
 28 29  1  0  0  0  0
 28 53  1  0  0  0  0
 29 30  2  0  0  0  0
 29 54  1  0  0  0  0
M  END
> <s_m_source_file>
AV-unprocessed.smi

> <i_m_source_file_index>
218

> <i_lp_mmshare_version>
43012

> <i_f3d_flags>
0

> <s_epik_input>
W0NIM11bQ0hdKFtDSDNdKU9jMVtjSF1jKFtjSF1bY0hdbjEpW0NIMl1bTkhdYyhuW2NIXW4yKWMoYzIzKW5bY0hdbjNbQ0BASF00T1tDQEhdKFtDSDJdW09IXSlbQ0BASF0oW09IXSlbQ0BIXTRbT0hd

> <s_epik_cmdline>
J2VwaWtfcHl0aG9uJywgJy1waCcsICc3LjAnLCAnLXRuJywgJzgnLCAnLW1hJywgJzIwMCcsICctbWV0YWxfYmluZGluZycsICctaW1hZScsICc8aW5maWxlLm1hZT4nLCAnLW9tYWUnLCAnPG91dGZpbGUubWFlPic=

> <r_lp_tautomer_probability>
1

> <r_epik_Ionization_Penalty>
0.00457014

> <r_epik_Ionization_Penalty_Charging>
0

> <r_epik_Ionization_Penalty_Neutral>
0.00457014

> <r_epik_State_Penalty>
-0

> <r_epik_Charging_Adjusted_Penalty>
0

> <i_epik_Tot_Q>
0

> <i_epik_Tot_abs_Q>
0

> <r_epik_Metal_State_Penalty>
-0

> <b_epik_Metal_Only>
0

> <s_epik_Chemistry_Notes>
This compound contains an acetal/aminal-like group ( X-CH(R)-Y where X, Y are N, S, or O) that may be acid/base labile, releasing an aldehyde.

> <s_lp_Force_Field>
OPLS_2005

> <r_lp_Energy>
51.9748

> <b_lp_Chiralities_Consistent>
1

> <s_lp_Variant>
AV-unprocessed.smi:218-13

> <Gold.Version>
5.8.1

> <Gold.Id.Protein>
6NUR|6NUR_protein|mol2

> <Gold.PLP.Fitness>
53.2934

> <Gold.PLP.PLP>
-47.5891

> <Gold.PLP.part.hbond>
-4.8205

> <Gold.PLP.part.metal>
0.0000

> <Gold.PLP.part.buried>
-4.7632

> <Gold.PLP.part.nonpolar>
-38.3946

> <Gold.PLP.part.repulsive>
1.6810

> <Gold.PLP.ligand.clash>
0.0000

> <Gold.PLP.ligand.torsion>
1.4885

> <Gold.PLP.Chemscore.Hbond>
2.8560

> <Gold.PLP.Chemscore.CHOScore>
0.0000

> <Gold.PLP.Chemscore.Metal>
0.0000

> <Gold.Chemscore.Hbonds>
donor molecule, donor type, donor heavy atom, donor atom, acceptor molecule, acceptor atom, score
      L1  H    23    50       P1 10747  1.00
      L1  H    25    51       P1 10171  1.00
      L1  H    27    52       P1 10171  0.77
      L1  C    17    47       P1  7948  0.09

> <Gold.PLP.Chemscore.Internal.Correction>
0.1133

> <Gold.Rescore>
     Score         DG    S(hbond)    S(metal)    S(lipo)     H(rot)  DE(clash)    DE(int)     intcor
      9.56     -12.81       2.73        0.00      92.01       4.90       0.78       2.47       ----

> <Gold.Chemscore.Fitness>
9.5583

> <Gold.Chemscore.DG>
-12.8104

> <Gold.Chemscore.ZeroCoef>
-5.4800

> <Gold.Chemscore.Hbond>
2.7297

> <Gold.Chemscore.Metal>
0.0000

> <Gold.Chemscore.Lipo>
92.0056

> <Gold.Chemscore.Internal_Hbond>
0.0000

> <Gold.Chemscore.DEClash>
0.7790

> <Gold.Chemscore.DEInternal>
2.4731

> <Gold.Chemscore.Rot>
4.9029

> <Gold.Chemscore.Internal.Correction>
   9.000000E+99

> <Gold.Chemscore.Hbonds>
donor molecule, donor type, donor heavy atom, donor atom, acceptor molecule, acceptor atom, score
      L1  H    23    50       P1 10747  0.92
      L1  H    25    51       P1 10171  0.97
      L1  H    27    52       P1 10171  0.73

> <Gold.Chemscore.Hbond.Weighted>
-9.1172

> <Gold.Chemscore.Metal.Weighted>
-0.0000

> <Gold.Chemscore.Lipo.Weighted>
-10.7647

> <Gold.Chemscore.Internal_Hbond.Weighted>
0.0000

> <Gold.Chemscore.DEClash.Weighted>
0.7790

> <Gold.Chemscore.DEInternal.Weighted>
2.4731

> <Gold.Chemscore.Rot.Weighted>
12.5515

> <Gold.Chemscore.Internal.Correction.Weighted>
   9.000000E+99

> <Gold.Protein.RotatedTorsions>
[ 6907 6896 6895 6894 ] final  -38.05 input  -60.11 | X-H torsion
[ 7974 7965 7964 7962 ] final -120.89 input  175.53 | X-H torsion
[ 8008 7997 7996 7995 ] final  177.89 input   59.86 | X-H torsion
[ 10167 10162 10161 10158 ] final  157.30 input  -65.29 | X-H torsion
[ 10718 10713 10712 10709 ] final   16.98 input   66.30 | X-H torsion
[ 10763 10752 10751 10750 ] final   23.58 input  -60.55 | X-H torsion
[ 11005 11000 10999 10996 ] final   38.44 input  -57.11 | X-H torsion

> <Gold.Protein.ActiveResidues>
 VAL166  LYS551  ARG553  GLY616  TRP617  ASP618  TYR619  PRO620  LYS621  CYS622 
 ASP623  PHE694  ASN695  SER759  ASP760  ASP761  ALA762  ILE779  LEU786  VAL792 
 PHE793  MET794  SER795  GLU796  ALA797  LYS798  CYS799  TRP800  GLU811  SER814 

> <Gold.Protein.RotatedAtoms>
  151.0071  134.9368  159.7986 H   0  0  0  0  0  0  0  0  0  0  0  0  # atno 6907 bound_to 6896
  152.5293  134.3077  159.9112 H   0  0  0  0  0  0  0  0  0  0  0  0  # atno 6908 bound_to 6896
  151.3082  133.4050  159.2679 H   0  0  0  0  0  0  0  0  0  0  0  0  # atno 6909 bound_to 6896
  145.0463  140.8184  143.4236 H   0  0  0  0  0  0  0  0  0  0  0  0  # atno 7974 bound_to 7965
  156.0607  140.1347  156.9945 H   0  0  0  0  0  0  0  0  0  0  0  0  # atno 8008 bound_to 7997
  154.4480  140.0992  156.6583 H   0  0  0  0  0  0  0  0  0  0  0  0  # atno 8009 bound_to 7997
  155.5382  140.3460  155.4443 H   0  0  0  0  0  0  0  0  0  0  0  0  # atno 8010 bound_to 7997
  139.4823  144.4930  151.8280 H   0  0  0  0  0  0  0  0  0  0  0  0  # atno 10167 bound_to 10162
  157.0756  130.6366  149.5815 H   0  0  0  0  0  0  0  0  0  0  0  0  # atno 10718 bound_to 10713
  153.0827  135.6624  154.0011 H   0  0  0  0  0  0  0  0  0  0  0  0  # atno 10763 bound_to 10752
  153.9629  135.2972  155.3434 H   0  0  0  0  0  0  0  0  0  0  0  0  # atno 10764 bound_to 10752
  154.7230  135.5156  153.8913 H   0  0  0  0  0  0  0  0  0  0  0  0  # atno 10765 bound_to 10752
  140.2126  134.3737  155.8042 H   0  0  0  0  0  0  0  0  0  0  0  0  # atno 11005 bound_to 11000
  145.1583  139.2473  143.5405 LP  0  0  0  0  0  0  0  0  0  0  0  0  # atno 17320 bound_to 7965
  146.3514  140.1304  142.8597 LP  0  0  0  0  0  0  0  0  0  0  0  0  # atno 17321 bound_to 7965
  140.4416  144.1978  150.5891 LP  0  0  0  0  0  0  0  0  0  0  0  0  # atno 17342 bound_to 10162
  140.4677  143.2424  151.9132 LP  0  0  0  0  0  0  0  0  0  0  0  0  # atno 17343 bound_to 10162
  155.9938  130.5000  150.7395 LP  0  0  0  0  0  0  0  0  0  0  0  0  # atno 17370 bound_to 10713
  157.4842  131.0905  151.0501 LP  0  0  0  0  0  0  0  0  0  0  0  0  # atno 17371 bound_to 10713
  141.2226  133.7151  156.8443 LP  0  0  0  0  0  0  0  0  0  0  0  0  # atno 17394 bound_to 11000
  140.1934  134.8949  157.3087 LP  0  0  0  0  0  0  0  0  0  0  0  0  # atno 17395 bound_to 11000

$$$$
