AV-unprocessed.smi:1021|AV-procd|sdf|4456|dock6
  -GOLD-   22720 2423D 1   1.00000     0.00000
 Structure written by MMmdl.
 43 45  0  0  0  0  0  0  0  0  2 V2000
  151.5155  136.7255  154.5665 O   0  0  0  0  0  0  0  0  0  0  0  0
  151.3539  138.0679  154.1610 C   0  0  0  0  0  0  0  0  0  0  0  0
  152.0086  139.0176  155.1738 C   0  0  0  0  0  0  0  0  0  0  0  0
  151.3081  139.0157  156.5414 C   0  0  0  0  0  0  0  0  0  0  0  0
  151.5292  140.2986  157.2742 C   0  0  0  0  0  0  0  0  0  0  0  0
  152.0652  140.4183  158.5214 N   0  3  0  0  0  0  0  0  0  0  0  0
  152.1104  141.7633  158.8898 C   0  0  0  0  0  0  0  0  0  0  0  0
  152.5712  142.3761  160.0510 C   0  0  0  0  0  0  0  0  0  0  0  0
  152.4716  143.7818  160.1070 C   0  0  0  0  0  0  0  0  0  0  0  0
  151.9301  144.5231  159.0366 C   0  0  0  0  0  0  0  0  0  0  0  0
  151.4654  143.8906  157.8646 C   0  0  0  0  0  0  0  0  0  0  0  0
  151.5694  142.5007  157.8171 C   0  0  0  0  0  0  0  0  0  0  0  0
  151.2257  141.5577  156.8426 N   0  0  0  0  0  0  0  0  0  0  0  0
  150.6324  142.0205  155.5780 C   0  0  0  0  0  0  0  0  0  0  0  0
  149.5271  141.0792  155.0569 C   0  0  2  0  0  0  0  0  0  0  0  0
  149.7886  140.8049  153.6964 O   0  0  0  0  0  0  0  0  0  0  0  0
  148.1328  141.6495  155.2780 C   0  0  0  0  0  0  0  0  0  0  0  0
  147.3281  141.9835  154.1674 C   0  0  0  0  0  0  0  0  0  0  0  0
  146.0263  142.4854  154.3586 C   0  0  0  0  0  0  0  0  0  0  0  0
  145.5216  142.6573  155.6617 C   0  0  0  0  0  0  0  0  0  0  0  0
  144.2692  143.1378  155.8450 F   0  0  0  0  0  0  0  0  0  0  0  0
  146.3197  142.3274  156.7737 C   0  0  0  0  0  0  0  0  0  0  0  0
  147.6213  141.8244  156.5832 C   0  0  0  0  0  0  0  0  0  0  0  0
  150.6603  136.3535  154.7213 H   0  0  0  0  0  0  0  0  0  0  0  0
  151.7820  138.2034  153.1673 H   0  0  0  0  0  0  0  0  0  0  0  0
  150.2873  138.2794  154.0841 H   0  0  0  0  0  0  0  0  0  0  0  0
  153.0479  138.7159  155.3069 H   0  0  0  0  0  0  0  0  0  0  0  0
  152.0353  140.0297  154.7680 H   0  0  0  0  0  0  0  0  0  0  0  0
  150.2357  138.8605  156.4193 H   0  0  0  0  0  0  0  0  0  0  0  0
  151.6720  138.1884  157.1494 H   0  0  0  0  0  0  0  0  0  0  0  0
  152.9854  141.8101  160.8726 H   0  0  0  0  0  0  0  0  0  0  0  0
  152.8172  144.3017  160.9888 H   0  0  0  0  0  0  0  0  0  0  0  0
  151.8695  145.5989  159.1157 H   0  0  0  0  0  0  0  0  0  0  0  0
  151.0520  144.4664  157.0498 H   0  0  0  0  0  0  0  0  0  0  0  0
  150.2385  143.0255  155.7336 H   0  0  0  0  0  0  0  0  0  0  0  0
  151.4364  142.1181  154.8472 H   0  0  0  0  0  0  0  0  0  0  0  0
  149.5927  140.1226  155.5765 H   0  0  0  0  0  0  0  0  0  0  0  0
  149.0631  140.3114  153.3449 H   0  0  0  0  0  0  0  0  0  0  0  0
  147.7040  141.8467  153.1640 H   0  0  0  0  0  0  0  0  0  0  0  0
  145.4137  142.7368  153.5054 H   0  0  0  0  0  0  0  0  0  0  0  0
  145.9324  142.4572  157.7736 H   0  0  0  0  0  0  0  0  0  0  0  0
  148.2208  141.5651  157.4436 H   0  0  0  0  0  0  0  0  0  0  0  0
  152.3768  139.6330  159.0785 H   0  0  0  0  0  0  0  0  0  0  0  0
  1  2  1  0  0  0  0
  1 24  1  0  0  0  0
  2  3  1  0  0  0  0
  2 25  1  0  0  0  0
  2 26  1  0  0  0  0
  3  4  1  0  0  0  0
  3 27  1  0  0  0  0
  3 28  1  0  0  0  0
  4  5  1  0  0  0  0
  4 29  1  0  0  0  0
  4 30  1  0  0  0  0
  5 13  1  0  0  0  0
  5  6  2  0  0  0  0
  6  7  1  0  0  0  0
  6 43  1  0  0  0  0
  7 12  2  0  0  0  0
  7  8  1  0  0  0  0
  8  9  2  0  0  0  0
  8 31  1  0  0  0  0
  9 10  1  0  0  0  0
  9 32  1  0  0  0  0
 10 11  2  0  0  0  0
 10 33  1  0  0  0  0
 11 12  1  0  0  0  0
 11 34  1  0  0  0  0
 12 13  1  0  0  0  0
 13 14  1  0  0  0  0
 14 15  1  0  0  0  0
 14 35  1  0  0  0  0
 14 36  1  0  0  0  0
 15 16  1  0  0  0  0
 15 17  1  0  0  0  0
 15 37  1  0  0  0  0
 16 38  1  0  0  0  0
 17 23  1  0  0  0  0
 17 18  2  0  0  0  0
 18 19  1  0  0  0  0
 18 39  1  0  0  0  0
 19 20  2  0  0  0  0
 19 40  1  0  0  0  0
 20 21  1  0  0  0  0
 20 22  1  0  0  0  0
 22 23  2  0  0  0  0
 22 41  1  0  0  0  0
 23 42  1  0  0  0  0
M  CHG  1   6   1
M  END
> <s_m_source_file>
AV-unprocessed.smi

> <i_m_source_file_index>
1021

> <i_lp_mmshare_version>
43012

> <i_f3d_flags>
0

> <s_epik_input>
W09IXVtDSDJdW0NIMl1bQ0gyXWMobjEpbihjKGMxMilbY0hdW2NIXVtjSF1bY0hdMilbQ0gyXVtDQEhdKFtPSF0pYzNbY0hdW2NIXWMoRilbY0hdW2NIXTM=

> <s_epik_cmdline>
J2VwaWtfcHl0aG9uJywgJy1waCcsICc3LjAnLCAnLXRuJywgJzgnLCAnLW1hJywgJzIwMCcsICctbWV0YWxfYmluZGluZycsICctaW1hZScsICc8aW5maWxlLm1hZT4nLCAnLW9tYWUnLCAnPG91dGZpbGUubWFlPic=

> <r_epik_Ionization_Penalty>
0.786441

> <r_epik_Ionization_Penalty_Charging>
0.786439

> <r_epik_Ionization_Penalty_Neutral>
1.96029e-06

> <r_epik_State_Penalty>
0.816472

> <r_epik_Charging_Adjusted_Penalty>
1.60291

> <i_epik_Tot_Q>
1

> <i_epik_Tot_abs_Q>
1

> <r_epik_Metal_State_Penalty>
4.73733

> <b_epik_Metal_Only>
0

> <s_lp_Force_Field>
OPLS_2005

> <r_lp_Energy>
17.0058

> <b_lp_Chiralities_Consistent>
1

> <s_lp_Variant>
AV-unprocessed.smi:1021-3

> <Gold.Version>
5.8.1

> <Gold.Id.Protein>
6NUR|6NUR_protein|mol2

> <Gold.PLP.Fitness>
57.3179

> <Gold.PLP.PLP>
-52.4157

> <Gold.PLP.part.hbond>
-4.6987

> <Gold.PLP.part.metal>
0.0000

> <Gold.PLP.part.buried>
-3.5010

> <Gold.PLP.part.nonpolar>
-42.8744

> <Gold.PLP.part.repulsive>
0.1106

> <Gold.PLP.ligand.clash>
0.0000

> <Gold.PLP.ligand.torsion>
1.2278

> <Gold.PLP.Chemscore.Hbond>
2.4347

> <Gold.PLP.Chemscore.CHOScore>
0.0000

> <Gold.PLP.Chemscore.Metal>
0.0000

> <Gold.Chemscore.Hbonds>
donor molecule, donor type, donor heavy atom, donor atom, acceptor molecule, acceptor atom, score
      L1  H    16    38       P1  7957  0.03
      P1  H  7989  7998       L1    16  0.43
      P1  H  8011  8017       L1    16  0.81
      P1  H 10752 10763       L1     1  1.00

> <Gold.PLP.Chemscore.Internal.Correction>
0.0537

> <Gold.Rescore>
     Score         DG    S(hbond)    S(metal)    S(lipo)     H(rot)  DE(clash)    DE(int)     intcor
     15.69     -18.24       1.82        0.00     126.13       3.16       1.74       0.81       ----

> <Gold.Chemscore.Fitness>
15.6855

> <Gold.Chemscore.DG>
-18.2415

> <Gold.Chemscore.ZeroCoef>
-5.4800

> <Gold.Chemscore.Hbond>
1.8248

> <Gold.Chemscore.Metal>
0.0000

> <Gold.Chemscore.Lipo>
126.1317

> <Gold.Chemscore.Internal_Hbond>
0.0000

> <Gold.Chemscore.DEClash>
1.7415

> <Gold.Chemscore.DEInternal>
0.8146

> <Gold.Chemscore.Rot>
3.1604

> <Gold.Chemscore.Internal.Correction>
   9.000000E+99

> <Gold.Chemscore.Hbonds>
donor molecule, donor type, donor heavy atom, donor atom, acceptor molecule, acceptor atom, score
      L1  H    16    38       P1  7957  0.04
      P1  H  7989  7998       L1    16  0.25
      P1  H  8011  8017       L1    16  0.19
      P1  H 10752 10763       L1     1  0.97

> <Gold.Chemscore.Hbond.Weighted>
-6.0948

> <Gold.Chemscore.Metal.Weighted>
-0.0000

> <Gold.Chemscore.Lipo.Weighted>
-14.7574

> <Gold.Chemscore.Internal_Hbond.Weighted>
0.0000

> <Gold.Chemscore.DEClash.Weighted>
1.7415

> <Gold.Chemscore.DEInternal.Weighted>
0.8146

> <Gold.Chemscore.Rot.Weighted>
8.0907

> <Gold.Chemscore.Internal.Correction.Weighted>
   9.000000E+99

> <Gold.Protein.RotatedTorsions>
[ 6907 6896 6895 6894 ] final    9.97 input  -60.11 | X-H torsion
[ 7974 7965 7964 7962 ] final    7.10 input  175.53 | X-H torsion
[ 8008 7997 7996 7995 ] final  146.57 input   59.86 | X-H torsion
[ 10167 10162 10161 10158 ] final  153.81 input  -65.29 | X-H torsion
[ 10718 10713 10712 10709 ] final  126.91 input   66.30 | X-H torsion
[ 10763 10752 10751 10750 ] final   50.31 input  -60.55 | X-H torsion
[ 11005 11000 10999 10996 ] final -165.52 input  -57.11 | X-H torsion

> <Gold.Protein.ActiveResidues>
 VAL166  LYS551  ARG553  GLY616  TRP617  ASP618  TYR619  PRO620  LYS621  CYS622 
 ASP623  PHE694  ASN695  SER759  ASP760  ASP761  ALA762  ILE779  LEU786  VAL792 
 PHE793  MET794  SER795  GLU796  ALA797  LYS798  CYS799  TRP800  GLU811  SER814 

> <Gold.Protein.RotatedAtoms>
  151.7307  135.0875  160.0299 H   0  0  0  0  0  0  0  0  0  0  0  0  # atno 6907 bound_to 6896
  152.3543  133.6213  159.5976 H   0  0  0  0  0  0  0  0  0  0  0  0  # atno 6908 bound_to 6896
  150.7561  133.9441  159.3507 H   0  0  0  0  0  0  0  0  0  0  0  0  # atno 6909 bound_to 6896
  146.2429  140.0134  142.8404 H   0  0  0  0  0  0  0  0  0  0  0  0  # atno 7974 bound_to 7965
  156.2851  140.2179  156.5398 H   0  0  0  0  0  0  0  0  0  0  0  0  # atno 8008 bound_to 7997
  154.7379  140.0490  157.0807 H   0  0  0  0  0  0  0  0  0  0  0  0  # atno 8009 bound_to 7997
  155.0269  140.3130  155.4776 H   0  0  0  0  0  0  0  0  0  0  0  0  # atno 8010 bound_to 7997
  139.4825  144.5241  151.7829 H   0  0  0  0  0  0  0  0  0  0  0  0  # atno 10167 bound_to 10162
  157.5379  131.1097  150.8906 H   0  0  0  0  0  0  0  0  0  0  0  0  # atno 10718 bound_to 10713
  152.9785  135.5883  154.4231 H   0  0  0  0  0  0  0  0  0  0  0  0  # atno 10763 bound_to 10752
  154.3853  135.2767  155.2189 H   0  0  0  0  0  0  0  0  0  0  0  0  # atno 10764 bound_to 10752
  154.4085  135.6087  153.5993 H   0  0  0  0  0  0  0  0  0  0  0  0  # atno 10765 bound_to 10752
  140.5747  134.5202  157.5168 H   0  0  0  0  0  0  0  0  0  0  0  0  # atno 11005 bound_to 11000
  145.1307  140.9516  143.4546 LP  0  0  0  0  0  0  0  0  0  0  0  0  # atno 17320 bound_to 7965
  145.0391  139.3275  143.5986 LP  0  0  0  0  0  0  0  0  0  0  0  0  # atno 17321 bound_to 7965
  140.4759  144.1520  150.5925 LP  0  0  0  0  0  0  0  0  0  0  0  0  # atno 17342 bound_to 10162
  140.4331  143.2559  151.9569 LP  0  0  0  0  0  0  0  0  0  0  0  0  # atno 17343 bound_to 10162
  156.9468  130.5405  149.5281 LP  0  0  0  0  0  0  0  0  0  0  0  0  # atno 17370 bound_to 10713
  156.0473  130.5548  150.8910 LP  0  0  0  0  0  0  0  0  0  0  0  0  # atno 17371 bound_to 10713
  139.9345  134.7901  156.0840 LP  0  0  0  0  0  0  0  0  0  0  0  0  # atno 17394 bound_to 11000
  141.1034  133.6669  156.2806 LP  0  0  0  0  0  0  0  0  0  0  0  0  # atno 17395 bound_to 11000

$$$$
