AV-unprocessed.smi:1222|AV-procd|sdf|5125|dock5
  -GOLD-   22720 4183D 1   1.00000     0.00000
 Structure written by MMmdl.
 35 37  0  0  0  0  0  0  0  0  2 V2000
  150.6092  140.3860  155.3680 O   0  0  0  0  0  0  0  0  0  0  0  0
  149.9268  141.4129  155.3795 C   0  0  0  0  0  0  0  0  0  0  0  0
  148.8668  141.6761  154.5812 N   0  5  0  0  0  0  0  0  0  0  0  0
  148.1495  140.6661  154.0624 C   0  0  0  0  0  0  0  0  0  0  0  0
  147.1038  140.8544  153.2491 N   0  0  0  0  0  0  0  0  0  0  0  0
  146.5094  139.6645  152.8246 C   0  0  0  0  0  0  0  0  0  0  0  0
  147.1232  138.5439  153.3177 C   0  0  0  0  0  0  0  0  0  0  0  0
  148.4731  138.9521  154.3379 S   0  0  0  0  0  0  0  0  0  0  0  0
  150.2106  142.4029  156.2389 N   0  0  0  0  0  0  0  0  0  0  0  0
  151.2916  142.4236  157.2224 C   0  0  0  0  0  0  0  0  0  0  0  0
  150.8966  141.6098  158.4647 C   0  0  0  0  0  0  0  0  0  0  0  0
  151.9577  141.7449  159.5711 C   0  0  0  0  0  0  0  0  0  0  0  0
  152.1370  143.1509  159.9359 N   0  0  0  0  0  0  0  0  0  0  0  0
  153.1198  143.2362  161.0038 C   0  0  0  0  0  0  0  0  0  0  0  0
  152.7725  142.5933  162.3272 C   0  0  0  0  0  0  0  0  0  0  0  0
  152.7812  144.0975  162.1990 C   0  0  0  0  0  0  0  0  0  0  0  0
  152.6272  143.9062  158.7822 C   0  0  0  0  0  0  0  0  0  0  0  0
  151.5949  143.8698  157.6416 C   0  0  0  0  0  0  0  0  0  0  0  0
  145.6520  139.7093  152.1697 H   0  0  0  0  0  0  0  0  0  0  0  0
  146.8666  137.5097  153.1443 H   0  0  0  0  0  0  0  0  0  0  0  0
  149.6185  143.2198  156.2041 H   0  0  0  0  0  0  0  0  0  0  0  0
  152.2047  141.9944  156.8061 H   0  0  0  0  0  0  0  0  0  0  0  0
  149.9317  141.9500  158.8445 H   0  0  0  0  0  0  0  0  0  0  0  0
  150.7718  140.5598  158.1985 H   0  0  0  0  0  0  0  0  0  0  0  0
  151.6419  141.1786  160.4482 H   0  0  0  0  0  0  0  0  0  0  0  0
  152.9054  141.3180  159.2390 H   0  0  0  0  0  0  0  0  0  0  0  0
  154.1757  143.2088  160.7389 H   0  0  0  0  0  0  0  0  0  0  0  0
  151.8047  142.1036  162.4184 H   0  0  0  0  0  0  0  0  0  0  0  0
  153.5827  142.1322  162.8880 H   0  0  0  0  0  0  0  0  0  0  0  0
  153.5973  144.6381  162.6740 H   0  0  0  0  0  0  0  0  0  0  0  0
  151.8195  144.6074  162.2040 H   0  0  0  0  0  0  0  0  0  0  0  0
  152.8080  144.9411  159.0746 H   0  0  0  0  0  0  0  0  0  0  0  0
  153.5804  143.4981  158.4420 H   0  0  0  0  0  0  0  0  0  0  0  0
  151.9691  144.4346  156.7870 H   0  0  0  0  0  0  0  0  0  0  0  0
  150.6789  144.3670  157.9651 H   0  0  0  0  0  0  0  0  0  0  0  0
  1  2  2  0  0  0  0
  2  3  1  0  0  0  0
  2  9  1  0  0  0  0
  3  4  1  0  0  0  0
  4  8  1  0  0  0  0
  4  5  2  0  0  0  0
  5  6  1  0  0  0  0
  6  7  2  0  0  0  0
  6 19  1  0  0  0  0
  7  8  1  0  0  0  0
  7 20  1  0  0  0  0
  9 10  1  0  0  0  0
  9 21  1  0  0  0  0
 10 18  1  0  0  0  0
 10 11  1  0  0  0  0
 10 22  1  0  0  0  0
 11 12  1  0  0  0  0
 11 23  1  0  0  0  0
 11 24  1  0  0  0  0
 12 13  1  0  0  0  0
 12 25  1  0  0  0  0
 12 26  1  0  0  0  0
 13 14  1  0  0  0  0
 13 17  1  0  0  0  0
 14 16  1  0  0  0  0
 14 15  1  0  0  0  0
 14 27  1  0  0  0  0
 15 16  1  0  0  0  0
 15 28  1  0  0  0  0
 15 29  1  0  0  0  0
 16 30  1  0  0  0  0
 16 31  1  0  0  0  0
 17 18  1  0  0  0  0
 17 32  1  0  0  0  0
 17 33  1  0  0  0  0
 18 34  1  0  0  0  0
 18 35  1  0  0  0  0
M  CHG  1   3  -1
M  END
> <s_m_source_file>
AV-unprocessed.smi

> <i_m_source_file_index>
1222

> <i_lp_mmshare_version>
43012

> <i_f3d_flags>
0

> <s_epik_input>
czFbY0hdW2NIXW5jMVtOSF1DKD1PKVtOSF1bQ0hdMltDSDJdW0NIMl1OKFtDSDJdW0NIMl0yKVtDSF0zW0NIMl1bQ0gyXTM=

> <s_epik_cmdline>
J2VwaWtfcHl0aG9uJywgJy1waCcsICc3LjAnLCAnLXRuJywgJzgnLCAnLW1hJywgJzIwMCcsICctbWV0YWxfYmluZGluZycsICctaW1hZScsICc8aW5maWxlLm1hZT4nLCAnLW9tYWUnLCAnPG91dGZpbGUubWFlPic=

> <r_lp_tautomer_probability>
0.999

> <r_epik_Ionization_Penalty>
8.0332

> <r_epik_Ionization_Penalty_Charging>
5.90974

> <r_epik_Ionization_Penalty_Neutral>
2.12346

> <r_epik_State_Penalty>
6.94233

> <r_epik_Charging_Adjusted_Penalty>
12.8521

> <i_epik_Tot_Q>
-1

> <i_epik_Tot_abs_Q>
1

> <r_epik_Metal_State_Penalty>
2.92331

> <b_epik_Metal_Only>
1

> <s_lp_Force_Field>
OPLS_2005

> <r_lp_Energy>
17.9204

> <b_lp_Chiralities_Consistent>
1

> <s_lp_Variant>
AV-unprocessed.smi:1222-6

> <Gold.Version>
5.8.1

> <Gold.Id.Protein>
6NUR|6NUR_protein|mol2

> <Gold.PLP.Fitness>
47.8261

> <Gold.PLP.PLP>
-37.5743

> <Gold.PLP.part.hbond>
-2.6590

> <Gold.PLP.part.metal>
0.0000

> <Gold.PLP.part.buried>
-2.2269

> <Gold.PLP.part.nonpolar>
-32.8552

> <Gold.PLP.part.repulsive>
0.5127

> <Gold.PLP.ligand.clash>
0.0000

> <Gold.PLP.ligand.torsion>
1.1006

> <Gold.PLP.Chemscore.Hbond>
1.9920

> <Gold.PLP.Chemscore.CHOScore>
1.7654

> <Gold.PLP.Chemscore.Metal>
0.0000

> <Gold.Chemscore.Hbonds>
donor molecule, donor type, donor heavy atom, donor atom, acceptor molecule, acceptor atom, score
      L1  H     9    21       P1  8028  1.00
      P1  H  7989  7998       L1     1  0.43
      L1  C     6    19       P1 10175  1.00
      L1  C     7    20       P1  7948  0.26

> <Gold.PLP.Chemscore.Internal.Correction>
1.1809

> <Gold.Rescore>
     Score         DG    S(hbond)    S(metal)    S(lipo)     H(rot)  DE(clash)    DE(int)     intcor
     15.77     -18.62       1.47        0.00      97.17       1.23       0.43       2.41       ----

> <Gold.Chemscore.Fitness>
15.7665

> <Gold.Chemscore.DG>
-18.6151

> <Gold.Chemscore.ZeroCoef>
-5.4800

> <Gold.Chemscore.Hbond>
1.4722

> <Gold.Chemscore.Metal>
0.0000

> <Gold.Chemscore.Lipo>
97.1672

> <Gold.Chemscore.Internal_Hbond>
0.0000

> <Gold.Chemscore.DEClash>
0.4339

> <Gold.Chemscore.DEInternal>
2.4147

> <Gold.Chemscore.Rot>
1.2308

> <Gold.Chemscore.Internal.Correction>
   9.000000E+99

> <Gold.Chemscore.Hbonds>
donor molecule, donor type, donor heavy atom, donor atom, acceptor molecule, acceptor atom, score
      L1  H     9    21       P1  8028  1.00
      P1  H  7989  7998       L1     1  0.04

> <Gold.Chemscore.Hbond.Weighted>
-4.9173

> <Gold.Chemscore.Metal.Weighted>
-0.0000

> <Gold.Chemscore.Lipo.Weighted>
-11.3686

> <Gold.Chemscore.Internal_Hbond.Weighted>
0.0000

> <Gold.Chemscore.DEClash.Weighted>
0.4339

> <Gold.Chemscore.DEInternal.Weighted>
2.4147

> <Gold.Chemscore.Rot.Weighted>
3.1508

> <Gold.Chemscore.Internal.Correction.Weighted>
   9.000000E+99

> <Gold.Protein.RotatedTorsions>
[ 6907 6896 6895 6894 ] final  148.28 input  -60.11 | X-H torsion
[ 7974 7965 7964 7962 ] final -128.50 input  175.53 | X-H torsion
[ 8008 7997 7996 7995 ] final    1.85 input   59.86 | X-H torsion
[ 10167 10162 10161 10158 ] final  -52.73 input  -65.29 | X-H torsion
[ 10718 10713 10712 10709 ] final  -95.84 input   66.30 | X-H torsion
[ 10763 10752 10751 10750 ] final -122.54 input  -60.55 | X-H torsion
[ 11005 11000 10999 10996 ] final   -8.72 input  -57.11 | X-H torsion

> <Gold.Protein.ActiveResidues>
 VAL166  LYS551  ARG553  GLY616  TRP617  ASP618  TYR619  PRO620  LYS621  CYS622 
 ASP623  PHE694  ASN695  SER759  ASP760  ASP761  ALA762  ILE779  LEU786  VAL792 
 PHE793  MET794  SER795  GLU796  ALA797  LYS798  CYS799  TRP800  GLU811  SER814 

> <Gold.Protein.RotatedAtoms>
  152.1435  133.4478  159.4778 H   0  0  0  0  0  0  0  0  0  0  0  0  # atno 6907 bound_to 6896
  150.6888  134.2276  159.4430 H   0  0  0  0  0  0  0  0  0  0  0  0  # atno 6908 bound_to 6896
  152.0168  134.9845  160.0620 H   0  0  0  0  0  0  0  0  0  0  0  0  # atno 6909 bound_to 6896
  144.9664  140.7500  143.4697 H   0  0  0  0  0  0  0  0  0  0  0  0  # atno 7974 bound_to 7965
  154.6846  140.2640  155.6873 H   0  0  0  0  0  0  0  0  0  0  0  0  # atno 8008 bound_to 7997
  156.2709  140.2803  156.1325 H   0  0  0  0  0  0  0  0  0  0  0  0  # atno 8009 bound_to 7997
  155.0983  140.0374  157.2679 H   0  0  0  0  0  0  0  0  0  0  0  0  # atno 8010 bound_to 7997
  140.6522  143.2574  151.4690 H   0  0  0  0  0  0  0  0  0  0  0  0  # atno 10167 bound_to 10162
  156.0050  130.5126  150.6136 H   0  0  0  0  0  0  0  0  0  0  0  0  # atno 10718 bound_to 10713
  154.8691  135.4129  154.2798 H   0  0  0  0  0  0  0  0  0  0  0  0  # atno 10763 bound_to 10752
  153.3693  135.7007  153.6656 H   0  0  0  0  0  0  0  0  0  0  0  0  # atno 10764 bound_to 10752
  153.5524  135.3626  155.2737 H   0  0  0  0  0  0  0  0  0  0  0  0  # atno 10765 bound_to 10752
  140.7265  133.8785  155.8860 H   0  0  0  0  0  0  0  0  0  0  0  0  # atno 11005 bound_to 11000
  145.2623  139.1987  143.4885 LP  0  0  0  0  0  0  0  0  0  0  0  0  # atno 17320 bound_to 7965
  146.3369  140.2555  142.8600 LP  0  0  0  0  0  0  0  0  0  0  0  0  # atno 17321 bound_to 7965
  139.5739  144.1865  152.1875 LP  0  0  0  0  0  0  0  0  0  0  0  0  # atno 17342 bound_to 10162
  140.1170  144.5407  150.6888 LP  0  0  0  0  0  0  0  0  0  0  0  0  # atno 17343 bound_to 10162
  157.3964  131.0803  151.1348 LP  0  0  0  0  0  0  0  0  0  0  0  0  # atno 17370 bound_to 10713
  157.2023  130.6400  149.5743 LP  0  0  0  0  0  0  0  0  0  0  0  0  # atno 17371 bound_to 10713
  140.9958  134.1216  157.4364 LP  0  0  0  0  0  0  0  0  0  0  0  0  # atno 17394 bound_to 11000
  139.8836  135.0054  156.6311 LP  0  0  0  0  0  0  0  0  0  0  0  0  # atno 17395 bound_to 11000

$$$$
