AV-unprocessed.smi:246|AV-procd|sdf|1883|dock3
  -GOLD-   2262020533D 1   1.00000     0.00000
 Structure written by MMmdl.
 57 60  0  0  0  0  0  0  0  0  1 V2000
  144.2888  132.2997  150.2964 C   0  0  0  0  0  0  0  0  0  0  0  0
  145.8180  132.4348  150.2984 C   0  0  0  0  0  0  0  0  0  0  0  0
  146.3398  132.5406  151.6157 O   0  0  0  0  0  0  0  0  0  0  0  0
  147.0339  133.7520  151.8759 C   0  0  0  0  0  0  0  0  0  0  0  0
  147.5065  133.7458  153.3322 C   0  0  0  0  0  0  0  0  0  0  0  0
  148.7296  133.0301  153.4177 O   0  0  0  0  0  0  0  0  0  0  0  0
  149.4941  133.3493  154.5708 C   0  0  2  0  0  0  0  0  0  0  0  0
  148.7822  132.8844  155.8425 C   0  0  0  0  0  0  0  0  0  0  0  0
  149.3494  133.7992  156.9316 C   0  0  0  0  0  0  0  0  0  0  0  0
  149.7471  135.0144  156.2344 N   0  0  0  0  0  0  0  0  0  0  0  0
  149.9517  136.2007  156.8613 C   0  0  0  0  0  0  0  0  0  0  0  0
  149.6515  136.2857  158.1842 N   0  0  0  0  0  0  0  0  0  0  0  0
  149.8433  137.4260  158.8526 C   0  0  0  0  0  0  0  0  0  0  0  0
  150.3189  138.5864  158.4009 N   0  0  0  0  0  0  0  0  0  0  0  0
  150.6191  138.5144  157.0729 C   0  0  0  0  0  0  0  0  0  0  0  0
  150.4699  137.3726  156.2331 C   0  0  0  0  0  0  0  0  0  0  0  0
  150.8819  137.6899  154.9426 N   0  0  0  0  0  0  0  0  0  0  0  0
  151.2481  138.9398  155.0154 C   0  0  0  0  0  0  0  0  0  0  0  0
  151.1200  139.5148  156.2580 N   0  0  0  0  0  0  0  0  0  0  0  0
  151.4518  140.8843  156.6192 C   0  0  0  0  0  0  0  0  0  0  0  0
  151.7808  141.0698  158.1172 C   0  0  1  0  0  0  0  0  0  0  0  0
  152.8196  140.1789  158.4761 O   0  0  0  0  0  0  0  0  0  0  0  0
  152.2060  142.5046  158.4905 C   0  0  2  0  0  0  0  0  0  0  0  0
  152.3079  142.7707  159.9935 C   0  0  0  0  0  0  0  0  0  0  0  0
  152.0741  144.2700  160.1104 C   0  0  0  0  0  0  0  0  0  0  0  0
  151.5049  144.6663  158.7458 C   0  0  0  0  0  0  0  0  0  0  0  0
  151.2076  143.4356  158.1036 O   0  0  0  0  0  0  0  0  0  0  0  0
  149.6415  134.8589  154.7936 C   0  0  0  0  0  0  0  0  0  0  0  0
  150.4779  132.8779  154.5297 H   0  0  0  0  0  0  0  0  0  0  0  0
  143.9019  132.3275  149.2776 H   0  0  0  0  0  0  0  0  0  0  0  0
  143.8237  133.1156  150.8501 H   0  0  0  0  0  0  0  0  0  0  0  0
  143.9626  131.3611  150.7431 H   0  0  0  0  0  0  0  0  0  0  0  0
  146.2863  131.6109  149.7578 H   0  0  0  0  0  0  0  0  0  0  0  0
  146.0900  133.3467  149.7664 H   0  0  0  0  0  0  0  0  0  0  0  0
  147.8828  133.8845  151.2049 H   0  0  0  0  0  0  0  0  0  0  0  0
  146.3574  134.5936  151.7208 H   0  0  0  0  0  0  0  0  0  0  0  0
  147.6698  134.7710  153.6675 H   0  0  0  0  0  0  0  0  0  0  0  0
  146.7400  133.3099  153.9742 H   0  0  0  0  0  0  0  0  0  0  0  0
  147.7094  133.0584  155.7474 H   0  0  0  0  0  0  0  0  0  0  0  0
  148.9329  131.8256  156.0543 H   0  0  0  0  0  0  0  0  0  0  0  0
  148.6103  133.9917  157.7103 H   0  0  0  0  0  0  0  0  0  0  0  0
  150.2303  133.3523  157.3940 H   0  0  0  0  0  0  0  0  0  0  0  0
  149.5789  137.4053  159.8996 H   0  0  0  0  0  0  0  0  0  0  0  0
  151.6201  139.4823  154.1583 H   0  0  0  0  0  0  0  0  0  0  0  0
  152.2980  141.2045  156.0105 H   0  0  0  0  0  0  0  0  0  0  0  0
  150.6163  141.5258  156.3363 H   0  0  0  0  0  0  0  0  0  0  0  0
  150.8991  140.7954  158.6977 H   0  0  0  0  0  0  0  0  0  0  0  0
  152.4830  139.5682  159.1139 H   0  0  0  0  0  0  0  0  0  0  0  0
  153.1480  142.7719  158.0077 H   0  0  0  0  0  0  0  0  0  0  0  0
  151.5197  142.2372  160.5266 H   0  0  0  0  0  0  0  0  0  0  0  0
  153.2660  142.4587  160.4105 H   0  0  0  0  0  0  0  0  0  0  0  0
  151.3745  144.4910  160.9174 H   0  0  0  0  0  0  0  0  0  0  0  0
  153.0011  144.8083  160.3118 H   0  0  0  0  0  0  0  0  0  0  0  0
  150.6169  145.2935  158.8263 H   0  0  0  0  0  0  0  0  0  0  0  0
  152.2508  145.2048  158.1591 H   0  0  0  0  0  0  0  0  0  0  0  0
  150.5164  135.2532  154.2764 H   0  0  0  0  0  0  0  0  0  0  0  0
  148.7564  135.3909  154.4424 H   0  0  0  0  0  0  0  0  0  0  0  0
  1  2  1  0  0  0  0
  1 30  1  0  0  0  0
  1 31  1  0  0  0  0
  1 32  1  0  0  0  0
  2  3  1  0  0  0  0
  2 33  1  0  0  0  0
  2 34  1  0  0  0  0
  3  4  1  0  0  0  0
  4  5  1  0  0  0  0
  4 35  1  0  0  0  0
  4 36  1  0  0  0  0
  5  6  1  0  0  0  0
  5 37  1  0  0  0  0
  5 38  1  0  0  0  0
  6  7  1  0  0  0  0
  7 29  1  0  0  0  0
  7 28  1  0  0  0  0
  7  8  1  0  0  0  0
  8  9  1  0  0  0  0
  8 39  1  0  0  0  0
  8 40  1  0  0  0  0
  9 10  1  0  0  0  0
  9 41  1  0  0  0  0
  9 42  1  0  0  0  0
 10 11  1  0  0  0  0
 10 28  1  0  0  0  0
 11 16  1  0  0  0  0
 11 12  2  0  0  0  0
 12 13  1  0  0  0  0
 13 14  2  0  0  0  0
 13 43  1  0  0  0  0
 14 15  1  0  0  0  0
 15 19  1  0  0  0  0
 15 16  2  0  0  0  0
 16 17  1  0  0  0  0
 17 18  2  0  0  0  0
 18 19  1  0  0  0  0
 18 44  1  0  0  0  0
 19 20  1  0  0  0  0
 20 21  1  0  0  0  0
 20 45  1  0  0  0  0
 20 46  1  0  0  0  0
 21 22  1  0  0  0  0
 21 23  1  0  0  0  0
 21 47  1  0  0  0  0
 22 48  1  0  0  0  0
 23 27  1  0  0  0  0
 23 24  1  0  0  0  0
 23 49  1  0  0  0  0
 24 25  1  0  0  0  0
 24 50  1  0  0  0  0
 24 51  1  0  0  0  0
 25 26  1  0  0  0  0
 25 52  1  0  0  0  0
 25 53  1  0  0  0  0
 26 27  1  0  0  0  0
 26 54  1  0  0  0  0
 26 55  1  0  0  0  0
 28 56  1  0  0  0  0
 28 57  1  0  0  0  0
M  END
> <s_m_source_file>
AV-unprocessed.smi

> <i_m_source_file_index>
246

> <i_lp_mmshare_version>
43012

> <i_f3d_flags>
0

> <s_epik_input>
W0NIM11bQ0gyXU9bQ0gyXVtDSDJdT1tDQEhdMVtDSDJdW0NIMl1OKFtDSDJdMSljKG5bY0hdbjIpYyhjMjMpbltjSF1uM1tDSDJdW0NASF0oW09IXSlbQ0BASF00W0NIMl1bQ0gyXVtDSDJdTzQ=

> <s_epik_cmdline>
J2VwaWtfcHl0aG9uJywgJy1waCcsICc3LjAnLCAnLXRuJywgJzgnLCAnLW1hJywgJzIwMCcsICctbWV0YWxfYmluZGluZycsICctaW1hZScsICc8aW5maWxlLm1hZT4nLCAnLW9tYWUnLCAnPG91dGZpbGUubWFlPic=

> <r_lp_tautomer_probability>
1

> <r_epik_Ionization_Penalty>
0.0024631

> <r_epik_Ionization_Penalty_Charging>
0

> <r_epik_Ionization_Penalty_Neutral>
0.0024631

> <r_epik_State_Penalty>
0.00162428

> <r_epik_Charging_Adjusted_Penalty>
0.00162428

> <i_epik_Tot_Q>
0

> <i_epik_Tot_abs_Q>
0

> <r_epik_Metal_State_Penalty>
-0

> <b_epik_Metal_Only>
0

> <s_lp_Force_Field>
OPLS_2005

> <r_lp_Energy>
48.0332

> <b_lp_Chiralities_Consistent>
1

> <s_lp_Variant>
AV-unprocessed.smi:246-4

> <Gold.Version>
5.8.1

> <Gold.Id.Protein>
6NUR|6NUR_protein|mol2

> <Gold.PLP.Fitness>
51.2503

> <Gold.PLP.PLP>
-47.5456

> <Gold.PLP.part.hbond>
-2.0000

> <Gold.PLP.part.metal>
0.0000

> <Gold.PLP.part.buried>
-8.5625

> <Gold.PLP.part.nonpolar>
-38.7198

> <Gold.PLP.part.repulsive>
0.5362

> <Gold.PLP.ligand.clash>
0.0000

> <Gold.PLP.ligand.torsion>
1.1374

> <Gold.PLP.Chemscore.Hbond>
1.8666

> <Gold.PLP.Chemscore.CHOScore>
0.0000

> <Gold.PLP.Chemscore.Metal>
0.0000

> <Gold.Chemscore.Hbonds>
donor molecule, donor type, donor heavy atom, donor atom, acceptor molecule, acceptor atom, score
      P1  H  6896  6909       L1    12  0.13
      P1  H  7997  8008       L1    22  0.31

> <Gold.PLP.Chemscore.Internal.Correction>
0.3795

> <Gold.Rescore>
     Score         DG    S(hbond)    S(metal)    S(lipo)     H(rot)  DE(clash)    DE(int)     intcor
     13.08     -15.58       1.50        0.00     111.43       3.10       0.14       2.37       ----

> <Gold.Chemscore.Fitness>
13.0767

> <Gold.Chemscore.DG>
-15.5841

> <Gold.Chemscore.ZeroCoef>
-5.4800

> <Gold.Chemscore.Hbond>
1.4997

> <Gold.Chemscore.Metal>
0.0000

> <Gold.Chemscore.Lipo>
111.4322

> <Gold.Chemscore.Internal_Hbond>
0.0000

> <Gold.Chemscore.DEClash>
0.1407

> <Gold.Chemscore.DEInternal>
2.3666

> <Gold.Chemscore.Rot>
3.1026

> <Gold.Chemscore.Internal.Correction>
   9.000000E+99

> <Gold.Chemscore.Hbonds>
donor molecule, donor type, donor heavy atom, donor atom, acceptor molecule, acceptor atom, score
      P1  H  6896  6909       L1    12  0.05
      P1  H  7997  8008       L1    22  0.29

> <Gold.Chemscore.Hbond.Weighted>
-5.0091

> <Gold.Chemscore.Metal.Weighted>
-0.0000

> <Gold.Chemscore.Lipo.Weighted>
-13.0376

> <Gold.Chemscore.Internal_Hbond.Weighted>
0.0000

> <Gold.Chemscore.DEClash.Weighted>
0.1407

> <Gold.Chemscore.DEInternal.Weighted>
2.3666

> <Gold.Chemscore.Rot.Weighted>
7.9426

> <Gold.Chemscore.Internal.Correction.Weighted>
   9.000000E+99

> <Gold.Protein.RotatedTorsions>
[ 6907 6896 6895 6894 ] final   57.70 input  -60.11 | X-H torsion
[ 7974 7965 7964 7962 ] final -110.76 input  175.53 | X-H torsion
[ 8008 7997 7996 7995 ] final  -90.75 input   59.86 | X-H torsion
[ 10167 10162 10161 10158 ] final   41.59 input  -65.29 | X-H torsion
[ 10718 10713 10712 10709 ] final  120.19 input   66.30 | X-H torsion
[ 10763 10752 10751 10750 ] final   92.98 input  -60.55 | X-H torsion
[ 11005 11000 10999 10996 ] final  120.05 input  -57.11 | X-H torsion

> <Gold.Protein.ActiveResidues>
 VAL166  LYS551  ARG553  GLY616  TRP617  ASP618  TYR619  PRO620  LYS621  CYS622 
 ASP623  PHE694  ASN695  SER759  ASP760  ASP761  ALA762  ILE779  LEU786  VAL792 
 PHE793  MET794  SER795  GLU796  ALA797  LYS798  CYS799  TRP800  GLU811  SER814 

> <Gold.Protein.RotatedAtoms>
  152.3755  134.6669  160.0160 H   0  0  0  0  0  0  0  0  0  0  0  0  # atno 6907 bound_to 6896
  151.6949  133.3305  159.3260 H   0  0  0  0  0  0  0  0  0  0  0  0  # atno 6908 bound_to 6896
  150.7706  134.6602  159.6380 H   0  0  0  0  0  0  0  0  0  0  0  0  # atno 6909 bound_to 6896
  145.1643  140.8894  143.3572 H   0  0  0  0  0  0  0  0  0  0  0  0  # atno 7974 bound_to 7965
  154.7024  140.0527  157.0471 H   0  0  0  0  0  0  0  0  0  0  0  0  # atno 8008 bound_to 7997
  155.0667  140.3195  155.4624 H   0  0  0  0  0  0  0  0  0  0  0  0  # atno 8009 bound_to 7997
  156.2764  140.2089  156.5794 H   0  0  0  0  0  0  0  0  0  0  0  0  # atno 8010 bound_to 7997
  140.3629  144.2206  150.6137 H   0  0  0  0  0  0  0  0  0  0  0  0  # atno 10167 bound_to 10162
  157.5908  131.1064  150.8001 H   0  0  0  0  0  0  0  0  0  0  0  0  # atno 10718 bound_to 10713
  153.2252  135.4342  155.0534 H   0  0  0  0  0  0  0  0  0  0  0  0  # atno 10763 bound_to 10752
  154.8270  135.3366  154.6869 H   0  0  0  0  0  0  0  0  0  0  0  0  # atno 10764 bound_to 10752
  153.7298  135.7011  153.5048 H   0  0  0  0  0  0  0  0  0  0  0  0  # atno 10765 bound_to 10752
  139.9170  134.9632  156.7748 H   0  0  0  0  0  0  0  0  0  0  0  0  # atno 11005 bound_to 11000
  145.0298  139.3350  143.6030 LP  0  0  0  0  0  0  0  0  0  0  0  0  # atno 17320 bound_to 7965
  146.3478  139.9632  142.8715 LP  0  0  0  0  0  0  0  0  0  0  0  0  # atno 17321 bound_to 7965
  140.5110  143.2291  151.8536 LP  0  0  0  0  0  0  0  0  0  0  0  0  # atno 17342 bound_to 10162
  139.4812  144.4950  151.9136 LP  0  0  0  0  0  0  0  0  0  0  0  0  # atno 17343 bound_to 10162
  156.8423  130.5052  149.5320 LP  0  0  0  0  0  0  0  0  0  0  0  0  # atno 17370 bound_to 10713
  156.0963  130.5935  150.9819 LP  0  0  0  0  0  0  0  0  0  0  0  0  # atno 17371 bound_to 10713
  140.6592  133.9661  155.7795 LP  0  0  0  0  0  0  0  0  0  0  0  0  # atno 17394 bound_to 11000
  141.0655  134.0283  157.3599 LP  0  0  0  0  0  0  0  0  0  0  0  0  # atno 17395 bound_to 11000

$$$$
