AV-unprocessed.smi:114|AV-procd|sdf|1116|dock3
  -GOLD-   2262018233D 1   1.00000     0.00000
 Structure written by MMmdl.
 32 34  0  0  0  0  0  0  0  0  1 V2000
  144.8116  133.5102  154.6716 N   0  0  0  0  0  0  0  0  0  0  0  0
  144.5648  134.8074  154.4411 C   0  0  0  0  0  0  0  0  0  0  0  0
  143.3299  135.1641  154.0161 N   0  0  0  0  0  0  0  0  0  0  0  0
  143.0428  136.4491  153.7721 C   0  0  0  0  0  0  0  0  0  0  0  0
  141.7844  136.7139  153.3495 F   0  0  0  0  0  0  0  0  0  0  0  0
  143.8595  137.5013  153.8974 N   0  0  0  0  0  0  0  0  0  0  0  0
  145.1036  137.1429  154.3275 C   0  0  0  0  0  0  0  0  0  0  0  0
  145.5358  135.8227  154.6194 C   0  0  0  0  0  0  0  0  0  0  0  0
  146.8632  135.8394  155.0261 N   0  0  0  0  0  0  0  0  0  0  0  0
  147.1926  137.1031  154.9738 C   0  0  0  0  0  0  0  0  0  0  0  0
  146.1905  137.9562  154.5588 N   0  0  0  0  0  0  0  0  0  0  0  0
  146.2158  139.4448  154.3846 C   0  0  1  0  0  0  0  0  0  0  0  0
  146.7448  140.0151  155.5447 O   0  0  0  0  0  0  0  0  0  0  0  0
  148.0906  140.4186  155.3147 C   0  0  2  0  0  0  0  0  0  0  0  0
  148.4945  141.4908  156.3377 C   0  0  0  0  0  0  0  0  0  0  0  0
  149.7541  142.0293  155.9969 O   0  0  0  0  0  0  0  0  0  0  0  0
  148.0031  140.9349  153.8788 C   0  0  1  0  0  0  0  0  0  0  0  0
  149.2696  141.0831  153.2639 O   0  0  0  0  0  0  0  0  0  0  0  0
  147.1153  139.8908  153.2064 C   0  0  1  0  0  0  0  0  0  0  0  0
  147.8696  138.8359  152.6264 O   0  0  0  0  0  0  0  0  0  0  0  0
  145.1687  139.7283  154.2716 H   0  0  0  0  0  0  0  0  0  0  0  0
  148.7580  139.5555  155.3585 H   0  0  0  0  0  0  0  0  0  0  0  0
  147.4912  141.8985  153.8690 H   0  0  0  0  0  0  0  0  0  0  0  0
  146.4975  140.3398  152.4281 H   0  0  0  0  0  0  0  0  0  0  0  0
  145.7267  133.2226  154.9879 H   0  0  0  0  0  0  0  0  0  0  0  0
  144.0846  132.8241  154.5284 H   0  0  0  0  0  0  0  0  0  0  0  0
  148.1830  137.4434  155.2391 H   0  0  0  0  0  0  0  0  0  0  0  0
  147.7752  142.3100  156.3276 H   0  0  0  0  0  0  0  0  0  0  0  0
  148.5138  141.0880  157.3507 H   0  0  0  0  0  0  0  0  0  0  0  0
  149.6335  142.9254  155.7223 H   0  0  0  0  0  0  0  0  0  0  0  0
  149.3607  140.4155  152.6013 H   0  0  0  0  0  0  0  0  0  0  0  0
  148.3701  139.1881  151.9060 H   0  0  0  0  0  0  0  0  0  0  0  0
  1  2  1  0  0  0  0
  1 25  1  0  0  0  0
  1 26  1  0  0  0  0
  2  8  1  0  0  0  0
  2  3  2  0  0  0  0
  3  4  1  0  0  0  0
  4  5  1  0  0  0  0
  4  6  2  0  0  0  0
  6  7  1  0  0  0  0
  7 11  1  0  0  0  0
  7  8  2  0  0  0  0
  8  9  1  0  0  0  0
  9 10  2  0  0  0  0
 10 11  1  0  0  0  0
 10 27  1  0  0  0  0
 11 12  1  0  0  0  0
 12 21  1  0  0  0  0
 12 19  1  0  0  0  0
 12 13  1  0  0  0  0
 13 14  1  0  0  0  0
 14 22  1  0  0  0  0
 14 15  1  0  0  0  0
 14 17  1  0  0  0  0
 15 16  1  0  0  0  0
 15 28  1  0  0  0  0
 15 29  1  0  0  0  0
 16 30  1  0  0  0  0
 17 23  1  0  0  0  0
 17 18  1  0  0  0  0
 17 19  1  0  0  0  0
 18 31  1  0  0  0  0
 19 24  1  0  0  0  0
 19 20  1  0  0  0  0
 20 32  1  0  0  0  0
M  END
> <s_m_source_file>
AV-unprocessed.smi

> <i_m_source_file_index>
114

> <i_lp_mmshare_version>
43012

> <i_f3d_flags>
0

> <s_epik_input>
RmMobjEpbmMoW05IMl0pYyhjMTIpbltjSF1uMltDQEBIXTNPW0NASF0oW0NIMl1bT0hdKVtDQEBIXShbT0hdKVtDQEBIXTNbT0hd

> <s_epik_cmdline>
J2VwaWtfcHl0aG9uJywgJy1waCcsICc3LjAnLCAnLXRuJywgJzgnLCAnLW1hJywgJzIwMCcsICctbWV0YWxfYmluZGluZycsICctaW1hZScsICc8aW5maWxlLm1hZT4nLCAnLW9tYWUnLCAnPG91dGZpbGUubWFlPic=

> <r_lp_tautomer_probability>
1

> <r_epik_Ionization_Penalty>
1.13199e-05

> <r_epik_Ionization_Penalty_Charging>
0

> <r_epik_Ionization_Penalty_Neutral>
1.13199e-05

> <r_epik_State_Penalty>
-0

> <r_epik_Charging_Adjusted_Penalty>
0

> <i_epik_Tot_Q>
0

> <i_epik_Tot_abs_Q>
0

> <r_epik_Metal_State_Penalty>
-0

> <b_epik_Metal_Only>
0

> <s_epik_Chemistry_Notes>
This compound contains an acetal/aminal-like group ( X-CH(R)-Y where X, Y are N, S, or O) that may be acid/base labile, releasing an aldehyde.

> <s_lp_Force_Field>
OPLS_2005

> <r_lp_Energy>
42.7446

> <b_lp_Chiralities_Consistent>
1

> <s_lp_Variant>
AV-unprocessed.smi:114-10

> <Gold.Version>
5.8.1

> <Gold.Id.Protein>
6NUR|6NUR_protein|mol2

> <Gold.PLP.Fitness>
34.5503

> <Gold.PLP.PLP>
-20.5240

> <Gold.PLP.part.hbond>
-6.4271

> <Gold.PLP.part.metal>
0.0000

> <Gold.PLP.part.buried>
-5.6892

> <Gold.PLP.part.nonpolar>
-9.5451

> <Gold.PLP.part.repulsive>
0.3041

> <Gold.PLP.ligand.clash>
0.1585

> <Gold.PLP.ligand.torsion>
0.1845

> <Gold.PLP.Chemscore.Hbond>
4.8266

> <Gold.PLP.Chemscore.CHOScore>
0.0000

> <Gold.PLP.Chemscore.Metal>
0.0000

> <Gold.Chemscore.Hbonds>
donor molecule, donor type, donor heavy atom, donor atom, acceptor molecule, acceptor atom, score
      L1  H     1    26       P1 10957  1.00
      L1  H    16    30       P1  8028  1.00
      L1  H    18    31       P1  7957  0.92
      L1  H    20    32       P1  7957  1.00
      P1  H  7989  7998       L1    18  0.01
      P1  H  8011  8017       L1    18  0.90

> <Gold.PLP.Chemscore.Internal.Correction>
0.0740

> <Gold.Rescore>
     Score         DG    S(hbond)    S(metal)    S(lipo)     H(rot)  DE(clash)    DE(int)     intcor
     11.31     -12.59       4.37        0.00      24.09       4.03       0.02       1.27       ----

> <Gold.Chemscore.Fitness>
11.3080

> <Gold.Chemscore.DG>
-12.5924

> <Gold.Chemscore.ZeroCoef>
-5.4800

> <Gold.Chemscore.Hbond>
4.3727

> <Gold.Chemscore.Metal>
0.0000

> <Gold.Chemscore.Lipo>
24.0890

> <Gold.Chemscore.Internal_Hbond>
0.0000

> <Gold.Chemscore.DEClash>
0.0178

> <Gold.Chemscore.DEInternal>
1.2666

> <Gold.Chemscore.Rot>
4.0277

> <Gold.Chemscore.Internal.Correction>
   9.000000E+99

> <Gold.Chemscore.Hbonds>
donor molecule, donor type, donor heavy atom, donor atom, acceptor molecule, acceptor atom, score
      L1  H     1    26       P1 10957  0.99
      L1  H    16    30       P1  8028  0.99
      L1  H    18    31       P1  7957  0.84
      L1  H    20    32       P1  7957  0.98
      P1  H  8011  8017       L1    18  0.18

> <Gold.Chemscore.Hbond.Weighted>
-14.6049

> <Gold.Chemscore.Metal.Weighted>
-0.0000

> <Gold.Chemscore.Lipo.Weighted>
-2.8184

> <Gold.Chemscore.Internal_Hbond.Weighted>
0.0000

> <Gold.Chemscore.DEClash.Weighted>
0.0178

> <Gold.Chemscore.DEInternal.Weighted>
1.2666

> <Gold.Chemscore.Rot.Weighted>
10.3110

> <Gold.Chemscore.Internal.Correction.Weighted>
   9.000000E+99

> <Gold.Protein.RotatedTorsions>
[ 6907 6896 6895 6894 ] final  -94.66 input  -60.11 | X-H torsion
[ 7974 7965 7964 7962 ] final -151.05 input  175.53 | X-H torsion
[ 8008 7997 7996 7995 ] final  123.14 input   59.86 | X-H torsion
[ 10167 10162 10161 10158 ] final -152.57 input  -65.29 | X-H torsion
[ 10718 10713 10712 10709 ] final   -2.73 input   66.30 | X-H torsion
[ 10763 10752 10751 10750 ] final   69.92 input  -60.55 | X-H torsion
[ 11005 11000 10999 10996 ] final   17.03 input  -57.11 | X-H torsion

> <Gold.Protein.ActiveResidues>
 VAL166  LYS551  ARG553  GLY616  TRP617  ASP618  TYR619  PRO620  LYS621  CYS622 
 ASP623  PHE694  ASN695  SER759  ASP760  ASP761  ALA762  ILE779  LEU786  VAL792 
 PHE793  MET794  SER795  GLU796  ALA797  LYS798  CYS799  TRP800  GLU811  SER814 

> <Gold.Protein.RotatedAtoms>
  150.6946  134.1778  159.4236 H   0  0  0  0  0  0  0  0  0  0  0  0  # atno 6907 bound_to 6896
  151.9753  135.0053  160.0564 H   0  0  0  0  0  0  0  0  0  0  0  0  # atno 6908 bound_to 6896
  152.1804  133.4668  159.4992 H   0  0  0  0  0  0  0  0  0  0  0  0  # atno 6909 bound_to 6896
  144.7872  140.4850  143.5798 H   0  0  0  0  0  0  0  0  0  0  0  0  # atno 7974 bound_to 7965
  156.2755  140.2769  156.1580 H   0  0  0  0  0  0  0  0  0  0  0  0  # atno 8008 bound_to 7997
  155.0783  140.0387  157.2649 H   0  0  0  0  0  0  0  0  0  0  0  0  # atno 8009 bound_to 7997
  154.6984  140.2644  155.6749 H   0  0  0  0  0  0  0  0  0  0  0  0  # atno 8010 bound_to 7997
  139.7170  143.9017  152.2489 H   0  0  0  0  0  0  0  0  0  0  0  0  # atno 10167 bound_to 10162
  156.7866  130.5348  149.5742 H   0  0  0  0  0  0  0  0  0  0  0  0  # atno 10718 bound_to 10713
  153.0313  135.5193  154.7362 H   0  0  0  0  0  0  0  0  0  0  0  0  # atno 10763 bound_to 10752
  154.6375  135.2908  155.0146 H   0  0  0  0  0  0  0  0  0  0  0  0  # atno 10764 bound_to 10752
  154.1076  135.6627  153.4932 H   0  0  0  0  0  0  0  0  0  0  0  0  # atno 10765 bound_to 10752
  140.4405  134.1327  155.7690 H   0  0  0  0  0  0  0  0  0  0  0  0  # atno 11005 bound_to 11000
  145.5890  139.1494  143.3193 LP  0  0  0  0  0  0  0  0  0  0  0  0  # atno 17320 bound_to 7965
  146.2109  140.6016  142.9060 LP  0  0  0  0  0  0  0  0  0  0  0  0  # atno 17321 bound_to 7965
  139.8902  144.6969  150.8778 LP  0  0  0  0  0  0  0  0  0  0  0  0  # atno 17342 bound_to 10162
  140.7746  143.3592  151.1861 LP  0  0  0  0  0  0  0  0  0  0  0  0  # atno 17343 bound_to 10162
  156.1185  130.6092  151.0157 LP  0  0  0  0  0  0  0  0  0  0  0  0  # atno 17370 bound_to 10713
  157.6621  131.0879  150.7814 LP  0  0  0  0  0  0  0  0  0  0  0  0  # atno 17371 bound_to 10713
  141.1708  133.8613  157.1577 LP  0  0  0  0  0  0  0  0  0  0  0  0  # atno 17394 bound_to 11000
  140.0073  135.0003  157.0320 LP  0  0  0  0  0  0  0  0  0  0  0  0  # atno 17395 bound_to 11000

$$$$
