AV-unprocessed.smi:149|AV-procd|sdf|1235|dock9
  -GOLD-   2262018443D 1   1.00000     0.00000
 Structure written by MMmdl.
 60 64  0  0  0  0  0  0  0  0  2 V2000
  153.9415  131.4762  155.6602 C   0  0  0  0  0  0  0  0  0  0  0  0
  152.9881  130.9238  156.7394 C   0  0  1  0  0  0  0  0  0  0  0  0
  151.9132  131.9652  157.0942 C   0  0  0  0  0  0  0  0  0  0  0  0
  150.7268  131.6000  156.3293 N   0  0  0  0  0  0  0  0  0  0  0  0
  149.8385  132.5407  155.9156 C   0  0  0  0  0  0  0  0  0  0  0  0
  149.8064  133.7370  156.5604 N   0  0  0  0  0  0  0  0  0  0  0  0
  148.9473  134.6876  156.1830 C   0  0  0  0  0  0  0  0  0  0  0  0
  148.0499  134.6558  155.1976 N   0  0  0  0  0  0  0  0  0  0  0  0
  148.0814  133.4648  154.5335 C   0  0  0  0  0  0  0  0  0  0  0  0
  148.9379  132.3630  154.8239 C   0  0  0  0  0  0  0  0  0  0  0  0
  148.6908  131.3303  153.9267 N   0  0  0  0  0  0  0  0  0  0  0  0
  147.7405  131.7885  153.1597 C   0  0  0  0  0  0  0  0  0  0  0  0
  147.3120  133.0635  153.4520 N   0  0  0  0  0  0  0  0  0  0  0  0
  146.2857  133.7941  152.7611 C   0  0  0  0  0  0  0  0  0  0  0  0
  144.8884  133.2083  152.5503 C   0  0  0  0  0  0  0  0  0  0  0  0
  144.7830  133.9651  151.2066 C   0  0  0  0  0  0  0  0  0  0  0  0
  144.1674  133.1592  150.0509 C   0  0  0  0  0  0  0  0  0  0  0  0
  144.0988  133.9279  148.8669 O   0  0  0  0  0  0  0  0  0  0  0  0
  144.0984  135.3447  151.2852 C   0  0  0  0  0  0  0  0  0  0  0  0
  144.6059  136.2318  150.3089 O   0  0  0  0  0  0  0  0  0  0  0  0
  146.3289  133.9946  151.2454 C   0  0  0  0  0  0  0  0  0  0  0  0
  150.9813  130.3957  155.5533 C   0  0  0  0  0  0  0  0  0  0  0  0
  152.1429  129.7158  156.2856 C   0  0  1  0  0  0  0  0  0  0  0  0
  152.8785  128.6912  155.4924 N   0  3  0  0  0  0  0  0  0  0  0  0
  154.2449  128.4344  156.0161 C   0  0  0  0  0  0  0  0  0  0  0  0
  154.9824  127.4141  155.1334 C   0  0  0  0  0  0  0  0  0  0  0  0
  154.2303  126.2099  155.0700 O   0  0  0  0  0  0  0  0  0  0  0  0
  152.9504  126.4175  154.4886 C   0  0  0  0  0  0  0  0  0  0  0  0
  152.1446  127.4080  155.3460 C   0  0  0  0  0  0  0  0  0  0  0  0
  153.4068  131.7488  154.7500 H   0  0  0  0  0  0  0  0  0  0  0  0
  154.7111  130.7541  155.3897 H   0  0  0  0  0  0  0  0  0  0  0  0
  154.4531  132.3699  156.0185 H   0  0  0  0  0  0  0  0  0  0  0  0
  153.5741  130.6764  157.6252 H   0  0  0  0  0  0  0  0  0  0  0  0
  151.6693  131.9149  158.1558 H   0  0  0  0  0  0  0  0  0  0  0  0
  152.2504  132.9789  156.8740 H   0  0  0  0  0  0  0  0  0  0  0  0
  148.9839  135.6052  156.7518 H   0  0  0  0  0  0  0  0  0  0  0  0
  147.3258  131.2024  152.3526 H   0  0  0  0  0  0  0  0  0  0  0  0
  146.2087  134.7625  153.2588 H   0  0  0  0  0  0  0  0  0  0  0  0
  144.8936  132.1244  152.4262 H   0  0  0  0  0  0  0  0  0  0  0  0
  144.1568  133.5077  153.3015 H   0  0  0  0  0  0  0  0  0  0  0  0
  144.7314  132.2478  149.8512 H   0  0  0  0  0  0  0  0  0  0  0  0
  143.1539  132.8421  150.2987 H   0  0  0  0  0  0  0  0  0  0  0  0
  144.9464  134.3161  148.7121 H   0  0  0  0  0  0  0  0  0  0  0  0
  143.0188  135.2628  151.1570 H   0  0  0  0  0  0  0  0  0  0  0  0
  144.2509  135.8045  152.2619 H   0  0  0  0  0  0  0  0  0  0  0  0
  144.8639  135.7287  149.5517 H   0  0  0  0  0  0  0  0  0  0  0  0
  146.7814  134.9359  150.9320 H   0  0  0  0  0  0  0  0  0  0  0  0
  146.7835  133.1549  150.7175 H   0  0  0  0  0  0  0  0  0  0  0  0
  150.0964  129.7592  155.5162 H   0  0  0  0  0  0  0  0  0  0  0  0
  151.2603  130.6628  154.5331 H   0  0  0  0  0  0  0  0  0  0  0  0
  151.7345  129.2292  157.1739 H   0  0  0  0  0  0  0  0  0  0  0  0
  154.8223  129.3577  156.0535 H   0  0  0  0  0  0  0  0  0  0  0  0
  154.1799  128.0600  157.0390 H   0  0  0  0  0  0  0  0  0  0  0  0
  155.1466  127.8108  154.1301 H   0  0  0  0  0  0  0  0  0  0  0  0
  155.9638  127.1944  155.5538 H   0  0  0  0  0  0  0  0  0  0  0  0
  153.0564  126.7839  153.4662 H   0  0  0  0  0  0  0  0  0  0  0  0
  152.4307  125.4611  154.4310 H   0  0  0  0  0  0  0  0  0  0  0  0
  151.9537  126.9806  156.3315 H   0  0  0  0  0  0  0  0  0  0  0  0
  151.1763  127.5697  154.8729 H   0  0  0  0  0  0  0  0  0  0  0  0
  152.9843  129.0685  154.5616 H   0  0  0  0  0  0  0  0  0  0  0  0
  1  2  1  0  0  0  0
  1 30  1  0  0  0  0
  1 31  1  0  0  0  0
  1 32  1  0  0  0  0
  2 23  1  0  0  0  0
  2  3  1  0  0  0  0
  2 33  1  0  0  0  0
  3  4  1  0  0  0  0
  3 34  1  0  0  0  0
  3 35  1  0  0  0  0
  4  5  1  0  0  0  0
  4 22  1  0  0  0  0
  5 10  1  0  0  0  0
  5  6  2  0  0  0  0
  6  7  1  0  0  0  0
  7  8  2  0  0  0  0
  7 36  1  0  0  0  0
  8  9  1  0  0  0  0
  9 13  1  0  0  0  0
  9 10  2  0  0  0  0
 10 11  1  0  0  0  0
 11 12  2  0  0  0  0
 12 13  1  0  0  0  0
 12 37  1  0  0  0  0
 13 14  1  0  0  0  0
 14 21  1  0  0  0  0
 14 15  1  0  0  0  0
 14 38  1  0  0  0  0
 15 16  1  0  0  0  0
 15 39  1  0  0  0  0
 15 40  1  0  0  0  0
 16 17  1  0  0  0  0
 16 19  1  0  0  0  0
 16 21  1  0  0  0  0
 17 18  1  0  0  0  0
 17 41  1  0  0  0  0
 17 42  1  0  0  0  0
 18 43  1  0  0  0  0
 19 20  1  0  0  0  0
 19 44  1  0  0  0  0
 19 45  1  0  0  0  0
 20 46  1  0  0  0  0
 21 47  1  0  0  0  0
 21 48  1  0  0  0  0
 22 23  1  0  0  0  0
 22 49  1  0  0  0  0
 22 50  1  0  0  0  0
 23 24  1  0  0  0  0
 23 51  1  0  0  0  0
 24 29  1  0  0  0  0
 24 25  1  0  0  0  0
 24 60  1  0  0  0  0
 25 26  1  0  0  0  0
 25 52  1  0  0  0  0
 25 53  1  0  0  0  0
 26 27  1  0  0  0  0
 26 54  1  0  0  0  0
 26 55  1  0  0  0  0
 27 28  1  0  0  0  0
 28 29  1  0  0  0  0
 28 56  1  0  0  0  0
 28 57  1  0  0  0  0
 29 58  1  0  0  0  0
 29 59  1  0  0  0  0
M  CHG  1  24   1
M  END
> <s_m_source_file>
AV-unprocessed.smi

> <i_m_source_file_index>
149

> <i_lp_mmshare_version>
43012

> <i_f3d_flags>
0

> <s_epik_input>
W0NIMl0xW0NIMl1PW0NIMl1bQ0gyXU4xW0NAQEhdMltDSDJdTihbQ0gyXVtDQEhdMltDSDNdKWMobltjSF1uMyljKGMzNCluW2NIXW40W0NIXShbQ0gyXTUpW0NIMl1DNShbQ0gyXVtPSF0pW0NIMl1bT0hd

> <s_epik_cmdline>
J2VwaWtfcHl0aG9uJywgJy1waCcsICc3LjAnLCAnLXRuJywgJzgnLCAnLW1hJywgJzIwMCcsICctbWV0YWxfYmluZGluZycsICctaW1hZScsICc8aW5maWxlLm1hZT4nLCAnLW9tYWUnLCAnPG91dGZpbGUubWFlPic=

> <r_lp_tautomer_probability>
1

> <r_epik_Ionization_Penalty>
0.404847

> <r_epik_Ionization_Penalty_Charging>
0.404623

> <r_epik_Ionization_Penalty_Neutral>
0.000224096

> <r_epik_State_Penalty>
0.238803

> <r_epik_Charging_Adjusted_Penalty>
0.643425

> <i_epik_Tot_Q>
1

> <i_epik_Tot_abs_Q>
1

> <r_epik_Metal_State_Penalty>
0.239083

> <b_epik_Metal_Only>
0

> <s_lp_Force_Field>
OPLS_2005

> <r_lp_Energy>
70.5457

> <b_lp_Chiralities_Consistent>
1

> <s_lp_Variant>
AV-unprocessed.smi:149-2

> <Gold.Version>
5.8.1

> <Gold.Id.Protein>
6NUR|6NUR_protein|mol2

> <Gold.PLP.Fitness>
55.4457

> <Gold.PLP.PLP>
-46.9695

> <Gold.PLP.part.hbond>
-4.4385

> <Gold.PLP.part.metal>
0.0000

> <Gold.PLP.part.buried>
-4.7639

> <Gold.PLP.part.nonpolar>
-37.8293

> <Gold.PLP.part.repulsive>
0.4753

> <Gold.PLP.ligand.clash>
0.0000

> <Gold.PLP.ligand.torsion>
0.9557

> <Gold.PLP.Chemscore.Hbond>
2.9920

> <Gold.PLP.Chemscore.CHOScore>
0.2331

> <Gold.PLP.Chemscore.Metal>
0.0000

> <Gold.Chemscore.Hbonds>
donor molecule, donor type, donor heavy atom, donor atom, acceptor molecule, acceptor atom, score
      L1  H    18    43       P1  7921  0.98
      L1  C    12    37       P1 10747  0.44

> <Gold.PLP.Chemscore.Internal.Correction>
0.7123

> <Gold.Rescore>
     Score         DG    S(hbond)    S(metal)    S(lipo)     H(rot)  DE(clash)    DE(int)     intcor
     12.50     -16.80       2.94        0.00      80.44       3.09       1.71       2.60       ----

> <Gold.Chemscore.Fitness>
12.4966

> <Gold.Chemscore.DG>
-16.8009

> <Gold.Chemscore.ZeroCoef>
-5.4800

> <Gold.Chemscore.Hbond>
2.9408

> <Gold.Chemscore.Metal>
0.0000

> <Gold.Chemscore.Lipo>
80.4448

> <Gold.Chemscore.Internal_Hbond>
0.0000

> <Gold.Chemscore.DEClash>
1.7063

> <Gold.Chemscore.DEInternal>
2.5981

> <Gold.Chemscore.Rot>
3.0912

> <Gold.Chemscore.Internal.Correction>
   9.000000E+99

> <Gold.Chemscore.Hbonds>
donor molecule, donor type, donor heavy atom, donor atom, acceptor molecule, acceptor atom, score
      L1  H    18    43       P1  7921  0.93
      L1  H    20    46       P1  7921  0.03

> <Gold.Chemscore.Hbond.Weighted>
-9.8223

> <Gold.Chemscore.Metal.Weighted>
-0.0000

> <Gold.Chemscore.Lipo.Weighted>
-9.4120

> <Gold.Chemscore.Internal_Hbond.Weighted>
0.0000

> <Gold.Chemscore.DEClash.Weighted>
1.7063

> <Gold.Chemscore.DEInternal.Weighted>
2.5981

> <Gold.Chemscore.Rot.Weighted>
7.9135

> <Gold.Chemscore.Internal.Correction.Weighted>
   9.000000E+99

> <Gold.Protein.RotatedTorsions>
[ 6907 6896 6895 6894 ] final  106.06 input  -60.11 | X-H torsion
[ 7974 7965 7964 7962 ] final    8.97 input  175.53 | X-H torsion
[ 8008 7997 7996 7995 ] final  -25.76 input   59.86 | X-H torsion
[ 10167 10162 10161 10158 ] final  -49.24 input  -65.29 | X-H torsion
[ 10718 10713 10712 10709 ] final -132.79 input   66.30 | X-H torsion
[ 10763 10752 10751 10750 ] final -144.75 input  -60.55 | X-H torsion
[ 11005 11000 10999 10996 ] final   -7.75 input  -57.11 | X-H torsion

> <Gold.Protein.ActiveResidues>
 VAL166  LYS551  ARG553  GLY616  TRP617  ASP618  TYR619  PRO620  LYS621  CYS622 
 ASP623  PHE694  ASN695  SER759  ASP760  ASP761  ALA762  ILE779  LEU786  VAL792 
 PHE793  MET794  SER795  GLU796  ALA797  LYS798  CYS799  TRP800  GLU811  SER814 

> <Gold.Protein.RotatedAtoms>
  152.5208  133.9437  159.7638 H   0  0  0  0  0  0  0  0  0  0  0  0  # atno 6907 bound_to 6896
  150.9761  133.6285  159.2737 H   0  0  0  0  0  0  0  0  0  0  0  0  # atno 6908 bound_to 6896
  151.3479  135.0883  159.9446 H   0  0  0  0  0  0  0  0  0  0  0  0  # atno 6909 bound_to 6896
  146.2409  139.9854  142.8431 H   0  0  0  0  0  0  0  0  0  0  0  0  # atno 7974 bound_to 7965
  154.4459  140.1918  156.0669 H   0  0  0  0  0  0  0  0  0  0  0  0  # atno 8008 bound_to 7997
  156.0540  140.3305  155.7357 H   0  0  0  0  0  0  0  0  0  0  0  0  # atno 8009 bound_to 7997
  155.5513  140.0595  157.2840 H   0  0  0  0  0  0  0  0  0  0  0  0  # atno 8010 bound_to 7997
  140.6694  143.2706  151.4186 H   0  0  0  0  0  0  0  0  0  0  0  0  # atno 10167 bound_to 10162
  156.2382  130.7079  151.0929 H   0  0  0  0  0  0  0  0  0  0  0  0  # atno 10718 bound_to 10713
  154.8414  135.3432  154.6395 H   0  0  0  0  0  0  0  0  0  0  0  0  # atno 10763 bound_to 10752
  153.7006  135.6970  153.5069 H   0  0  0  0  0  0  0  0  0  0  0  0  # atno 10764 bound_to 10752
  153.2526  135.4348  155.0767 H   0  0  0  0  0  0  0  0  0  0  0  0  # atno 10765 bound_to 10752
  140.7161  133.8868  155.8786 H   0  0  0  0  0  0  0  0  0  0  0  0  # atno 11005 bound_to 11000
  145.1553  140.9644  143.4409 LP  0  0  0  0  0  0  0  0  0  0  0  0  # atno 17320 bound_to 7965
  145.0167  139.3461  143.6093 LP  0  0  0  0  0  0  0  0  0  0  0  0  # atno 17321 bound_to 7965
  139.5956  144.1404  152.2140 LP  0  0  0  0  0  0  0  0  0  0  0  0  # atno 17342 bound_to 10162
  140.0772  144.5730  150.7148 LP  0  0  0  0  0  0  0  0  0  0  0  0  # atno 17343 bound_to 10162
  157.7163  131.0707  150.6311 LP  0  0  0  0  0  0  0  0  0  0  0  0  # atno 17370 bound_to 10713
  156.6383  130.4451  149.5761 LP  0  0  0  0  0  0  0  0  0  0  0  0  # atno 17371 bound_to 10713
  141.0043  134.1107  157.4286 LP  0  0  0  0  0  0  0  0  0  0  0  0  # atno 17394 bound_to 11000
  139.8859  135.0077  156.6467 LP  0  0  0  0  0  0  0  0  0  0  0  0  # atno 17395 bound_to 11000

$$$$
