AV-unprocessed.smi:791|AV-procd|sdf|3748|dock1
  -GOLD-   22720 1183D 1   1.00000     0.00000
 Structure written by MMmdl.
 30 32  0  0  0  0  0  0  0  0  2 V2000
  152.6317  143.2526  160.5514 C   0  0  0  0  0  0  0  0  0  0  0  0
  152.2358  144.6655  160.0905 C   0  0  0  0  0  0  0  0  0  0  0  0
  150.9383  144.6408  159.3800 N   0  3  0  0  0  0  0  0  0  0  0  0
  150.9414  143.7476  158.2004 C   0  0  0  0  0  0  0  0  0  0  0  0
  151.3312  142.3105  158.5999 C   0  0  1  0  0  0  0  0  0  0  0  0
  151.3260  141.3813  157.4254 C   0  0  0  0  0  0  0  0  0  0  0  0
  150.7754  141.7362  156.2706 N   0  0  0  0  0  0  0  0  0  0  0  0
  150.9938  140.6206  155.4499 O   0  0  0  0  0  0  0  0  0  0  0  0
  151.6411  139.7156  156.2215 C   0  0  0  0  0  0  0  0  0  0  0  0
  152.0467  138.4145  155.6175 C   0  0  0  0  0  0  0  0  0  0  0  0
  153.0379  138.3681  154.4778 C   0  0  0  0  0  0  0  0  0  0  0  0
  151.5904  138.0275  154.2291 C   0  0  0  0  0  0  0  0  0  0  0  0
  151.8992  140.1457  157.4539 N   0  0  0  0  0  0  0  0  0  0  0  0
  152.6683  142.2768  159.3652 C   0  0  0  0  0  0  0  0  0  0  0  0
  151.9191  142.8970  161.2969 H   0  0  0  0  0  0  0  0  0  0  0  0
  153.6052  143.2788  161.0421 H   0  0  0  0  0  0  0  0  0  0  0  0
  152.1601  145.3356  160.9470 H   0  0  0  0  0  0  0  0  0  0  0  0
  152.9995  145.0780  159.4298 H   0  0  0  0  0  0  0  0  0  0  0  0
  150.2271  144.3217  160.0225 H   0  0  0  0  0  0  0  0  0  0  0  0
  149.9507  143.7607  157.7451 H   0  0  0  0  0  0  0  0  0  0  0  0
  151.6383  144.1425  157.4597 H   0  0  0  0  0  0  0  0  0  0  0  0
  150.5648  141.9569  159.2927 H   0  0  0  0  0  0  0  0  0  0  0  0
  152.1025  137.6356  156.3754 H   0  0  0  0  0  0  0  0  0  0  0  0
  153.4051  139.3157  154.0883 H   0  0  0  0  0  0  0  0  0  0  0  0
  153.7552  137.5500  154.4682 H   0  0  0  0  0  0  0  0  0  0  0  0
  151.3425  136.9825  154.0553 H   0  0  0  0  0  0  0  0  0  0  0  0
  150.9957  138.7478  153.6706 H   0  0  0  0  0  0  0  0  0  0  0  0
  153.4876  142.5503  158.6987 H   0  0  0  0  0  0  0  0  0  0  0  0
  152.8782  141.2666  159.7186 H   0  0  0  0  0  0  0  0  0  0  0  0
  150.7093  145.5779  159.0807 H   0  0  0  0  0  0  0  0  0  0  0  0
  1 14  1  0  0  0  0
  1  2  1  0  0  0  0
  1 15  1  0  0  0  0
  1 16  1  0  0  0  0
  2  3  1  0  0  0  0
  2 17  1  0  0  0  0
  2 18  1  0  0  0  0
  3  4  1  0  0  0  0
  3 19  1  0  0  0  0
  3 30  1  0  0  0  0
  4  5  1  0  0  0  0
  4 20  1  0  0  0  0
  4 21  1  0  0  0  0
  5  6  1  0  0  0  0
  5 14  1  0  0  0  0
  5 22  1  0  0  0  0
  6 13  1  0  0  0  0
  6  7  2  0  0  0  0
  7  8  1  0  0  0  0
  8  9  1  0  0  0  0
  9 10  1  0  0  0  0
  9 13  2  0  0  0  0
 10 12  1  0  0  0  0
 10 11  1  0  0  0  0
 10 23  1  0  0  0  0
 11 12  1  0  0  0  0
 11 24  1  0  0  0  0
 11 25  1  0  0  0  0
 12 26  1  0  0  0  0
 12 27  1  0  0  0  0
 14 28  1  0  0  0  0
 14 29  1  0  0  0  0
M  CHG  1   3   1
M  END
> <s_m_source_file>
AV-unprocessed.smi

> <i_m_source_file_index>
791

> <i_lp_mmshare_version>
43012

> <i_f3d_flags>
0

> <s_epik_input>
W0NIMl0xW0NIMl1bQ0gyXVtOSF1bQ0gyXVtDQEhdMWMybm9jKG4yKVtDSF0zW0NIMl1bQ0gyXTM=

> <s_epik_cmdline>
J2VwaWtfcHl0aG9uJywgJy1waCcsICc3LjAnLCAnLXRuJywgJzgnLCAnLW1hJywgJzIwMCcsICctbWV0YWxfYmluZGluZycsICctaW1hZScsICc8aW5maWxlLm1hZT4nLCAnLW9tYWUnLCAnPG91dGZpbGUubWFlPic=

> <r_lp_tautomer_probability>
1

> <r_epik_Ionization_Penalty>
0.000532935

> <r_epik_Ionization_Penalty_Charging>
0.000532935

> <r_epik_Ionization_Penalty_Neutral>
2.72852e-13

> <r_epik_State_Penalty>
0.000332992

> <r_epik_Charging_Adjusted_Penalty>
0.000865928

> <i_epik_Tot_Q>
1

> <i_epik_Tot_abs_Q>
1

> <r_epik_Metal_State_Penalty>
-0

> <b_epik_Metal_Only>
0

> <s_lp_Force_Field>
OPLS_2005

> <r_lp_Energy>
11.8714

> <b_lp_Chiralities_Consistent>
1

> <s_lp_Variant>
AV-unprocessed.smi:791-1

> <Gold.Version>
5.8.1

> <Gold.Id.Protein>
6NUR|6NUR_protein|mol2

> <Gold.PLP.Fitness>
32.1778

> <Gold.PLP.PLP>
-30.4333

> <Gold.PLP.part.hbond>
-1.0000

> <Gold.PLP.part.metal>
0.0000

> <Gold.PLP.part.buried>
-5.5606

> <Gold.PLP.part.nonpolar>
-23.8593

> <Gold.PLP.part.repulsive>
0.2583

> <Gold.PLP.ligand.clash>
0.0000

> <Gold.PLP.ligand.torsion>
0.5123

> <Gold.PLP.Chemscore.Hbond>
0.8640

> <Gold.PLP.Chemscore.CHOScore>
0.0000

> <Gold.PLP.Chemscore.Metal>
0.0000

> <Gold.Chemscore.Hbonds>
donor molecule, donor type, donor heavy atom, donor atom, acceptor molecule, acceptor atom, score
      P1  H  7989  7998       L1     8  0.82

> <Gold.PLP.Chemscore.Internal.Correction>
0.1770

> <Gold.Rescore>
     Score         DG    S(hbond)    S(metal)    S(lipo)     H(rot)  DE(clash)    DE(int)     intcor
     14.15     -14.57       0.80        0.00      81.74       1.23       0.05       0.37       ----

> <Gold.Chemscore.Fitness>
14.1496

> <Gold.Chemscore.DG>
-14.5745

> <Gold.Chemscore.ZeroCoef>
-5.4800

> <Gold.Chemscore.Hbond>
0.8033

> <Gold.Chemscore.Metal>
0.0000

> <Gold.Chemscore.Lipo>
81.7379

> <Gold.Chemscore.Internal_Hbond>
0.0000

> <Gold.Chemscore.DEClash>
0.0524

> <Gold.Chemscore.DEInternal>
0.3725

> <Gold.Chemscore.Rot>
1.2312

> <Gold.Chemscore.Internal.Correction>
   9.000000E+99

> <Gold.Chemscore.Hbonds>
donor molecule, donor type, donor heavy atom, donor atom, acceptor molecule, acceptor atom, score
      P1  H  7989  7998       L1     8  0.72

> <Gold.Chemscore.Hbond.Weighted>
-2.6829

> <Gold.Chemscore.Metal.Weighted>
-0.0000

> <Gold.Chemscore.Lipo.Weighted>
-9.5633

> <Gold.Chemscore.Internal_Hbond.Weighted>
0.0000

> <Gold.Chemscore.DEClash.Weighted>
0.0524

> <Gold.Chemscore.DEInternal.Weighted>
0.3725

> <Gold.Chemscore.Rot.Weighted>
3.1518

> <Gold.Chemscore.Internal.Correction.Weighted>
   9.000000E+99

> <Gold.Protein.RotatedTorsions>
[ 6907 6896 6895 6894 ] final  -70.17 input  -60.11 | X-H torsion
[ 7974 7965 7964 7962 ] final  -73.36 input  175.53 | X-H torsion
[ 8008 7997 7996 7995 ] final  165.76 input   59.86 | X-H torsion
[ 10167 10162 10161 10158 ] final   -6.57 input  -65.29 | X-H torsion
[ 10718 10713 10712 10709 ] final -143.68 input   66.30 | X-H torsion
[ 10763 10752 10751 10750 ] final -130.56 input  -60.55 | X-H torsion
[ 11005 11000 10999 10996 ] final   49.37 input  -57.11 | X-H torsion

> <Gold.Protein.ActiveResidues>
 VAL166  LYS551  ARG553  GLY616  TRP617  ASP618  TYR619  PRO620  LYS621  CYS622 
 ASP623  PHE694  ASN695  SER759  ASP760  ASP761  ALA762  ILE779  LEU786  VAL792 
 PHE793  MET794  SER795  GLU796  ALA797  LYS798  CYS799  TRP800  GLU811  SER814 

> <Gold.Protein.RotatedAtoms>
  150.7270  134.5492  159.5785 H   0  0  0  0  0  0  0  0  0  0  0  0  # atno 6907 bound_to 6896
  152.2983  134.7637  160.0372 H   0  0  0  0  0  0  0  0  0  0  0  0  # atno 6908 bound_to 6896
  151.8227  133.3361  159.3626 H   0  0  0  0  0  0  0  0  0  0  0  0  # atno 6909 bound_to 6896
  145.6531  140.9276  143.0974 H   0  0  0  0  0  0  0  0  0  0  0  0  # atno 7974 bound_to 7965
  156.1774  140.1661  156.8337 H   0  0  0  0  0  0  0  0  0  0  0  0  # atno 8008 bound_to 7997
  154.5322  140.0754  156.8398 H   0  0  0  0  0  0  0  0  0  0  0  0  # atno 8009 bound_to 7997
  155.3384  140.3383  155.4241 H   0  0  0  0  0  0  0  0  0  0  0  0  # atno 8010 bound_to 7997
  140.7001  143.6179  150.8641 H   0  0  0  0  0  0  0  0  0  0  0  0  # atno 10167 bound_to 10162
  156.3609  130.7737  151.1905 H   0  0  0  0  0  0  0  0  0  0  0  0  # atno 10718 bound_to 10713
  154.8755  135.3858  154.4103 H   0  0  0  0  0  0  0  0  0  0  0  0  # atno 10763 bound_to 10752
  153.4818  135.7030  153.5939 H   0  0  0  0  0  0  0  0  0  0  0  0  # atno 10764 bound_to 10752
  153.4351  135.3869  155.2161 H   0  0  0  0  0  0  0  0  0  0  0  0  # atno 10765 bound_to 10752
  140.1109  134.4956  155.8678 H   0  0  0  0  0  0  0  0  0  0  0  0  # atno 11005 bound_to 11000
  144.7115  139.8352  143.7413 LP  0  0  0  0  0  0  0  0  0  0  0  0  # atno 17320 bound_to 7965
  146.1187  139.4202  143.0242 LP  0  0  0  0  0  0  0  0  0  0  0  0  # atno 17321 bound_to 7965
  139.9900  143.5857  152.2913 LP  0  0  0  0  0  0  0  0  0  0  0  0  # atno 17342 bound_to 10162
  139.6509  144.7660  151.2150 LP  0  0  0  0  0  0  0  0  0  0  0  0  # atno 17343 bound_to 10162
  157.7473  131.0400  150.4579 LP  0  0  0  0  0  0  0  0  0  0  0  0  # atno 17370 bound_to 10713
  156.4789  130.4069  149.6473 LP  0  0  0  0  0  0  0  0  0  0  0  0  # atno 17371 bound_to 10713
  141.2130  133.6727  156.6703 LP  0  0  0  0  0  0  0  0  0  0  0  0  # atno 17394 bound_to 11000
  140.3092  134.8100  157.4162 LP  0  0  0  0  0  0  0  0  0  0  0  0  # atno 17395 bound_to 11000

$$$$
