AV-unprocessed.smi:1|AV-procd|sdf|12|dock2
  -GOLD-   2262015103D 1   1.00000     0.00000
 Structure written by MMmdl.
 57 62  0  0  0  0  0  0  0  0  1 V2000
  154.3634  141.3497  159.8400 O   0  0  0  0  0  0  0  0  0  0  0  0
  153.2210  141.6480  159.4808 C   0  0  0  0  0  0  0  0  0  0  0  0
  152.2750  140.8579  158.8408 N   0  0  0  0  0  0  0  0  0  0  0  0
  152.3138  139.5656  158.9642 C   0  0  0  0  0  0  0  0  0  0  0  0
  153.1751  138.7072  159.6589 N   0  0  0  0  0  0  0  0  0  0  0  0
  153.0836  137.3081  159.7013 C   0  0  0  0  0  0  0  0  0  0  0  0
  152.1706  136.6011  159.0912 N   0  0  0  0  0  0  0  0  0  0  0  0
  151.2884  137.4026  158.3807 C   0  0  0  0  0  0  0  0  0  0  0  0
  151.2772  138.7767  158.2630 C   0  0  0  0  0  0  0  0  0  0  0  0
  150.2274  139.1964  157.4542 N   0  0  0  0  0  0  0  0  0  0  0  0
  149.6456  138.0495  157.1158 C   0  0  0  0  0  0  0  0  0  0  0  0
  150.2086  136.9393  157.6283 N   0  0  0  0  0  0  0  0  0  0  0  0
  149.7468  135.5358  157.3854 C   0  0  1  0  0  0  0  0  0  0  0  0
  148.4093  135.5549  156.9818 O   0  0  0  0  0  0  0  0  0  0  0  0
  148.2712  135.0346  155.6619 C   0  0  2  0  0  0  0  0  0  0  0  0
  146.9182  134.3358  155.4844 C   0  0  0  0  0  0  0  0  0  0  0  0
  146.7965  133.9027  154.1399 O   0  0  0  0  0  0  0  0  0  0  0  0
  146.3800  132.6512  153.8688 C   0  0  0  0  0  0  0  0  0  0  0  0
  146.5250  131.7016  154.6412 O   0  0  0  0  0  0  0  0  0  0  0  0
  145.7228  132.5356  152.5348 C   0  0  0  0  0  0  0  0  0  0  0  0
  145.3126  131.2633  152.0724 C   0  0  0  0  0  0  0  0  0  0  0  0
  144.6852  131.1235  150.8193 C   0  0  0  0  0  0  0  0  0  0  0  0
  144.4604  132.2545  150.0130 C   0  0  0  0  0  0  0  0  0  0  0  0
  144.8644  133.5255  150.4613 C   0  0  0  0  0  0  0  0  0  0  0  0
  145.4923  133.6674  151.7141 C   0  0  0  0  0  0  0  0  0  0  0  0
  149.4838  134.1215  155.4893 C   0  0  2  0  0  0  0  0  0  0  0  0
  149.2640  132.8527  156.0836 O   0  0  0  0  0  0  0  0  0  0  0  0
  150.6453  132.4137  156.9137 S   0  0  0  0  0  0  0  0  0  0  0  0
  150.2777  132.1531  158.3138 O   0  0  0  0  0  0  0  0  0  0  0  0
  151.3880  131.4435  156.0951 O   0  0  0  0  0  0  0  0  0  0  0  0
  151.4472  133.8790  156.8436 O   0  0  0  0  0  0  0  0  0  0  0  0
  150.5712  134.8449  156.2888 C   0  0  2  0  0  0  0  0  0  0  0  0
  152.7548  143.0463  159.7241 C   0  0  0  0  0  0  0  0  0  0  0  0
  152.6540  143.9556  158.6498 C   0  0  0  0  0  0  0  0  0  0  0  0
  152.2088  145.2724  158.8787 C   0  0  0  0  0  0  0  0  0  0  0  0
  151.8613  145.6828  160.1803 C   0  0  0  0  0  0  0  0  0  0  0  0
  151.9582  144.7764  161.2538 C   0  0  0  0  0  0  0  0  0  0  0  0
  152.4034  143.4593  161.0267 C   0  0  0  0  0  0  0  0  0  0  0  0
  153.8581  136.8306  160.3032 H   0  0  0  0  0  0  0  0  0  0  0  0
  148.7783  138.0168  156.4729 H   0  0  0  0  0  0  0  0  0  0  0  0
  149.8193  135.0417  158.3555 H   0  0  0  0  0  0  0  0  0  0  0  0
  148.3526  135.8537  154.9482 H   0  0  0  0  0  0  0  0  0  0  0  0
  146.8594  133.4690  156.1442 H   0  0  0  0  0  0  0  0  0  0  0  0
  146.0998  135.0080  155.7464 H   0  0  0  0  0  0  0  0  0  0  0  0
  145.4736  130.3806  152.6744 H   0  0  0  0  0  0  0  0  0  0  0  0
  144.3754  130.1469  150.4774 H   0  0  0  0  0  0  0  0  0  0  0  0
  143.9780  132.1466  149.0527 H   0  0  0  0  0  0  0  0  0  0  0  0
  144.6917  134.3946  149.8436 H   0  0  0  0  0  0  0  0  0  0  0  0
  145.7886  134.6576  152.0282 H   0  0  0  0  0  0  0  0  0  0  0  0
  149.7569  133.9829  154.4426 H   0  0  0  0  0  0  0  0  0  0  0  0
  151.1025  135.5721  155.6745 H   0  0  0  0  0  0  0  0  0  0  0  0
  152.9178  143.6478  157.6483 H   0  0  0  0  0  0  0  0  0  0  0  0
  152.1333  145.9675  158.0556 H   0  0  0  0  0  0  0  0  0  0  0  0
  151.5198  146.6924  160.3547 H   0  0  0  0  0  0  0  0  0  0  0  0
  151.6909  145.0911  162.2516 H   0  0  0  0  0  0  0  0  0  0  0  0
  152.4734  142.7689  161.8549 H   0  0  0  0  0  0  0  0  0  0  0  0
  153.9291  139.1367  160.1761 H   0  0  0  0  0  0  0  0  0  0  0  0
  1  2  2  0  0  0  0
  2  3  1  0  0  0  0
  2 33  1  0  0  0  0
  3  4  2  0  0  0  0
  4  9  1  0  0  0  0
  4  5  1  0  0  0  0
  5  6  1  0  0  0  0
  5 57  1  0  0  0  0
  6  7  2  0  0  0  0
  6 39  1  0  0  0  0
  7  8  1  0  0  0  0
  8 12  1  0  0  0  0
  8  9  2  0  0  0  0
  9 10  1  0  0  0  0
 10 11  2  0  0  0  0
 11 12  1  0  0  0  0
 11 40  1  0  0  0  0
 12 13  1  0  0  0  0
 13 32  1  0  0  0  0
 13 14  1  0  0  0  0
 13 41  1  0  0  0  0
 14 15  1  0  0  0  0
 15 16  1  0  0  0  0
 15 26  1  0  0  0  0
 15 42  1  0  0  0  0
 16 17  1  0  0  0  0
 16 43  1  0  0  0  0
 16 44  1  0  0  0  0
 17 18  1  0  0  0  0
 18 19  2  0  0  0  0
 18 20  1  0  0  0  0
 20 25  1  0  0  0  0
 20 21  2  0  0  0  0
 21 22  1  0  0  0  0
 21 45  1  0  0  0  0
 22 23  2  0  0  0  0
 22 46  1  0  0  0  0
 23 24  1  0  0  0  0
 23 47  1  0  0  0  0
 24 25  2  0  0  0  0
 24 48  1  0  0  0  0
 25 49  1  0  0  0  0
 26 32  1  0  0  0  0
 26 27  1  0  0  0  0
 26 50  1  0  0  0  0
 27 28  1  0  0  0  0
 28 29  2  0  0  0  0
 28 30  2  0  0  0  0
 28 31  1  0  0  0  0
 31 32  1  0  0  0  0
 32 51  1  0  0  0  0
 33 38  1  0  0  0  0
 33 34  2  0  0  0  0
 34 35  1  0  0  0  0
 34 52  1  0  0  0  0
 35 36  2  0  0  0  0
 35 53  1  0  0  0  0
 36 37  1  0  0  0  0
 36 54  1  0  0  0  0
 37 38  2  0  0  0  0
 37 55  1  0  0  0  0
 38 56  1  0  0  0  0
M  END
> <s_m_source_file>
AV-unprocessed.smi

> <i_m_source_file_index>
1

> <i_lp_mmshare_version>
43012

> <i_f3d_flags>
0

> <s_epik_input>
W2NIXTFbY0hdW2NIXVtjSF1bY0hdYzFDKD1PKVtOSF1jKG5bY0hdbjIpYyhjMjMpbltjSF1uM1tDQEBIXShbQ0BIXShbQ0BIXTQ1KU9TKE81KSg9Tyk9TylPW0NASF00W0NIMl1PQyg9TyljNltjSF1bY0hdW2NIXVtjSF1bY0hdNg==

> <s_epik_cmdline>
J2VwaWtfcHl0aG9uJywgJy1waCcsICc3LjAnLCAnLXRuJywgJzgnLCAnLW1hJywgJzIwMCcsICctbWV0YWxfYmluZGluZycsICctaW1hZScsICc8aW5maWxlLm1hZT4nLCAnLW9tYWUnLCAnPG91dGZpbGUubWFlPic=

> <r_epik_Ionization_Penalty>
0.122545

> <r_epik_Ionization_Penalty_Charging>
0.122545

> <r_epik_Ionization_Penalty_Neutral>
7.8935e-16

> <r_epik_State_Penalty>
2.69178

> <r_epik_Charging_Adjusted_Penalty>
2.81433

> <i_epik_Tot_Q>
0

> <i_epik_Tot_abs_Q>
0

> <r_epik_Metal_State_Penalty>
3.02665

> <b_epik_Metal_Only>
0

> <s_epik_Chemistry_Notes>
This compound has an ester and may undergo hydrolysis at high or low pH. This compound contains an acetal/aminal-like group ( X-CH(R)-Y where X, Y are N, S, or O) that may be acid/base labile, releasing an aldehyde.

> <s_lp_Force_Field>
OPLS_2005

> <r_lp_Energy>
62.4663

> <b_lp_Chiralities_Consistent>
1

> <s_lp_Variant>
AV-unprocessed.smi:1-12

> <Gold.Version>
5.8.1

> <Gold.Id.Protein>
6NUR|6NUR_protein|mol2

> <Gold.PLP.Fitness>
58.1294

> <Gold.PLP.PLP>
-58.3494

> <Gold.PLP.part.hbond>
-2.7604

> <Gold.PLP.part.metal>
0.0000

> <Gold.PLP.part.buried>
-9.0224

> <Gold.PLP.part.nonpolar>
-47.0257

> <Gold.PLP.part.repulsive>
0.2705

> <Gold.PLP.ligand.clash>
0.0000

> <Gold.PLP.ligand.torsion>
2.8236

> <Gold.PLP.Chemscore.Hbond>
1.6880

> <Gold.PLP.Chemscore.CHOScore>
0.0000

> <Gold.PLP.Chemscore.Metal>
0.0000

> <Gold.Chemscore.Hbonds>
donor molecule, donor type, donor heavy atom, donor atom, acceptor molecule, acceptor atom, score
      P1  H  6896  6907       L1     7  0.67
      P1  H  6896  6909       L1    29  1.00

> <Gold.PLP.Chemscore.Internal.Correction>
0.3634

> <Gold.Rescore>
     Score         DG    S(hbond)    S(metal)    S(lipo)     H(rot)  DE(clash)    DE(int)     intcor
     18.38     -21.43       1.54        0.00     138.97       2.13       0.08       2.97       ----

> <Gold.Chemscore.Fitness>
18.3761

> <Gold.Chemscore.DG>
-21.4298

> <Gold.Chemscore.ZeroCoef>
-5.4800

> <Gold.Chemscore.Hbond>
1.5424

> <Gold.Chemscore.Metal>
0.0000

> <Gold.Chemscore.Lipo>
138.9715

> <Gold.Chemscore.Internal_Hbond>
0.0000

> <Gold.Chemscore.DEClash>
0.0830

> <Gold.Chemscore.DEInternal>
2.9707

> <Gold.Chemscore.Rot>
2.1333

> <Gold.Chemscore.Internal.Correction>
   9.000000E+99

> <Gold.Chemscore.Hbonds>
donor molecule, donor type, donor heavy atom, donor atom, acceptor molecule, acceptor atom, score
      P1  H  6896  6907       L1     7  0.56
      P1  H  6896  6909       L1    29  0.50

> <Gold.Chemscore.Hbond.Weighted>
-5.1515

> <Gold.Chemscore.Metal.Weighted>
-0.0000

> <Gold.Chemscore.Lipo.Weighted>
-16.2597

> <Gold.Chemscore.Internal_Hbond.Weighted>
0.0000

> <Gold.Chemscore.DEClash.Weighted>
0.0830

> <Gold.Chemscore.DEInternal.Weighted>
2.9707

> <Gold.Chemscore.Rot.Weighted>
5.4614

> <Gold.Chemscore.Internal.Correction.Weighted>
   9.000000E+99

> <Gold.Protein.RotatedTorsions>
[ 6907 6896 6895 6894 ] final  -15.51 input  -60.11 | X-H torsion
[ 7974 7965 7964 7962 ] final   30.39 input  175.53 | X-H torsion
[ 8008 7997 7996 7995 ] final  171.28 input   59.86 | X-H torsion
[ 10167 10162 10161 10158 ] final -117.34 input  -65.29 | X-H torsion
[ 10718 10713 10712 10709 ] final  -78.56 input   66.30 | X-H torsion
[ 10763 10752 10751 10750 ] final  -16.29 input  -60.55 | X-H torsion
[ 11005 11000 10999 10996 ] final -141.07 input  -57.11 | X-H torsion

> <Gold.Protein.ActiveResidues>
 VAL166  LYS551  ARG553  GLY616  TRP617  ASP618  TYR619  PRO620  LYS621  CYS622 
 ASP623  PHE694  ASN695  SER759  ASP760  ASP761  ALA762  ILE779  LEU786  VAL792 
 PHE793  MET794  SER795  GLU796  ALA797  LYS798  CYS799  TRP800  GLU811  SER814 

> <Gold.Protein.RotatedAtoms>
  151.3228  135.0823  159.9311 H   0  0  0  0  0  0  0  0  0  0  0  0  # atno 6907 bound_to 6896
  152.5253  133.9621  159.7732 H   0  0  0  0  0  0  0  0  0  0  0  0  # atno 6908 bound_to 6896
  150.9945  133.6064  159.2733 H   0  0  0  0  0  0  0  0  0  0  0  0  # atno 6909 bound_to 6896
  146.1614  139.6795  142.9031 H   0  0  0  0  0  0  0  0  0  0  0  0  # atno 7974 bound_to 7965
  156.1286  140.1516  156.9099 H   0  0  0  0  0  0  0  0  0  0  0  0  # atno 8008 bound_to 7997
  154.4891  140.0856  156.7594 H   0  0  0  0  0  0  0  0  0  0  0  0  # atno 8009 bound_to 7997
  155.4298  140.3426  155.4281 H   0  0  0  0  0  0  0  0  0  0  0  0  # atno 8010 bound_to 7997
  140.0694  143.4891  152.1988 H   0  0  0  0  0  0  0  0  0  0  0  0  # atno 10167 bound_to 10162
  156.0114  130.4521  150.3514 H   0  0  0  0  0  0  0  0  0  0  0  0  # atno 10718 bound_to 10713
  153.5563  135.7010  153.5568 H   0  0  0  0  0  0  0  0  0  0  0  0  # atno 10763 bound_to 10752
  153.3469  135.4005  155.1616 H   0  0  0  0  0  0  0  0  0  0  0  0  # atno 10764 bound_to 10752
  154.8654  135.3756  154.5077 H   0  0  0  0  0  0  0  0  0  0  0  0  # atno 10765 bound_to 10752
  140.8360  134.2459  157.4833 H   0  0  0  0  0  0  0  0  0  0  0  0  # atno 11005 bound_to 11000
  145.4577  141.0431  143.2769 LP  0  0  0  0  0  0  0  0  0  0  0  0  # atno 17320 bound_to 7965
  144.8033  139.6100  143.7062 LP  0  0  0  0  0  0  0  0  0  0  0  0  # atno 17321 bound_to 7965
  139.5845  144.7525  151.3555 LP  0  0  0  0  0  0  0  0  0  0  0  0  # atno 17342 bound_to 10162
  140.7133  143.7334  150.7607 LP  0  0  0  0  0  0  0  0  0  0  0  0  # atno 17343 bound_to 10162
  157.1606  131.0344  151.2842 LP  0  0  0  0  0  0  0  0  0  0  0  0  # atno 17370 bound_to 10713
  157.4314  130.7492  149.6993 LP  0  0  0  0  0  0  0  0  0  0  0  0  # atno 17371 bound_to 10713
  139.8704  134.9611  156.4385 LP  0  0  0  0  0  0  0  0  0  0  0  0  # atno 17394 bound_to 11000
  140.8946  133.7823  155.9611 LP  0  0  0  0  0  0  0  0  0  0  0  0  # atno 17395 bound_to 11000

$$$$
