#       Name:                AV-unprocessed.smi:671
#       Creating user name   scv26
#       Creation time:       Fri Mar 27 00:24:31 2020


#       File generated by GOLD software.
#

@<TRIPOS>MOLECULE
AV-unprocessed.smi:671
    52    53     1
SMALL
NO_CHARGES


@<TRIPOS>ATOM
      1 ****         3.6790  -4.9469  -4.0354 C.3            1 S1                 0.0000
      2 ****         3.8481  -3.6997  -4.8374 C.2            1 S1                 0.0000
      3 ****         4.2656  -3.6702  -6.1309 N.pl3          1 S1                 1.0000
      4 ****         4.3210  -2.4056  -6.5716 N.pl3          1 S1                 0.0000
      5 ****         4.7523  -2.1598  -7.9477 C.3            1 S1                 0.0000
      6 ****         3.9462  -1.5441  -5.5828 C.2            1 S1                 0.0000
      7 ****         3.8953  -0.0580  -5.7349 C.3            1 S1                 0.0000
      8 ****         3.6423  -2.3608  -4.4844 C.2            1 S1                 0.0000
      9 ****         3.1738  -1.8966  -3.1333 C.3            1 S1                 0.0000
     10 ****         1.6393  -1.9744  -2.9617 C.3            1 S1                 0.0000
     11 ****         0.8923  -0.9915  -3.8766 C.3            1 S1                 0.0000
     12 ****         1.2655  -1.7034  -1.5710 N.am           1 S1                 0.0000
     13 ****         1.3300  -2.5356  -0.5147 C.2            1 S1                 0.0000
     14 ****         1.7343  -3.6913  -0.6226 O.2            1 S1                 0.0000
     15 ****         0.9136  -1.9969   0.6439 N.am           1 S1                 0.0000
     16 ****         0.8231  -2.6776   1.9349 C.3            1 S1                 0.0000
     17 ****        -0.5132  -2.3214   2.6151 C.3            1 S1                 0.0000
     18 ****        -0.1808  -1.4152   3.8096 C.3            1 S1                 0.0000
     19 ****         1.2874  -1.0237   3.6442 C.3            1 S1                 0.0000
     20 ****         1.9160  -2.2145   2.9197 C.3            1 S1                 0.0000
     21 ****         3.3023  -1.9205   2.3214 C.3            1 S1                 0.0000
     22 ****         2.7291  -4.9307  -3.5016 H              1 S1                 0.0000
     23 ****         4.4852  -5.0354  -3.3072 H              1 S1                 0.0000
     24 ****         3.6958  -5.8254  -4.6809 H              1 S1                 0.0000
     25 ****         4.4215  -1.1710  -8.2657 H              1 S1                 0.0000
     26 ****         4.3181  -2.9117  -8.6080 H              1 S1                 0.0000
     27 ****         5.8404  -2.2125  -7.9949 H              1 S1                 0.0000
     28 ****         3.7335   0.4319  -4.7758 H              1 S1                 0.0000
     29 ****         3.0819   0.2213  -6.4046 H              1 S1                 0.0000
     30 ****         4.8326   0.3110  -6.1522 H              1 S1                 0.0000
     31 ****         3.6611  -2.5043  -2.3703 H              1 S1                 0.0000
     32 ****         3.5126  -0.8801  -2.9344 H              1 S1                 0.0000
     33 ****         1.2984  -2.9776  -3.2225 H              1 S1                 0.0000
     34 ****         1.0735  -1.2096  -4.9291 H              1 S1                 0.0000
     35 ****         1.2008   0.0378  -3.6910 H              1 S1                 0.0000
     36 ****        -0.1849  -1.0495  -3.7169 H              1 S1                 0.0000
     37 ****         0.9128  -0.7750  -1.3865 H              1 S1                 0.0000
     38 ****         0.6138  -1.0336   0.6265 H              1 S1                 0.0000
     39 ****         0.8866  -3.7578   1.7913 H              1 S1                 0.0000
     40 ****        -1.1978  -1.8229   1.9272 H              1 S1                 0.0000
     41 ****        -1.0207  -3.2222   2.9617 H              1 S1                 0.0000
     42 ****        -0.8333  -0.5432   3.8633 H              1 S1                 0.0000
     43 ****        -0.3068  -1.9754   4.7370 H              1 S1                 0.0000
     44 ****         1.3626  -0.1282   3.0260 H              1 S1                 0.0000
     45 ****         1.7706  -0.8097   4.5980 H              1 S1                 0.0000
     46 ****         2.0399  -3.0108   3.6558 H              1 S1                 0.0000
     47 ****         3.2763  -1.0829   1.6239 H              1 S1                 0.0000
     48 ****         3.6891  -2.7897   1.7887 H              1 S1                 0.0000
     49 ****         4.0163  -1.6701   3.1062 H              1 S1                 0.0000
     50 ****         4.5144  -4.4453  -6.7326 H              1 S1                 0.0000
     51 ****         2.0271  -4.0374  -1.5140 LP             1 S1                 0.0000
     52 ****         1.7705  -4.2854   0.1809 LP             1 S1                 0.0000
@<TRIPOS>BOND
    1    1    2 1     
    2    1   22 1     
    3    1   23 1     
    4    1   24 1     
    5    2    8 1     
    6    2    3 2     
    7    3    4 1     
    8    3   50 1     
    9    4    5 1     
   10    4    6 1     
   11    5   25 1     
   12    5   26 1     
   13    5   27 1     
   14    6    7 1     
   15    6    8 2     
   16    7   28 1     
   17    7   29 1     
   18    7   30 1     
   19    8    9 1     
   20    9   10 1     
   21    9   31 1     
   22    9   32 1     
   23   10   11 1     
   24   10   12 1     
   25   10   33 1     
   26   11   34 1     
   27   11   35 1     
   28   11   36 1     
   29   12   13 am    
   30   12   37 1     
   31   13   14 2     
   32   13   15 am    
   33   15   16 1     
   34   15   38 1     
   35   16   20 1     
   36   16   17 1     
   37   16   39 1     
   38   17   18 1     
   39   17   40 1     
   40   17   41 1     
   41   18   19 1     
   42   18   42 1     
   43   18   43 1     
   44   19   20 1     
   45   19   44 1     
   46   19   45 1     
   47   20   21 1     
   48   20   46 1     
   49   21   47 1     
   50   21   48 1     
   51   21   49 1     
   52   14   51 1     
   53   14   52 1     
@<TRIPOS>SUBSTRUCTURE
      1 S1             1
@<TRIPOS>SET
LONE_PAIRS      STATIC     ATOMS    <user>   **** ""
2 51 52
DONOR_HYDROGENS      STATIC     ATOMS    <user>   **** ""
3 50 37 38
ATOM$BLUE        STATIC     ATOMS    COLORGROUP SYSTEM
2 51 52
ATOM$RED        STATIC     ATOMS    COLORGROUP SYSTEM
3 50 37 38
