AV-unprocessed.smi:3036|AV-procd|sdf|11585|dock3
  -GOLD-   2272016553D 1   1.00000     0.00000
 Structure written by MMmdl.
 41 42  0  0  0  0  0  0  0  0  1 V2000
  145.3519  135.9089  151.1121 C   0  0  0  0  0  0  0  0  0  0  0  0
  145.6269  135.2792  152.4874 C   0  0  1  0  0  0  0  0  0  0  0  0
  146.0816  133.8123  152.3561 C   0  0  0  0  0  0  0  0  0  0  0  0
  145.2278  133.0512  151.4597 N   0  0  0  0  0  0  0  0  0  0  0  0
  145.5973  132.1664  150.4683 C   0  0  0  0  0  0  0  0  0  0  0  0
  144.4505  131.6840  149.9061 C   0  0  0  0  0  0  0  0  0  0  0  0
  143.4172  132.3424  150.6296 C   0  0  0  0  0  0  0  0  0  0  0  0
  143.8853  133.1611  151.5579 N   0  0  0  0  0  0  0  0  0  0  0  0
  146.6708  136.0298  153.1757 N   0  0  0  0  0  0  0  0  0  0  0  0
  146.1534  137.2053  153.8645 C   0  0  0  0  0  0  0  0  0  0  0  0
  147.1919  137.7713  154.8552 C   0  0  0  0  0  0  0  0  0  0  0  0
  147.4047  139.2980  154.7843 C   0  0  0  0  0  0  0  0  0  0  0  0
  146.4605  140.0488  155.0369 O   0  0  0  0  0  0  0  0  0  0  0  0
  148.6258  139.7745  154.4407 N   0  0  0  0  0  0  0  0  0  0  0  0
  149.7678  138.9064  154.1384 C   0  0  0  0  0  0  0  0  0  0  0  0
  150.8344  139.1083  155.2292 C   0  0  0  0  0  0  0  0  0  0  0  0
  151.2141  140.4814  155.2786 O   0  0  0  0  0  0  0  0  0  0  0  0
  150.1187  141.3542  155.5438 C   0  0  0  0  0  0  0  0  0  0  0  0
  149.0411  141.1810  154.4579 C   0  0  0  0  0  0  0  0  0  0  0  0
  144.5913  135.3435  150.5731 H   0  0  0  0  0  0  0  0  0  0  0  0
  146.2504  135.9258  150.4942 H   0  0  0  0  0  0  0  0  0  0  0  0
  144.9873  136.9323  151.2014 H   0  0  0  0  0  0  0  0  0  0  0  0
  144.7107  135.2977  153.0795 H   0  0  0  0  0  0  0  0  0  0  0  0
  147.1015  133.7679  151.9710 H   0  0  0  0  0  0  0  0  0  0  0  0
  146.0968  133.3198  153.3296 H   0  0  0  0  0  0  0  0  0  0  0  0
  146.6336  131.9507  150.2541 H   0  0  0  0  0  0  0  0  0  0  0  0
  144.3631  130.9674  149.1031 H   0  0  0  0  0  0  0  0  0  0  0  0
  142.3479  132.2496  150.5092 H   0  0  0  0  0  0  0  0  0  0  0  0
  147.4098  136.2822  152.5353 H   0  0  0  0  0  0  0  0  0  0  0  0
  145.8895  137.9698  153.1340 H   0  0  0  0  0  0  0  0  0  0  0  0
  145.2392  136.9487  154.4017 H   0  0  0  0  0  0  0  0  0  0  0  0
  146.8855  137.4994  155.8659 H   0  0  0  0  0  0  0  0  0  0  0  0
  148.1516  137.2867  154.6720 H   0  0  0  0  0  0  0  0  0  0  0  0
  149.4973  137.8517  154.0768 H   0  0  0  0  0  0  0  0  0  0  0  0
  150.1741  139.1704  153.1611 H   0  0  0  0  0  0  0  0  0  0  0  0
  150.4599  138.7890  156.2032 H   0  0  0  0  0  0  0  0  0  0  0  0
  151.7163  138.5056  155.0117 H   0  0  0  0  0  0  0  0  0  0  0  0
  149.7089  141.1486  156.5341 H   0  0  0  0  0  0  0  0  0  0  0  0
  150.4818  142.3820  155.5553 H   0  0  0  0  0  0  0  0  0  0  0  0
  149.4478  141.4472  153.4813 H   0  0  0  0  0  0  0  0  0  0  0  0
  148.2290  141.8813  154.6435 H   0  0  0  0  0  0  0  0  0  0  0  0
  1  2  1  0  0  0  0
  1 20  1  0  0  0  0
  1 21  1  0  0  0  0
  1 22  1  0  0  0  0
  2  3  1  0  0  0  0
  2  9  1  0  0  0  0
  2 23  1  0  0  0  0
  3  4  1  0  0  0  0
  3 24  1  0  0  0  0
  3 25  1  0  0  0  0
  4  8  1  0  0  0  0
  4  5  1  0  0  0  0
  5  6  2  0  0  0  0
  5 26  1  0  0  0  0
  6  7  1  0  0  0  0
  6 27  1  0  0  0  0
  7  8  2  0  0  0  0
  7 28  1  0  0  0  0
  9 10  1  0  0  0  0
  9 29  1  0  0  0  0
 10 11  1  0  0  0  0
 10 30  1  0  0  0  0
 10 31  1  0  0  0  0
 11 12  1  0  0  0  0
 11 32  1  0  0  0  0
 11 33  1  0  0  0  0
 12 13  2  0  0  0  0
 12 14  1  0  0  0  0
 14 19  1  0  0  0  0
 14 15  1  0  0  0  0
 15 16  1  0  0  0  0
 15 34  1  0  0  0  0
 15 35  1  0  0  0  0
 16 17  1  0  0  0  0
 16 36  1  0  0  0  0
 16 37  1  0  0  0  0
 17 18  1  0  0  0  0
 18 19  1  0  0  0  0
 18 38  1  0  0  0  0
 18 39  1  0  0  0  0
 19 40  1  0  0  0  0
 19 41  1  0  0  0  0
M  END
> <s_m_source_file>
AV-unprocessed.smi

> <i_m_source_file_index>
3036

> <i_lp_mmshare_version>
43012

> <i_f3d_flags>
0

> <s_epik_input>
bjFbY0hdW2NIXVtjSF1uMVtDSDJdW0NAQEhdKFtDSDNdKVtOSF1bQ0gyXVtDSDJdQyg9TylOMltDSDJdW0NIMl1PW0NIMl1bQ0gyXTI=

> <s_epik_cmdline>
J2VwaWtfcHl0aG9uJywgJy1waCcsICc3LjAnLCAnLXRuJywgJzgnLCAnLW1hJywgJzIwMCcsICctbWV0YWxfYmluZGluZycsICctaW1hZScsICc8aW5maWxlLm1hZT4nLCAnLW9tYWUnLCAnPG91dGZpbGUubWFlPic=

> <r_lp_tautomer_probability>
1

> <r_epik_Ionization_Penalty>
2.55703

> <r_epik_Ionization_Penalty_Charging>
0

> <r_epik_Ionization_Penalty_Neutral>
2.55703

> <r_epik_State_Penalty>
2.726

> <r_epik_Charging_Adjusted_Penalty>
2.726

> <i_epik_Tot_Q>
0

> <i_epik_Tot_abs_Q>
0

> <r_epik_Metal_State_Penalty>
2.72597

> <b_epik_Metal_Only>
0

> <s_lp_Force_Field>
OPLS_2005

> <r_lp_Energy>
21.9246

> <b_lp_Chiralities_Consistent>
1

> <s_lp_Variant>
AV-unprocessed.smi:3036-4

> <Gold.Version>
5.8.1

> <Gold.Id.Protein>
6NUR|6NUR_protein|mol2

> <Gold.PLP.Fitness>
44.6366

> <Gold.PLP.PLP>
-32.9456

> <Gold.PLP.part.hbond>
-1.9139

> <Gold.PLP.part.metal>
0.0000

> <Gold.PLP.part.buried>
-2.5455

> <Gold.PLP.part.nonpolar>
-29.3925

> <Gold.PLP.part.repulsive>
0.2686

> <Gold.PLP.ligand.clash>
0.0000

> <Gold.PLP.ligand.torsion>
0.9222

> <Gold.PLP.Chemscore.Hbond>
1.9440

> <Gold.PLP.Chemscore.CHOScore>
2.4973

> <Gold.PLP.Chemscore.Metal>
0.0000

> <Gold.Chemscore.Hbonds>
donor molecule, donor type, donor heavy atom, donor atom, acceptor molecule, acceptor atom, score
      L1  H     9    29       P1  7948  1.00
      P1  H  7989  7998       L1    17  0.94
      L1  C     5    26       P1 10747  0.88
      L1  C     7    28       P1 10186  0.41
      L1  C     7    28       P1 10952  0.82

> <Gold.PLP.Chemscore.Internal.Correction>
0.2114

> <Gold.Rescore>
     Score         DG    S(hbond)    S(metal)    S(lipo)     H(rot)  DE(clash)    DE(int)     intcor
     12.37     -13.56       1.09        0.00      81.55       1.99       0.23       0.96       ----

> <Gold.Chemscore.Fitness>
12.3705

> <Gold.Chemscore.DG>
-13.5595

> <Gold.Chemscore.ZeroCoef>
-5.4800

> <Gold.Chemscore.Hbond>
1.0877

> <Gold.Chemscore.Metal>
0.0000

> <Gold.Chemscore.Lipo>
81.5451

> <Gold.Chemscore.Internal_Hbond>
0.0000

> <Gold.Chemscore.DEClash>
0.2264

> <Gold.Chemscore.DEInternal>
0.9625

> <Gold.Chemscore.Rot>
1.9900

> <Gold.Chemscore.Internal.Correction>
   9.000000E+99

> <Gold.Chemscore.Hbonds>
donor molecule, donor type, donor heavy atom, donor atom, acceptor molecule, acceptor atom, score
      L1  H     9    29       P1  7948  0.99
      P1  H  7989  7998       L1    17  0.16

> <Gold.Chemscore.Hbond.Weighted>
-3.6331

> <Gold.Chemscore.Metal.Weighted>
-0.0000

> <Gold.Chemscore.Lipo.Weighted>
-9.5408

> <Gold.Chemscore.Internal_Hbond.Weighted>
0.0000

> <Gold.Chemscore.DEClash.Weighted>
0.2264

> <Gold.Chemscore.DEInternal.Weighted>
0.9625

> <Gold.Chemscore.Rot.Weighted>
5.0944

> <Gold.Chemscore.Internal.Correction.Weighted>
   9.000000E+99

> <Gold.Protein.RotatedTorsions>
[ 6907 6896 6895 6894 ] final  116.40 input  -60.11 | X-H torsion
[ 7974 7965 7964 7962 ] final  -74.73 input  175.53 | X-H torsion
[ 8008 7997 7996 7995 ] final  -43.15 input   59.86 | X-H torsion
[ 10167 10162 10161 10158 ] final  -46.67 input  -65.29 | X-H torsion
[ 10718 10713 10712 10709 ] final  156.39 input   66.30 | X-H torsion
[ 10763 10752 10751 10750 ] final  149.83 input  -60.55 | X-H torsion
[ 11005 11000 10999 10996 ] final  -98.13 input  -57.11 | X-H torsion

> <Gold.Protein.ActiveResidues>
 VAL166  LYS551  ARG553  GLY616  TRP617  ASP618  TYR619  PRO620  LYS621  CYS622 
 ASP623  PHE694  ASN695  SER759  ASP760  ASP761  ALA762  ILE779  LEU786  VAL792 
 PHE793  MET794  SER795  GLU796  ALA797  LYS798  CYS799  TRP800  GLU811  SER814 

> <Gold.Protein.RotatedAtoms>
  152.4680  133.7967  159.6930 H   0  0  0  0  0  0  0  0  0  0  0  0  # atno 6907 bound_to 6896
  150.8655  133.7571  159.2984 H   0  0  0  0  0  0  0  0  0  0  0  0  # atno 6908 bound_to 6896
  151.5123  135.1068  159.9909 H   0  0  0  0  0  0  0  0  0  0  0  0  # atno 6909 bound_to 6896
  145.6352  140.9326  143.1065 H   0  0  0  0  0  0  0  0  0  0  0  0  # atno 7974 bound_to 7965
  154.3997  140.1455  156.3471 H   0  0  0  0  0  0  0  0  0  0  0  0  # atno 8008 bound_to 7997
  155.8303  140.3466  155.5547 H   0  0  0  0  0  0  0  0  0  0  0  0  # atno 8009 bound_to 7997
  155.8195  140.0896  157.1847 H   0  0  0  0  0  0  0  0  0  0  0  0  # atno 8010 bound_to 7997
  140.6808  143.2820  151.3816 H   0  0  0  0  0  0  0  0  0  0  0  0  # atno 10167 bound_to 10162
  157.2056  131.0686  151.1999 H   0  0  0  0  0  0  0  0  0  0  0  0  # atno 10718 bound_to 10713
  154.0775  135.2862  155.3296 H   0  0  0  0  0  0  0  0  0  0  0  0  # atno 10763 bound_to 10752
  154.6705  135.5301  153.8136 H   0  0  0  0  0  0  0  0  0  0  0  0  # atno 10764 bound_to 10752
  153.0461  135.6556  154.0953 H   0  0  0  0  0  0  0  0  0  0  0  0  # atno 10765 bound_to 10752
  141.1355  133.8223  157.0799 H   0  0  0  0  0  0  0  0  0  0  0  0  # atno 11005 bound_to 11000
  144.7178  139.8135  143.7392 LP  0  0  0  0  0  0  0  0  0  0  0  0  # atno 17320 bound_to 7965
  146.1325  139.4363  143.0160 LP  0  0  0  0  0  0  0  0  0  0  0  0  # atno 17321 bound_to 7965
  139.6129  144.1062  152.2317 LP  0  0  0  0  0  0  0  0  0  0  0  0  # atno 17342 bound_to 10162
  140.0482  144.5954  150.7357 LP  0  0  0  0  0  0  0  0  0  0  0  0  # atno 17343 bound_to 10162
  157.3723  130.7187  149.6573 LP  0  0  0  0  0  0  0  0  0  0  0  0  # atno 17370 bound_to 10713
  155.9696  130.4195  150.4379 LP  0  0  0  0  0  0  0  0  0  0  0  0  # atno 17371 bound_to 10713
  140.0458  134.9831  157.1046 LP  0  0  0  0  0  0  0  0  0  0  0  0  # atno 17394 bound_to 11000
  140.4065  134.2027  155.7163 LP  0  0  0  0  0  0  0  0  0  0  0  0  # atno 17395 bound_to 11000

$$$$
