#       Name:                AV-unprocessed.smi:2742
#       Creating user name   scv26
#       Creation time:       Fri Mar 27 15:01:52 2020


#       File generated by GOLD software.
#

@<TRIPOS>MOLECULE
AV-unprocessed.smi:2742
    40    41     1
SMALL
NO_CHARGES


@<TRIPOS>ATOM
      1 ****        -4.6151   0.3800   1.0853 C.3            1 S1                 0.0000
      2 ****        -4.0336  -0.9615   2.1573 S.3            1 S1                 0.0000
      3 ****        -2.2655  -0.9910   1.7408 C.3            1 S1                 0.0000
      4 ****        -1.4694  -1.7097   2.8444 C.3            1 S1                 0.0000
      5 ****         0.0293  -1.7685   2.5108 C.3            1 S1                 0.0000
      6 ****         0.2695  -2.4405   1.1487 C.3            1 S1                 0.0000
      7 ****        -0.5245  -1.7556   0.0165 C.3            1 S1                 0.0000
      8 ****         0.0123  -0.4285  -0.2823 N.am           1 S1                 0.0000
      9 ****         1.0683  -0.1746  -1.0685 C.2            1 S1                 0.0000
     10 ****         1.7075  -1.0524  -1.6475 O.2            1 S1                 0.0000
     11 ****         1.3121   1.1457  -1.1355 N.am           1 S1                 0.0000
     12 ****         2.3281   1.8404  -1.8491 C.ar           1 S1                 0.0000
     13 ****         3.4797   1.2308  -2.4048 C.ar           1 S1                 0.0000
     14 ****         4.4149   2.0420  -3.0784 C.ar           1 S1                 0.0000
     15 ****         4.2776   3.3773  -3.2191 N.ar           1 S1                 0.0000
     16 ****         3.1852   3.9569  -2.6789 C.ar           1 S1                 0.0000
     17 ****         2.1901   3.2382  -1.9864 C.ar           1 S1                 0.0000
     18 ****         1.1190   3.8842  -1.4649 F              1 S1                 0.0000
     19 ****        -2.0219  -1.6590   0.3709 C.3            1 S1                 0.0000
     20 ****        -5.6751   0.5627   1.2612 H              1 S1                 0.0000
     21 ****        -4.4829   0.1242   0.0346 H              1 S1                 0.0000
     22 ****        -4.0682   1.2994   1.2934 H              1 S1                 0.0000
     23 ****        -1.9278   0.0453   1.7002 H              1 S1                 0.0000
     24 ****        -1.6121  -1.2008   3.7983 H              1 S1                 0.0000
     25 ****        -1.8520  -2.7230   2.9747 H              1 S1                 0.0000
     26 ****         0.4436  -0.7598   2.5038 H              1 S1                 0.0000
     27 ****         0.5616  -2.3138   3.2906 H              1 S1                 0.0000
     28 ****         1.3355  -2.4500   0.9183 H              1 S1                 0.0000
     29 ****        -0.0328  -3.4866   1.2123 H              1 S1                 0.0000
     30 ****        -0.4387  -2.3659  -0.8844 H              1 S1                 0.0000
     31 ****        -0.4550   0.3549   0.1501 H              1 S1                 0.0000
     32 ****         0.6596   1.7381  -0.6433 H              1 S1                 0.0000
     33 ****         3.6736   0.1730  -2.3242 H              1 S1                 0.0000
     34 ****         5.3020   1.6050  -3.5126 H              1 S1                 0.0000
     35 ****         3.1017   5.0267  -2.8003 H              1 S1                 0.0000
     36 ****        -2.4461  -2.6639   0.3849 H              1 S1                 0.0000
     37 ****        -2.5495  -1.1210  -0.4168 H              1 S1                 0.0000
     38 ****         1.4467  -2.0121  -1.5430 LP             1 S1                 0.0000
     39 ****         2.4877  -0.8059  -2.2225 LP             1 S1                 0.0000
     40 ****         4.9621   3.9188  -3.7071 LP             1 S1                 0.0000
@<TRIPOS>BOND
    1    1    2 1     
    2    1   20 1     
    3    1   21 1     
    4    1   22 1     
    5    2    3 1     
    6    3   19 1     
    7    3    4 1     
    8    3   23 1     
    9    4    5 1     
   10    4   24 1     
   11    4   25 1     
   12    5    6 1     
   13    5   26 1     
   14    5   27 1     
   15    6    7 1     
   16    6   28 1     
   17    6   29 1     
   18    7    8 1     
   19    7   19 1     
   20    7   30 1     
   21    8    9 am    
   22    8   31 1     
   23    9   10 2     
   24    9   11 am    
   25   11   12 1     
   26   11   32 1     
   27   12   17 ar    
   28   12   13 ar    
   29   13   14 ar    
   30   13   33 1     
   31   14   15 ar    
   32   14   34 1     
   33   15   16 ar    
   34   16   17 ar    
   35   16   35 1     
   36   17   18 1     
   37   19   36 1     
   38   19   37 1     
   39   10   38 1     
   40   10   39 1     
   41   15   40 1     
@<TRIPOS>SUBSTRUCTURE
      1 S1             1
@<TRIPOS>SET
LONE_PAIRS      STATIC     ATOMS    <user>   **** ""
3 38 39 40
DONOR_HYDROGENS      STATIC     ATOMS    <user>   **** ""
2 31 32
ATOM$BLUE        STATIC     ATOMS    COLORGROUP SYSTEM
3 38 39 40
ATOM$RED        STATIC     ATOMS    COLORGROUP SYSTEM
2 31 32
