#       Name:                AV-unprocessed.smi:1889
#       Creating user name   scv26
#       Creation time:       Fri Mar 27 09:39:37 2020


#       File generated by GOLD software.
#

@<TRIPOS>MOLECULE
AV-unprocessed.smi:1889
    42    43     1
SMALL
NO_CHARGES


@<TRIPOS>ATOM
      1 ****        -7.0094   0.4881   0.1263 C.3            1 S1                 0.0000
      2 ****        -5.6194   0.8398  -0.4150 C.3            1 S1                 0.0000
      3 ****        -4.5776   1.0051   0.7005 C.3            1 S1                 0.0000
      4 ****        -3.2216   1.3390   0.1744 C.2            1 S1                 0.0000
      5 ****        -2.8130   2.5934  -0.0343 N.2            1 S1                 0.0000
      6 ****        -1.5264   2.6452  -0.5507 N.2            1 S1                 0.0000
      7 ****        -0.9839   1.4330  -0.7333 C.2            1 S1                 0.0000
      8 ****         0.2520   1.2636  -1.2315 N.pl3          1 S1                -1.0000
      9 ****         1.2911   1.0333  -0.3968 C.2            1 S1                 0.0000
     10 ****         1.2379   0.9684   0.8335 O.2            1 S1                 0.0000
     11 ****         2.4614   0.8601  -1.0282 N.am           1 S1                 0.0000
     12 ****         3.7509   0.5835  -0.4006 C.3            1 S1                 0.0000
     13 ****         4.0584  -0.9255  -0.3604 C.3            1 S1                 0.0000
     14 ****         3.1493  -1.7496   0.5312 C.3            1 S1                 0.0000
     15 ****         3.9721  -3.0171   0.7430 C.3            1 S1                 0.0000
     16 ****         5.3379  -2.6191   0.6559 O.3            1 S1                 0.0000
     17 ****         5.4237  -1.2603   0.2379 C.3            1 S1                 0.0000
     18 ****        -2.0577   0.1078  -0.2855 S.3            1 S1                 0.0000
     19 ****        -7.7262   0.3780  -0.6876 H              1 S1                 0.0000
     20 ****        -7.3803   1.2665   0.7937 H              1 S1                 0.0000
     21 ****        -6.9898  -0.4499   0.6818 H              1 S1                 0.0000
     22 ****        -5.2950   0.0590  -1.1039 H              1 S1                 0.0000
     23 ****        -5.6816   1.7600  -0.9970 H              1 S1                 0.0000
     24 ****        -4.8885   1.7898   1.3915 H              1 S1                 0.0000
     25 ****        -4.5050   0.0868   1.2839 H              1 S1                 0.0000
     26 ****         2.4528   0.9235  -2.0358 H              1 S1                 0.0000
     27 ****         4.5161   1.0926  -0.9868 H              1 S1                 0.0000
     28 ****         3.7996   1.0160   0.6002 H              1 S1                 0.0000
     29 ****         4.0154  -1.3312  -1.3728 H              1 S1                 0.0000
     30 ****         2.9927  -1.2434   1.4850 H              1 S1                 0.0000
     31 ****         2.1735  -1.9478   0.0866 H              1 S1                 0.0000
     32 ****         3.7571  -3.4955   1.6988 H              1 S1                 0.0000
     33 ****         3.7709  -3.7389  -0.0497 H              1 S1                 0.0000
     34 ****         6.2389  -1.1127  -0.4708 H              1 S1                 0.0000
     35 ****         5.6229  -0.6428   1.1150 H              1 S1                 0.0000
     36 ****        -3.3697   3.4013   0.1592 LP             1 S1                 0.0000
     37 ****        -1.0523   3.4993  -0.7647 LP             1 S1                 0.0000
     38 ****         0.4038   1.3078  -2.2189 LP             1 S1                 0.0000
     39 ****         0.3638   1.0916   1.3034 LP             1 S1                 0.0000
     40 ****         2.0689   0.7927   1.3614 LP             1 S1                 0.0000
     41 ****         5.8105  -3.1999  -0.0069 LP             1 S1                 0.0000
     42 ****         5.7694  -2.7175   1.5527 LP             1 S1                 0.0000
@<TRIPOS>BOND
    1    1    2 1     
    2    1   19 1     
    3    1   20 1     
    4    1   21 1     
    5    2    3 1     
    6    2   22 1     
    7    2   23 1     
    8    3    4 1     
    9    3   24 1     
   10    3   25 1     
   11    4   18 1     
   12    4    5 2     
   13    5    6 1     
   14    6    7 2     
   15    7    8 1     
   16    7   18 1     
   17    8    9 1     
   18    9   10 2     
   19    9   11 am    
   20   11   12 1     
   21   11   26 1     
   22   12   13 1     
   23   12   27 1     
   24   12   28 1     
   25   13   17 1     
   26   13   14 1     
   27   13   29 1     
   28   14   15 1     
   29   14   30 1     
   30   14   31 1     
   31   15   16 1     
   32   15   32 1     
   33   15   33 1     
   34   16   17 1     
   35   17   34 1     
   36   17   35 1     
   37    5   36 1     
   38    6   37 1     
   39    8   38 1     
   40   10   39 1     
   41   10   40 1     
   42   16   41 1     
   43   16   42 1     
@<TRIPOS>SUBSTRUCTURE
      1 S1             1
@<TRIPOS>SET
LONE_PAIRS      STATIC     ATOMS    <user>   **** ""
7 36 37 38 39 40 41 42
DONOR_HYDROGENS      STATIC     ATOMS    <user>   **** ""
1 26
ATOM$BLUE        STATIC     ATOMS    COLORGROUP SYSTEM
7 36 37 38 39 40 41 42
ATOM$RED        STATIC     ATOMS    COLORGROUP SYSTEM
1 26
