AV-unprocessed.smi:1434|AV-procd|sdf|5851|dock6
  -GOLD-   22720 5523D 1   1.00000     0.00000
 Structure written by MMmdl.
 45 46  0  0  0  0  0  0  0  0  2 V2000
  145.9703  137.2062  151.4482 C   0  0  0  0  0  0  0  0  0  0  0  0
  146.0202  137.2663  153.2841 S   0  0  0  0  0  0  0  0  0  0  0  0
  145.1198  136.2287  153.8090 O   0  0  0  0  0  0  0  0  0  0  0  0
  147.4219  137.3211  153.7254 O   0  0  0  0  0  0  0  0  0  0  0  0
  145.3122  138.8014  153.6253 N   0  0  0  0  0  0  0  0  0  0  0  0
  146.1383  139.8240  154.2688 C   0  0  2  0  0  0  0  0  0  0  0  0
  145.2719  141.0355  154.6739 C   0  0  0  0  0  0  0  0  0  0  0  0
  146.1344  142.2115  155.1704 C   0  0  0  0  0  0  0  0  0  0  0  0
  147.2692  142.5230  154.1775 C   0  0  0  0  0  0  0  0  0  0  0  0
  148.0660  141.3010  153.9717 N   0  0  0  0  0  0  0  0  0  0  0  0
  149.2868  141.0418  154.5043 C   0  0  0  0  0  0  0  0  0  0  0  0
  150.0237  140.1419  154.0986 O   0  0  0  0  0  0  0  0  0  0  0  0
  149.6552  141.8680  155.4985 N   0  0  0  0  0  0  0  0  0  0  0  0
  150.9203  141.7991  156.2204 C   0  0  0  0  0  0  0  0  0  0  0  0
  150.7010  141.5353  157.7195 C   0  0  0  0  0  0  0  0  0  0  0  0
  151.0960  142.7232  158.5752 C   0  0  0  0  0  0  0  0  0  0  0  0
  151.9383  142.5888  159.7003 C   0  0  0  0  0  0  0  0  0  0  0  0
  152.2730  143.7347  160.4515 C   0  0  0  0  0  0  0  0  0  0  0  0
  151.7604  144.9894  160.0618 C   0  0  0  0  0  0  0  0  0  0  0  0
  150.9252  145.0665  158.9287 C   0  0  0  0  0  0  0  0  0  0  0  0
  150.6271  143.9457  158.2350 N   0  3  0  0  0  0  0  0  0  0  0  0
  147.2710  140.2546  153.3167 C   0  0  0  0  0  0  0  0  0  0  0  0
  146.4066  136.2683  151.1053 H   0  0  0  0  0  0  0  0  0  0  0  0
  146.5390  138.0407  151.0390 H   0  0  0  0  0  0  0  0  0  0  0  0
  144.9361  137.2690  151.1100 H   0  0  0  0  0  0  0  0  0  0  0  0
  144.8408  139.1772  152.8030 H   0  0  0  0  0  0  0  0  0  0  0  0
  146.5904  139.3926  155.1637 H   0  0  0  0  0  0  0  0  0  0  0  0
  144.6894  141.3671  153.8131 H   0  0  0  0  0  0  0  0  0  0  0  0
  144.5515  140.7522  155.4415 H   0  0  0  0  0  0  0  0  0  0  0  0
  145.5109  143.0937  155.3185 H   0  0  0  0  0  0  0  0  0  0  0  0
  146.5601  141.9658  156.1441 H   0  0  0  0  0  0  0  0  0  0  0  0
  146.8492  142.8410  153.2221 H   0  0  0  0  0  0  0  0  0  0  0  0
  147.8481  143.3750  154.5336 H   0  0  0  0  0  0  0  0  0  0  0  0
  149.0094  142.5944  155.7720 H   0  0  0  0  0  0  0  0  0  0  0  0
  151.5550  141.0251  155.7851 H   0  0  0  0  0  0  0  0  0  0  0  0
  151.4438  142.7448  156.0790 H   0  0  0  0  0  0  0  0  0  0  0  0
  149.6539  141.2937  157.9082 H   0  0  0  0  0  0  0  0  0  0  0  0
  151.2778  140.6662  158.0391 H   0  0  0  0  0  0  0  0  0  0  0  0
  152.3255  141.6210  159.9848 H   0  0  0  0  0  0  0  0  0  0  0  0
  152.9158  143.6517  161.3158 H   0  0  0  0  0  0  0  0  0  0  0  0
  152.0051  145.8793  160.6235 H   0  0  0  0  0  0  0  0  0  0  0  0
  150.4901  145.9835  158.5587 H   0  0  0  0  0  0  0  0  0  0  0  0
  147.8734  139.3909  153.0300 H   0  0  0  0  0  0  0  0  0  0  0  0
  146.8578  140.6464  152.3858 H   0  0  0  0  0  0  0  0  0  0  0  0
  150.0212  144.0255  157.4180 H   0  0  0  0  0  0  0  0  0  0  0  0
  1  2  1  0  0  0  0
  1 23  1  0  0  0  0
  1 24  1  0  0  0  0
  1 25  1  0  0  0  0
  2  3  2  0  0  0  0
  2  4  2  0  0  0  0
  2  5  1  0  0  0  0
  5  6  1  0  0  0  0
  5 26  1  0  0  0  0
  6 22  1  0  0  0  0
  6  7  1  0  0  0  0
  6 27  1  0  0  0  0
  7  8  1  0  0  0  0
  7 28  1  0  0  0  0
  7 29  1  0  0  0  0
  8  9  1  0  0  0  0
  8 30  1  0  0  0  0
  8 31  1  0  0  0  0
  9 10  1  0  0  0  0
  9 32  1  0  0  0  0
  9 33  1  0  0  0  0
 10 11  1  0  0  0  0
 10 22  1  0  0  0  0
 11 12  2  0  0  0  0
 11 13  1  0  0  0  0
 13 14  1  0  0  0  0
 13 34  1  0  0  0  0
 14 15  1  0  0  0  0
 14 35  1  0  0  0  0
 14 36  1  0  0  0  0
 15 16  1  0  0  0  0
 15 37  1  0  0  0  0
 15 38  1  0  0  0  0
 16 21  1  0  0  0  0
 16 17  2  0  0  0  0
 17 18  1  0  0  0  0
 17 39  1  0  0  0  0
 18 19  2  0  0  0  0
 18 40  1  0  0  0  0
 19 20  1  0  0  0  0
 19 41  1  0  0  0  0
 20 21  2  0  0  0  0
 20 42  1  0  0  0  0
 21 45  1  0  0  0  0
 22 43  1  0  0  0  0
 22 44  1  0  0  0  0
M  CHG  1  21   1
M  END
> <s_m_source_file>
AV-unprocessed.smi

> <i_m_source_file_index>
1434

> <i_lp_mmshare_version>
43012

> <i_f3d_flags>
0

> <s_epik_input>
W0NIM11TKD1PKSg9TylbTkhdW0NAQEhdMVtDSDJdW0NIMl1bQ0gyXU4oW0NIMl0xKUMoPU8pW05IXVtDSDJdW0NIMl1jMltjSF1bY0hdW2NIXVtjSF1uMg==

> <s_epik_cmdline>
J2VwaWtfcHl0aG9uJywgJy1waCcsICc3LjAnLCAnLXRuJywgJzgnLCAnLW1hJywgJzIwMCcsICctbWV0YWxfYmluZGluZycsICctaW1hZScsICc8aW5maWxlLm1hZT4nLCAnLW9tYWUnLCAnPG91dGZpbGUubWFlPic=

> <r_epik_Ionization_Penalty>
1.55113

> <r_epik_Ionization_Penalty_Charging>
1.55107

> <r_epik_Ionization_Penalty_Neutral>
6.01346e-05

> <r_epik_State_Penalty>
1.64529

> <r_epik_Charging_Adjusted_Penalty>
3.19637

> <i_epik_Tot_Q>
1

> <i_epik_Tot_abs_Q>
1

> <r_epik_Metal_State_Penalty>
1.69621

> <b_epik_Metal_Only>
0

> <s_lp_Force_Field>
OPLS_2005

> <r_lp_Energy>
27.1225

> <b_lp_Chiralities_Consistent>
1

> <s_lp_Variant>
AV-unprocessed.smi:1434-3

> <Gold.Version>
5.8.1

> <Gold.Id.Protein>
6NUR|6NUR_protein|mol2

> <Gold.PLP.Fitness>
51.4630

> <Gold.PLP.PLP>
-39.5638

> <Gold.PLP.part.hbond>
-4.0000

> <Gold.PLP.part.metal>
0.0000

> <Gold.PLP.part.buried>
-3.8118

> <Gold.PLP.part.nonpolar>
-33.1642

> <Gold.PLP.part.repulsive>
1.6489

> <Gold.PLP.ligand.clash>
0.0000

> <Gold.PLP.ligand.torsion>
0.7390

> <Gold.PLP.Chemscore.Hbond>
4.4046

> <Gold.PLP.Chemscore.CHOScore>
0.0000

> <Gold.PLP.Chemscore.Metal>
0.0000

> <Gold.Chemscore.Hbonds>
donor molecule, donor type, donor heavy atom, donor atom, acceptor molecule, acceptor atom, score
      L1  H     5    26       P1 10175  0.74
      L1  H    13    34       P1  8028  0.57
      L1  H    21    45       P1  8028  1.24
      P1  H  7989  7998       L1    12  0.91

> <Gold.PLP.Chemscore.Internal.Correction>
0.1635

> <Gold.Rescore>
     Score         DG    S(hbond)    S(metal)    S(lipo)     H(rot)  DE(clash)    DE(int)     intcor
     19.66     -21.27       2.97        0.00      96.73       2.13       0.47       1.14       ----

> <Gold.Chemscore.Fitness>
19.6586

> <Gold.Chemscore.DG>
-21.2674

> <Gold.Chemscore.ZeroCoef>
-5.4800

> <Gold.Chemscore.Hbond>
2.9728

> <Gold.Chemscore.Metal>
0.0000

> <Gold.Chemscore.Lipo>
96.7336

> <Gold.Chemscore.Internal_Hbond>
0.0000

> <Gold.Chemscore.DEClash>
0.4653

> <Gold.Chemscore.DEInternal>
1.1435

> <Gold.Chemscore.Rot>
2.1326

> <Gold.Chemscore.Internal.Correction>
   9.000000E+99

> <Gold.Chemscore.Hbonds>
donor molecule, donor type, donor heavy atom, donor atom, acceptor molecule, acceptor atom, score
      L1  H     5    26       P1 10175  0.74
      L1  H    13    34       P1  8028  0.57
      L1  H    21    45       P1  8028  0.44
      P1  H  7989  7998       L1    12  0.62

> <Gold.Chemscore.Hbond.Weighted>
-9.9291

> <Gold.Chemscore.Metal.Weighted>
-0.0000

> <Gold.Chemscore.Lipo.Weighted>
-11.3178

> <Gold.Chemscore.Internal_Hbond.Weighted>
0.0000

> <Gold.Chemscore.DEClash.Weighted>
0.4653

> <Gold.Chemscore.DEInternal.Weighted>
1.1435

> <Gold.Chemscore.Rot.Weighted>
5.4595

> <Gold.Chemscore.Internal.Correction.Weighted>
   9.000000E+99

> <Gold.Protein.RotatedTorsions>
[ 6907 6896 6895 6894 ] final  -86.06 input  -60.11 | X-H torsion
[ 7974 7965 7964 7962 ] final   82.58 input  175.53 | X-H torsion
[ 8008 7997 7996 7995 ] final  102.44 input   59.86 | X-H torsion
[ 10167 10162 10161 10158 ] final -157.08 input  -65.29 | X-H torsion
[ 10718 10713 10712 10709 ] final   99.39 input   66.30 | X-H torsion
[ 10763 10752 10751 10750 ] final   62.29 input  -60.55 | X-H torsion
[ 11005 11000 10999 10996 ] final -110.72 input  -57.11 | X-H torsion

> <Gold.Protein.ActiveResidues>
 VAL166  LYS551  ARG553  GLY616  TRP617  ASP618  TYR619  PRO620  LYS621  CYS622 
 ASP623  PHE694  ASN695  SER759  ASP760  ASP761  ALA762  ILE779  LEU786  VAL792 
 PHE793  MET794  SER795  GLU796  ALA797  LYS798  CYS799  TRP800  GLU811  SER814 

> <Gold.Protein.RotatedAtoms>
  150.6868  134.3108  159.4745 H   0  0  0  0  0  0  0  0  0  0  0  0  # atno 6907 bound_to 6896
  152.0994  134.9349  160.0579 H   0  0  0  0  0  0  0  0  0  0  0  0  # atno 6908 bound_to 6896
  152.0634  133.4038  159.4465 H   0  0  0  0  0  0  0  0  0  0  0  0  # atno 6909 bound_to 6896
  145.6232  139.2390  143.2126 H   0  0  0  0  0  0  0  0  0  0  0  0  # atno 7974 bound_to 7965
  156.1393  140.3181  155.8470 H   0  0  0  0  0  0  0  0  0  0  0  0  # atno 8008 bound_to 7997
  155.4184  140.0510  157.3044 H   0  0  0  0  0  0  0  0  0  0  0  0  # atno 8009 bound_to 7997
  154.4963  140.2112  155.9453 H   0  0  0  0  0  0  0  0  0  0  0  0  # atno 8010 bound_to 7997
  139.6799  143.9599  152.2331 H   0  0  0  0  0  0  0  0  0  0  0  0  # atno 10167 bound_to 10162
  157.6877  131.0668  150.4941 H   0  0  0  0  0  0  0  0  0  0  0  0  # atno 10718 bound_to 10713
  152.9978  135.5470  154.6169 H   0  0  0  0  0  0  0  0  0  0  0  0  # atno 10763 bound_to 10752
  154.5477  135.2824  155.1040 H   0  0  0  0  0  0  0  0  0  0  0  0  # atno 10764 bound_to 10752
  154.2292  135.6436  153.5222 H   0  0  0  0  0  0  0  0  0  0  0  0  # atno 10765 bound_to 10752
  141.0776  133.9275  157.2358 H   0  0  0  0  0  0  0  0  0  0  0  0  # atno 11005 bound_to 11000
  146.1415  140.7051  142.9365 LP  0  0  0  0  0  0  0  0  0  0  0  0  # atno 17320 bound_to 7965
  144.7223  140.4412  143.6999 LP  0  0  0  0  0  0  0  0  0  0  0  0  # atno 17321 bound_to 7965
  139.9386  144.6696  150.8289 LP  0  0  0  0  0  0  0  0  0  0  0  0  # atno 17342 bound_to 10162
  140.7648  143.3260  151.2516 LP  0  0  0  0  0  0  0  0  0  0  0  0  # atno 17343 bound_to 10162
  156.5266  130.4174  149.6223 LP  0  0  0  0  0  0  0  0  0  0  0  0  # atno 17370 bound_to 10713
  156.3107  130.7227  151.2119 LP  0  0  0  0  0  0  0  0  0  0  0  0  # atno 17371 bound_to 10713
  139.9588  135.0159  156.9203 LP  0  0  0  0  0  0  0  0  0  0  0  0  # atno 17394 bound_to 11000
  140.5540  134.0599  155.7378 LP  0  0  0  0  0  0  0  0  0  0  0  0  # atno 17395 bound_to 11000

$$$$
