AV-unprocessed.smi:686|AV-procd|sdf|3339|dock2
  -GOLD-   22720 0313D 1   1.00000     0.00000
 Structure written by MMmdl.
 41 42  0  0  0  0  0  0  0  0  2 V2000
  147.1337  140.9891  153.0727 C   0  0  0  0  0  0  0  0  0  0  0  0
  147.4999  139.4992  153.0364 C   0  0  2  0  0  0  0  0  0  0  0  0
  146.5434  138.6496  152.1996 C   0  0  0  0  0  0  0  0  0  0  0  0
  146.6943  137.2768  152.7225 N   0  3  2  0  0  0  0  0  0  0  0  0
  145.6295  136.3165  152.3150 C   0  0  0  0  0  0  0  0  0  0  0  0
  145.7200  135.9853  150.8135 C   0  0  0  0  0  0  0  0  0  0  0  0
  144.2239  136.8552  152.6415 C   0  0  0  0  0  0  0  0  0  0  0  0
  146.8743  137.4304  154.1839 C   0  0  0  0  0  0  0  0  0  0  0  0
  147.4993  138.8189  154.4153 C   0  0  1  0  0  0  0  0  0  0  0  0
  148.8677  138.7092  154.9288 N   0  0  0  0  0  0  0  0  0  0  0  0
  149.6111  140.1236  155.5800 S   0  0  0  0  0  0  0  0  0  0  0  0
  151.0008  140.1490  155.0998 O   0  0  0  0  0  0  0  0  0  0  0  0
  148.7210  141.2627  155.3074 O   0  0  0  0  0  0  0  0  0  0  0  0
  149.6003  139.7857  157.3909 C   0  0  0  0  0  0  0  0  0  0  0  0
  150.9775  139.9981  157.9513 C   0  0  0  0  0  0  0  0  0  0  0  0
  151.3930  140.9235  158.9486 C   0  0  0  0  0  0  0  0  0  0  0  0
  152.7311  140.6816  159.0695 C   0  0  0  0  0  0  0  0  0  0  0  0
  153.1133  139.6920  158.2232 O   0  0  0  0  0  0  0  0  0  0  0  0
  151.9862  139.2609  157.5145 N   0  0  0  0  0  0  0  0  0  0  0  0
  146.1389  141.1446  153.4912 H   0  0  0  0  0  0  0  0  0  0  0  0
  147.1451  141.4192  152.0708 H   0  0  0  0  0  0  0  0  0  0  0  0
  147.8428  141.5496  153.6824 H   0  0  0  0  0  0  0  0  0  0  0  0
  148.4907  139.4005  152.5884 H   0  0  0  0  0  0  0  0  0  0  0  0
  145.5136  138.9821  152.3437 H   0  0  0  0  0  0  0  0  0  0  0  0
  146.7761  138.7125  151.1362 H   0  0  0  0  0  0  0  0  0  0  0  0
  145.7727  135.3909  152.8749 H   0  0  0  0  0  0  0  0  0  0  0  0
  144.9145  135.3150  150.5121 H   0  0  0  0  0  0  0  0  0  0  0  0
  146.6555  135.4868  150.5596 H   0  0  0  0  0  0  0  0  0  0  0  0
  145.6443  136.8860  150.2034 H   0  0  0  0  0  0  0  0  0  0  0  0
  143.4521  136.1682  152.2925 H   0  0  0  0  0  0  0  0  0  0  0  0
  144.0472  137.8197  152.1641 H   0  0  0  0  0  0  0  0  0  0  0  0
  144.0715  136.9774  153.7137 H   0  0  0  0  0  0  0  0  0  0  0  0
  145.9049  137.3878  154.6834 H   0  0  0  0  0  0  0  0  0  0  0  0
  147.4836  136.6174  154.5805 H   0  0  0  0  0  0  0  0  0  0  0  0
  146.8925  139.3844  155.1247 H   0  0  0  0  0  0  0  0  0  0  0  0
  149.4788  138.2628  154.2447 H   0  0  0  0  0  0  0  0  0  0  0  0
  148.8812  140.4555  157.8619 H   0  0  0  0  0  0  0  0  0  0  0  0
  149.2579  138.7627  157.5501 H   0  0  0  0  0  0  0  0  0  0  0  0
  150.8039  141.6504  159.4877 H   0  0  0  0  0  0  0  0  0  0  0  0
  153.5101  141.1088  159.6836 H   0  0  0  0  0  0  0  0  0  0  0  0
  147.5717  136.9307  152.3614 H   0  0  0  0  0  0  0  0  0  0  0  0
  1  2  1  0  0  0  0
  1 20  1  0  0  0  0
  1 21  1  0  0  0  0
  1 22  1  0  0  0  0
  2  9  1  0  0  0  0
  2  3  1  0  0  0  0
  2 23  1  0  0  0  0
  3  4  1  0  0  0  0
  3 24  1  0  0  0  0
  3 25  1  0  0  0  0
  4  5  1  0  0  0  0
  4  8  1  0  0  0  0
  4 41  1  0  0  0  0
  5  6  1  0  0  0  0
  5  7  1  0  0  0  0
  5 26  1  0  0  0  0
  6 27  1  0  0  0  0
  6 28  1  0  0  0  0
  6 29  1  0  0  0  0
  7 30  1  0  0  0  0
  7 31  1  0  0  0  0
  7 32  1  0  0  0  0
  8  9  1  0  0  0  0
  8 33  1  0  0  0  0
  8 34  1  0  0  0  0
  9 10  1  0  0  0  0
  9 35  1  0  0  0  0
 10 11  1  0  0  0  0
 10 36  1  0  0  0  0
 11 12  2  0  0  0  0
 11 13  2  0  0  0  0
 11 14  1  0  0  0  0
 14 15  1  0  0  0  0
 14 37  1  0  0  0  0
 14 38  1  0  0  0  0
 15 19  2  0  0  0  0
 15 16  1  0  0  0  0
 16 17  2  0  0  0  0
 16 39  1  0  0  0  0
 17 18  1  0  0  0  0
 17 40  1  0  0  0  0
 18 19  1  0  0  0  0
M  CHG  1   4   1
M  END
> <s_m_source_file>
AV-unprocessed.smi

> <i_m_source_file_index>
686

> <i_lp_mmshare_version>
43012

> <i_f3d_flags>
0

> <s_epik_input>
W0NIM11bQ0BASF0xW0NIMl1OKFtDSF0oW0NIM10pW0NIM10pW0NIMl1bQ0BIXTFbTkhdUyg9TykoPU8pW0NIMl1jMltjSF1bY0hdb24y

> <s_epik_cmdline>
J2VwaWtfcHl0aG9uJywgJy1waCcsICc3LjAnLCAnLXRuJywgJzgnLCAnLW1hJywgJzIwMCcsICctbWV0YWxfYmluZGluZycsICctaW1hZScsICc8aW5maWxlLm1hZT4nLCAnLW9tYWUnLCAnPG91dGZpbGUubWFlPic=

> <r_epik_Ionization_Penalty>
0.00200818

> <r_epik_Ionization_Penalty_Charging>
0.000701289

> <r_epik_Ionization_Penalty_Neutral>
0.00130689

> <r_epik_State_Penalty>
0.00131314

> <r_epik_Charging_Adjusted_Penalty>
0.00201443

> <i_epik_Tot_Q>
1

> <i_epik_Tot_abs_Q>
1

> <r_epik_Metal_State_Penalty>
0.310831

> <b_epik_Metal_Only>
0

> <s_lp_Force_Field>
OPLS_2005

> <r_lp_Energy>
20.8584

> <b_lp_Chiralities_Consistent>
1

> <s_lp_Variant>
AV-unprocessed.smi:686-3

> <Gold.Version>
5.8.1

> <Gold.Id.Protein>
6NUR|6NUR_protein|mol2

> <Gold.PLP.Fitness>
37.7415

> <Gold.PLP.PLP>
-26.6969

> <Gold.PLP.part.hbond>
-3.0000

> <Gold.PLP.part.metal>
0.0000

> <Gold.PLP.part.buried>
-2.8816

> <Gold.PLP.part.nonpolar>
-20.6743

> <Gold.PLP.part.repulsive>
0.2023

> <Gold.PLP.ligand.clash>
0.0000

> <Gold.PLP.ligand.torsion>
0.5762

> <Gold.PLP.Chemscore.Hbond>
4.0000

> <Gold.PLP.Chemscore.CHOScore>
0.0000

> <Gold.PLP.Chemscore.Metal>
0.0000

> <Gold.Chemscore.Hbonds>
donor molecule, donor type, donor heavy atom, donor atom, acceptor molecule, acceptor atom, score
      L1  H     4    41       P1  7948  2.00
      P1  H  7989  7998       L1    12  1.00
      P1  H  7997  8008       L1    18  1.00

> <Gold.PLP.Chemscore.Internal.Correction>
0.1970

> <Gold.Rescore>
     Score         DG    S(hbond)    S(metal)    S(lipo)     H(rot)  DE(clash)    DE(int)     intcor
     14.29     -17.71       2.93        0.00      62.74       1.91       0.09       3.33       ----

> <Gold.Chemscore.Fitness>
14.2942

> <Gold.Chemscore.DG>
-17.7106

> <Gold.Chemscore.ZeroCoef>
-5.4800

> <Gold.Chemscore.Hbond>
2.9291

> <Gold.Chemscore.Metal>
0.0000

> <Gold.Chemscore.Lipo>
62.7417

> <Gold.Chemscore.Internal_Hbond>
0.0000

> <Gold.Chemscore.DEClash>
0.0863

> <Gold.Chemscore.DEInternal>
3.3301

> <Gold.Chemscore.Rot>
1.9115

> <Gold.Chemscore.Internal.Correction>
   9.000000E+99

> <Gold.Chemscore.Hbonds>
donor molecule, donor type, donor heavy atom, donor atom, acceptor molecule, acceptor atom, score
      L1  H     4    41       P1  7948  0.99
      P1  H  7989  7998       L1    12  0.99
      P1  H  7997  8008       L1    18  0.83

> <Gold.Chemscore.Hbond.Weighted>
-9.7833

> <Gold.Chemscore.Metal.Weighted>
-0.0000

> <Gold.Chemscore.Lipo.Weighted>
-7.3408

> <Gold.Chemscore.Internal_Hbond.Weighted>
0.0000

> <Gold.Chemscore.DEClash.Weighted>
0.0863

> <Gold.Chemscore.DEInternal.Weighted>
3.3301

> <Gold.Chemscore.Rot.Weighted>
4.8935

> <Gold.Chemscore.Internal.Correction.Weighted>
   9.000000E+99

> <Gold.Protein.RotatedTorsions>
[ 6907 6896 6895 6894 ] final   -2.01 input  -60.11 | X-H torsion
[ 7974 7965 7964 7962 ] final -179.25 input  175.53 | X-H torsion
[ 8008 7997 7996 7995 ] final  -94.85 input   59.86 | X-H torsion
[ 10167 10162 10161 10158 ] final   47.13 input  -65.29 | X-H torsion
[ 10718 10713 10712 10709 ] final -152.10 input   66.30 | X-H torsion
[ 10763 10752 10751 10750 ] final  -51.34 input  -60.55 | X-H torsion
[ 11005 11000 10999 10996 ] final  179.24 input  -57.11 | X-H torsion

> <Gold.Protein.ActiveResidues>
 VAL166  LYS551  ARG553  GLY616  TRP617  ASP618  TYR619  PRO620  LYS621  CYS622 
 ASP623  PHE694  ASN695  SER759  ASP760  ASP761  ALA762  ILE779  LEU786  VAL792 
 PHE793  MET794  SER795  GLU796  ALA797  LYS798  CYS799  TRP800  GLU811  SER814 

> <Gold.Protein.RotatedAtoms>
  151.5367  135.1068  159.9915 H   0  0  0  0  0  0  0  0  0  0  0  0  # atno 6907 bound_to 6896
  152.4554  133.7708  159.6808 H   0  0  0  0  0  0  0  0  0  0  0  0  # atno 6908 bound_to 6896
  150.8495  133.7742  159.3055 H   0  0  0  0  0  0  0  0  0  0  0  0  # atno 6909 bound_to 6896
  144.7135  140.0746  143.6428 H   0  0  0  0  0  0  0  0  0  0  0  0  # atno 7974 bound_to 7965
  154.7538  140.0485  157.0916 H   0  0  0  0  0  0  0  0  0  0  0  0  # atno 8008 bound_to 7997
  155.0024  140.3126  155.4843 H   0  0  0  0  0  0  0  0  0  0  0  0  # atno 8009 bound_to 7997
  156.2890  140.2199  156.5134 H   0  0  0  0  0  0  0  0  0  0  0  0  # atno 8010 bound_to 7997
  140.3068  144.2869  150.6208 H   0  0  0  0  0  0  0  0  0  0  0  0  # atno 10167 bound_to 10162
  156.4680  130.8245  151.2475 H   0  0  0  0  0  0  0  0  0  0  0  0  # atno 10718 bound_to 10713
  154.1250  135.6529  153.4910 H   0  0  0  0  0  0  0  0  0  0  0  0  # atno 10763 bound_to 10752
  153.0213  135.5279  154.7058 H   0  0  0  0  0  0  0  0  0  0  0  0  # atno 10764 bound_to 10752
  154.6277  135.2972  155.0223 H   0  0  0  0  0  0  0  0  0  0  0  0  # atno 10765 bound_to 10752
  140.4040  134.6752  157.4578 H   0  0  0  0  0  0  0  0  0  0  0  0  # atno 11005 bound_to 11000
  145.9754  139.2901  143.1074 LP  0  0  0  0  0  0  0  0  0  0  0  0  # atno 17320 bound_to 7965
  145.9070  140.9205  143.0473 LP  0  0  0  0  0  0  0  0  0  0  0  0  # atno 17321 bound_to 7965
  140.5603  143.2193  151.7776 LP  0  0  0  0  0  0  0  0  0  0  0  0  # atno 17342 bound_to 10162
  139.4902  144.4357  151.9822 LP  0  0  0  0  0  0  0  0  0  0  0  0  # atno 17343 bound_to 10162
  157.7493  131.0085  150.3233 LP  0  0  0  0  0  0  0  0  0  0  0  0  # atno 17370 bound_to 10713
  156.3648  130.3853  149.7222 LP  0  0  0  0  0  0  0  0  0  0  0  0  # atno 17371 bound_to 10713
  140.0315  134.6399  155.9100 LP  0  0  0  0  0  0  0  0  0  0  0  0  # atno 17394 bound_to 11000
  141.1846  133.6553  156.5164 LP  0  0  0  0  0  0  0  0  0  0  0  0  # atno 17395 bound_to 11000

$$$$
