AV-unprocessed.smi:3168|AV-procd|sdf|12100|dock5
  -GOLD-   2272017533D 1   1.00000     0.00000
 Structure written by MMmdl.
 33 34  0  0  0  0  0  0  0  0  1 V2000
  149.5849  141.4951  155.4810 C   0  0  0  0  0  0  0  0  0  0  0  0
  150.9817  141.1596  156.0430 C   0  0  1  0  0  0  0  0  0  0  0  0
  151.0137  141.1611  157.5781 C   0  0  0  0  0  0  0  0  0  0  0  0
  149.9955  141.4053  158.2264 O   0  0  0  0  0  0  0  0  0  0  0  0
  152.1928  140.8594  158.1444 N   0  0  0  0  0  0  0  0  0  0  0  0
  152.4301  140.7003  159.5746 C   0  0  0  0  0  0  0  0  0  0  0  0
  152.7310  142.0522  160.2429 C   0  0  2  0  0  0  0  0  0  0  0  0
  153.0136  141.9878  161.7432 C   0  0  0  0  0  0  0  0  0  0  0  0
  152.6832  143.3925  162.2178 C   0  0  0  0  0  0  0  0  0  0  0  0
  151.8054  143.9678  161.1008 C   0  0  0  0  0  0  0  0  0  0  0  0
  151.5949  142.8984  160.1874 O   0  0  0  0  0  0  0  0  0  0  0  0
  151.5022  139.8928  155.5398 N   0  0  0  0  0  0  0  0  0  0  0  0
  150.8846  139.0064  154.6802 C   0  0  0  0  0  0  0  0  0  0  0  0
  151.7606  137.9872  154.4396 C   0  0  0  0  0  0  0  0  0  0  0  0
  152.9121  138.3474  155.1925 C   0  0  0  0  0  0  0  0  0  0  0  0
  152.7600  139.4910  155.8390 N   0  0  0  0  0  0  0  0  0  0  0  0
  149.2423  142.4668  155.8382 H   0  0  0  0  0  0  0  0  0  0  0  0
  148.8350  140.7569  155.7687 H   0  0  0  0  0  0  0  0  0  0  0  0
  149.6056  141.5373  154.3918 H   0  0  0  0  0  0  0  0  0  0  0  0
  151.6601  141.9417  155.6974 H   0  0  0  0  0  0  0  0  0  0  0  0
  152.9766  140.6810  157.5337 H   0  0  0  0  0  0  0  0  0  0  0  0
  151.5319  140.2688  160.0165 H   0  0  0  0  0  0  0  0  0  0  0  0
  153.2358  139.9897  159.7667 H   0  0  0  0  0  0  0  0  0  0  0  0
  153.5579  142.5480  159.7308 H   0  0  0  0  0  0  0  0  0  0  0  0
  152.3427  141.2731  162.2217 H   0  0  0  0  0  0  0  0  0  0  0  0
  154.0384  141.6911  161.9699 H   0  0  0  0  0  0  0  0  0  0  0  0
  152.1659  143.3739  163.1776 H   0  0  0  0  0  0  0  0  0  0  0  0
  153.5882  143.9898  162.3348 H   0  0  0  0  0  0  0  0  0  0  0  0
  150.8542  144.3493  161.4729 H   0  0  0  0  0  0  0  0  0  0  0  0
  152.3210  144.7820  160.5898 H   0  0  0  0  0  0  0  0  0  0  0  0
  149.8828  139.1743  154.3135 H   0  0  0  0  0  0  0  0  0  0  0  0
  151.6052  137.1198  153.8156 H   0  0  0  0  0  0  0  0  0  0  0  0
  153.8496  137.8188  155.2831 H   0  0  0  0  0  0  0  0  0  0  0  0
  1  2  1  0  0  0  0
  1 17  1  0  0  0  0
  1 18  1  0  0  0  0
  1 19  1  0  0  0  0
  2  3  1  0  0  0  0
  2 12  1  0  0  0  0
  2 20  1  0  0  0  0
  3  4  2  0  0  0  0
  3  5  1  0  0  0  0
  5  6  1  0  0  0  0
  5 21  1  0  0  0  0
  6  7  1  0  0  0  0
  6 22  1  0  0  0  0
  6 23  1  0  0  0  0
  7 11  1  0  0  0  0
  7  8  1  0  0  0  0
  7 24  1  0  0  0  0
  8  9  1  0  0  0  0
  8 25  1  0  0  0  0
  8 26  1  0  0  0  0
  9 10  1  0  0  0  0
  9 27  1  0  0  0  0
  9 28  1  0  0  0  0
 10 11  1  0  0  0  0
 10 29  1  0  0  0  0
 10 30  1  0  0  0  0
 12 16  1  0  0  0  0
 12 13  1  0  0  0  0
 13 14  2  0  0  0  0
 13 31  1  0  0  0  0
 14 15  1  0  0  0  0
 14 32  1  0  0  0  0
 15 16  2  0  0  0  0
 15 33  1  0  0  0  0
M  END
> <s_m_source_file>
AV-unprocessed.smi

> <i_m_source_file_index>
3168

> <i_lp_mmshare_version>
43012

> <i_f3d_flags>
0

> <s_epik_input>
bjFbY0hdW2NIXVtjSF1uMVtDQEhdKFtDSDNdKUMoPU8pW05IXVtDSDJdW0NAQEhdMltDSDJdW0NIMl1bQ0gyXU8y

> <s_epik_cmdline>
J2VwaWtfcHl0aG9uJywgJy1waCcsICc3LjAnLCAnLXRuJywgJzgnLCAnLW1hJywgJzIwMCcsICctbWV0YWxfYmluZGluZycsICctaW1hZScsICc8aW5maWxlLm1hZT4nLCAnLW9tYWUnLCAnPG91dGZpbGUubWFlPic=

> <r_lp_tautomer_probability>
1

> <r_epik_Ionization_Penalty>
4.14877e-05

> <r_epik_Ionization_Penalty_Charging>
0

> <r_epik_Ionization_Penalty_Neutral>
4.14877e-05

> <r_epik_State_Penalty>
-0

> <r_epik_Charging_Adjusted_Penalty>
0

> <i_epik_Tot_Q>
0

> <i_epik_Tot_abs_Q>
0

> <r_epik_Metal_State_Penalty>
-0

> <b_epik_Metal_Only>
0

> <s_lp_Force_Field>
OPLS_2005

> <r_lp_Energy>
21.2446

> <b_lp_Chiralities_Consistent>
1

> <s_lp_Variant>
AV-unprocessed.smi:3168-2

> <Gold.Version>
5.8.1

> <Gold.Id.Protein>
6NUR|6NUR_protein|mol2

> <Gold.PLP.Fitness>
43.5343

> <Gold.PLP.PLP>
-40.9432

> <Gold.PLP.part.hbond>
-1.2975

> <Gold.PLP.part.metal>
0.0000

> <Gold.PLP.part.buried>
-5.0865

> <Gold.PLP.part.nonpolar>
-34.5801

> <Gold.PLP.part.repulsive>
0.1446

> <Gold.PLP.ligand.clash>
0.0000

> <Gold.PLP.ligand.torsion>
0.2597

> <Gold.PLP.Chemscore.Hbond>
1.0000

> <Gold.PLP.Chemscore.CHOScore>
0.0000

> <Gold.PLP.Chemscore.Metal>
0.0000

> <Gold.Chemscore.Hbonds>
donor molecule, donor type, donor heavy atom, donor atom, acceptor molecule, acceptor atom, score
      P1  H  7997  8009       L1    16  1.00

> <Gold.PLP.Chemscore.Internal.Correction>
0.1104

> <Gold.Rescore>
     Score         DG    S(hbond)    S(metal)    S(lipo)     H(rot)  DE(clash)    DE(int)     intcor
     12.39     -15.52       0.97        0.00      93.49       1.61       0.07       3.06       ----

> <Gold.Chemscore.Fitness>
12.3926

> <Gold.Chemscore.DG>
-15.5223

> <Gold.Chemscore.ZeroCoef>
-5.4800

> <Gold.Chemscore.Hbond>
0.9654

> <Gold.Chemscore.Metal>
0.0000

> <Gold.Chemscore.Lipo>
93.4856

> <Gold.Chemscore.Internal_Hbond>
0.0000

> <Gold.Chemscore.DEClash>
0.0729

> <Gold.Chemscore.DEInternal>
3.0569

> <Gold.Chemscore.Rot>
1.6094

> <Gold.Chemscore.Internal.Correction>
   9.000000E+99

> <Gold.Chemscore.Hbonds>
donor molecule, donor type, donor heavy atom, donor atom, acceptor molecule, acceptor atom, score
      P1  H  7997  8009       L1    16  0.70

> <Gold.Chemscore.Hbond.Weighted>
-3.2246

> <Gold.Chemscore.Metal.Weighted>
-0.0000

> <Gold.Chemscore.Lipo.Weighted>
-10.9378

> <Gold.Chemscore.Internal_Hbond.Weighted>
0.0000

> <Gold.Chemscore.DEClash.Weighted>
0.0729

> <Gold.Chemscore.DEInternal.Weighted>
3.0569

> <Gold.Chemscore.Rot.Weighted>
4.1201

> <Gold.Chemscore.Internal.Correction.Weighted>
   9.000000E+99

> <Gold.Protein.RotatedTorsions>
[ 6907 6896 6895 6894 ] final   27.86 input  -60.11 | X-H torsion
[ 7974 7965 7964 7962 ] final  -28.39 input  175.53 | X-H torsion
[ 8008 7997 7996 7995 ] final -157.08 input   59.86 | X-H torsion
[ 10167 10162 10161 10158 ] final   54.40 input  -65.29 | X-H torsion
[ 10718 10713 10712 10709 ] final  126.70 input   66.30 | X-H torsion
[ 10763 10752 10751 10750 ] final  -41.20 input  -60.55 | X-H torsion
[ 11005 11000 10999 10996 ] final  -31.79 input  -57.11 | X-H torsion

> <Gold.Protein.ActiveResidues>
 VAL166  LYS551  ARG553  GLY616  TRP617  ASP618  TYR619  PRO620  LYS621  CYS622 
 ASP623  PHE694  ASN695  SER759  ASP760  ASP761  ALA762  ILE779  LEU786  VAL792 
 PHE793  MET794  SER795  GLU796  ALA797  LYS798  CYS799  TRP800  GLU811  SER814 

> <Gold.Protein.RotatedAtoms>
  152.0085  134.9889  160.0567 H   0  0  0  0  0  0  0  0  0  0  0  0  # atno 6907 bound_to 6896
  152.1452  133.4483  159.4794 H   0  0  0  0  0  0  0  0  0  0  0  0  # atno 6908 bound_to 6896
  150.6869  134.2175  159.4427 H   0  0  0  0  0  0  0  0  0  0  0  0  # atno 6909 bound_to 6896
  146.1291  140.5277  142.8701 H   0  0  0  0  0  0  0  0  0  0  0  0  # atno 7974 bound_to 7965
  155.7271  140.0797  157.2305 H   0  0  0  0  0  0  0  0  0  0  0  0  # atno 8008 bound_to 7997
  154.4037  140.1602  156.2521 H   0  0  0  0  0  0  0  0  0  0  0  0  # atno 8009 bound_to 7997
  155.9143  140.3402  155.6126 H   0  0  0  0  0  0  0  0  0  0  0  0  # atno 8010 bound_to 7997
  140.2305  144.3692  150.6416 H   0  0  0  0  0  0  0  0  0  0  0  0  # atno 10167 bound_to 10162
  157.5396  131.1097  150.8880 H   0  0  0  0  0  0  0  0  0  0  0  0  # atno 10718 bound_to 10713
  153.9585  135.6742  153.4745 H   0  0  0  0  0  0  0  0  0  0  0  0  # atno 10763 bound_to 10752
  153.0849  135.4904  154.8574 H   0  0  0  0  0  0  0  0  0  0  0  0  # atno 10764 bound_to 10752
  154.7286  135.3133  154.8889 H   0  0  0  0  0  0  0  0  0  0  0  0  # atno 10765 bound_to 10752
  140.9498  133.7228  156.1203 H   0  0  0  0  0  0  0  0  0  0  0  0  # atno 11005 bound_to 11000
  144.7672  140.5557  143.6695 LP  0  0  0  0  0  0  0  0  0  0  0  0  # atno 17320 bound_to 7965
  145.5300  139.1475  143.3505 LP  0  0  0  0  0  0  0  0  0  0  0  0  # atno 17321 bound_to 7965
  140.6188  143.2174  151.6736 LP  0  0  0  0  0  0  0  0  0  0  0  0  # atno 17342 bound_to 10162
  139.5111  144.3519  152.0644 LP  0  0  0  0  0  0  0  0  0  0  0  0  # atno 17343 bound_to 10162
  156.9436  130.5394  149.5280 LP  0  0  0  0  0  0  0  0  0  0  0  0  # atno 17370 bound_to 10713
  156.0486  130.5559  150.8938 LP  0  0  0  0  0  0  0  0  0  0  0  0  # atno 17371 bound_to 10713
  140.7618  134.3930  157.5524 LP  0  0  0  0  0  0  0  0  0  0  0  0  # atno 17394 bound_to 11000
  139.8844  134.8966  156.2705 LP  0  0  0  0  0  0  0  0  0  0  0  0  # atno 17395 bound_to 11000

$$$$
