AV-unprocessed.smi:1669|AV-procd|sdf|6685|dock3
  -GOLD-   22720 7403D 1   1.00000     0.00000
 Structure written by MMmdl.
 48 50  0  0  0  0  0  0  0  0  2 V2000
  146.9720  135.3649  154.5732 C   0  0  0  0  0  0  0  0  0  0  0  0
  147.2456  133.9234  154.7736 N   0  3  1  0  0  0  0  0  0  0  0  0
  147.7372  133.2738  153.5332 C   0  0  0  0  0  0  0  0  0  0  0  0
  146.6297  133.1053  152.5068 C   0  0  0  0  0  0  0  0  0  0  0  0
  145.9960  134.2423  151.9622 C   0  0  0  0  0  0  0  0  0  0  0  0
  144.9579  134.0925  151.0223 C   0  0  0  0  0  0  0  0  0  0  0  0
  144.5525  132.8056  150.6197 C   0  0  0  0  0  0  0  0  0  0  0  0
  145.1863  131.6685  151.1562 C   0  0  0  0  0  0  0  0  0  0  0  0
  146.2235  131.8173  152.0973 C   0  0  0  0  0  0  0  0  0  0  0  0
  148.0965  133.6611  155.9643 C   0  0  0  0  0  0  0  0  0  0  0  0
  147.5974  134.4280  157.2024 C   0  0  1  0  0  0  0  0  0  0  0  0
  146.3655  133.8648  157.6120 O   0  0  0  0  0  0  0  0  0  0  0  0
  148.6072  134.3583  158.3646 C   0  0  0  0  0  0  0  0  0  0  0  0
  148.2244  135.2060  159.4863 N   0  0  0  0  0  0  0  0  0  0  0  0
  148.5570  136.5009  159.7225 C   0  0  0  0  0  0  0  0  0  0  0  0
  149.4202  137.2913  158.7873 C   0  0  0  0  0  0  0  0  0  0  0  0
  150.7356  136.7865  158.7053 O   0  0  0  0  0  0  0  0  0  0  0  0
  148.0655  137.0298  160.8434 N   0  0  0  0  0  0  0  0  0  0  0  0
  147.3423  135.9842  161.3830 C   0  0  0  0  0  0  0  0  0  0  0  0
  146.5839  135.9087  162.5730 C   0  0  0  0  0  0  0  0  0  0  0  0
  145.9213  134.7137  162.9220 C   0  0  0  0  0  0  0  0  0  0  0  0
  146.0077  133.5796  162.0888 C   0  0  0  0  0  0  0  0  0  0  0  0
  146.7591  133.6330  160.8993 C   0  0  0  0  0  0  0  0  0  0  0  0
  147.4189  134.8281  160.5559 C   0  0  0  0  0  0  0  0  0  0  0  0
  147.8859  135.9037  154.3198 H   0  0  0  0  0  0  0  0  0  0  0  0
  146.5482  135.8157  155.4704 H   0  0  0  0  0  0  0  0  0  0  0  0
  146.2551  135.5118  153.7648 H   0  0  0  0  0  0  0  0  0  0  0  0
  148.5155  133.8875  153.0770 H   0  0  0  0  0  0  0  0  0  0  0  0
  148.1962  132.3127  153.7704 H   0  0  0  0  0  0  0  0  0  0  0  0
  146.2999  135.2327  152.2685 H   0  0  0  0  0  0  0  0  0  0  0  0
  144.4720  134.9649  150.6107 H   0  0  0  0  0  0  0  0  0  0  0  0
  143.7564  132.6905  149.8988 H   0  0  0  0  0  0  0  0  0  0  0  0
  144.8755  130.6816  150.8462 H   0  0  0  0  0  0  0  0  0  0  0  0
  146.7020  130.9393  152.5058 H   0  0  0  0  0  0  0  0  0  0  0  0
  148.1138  132.5982  156.2051 H   0  0  0  0  0  0  0  0  0  0  0  0
  149.1300  133.9278  155.7371 H   0  0  0  0  0  0  0  0  0  0  0  0
  147.4223  135.4739  156.9499 H   0  0  0  0  0  0  0  0  0  0  0  0
  145.7818  133.8457  156.8681 H   0  0  0  0  0  0  0  0  0  0  0  0
  148.7298  133.3303  158.7051 H   0  0  0  0  0  0  0  0  0  0  0  0
  149.5914  134.6793  158.0211 H   0  0  0  0  0  0  0  0  0  0  0  0
  148.9796  137.2748  157.7898 H   0  0  0  0  0  0  0  0  0  0  0  0
  149.4482  138.3357  159.0976 H   0  0  0  0  0  0  0  0  0  0  0  0
  151.1540  137.1604  157.9453 H   0  0  0  0  0  0  0  0  0  0  0  0
  146.5112  136.7720  163.2179 H   0  0  0  0  0  0  0  0  0  0  0  0
  145.3437  134.6673  163.8336 H   0  0  0  0  0  0  0  0  0  0  0  0
  145.4966  132.6686  162.3639 H   0  0  0  0  0  0  0  0  0  0  0  0
  146.8265  132.7658  160.2595 H   0  0  0  0  0  0  0  0  0  0  0  0
  146.3553  133.4869  154.9684 H   0  0  0  0  0  0  0  0  0  0  0  0
  1  2  1  0  0  0  0
  1 25  1  0  0  0  0
  1 26  1  0  0  0  0
  1 27  1  0  0  0  0
  2  3  1  0  0  0  0
  2 10  1  0  0  0  0
  2 48  1  0  0  0  0
  3  4  1  0  0  0  0
  3 28  1  0  0  0  0
  3 29  1  0  0  0  0
  4  9  1  0  0  0  0
  4  5  2  0  0  0  0
  5  6  1  0  0  0  0
  5 30  1  0  0  0  0
  6  7  2  0  0  0  0
  6 31  1  0  0  0  0
  7  8  1  0  0  0  0
  7 32  1  0  0  0  0
  8  9  2  0  0  0  0
  8 33  1  0  0  0  0
  9 34  1  0  0  0  0
 10 11  1  0  0  0  0
 10 35  1  0  0  0  0
 10 36  1  0  0  0  0
 11 12  1  0  0  0  0
 11 13  1  0  0  0  0
 11 37  1  0  0  0  0
 12 38  1  0  0  0  0
 13 14  1  0  0  0  0
 13 39  1  0  0  0  0
 13 40  1  0  0  0  0
 14 24  1  0  0  0  0
 14 15  1  0  0  0  0
 15 16  1  0  0  0  0
 15 18  2  0  0  0  0
 16 17  1  0  0  0  0
 16 41  1  0  0  0  0
 16 42  1  0  0  0  0
 17 43  1  0  0  0  0
 18 19  1  0  0  0  0
 19 24  2  0  0  0  0
 19 20  1  0  0  0  0
 20 21  2  0  0  0  0
 20 44  1  0  0  0  0
 21 22  1  0  0  0  0
 21 45  1  0  0  0  0
 22 23  2  0  0  0  0
 22 46  1  0  0  0  0
 23 24  1  0  0  0  0
 23 47  1  0  0  0  0
M  CHG  1   2   1
M  END
> <s_m_source_file>
AV-unprocessed.smi

> <i_m_source_file_index>
1669

> <i_lp_mmshare_version>
43012

> <i_f3d_flags>
0

> <s_epik_input>
W2NIXTFbY0hdW2NIXVtjSF1bY0hdYzFbQ0gyXU4oW0NIM10pW0NIMl1bQ0BIXShbT0hdKVtDSDJdbihjKG4yKVtDSDJdW09IXSljKGMyMylbY0hdW2NIXVtjSF1bY0hdMw==

> <s_epik_cmdline>
J2VwaWtfcHl0aG9uJywgJy1waCcsICc3LjAnLCAnLXRuJywgJzgnLCAnLW1hJywgJzIwMCcsICctbWV0YWxfYmluZGluZycsICctaW1hZScsICc8aW5maWxlLm1hZT4nLCAnLW9tYWUnLCAnPG91dGZpbGUubWFlPic=

> <r_epik_Ionization_Penalty>
0.0949884

> <r_epik_Ionization_Penalty_Charging>
0.0475377

> <r_epik_Ionization_Penalty_Neutral>
0.0474507

> <r_epik_State_Penalty>
0.078247

> <r_epik_Charging_Adjusted_Penalty>
0.125785

> <i_epik_Tot_Q>
1

> <i_epik_Tot_abs_Q>
1

> <r_epik_Metal_State_Penalty>
0.0403451

> <b_epik_Metal_Only>
0

> <s_lp_Force_Field>
OPLS_2005

> <r_lp_Energy>
15.7652

> <b_lp_Chiralities_Consistent>
1

> <s_lp_Variant>
AV-unprocessed.smi:1669-3

> <Gold.Version>
5.8.1

> <Gold.Id.Protein>
6NUR|6NUR_protein|mol2

> <Gold.PLP.Fitness>
44.5224

> <Gold.PLP.PLP>
-38.0422

> <Gold.PLP.part.hbond>
-3.0000

> <Gold.PLP.part.metal>
0.0000

> <Gold.PLP.part.buried>
-5.4241

> <Gold.PLP.part.nonpolar>
-30.5422

> <Gold.PLP.part.repulsive>
0.0000

> <Gold.PLP.ligand.clash>
0.0000

> <Gold.PLP.ligand.torsion>
0.6711

> <Gold.PLP.Chemscore.Hbond>
2.4137

> <Gold.PLP.Chemscore.CHOScore>
0.0000

> <Gold.PLP.Chemscore.Metal>
0.0000

> <Gold.Chemscore.Hbonds>
donor molecule, donor type, donor heavy atom, donor atom, acceptor molecule, acceptor atom, score
      P1  H  6896  6908       L1    17  0.86
      P1  H  6931  6943       L1    18  0.96
      P1  H  6934  6947       L1    18  0.48

> <Gold.PLP.Chemscore.Internal.Correction>
0.5815

> <Gold.Rescore>
     Score         DG    S(hbond)    S(metal)    S(lipo)     H(rot)  DE(clash)    DE(int)     intcor
     16.34     -17.12       2.51        0.00      97.34       3.17       0.01       0.77       ----

> <Gold.Chemscore.Fitness>
16.3405

> <Gold.Chemscore.DG>
-17.1190

> <Gold.Chemscore.ZeroCoef>
-5.4800

> <Gold.Chemscore.Hbond>
2.5069

> <Gold.Chemscore.Metal>
0.0000

> <Gold.Chemscore.Lipo>
97.3418

> <Gold.Chemscore.Internal_Hbond>
0.0000

> <Gold.Chemscore.DEClash>
0.0089

> <Gold.Chemscore.DEInternal>
0.7696

> <Gold.Chemscore.Rot>
3.1731

> <Gold.Chemscore.Internal.Correction>
   9.000000E+99

> <Gold.Chemscore.Hbonds>
donor molecule, donor type, donor heavy atom, donor atom, acceptor molecule, acceptor atom, score
      P1  H  6896  6908       L1    17  0.74
      P1  H  6931  6943       L1    18  0.90
      P1  H  6934  6947       L1    18  0.47

> <Gold.Chemscore.Hbond.Weighted>
-8.3730

> <Gold.Chemscore.Metal.Weighted>
-0.0000

> <Gold.Chemscore.Lipo.Weighted>
-11.3890

> <Gold.Chemscore.Internal_Hbond.Weighted>
0.0000

> <Gold.Chemscore.DEClash.Weighted>
0.0089

> <Gold.Chemscore.DEInternal.Weighted>
0.7696

> <Gold.Chemscore.Rot.Weighted>
8.1230

> <Gold.Chemscore.Internal.Correction.Weighted>
   9.000000E+99

> <Gold.Protein.RotatedTorsions>
[ 6907 6896 6895 6894 ] final -148.11 input  -60.11 | X-H torsion
[ 7974 7965 7964 7962 ] final   94.65 input  175.53 | X-H torsion
[ 8008 7997 7996 7995 ] final -127.51 input   59.86 | X-H torsion
[ 10167 10162 10161 10158 ] final -168.96 input  -65.29 | X-H torsion
[ 10718 10713 10712 10709 ] final  102.23 input   66.30 | X-H torsion
[ 10763 10752 10751 10750 ] final  117.62 input  -60.55 | X-H torsion
[ 11005 11000 10999 10996 ] final   89.04 input  -57.11 | X-H torsion

> <Gold.Protein.ActiveResidues>
 VAL166  LYS551  ARG553  GLY616  TRP617  ASP618  TYR619  PRO620  LYS621  CYS622 
 ASP623  PHE694  ASN695  SER759  ASP760  ASP761  ALA762  ILE779  LEU786  VAL792 
 PHE793  MET794  SER795  GLU796  ALA797  LYS798  CYS799  TRP800  GLU811  SER814 

> <Gold.Protein.RotatedAtoms>
  151.1652  133.4820  159.2593 H   0  0  0  0  0  0  0  0  0  0  0  0  # atno 6907 bound_to 6896
  151.1413  135.0181  159.8637 H   0  0  0  0  0  0  0  0  0  0  0  0  # atno 6908 bound_to 6896
  152.5462  134.1545  159.8585 H   0  0  0  0  0  0  0  0  0  0  0  0  # atno 6909 bound_to 6896
  145.4628  139.2286  143.2978 H   0  0  0  0  0  0  0  0  0  0  0  0  # atno 7974 bound_to 7965
  155.2473  140.0431  157.2982 H   0  0  0  0  0  0  0  0  0  0  0  0  # atno 8008 bound_to 7997
  154.5790  140.2395  155.8050 H   0  0  0  0  0  0  0  0  0  0  0  0  # atno 8009 bound_to 7997
  156.2179  140.2979  155.9892 H   0  0  0  0  0  0  0  0  0  0  0  0  # atno 8010 bound_to 7997
  139.5952  144.1127  152.1681 H   0  0  0  0  0  0  0  0  0  0  0  0  # atno 10167 bound_to 10162
  157.6808  131.0747  150.5373 H   0  0  0  0  0  0  0  0  0  0  0  0  # atno 10718 bound_to 10713
  153.5551  135.3532  155.2776 H   0  0  0  0  0  0  0  0  0  0  0  0  # atno 10763 bound_to 10752
  154.8702  135.4123  154.2893 H   0  0  0  0  0  0  0  0  0  0  0  0  # atno 10764 bound_to 10752
  153.3627  135.7060  153.6768 H   0  0  0  0  0  0  0  0  0  0  0  0  # atno 10765 bound_to 10752
  139.8883  134.8526  156.3085 H   0  0  0  0  0  0  0  0  0  0  0  0  # atno 11005 bound_to 11000
  146.2441  140.5398  142.8921 LP  0  0  0  0  0  0  0  0  0  0  0  0  # atno 17320 bound_to 7965
  144.7992  140.6182  143.6489 LP  0  0  0  0  0  0  0  0  0  0  0  0  # atno 17321 bound_to 7965
  140.0710  144.5779  150.7191 LP  0  0  0  0  0  0  0  0  0  0  0  0  # atno 17342 bound_to 10162
  140.7206  143.2585  151.4290 LP  0  0  0  0  0  0  0  0  0  0  0  0  # atno 17343 bound_to 10162
  156.5681  130.4272  149.6032 LP  0  0  0  0  0  0  0  0  0  0  0  0  # atno 17370 bound_to 10713
  156.2764  130.7046  151.1858 LP  0  0  0  0  0  0  0  0  0  0  0  0  # atno 17371 bound_to 10713
  140.9866  133.7234  156.0750 LP  0  0  0  0  0  0  0  0  0  0  0  0  # atno 17394 bound_to 11000
  140.7680  134.3864  157.5513 LP  0  0  0  0  0  0  0  0  0  0  0  0  # atno 17395 bound_to 11000

$$$$
