AV-unprocessed.smi:54|AV-procd|sdf|538|dock7
  -GOLD-   2262016423D 1   1.00000     0.00000
 Structure written by MMmdl.
 44 46  0  0  0  0  0  0  0  0  1 V2000
  151.5971  144.1149  161.8375 C   0  0  0  0  0  0  0  0  0  0  0  0
  150.9641  144.6512  160.5434 C   0  0  0  0  0  0  0  0  0  0  0  0
  149.4294  144.6574  160.6351 C   0  0  0  0  0  0  0  0  0  0  0  0
  151.4310  143.8306  159.3357 C   0  0  0  0  0  0  0  0  0  0  0  0
  152.4599  144.1065  158.7177 O   0  0  0  0  0  0  0  0  0  0  0  0
  150.5738  142.7158  158.9720 N   0  0  0  0  0  0  0  0  0  0  0  0
  150.7491  141.8431  157.9525 C   0  0  0  0  0  0  0  0  0  0  0  0
  149.9952  141.8407  156.8626 N   0  0  0  0  0  0  0  0  0  0  0  0
  150.3214  140.8810  155.9452 C   0  0  0  0  0  0  0  0  0  0  0  0
  151.3436  139.9610  156.0476 C   0  0  0  0  0  0  0  0  0  0  0  0
  151.3806  139.1599  154.9125 N   0  0  0  0  0  0  0  0  0  0  0  0
  150.4041  139.6101  154.1747 C   0  0  0  0  0  0  0  0  0  0  0  0
  149.6895  140.6406  154.7431 N   0  0  0  0  0  0  0  0  0  0  0  0
  148.5321  141.4223  154.1939 C   0  0  1  0  0  0  0  0  0  0  0  0
  148.2154  140.9286  152.9306 O   0  0  0  0  0  0  0  0  0  0  0  0
  147.2742  139.8717  153.0643 C   0  0  2  0  0  0  0  0  0  0  0  0
  146.5520  139.6429  151.7285 C   0  0  0  0  0  0  0  0  0  0  0  0
  145.6266  138.5848  151.8550 O   0  0  0  0  0  0  0  0  0  0  0  0
  146.3550  140.3883  154.1770 C   0  0  1  0  0  0  0  0  0  0  0  0
  145.8118  139.3006  154.8990 O   0  0  0  0  0  0  0  0  0  0  0  0
  147.2779  141.2230  155.0667 C   0  0  2  0  0  0  0  0  0  0  0  0
  146.6746  142.4595  155.3896 O   0  0  0  0  0  0  0  0  0  0  0  0
  152.1756  139.9565  157.2164 C   0  0  0  0  0  0  0  0  0  0  0  0
  153.1220  139.2162  157.4756 O   0  0  0  0  0  0  0  0  0  0  0  0
  151.8024  140.9469  158.1346 N   0  0  0  0  0  0  0  0  0  0  0  0
  148.9022  142.4477  154.1486 H   0  0  0  0  0  0  0  0  0  0  0  0
  147.7823  138.9631  153.3939 H   0  0  0  0  0  0  0  0  0  0  0  0
  145.5549  141.0001  153.7569 H   0  0  0  0  0  0  0  0  0  0  0  0
  147.5362  140.7010  155.9896 H   0  0  0  0  0  0  0  0  0  0  0  0
  152.6861  144.1168  161.7769 H   0  0  0  0  0  0  0  0  0  0  0  0
  151.2768  143.0936  162.0476 H   0  0  0  0  0  0  0  0  0  0  0  0
  151.3166  144.7309  162.6922 H   0  0  0  0  0  0  0  0  0  0  0  0
  151.2969  145.6810  160.4057 H   0  0  0  0  0  0  0  0  0  0  0  0
  148.9783  145.0337  159.7162 H   0  0  0  0  0  0  0  0  0  0  0  0
  149.0903  145.2965  161.4509 H   0  0  0  0  0  0  0  0  0  0  0  0
  149.0342  143.6566  160.8149 H   0  0  0  0  0  0  0  0  0  0  0  0
  149.7418  142.5982  159.5310 H   0  0  0  0  0  0  0  0  0  0  0  0
  150.1847  139.1978  153.2004 H   0  0  0  0  0  0  0  0  0  0  0  0
  145.9920  140.5354  151.4487 H   0  0  0  0  0  0  0  0  0  0  0  0
  147.2587  139.4376  150.9239 H   0  0  0  0  0  0  0  0  0  0  0  0
  145.2192  138.4397  151.0148 H   0  0  0  0  0  0  0  0  0  0  0  0
  146.4377  138.5926  154.8923 H   0  0  0  0  0  0  0  0  0  0  0  0
  147.3488  143.1198  155.4363 H   0  0  0  0  0  0  0  0  0  0  0  0
  152.3440  140.9999  158.9845 H   0  0  0  0  0  0  0  0  0  0  0  0
  1  2  1  0  0  0  0
  1 30  1  0  0  0  0
  1 31  1  0  0  0  0
  1 32  1  0  0  0  0
  2  3  1  0  0  0  0
  2  4  1  0  0  0  0
  2 33  1  0  0  0  0
  3 34  1  0  0  0  0
  3 35  1  0  0  0  0
  3 36  1  0  0  0  0
  4  5  2  0  0  0  0
  4  6  1  0  0  0  0
  6 37  1  0  0  0  0
  6  7  1  0  0  0  0
  7 25  1  0  0  0  0
  7  8  2  0  0  0  0
  8  9  1  0  0  0  0
  9 13  1  0  0  0  0
  9 10  2  0  0  0  0
 10 11  1  0  0  0  0
 10 23  1  0  0  0  0
 11 12  2  0  0  0  0
 12 13  1  0  0  0  0
 12 38  1  0  0  0  0
 13 14  1  0  0  0  0
 14 26  1  0  0  0  0
 14 21  1  0  0  0  0
 14 15  1  0  0  0  0
 15 16  1  0  0  0  0
 16 27  1  0  0  0  0
 16 17  1  0  0  0  0
 16 19  1  0  0  0  0
 17 18  1  0  0  0  0
 17 39  1  0  0  0  0
 17 40  1  0  0  0  0
 18 41  1  0  0  0  0
 19 28  1  0  0  0  0
 19 20  1  0  0  0  0
 19 21  1  0  0  0  0
 20 42  1  0  0  0  0
 21 29  1  0  0  0  0
 21 22  1  0  0  0  0
 22 43  1  0  0  0  0
 23 24  2  0  0  0  0
 23 25  1  0  0  0  0
 25 44  1  0  0  0  0
M  END
> <s_m_source_file>
AV-unprocessed.smi

> <i_m_source_file_index>
54

> <i_lp_mmshare_version>
43012

> <i_f3d_flags>
0

> <s_epik_input>
W0NIM11bQ0hdKFtDSDNdKUMoPU8pW05IXWMobjEpW25IXWMoPU8pYyhjMTIpbltjSF1uMltDQEBIXTNPW0NASF0oW0NIMl1bT0hdKVtDQEBIXShbT0hdKVtDQEhdM1tPSF0=

> <s_epik_cmdline>
J2VwaWtfcHl0aG9uJywgJy1waCcsICc3LjAnLCAnLXRuJywgJzgnLCAnLW1hJywgJzIwMCcsICctbWV0YWxfYmluZGluZycsICctaW1hZScsICc8aW5maWxlLm1hZT4nLCAnLW9tYWUnLCAnPG91dGZpbGUubWFlPic=

> <r_lp_tautomer_probability>
0.85571

> <r_epik_Ionization_Penalty>
0.0316551

> <r_epik_Ionization_Penalty_Charging>
0.0316043

> <r_epik_Ionization_Penalty_Neutral>
5.07097e-05

> <r_epik_State_Penalty>
3.15494e-07

> <r_epik_Charging_Adjusted_Penalty>
0.0316047

> <i_epik_Tot_Q>
0

> <i_epik_Tot_abs_Q>
0

> <r_epik_Metal_State_Penalty>
0.421206

> <b_epik_Metal_Only>
0

> <s_epik_Chemistry_Notes>
This compound contains an acetal/aminal-like group ( X-CH(R)-Y where X, Y are N, S, or O) that may be acid/base labile, releasing an aldehyde.

> <s_lp_Force_Field>
OPLS_2005

> <r_lp_Energy>
36.3126

> <b_lp_Chiralities_Consistent>
1

> <s_lp_Variant>
AV-unprocessed.smi:54-10

> <Gold.Version>
5.8.1

> <Gold.Id.Protein>
6NUR|6NUR_protein|mol2

> <Gold.PLP.Fitness>
46.1875

> <Gold.PLP.PLP>
-37.2890

> <Gold.PLP.part.hbond>
-4.1845

> <Gold.PLP.part.metal>
0.0000

> <Gold.PLP.part.buried>
1.8768

> <Gold.PLP.part.nonpolar>
-39.3210

> <Gold.PLP.part.repulsive>
5.3203

> <Gold.PLP.ligand.clash>
0.0000

> <Gold.PLP.ligand.torsion>
1.4561

> <Gold.PLP.Chemscore.Hbond>
3.0000

> <Gold.PLP.Chemscore.CHOScore>
0.9179

> <Gold.PLP.Chemscore.Metal>
0.0000

> <Gold.Chemscore.Hbonds>
donor molecule, donor type, donor heavy atom, donor atom, acceptor molecule, acceptor atom, score
      L1  H    18    41       P1 10171  1.00
      L1  H    22    43       P1  8028  0.51
      P1  H  7997  8009       L1    24  1.00
      P1  H  8011  8017       L1    15  0.05
      L1  C    12    38       P1  7957  1.00

> <Gold.PLP.Chemscore.Internal.Correction>
0.0572

> <Gold.Rescore>
     Score         DG    S(hbond)    S(metal)    S(lipo)     H(rot)  DE(clash)    DE(int)     intcor
      4.49      -8.36       1.69        0.00      65.06       4.05       2.80       1.08       ----

> <Gold.Chemscore.Fitness>
4.4892

> <Gold.Chemscore.DG>
-8.3647

> <Gold.Chemscore.ZeroCoef>
-5.4800

> <Gold.Chemscore.Hbond>
1.6882

> <Gold.Chemscore.Metal>
0.0000

> <Gold.Chemscore.Lipo>
65.0626

> <Gold.Chemscore.Internal_Hbond>
0.0000

> <Gold.Chemscore.DEClash>
2.7967

> <Gold.Chemscore.DEInternal>
1.0788

> <Gold.Chemscore.Rot>
4.0493

> <Gold.Chemscore.Internal.Correction>
   9.000000E+99

> <Gold.Chemscore.Hbonds>
donor molecule, donor type, donor heavy atom, donor atom, acceptor molecule, acceptor atom, score
      L1  H    18    41       P1 10171  0.98
      L1  H    22    43       P1  8028  0.09
      P1  H  7997  8009       L1    24  0.40

> <Gold.Chemscore.Hbond.Weighted>
-5.6386

> <Gold.Chemscore.Metal.Weighted>
-0.0000

> <Gold.Chemscore.Lipo.Weighted>
-7.6123

> <Gold.Chemscore.Internal_Hbond.Weighted>
0.0000

> <Gold.Chemscore.DEClash.Weighted>
2.7967

> <Gold.Chemscore.DEInternal.Weighted>
1.0788

> <Gold.Chemscore.Rot.Weighted>
10.3662

> <Gold.Chemscore.Internal.Correction.Weighted>
   9.000000E+99

> <Gold.Protein.RotatedTorsions>
[ 6907 6896 6895 6894 ] final  -97.84 input  -60.11 | X-H torsion
[ 7974 7965 7964 7962 ] final   11.32 input  175.53 | X-H torsion
[ 8008 7997 7996 7995 ] final  169.11 input   59.86 | X-H torsion
[ 10167 10162 10161 10158 ] final   42.44 input  -65.29 | X-H torsion
[ 10718 10713 10712 10709 ] final -168.21 input   66.30 | X-H torsion
[ 10763 10752 10751 10750 ] final  179.18 input  -60.55 | X-H torsion
[ 11005 11000 10999 10996 ] final -102.76 input  -57.11 | X-H torsion

> <Gold.Protein.ActiveResidues>
 VAL166  LYS551  ARG553  GLY616  TRP617  ASP618  TYR619  PRO620  LYS621  CYS622 
 ASP623  PHE694  ASN695  SER759  ASP760  ASP761  ALA762  ILE779  LEU786  VAL792 
 PHE793  MET794  SER795  GLU796  ALA797  LYS798  CYS799  TRP800  GLU811  SER814 

> <Gold.Protein.RotatedAtoms>
  150.7028  134.1286  159.4061 H   0  0  0  0  0  0  0  0  0  0  0  0  # atno 6907 bound_to 6896
  151.9272  135.0270  160.0536 H   0  0  0  0  0  0  0  0  0  0  0  0  # atno 6908 bound_to 6896
  152.2206  133.4945  159.5197 H   0  0  0  0  0  0  0  0  0  0  0  0  # atno 6909 bound_to 6896
  146.2373  139.9503  142.8471 H   0  0  0  0  0  0  0  0  0  0  0  0  # atno 7974 bound_to 7965
  156.1486  140.1572  156.8806 H   0  0  0  0  0  0  0  0  0  0  0  0  # atno 8008 bound_to 7997
  154.5051  140.0815  156.7915 H   0  0  0  0  0  0  0  0  0  0  0  0  # atno 8009 bound_to 7997
  155.3939  140.3411  155.4255 H   0  0  0  0  0  0  0  0  0  0  0  0  # atno 8010 bound_to 7997
  140.3544  144.2309  150.6143 H   0  0  0  0  0  0  0  0  0  0  0  0  # atno 10167 bound_to 10162
  156.6936  130.9169  151.3072 H   0  0  0  0  0  0  0  0  0  0  0  0  # atno 10718 bound_to 10713
  154.5173  135.2792  155.1292 H   0  0  0  0  0  0  0  0  0  0  0  0  # atno 10763 bound_to 10752
  154.2863  135.6275  153.5371 H   0  0  0  0  0  0  0  0  0  0  0  0  # atno 10764 bound_to 10752
  152.9930  135.5663  154.5653 H   0  0  0  0  0  0  0  0  0  0  0  0  # atno 10765 bound_to 10752
  141.1175  133.8585  157.1401 H   0  0  0  0  0  0  0  0  0  0  0  0  # atno 11005 bound_to 11000
  145.1868  140.9793  143.4234 LP  0  0  0  0  0  0  0  0  0  0  0  0  # atno 17320 bound_to 7965
  144.9893  139.3705  143.6223 LP  0  0  0  0  0  0  0  0  0  0  0  0  # atno 17321 bound_to 7965
  140.5188  143.2271  151.8421 LP  0  0  0  0  0  0  0  0  0  0  0  0  # atno 17342 bound_to 10162
  139.4822  144.4861  151.9244 LP  0  0  0  0  0  0  0  0  0  0  0  0  # atno 17343 bound_to 10162
  157.6999  130.9322  150.0755 LP  0  0  0  0  0  0  0  0  0  0  0  0  # atno 17370 bound_to 10713
  156.1779  130.3649  149.9075 LP  0  0  0  0  0  0  0  0  0  0  0  0  # atno 17371 bound_to 10713
  140.0107  134.9989  157.0390 LP  0  0  0  0  0  0  0  0  0  0  0  0  # atno 17394 bound_to 11000
  140.4604  134.1490  155.7190 LP  0  0  0  0  0  0  0  0  0  0  0  0  # atno 17395 bound_to 11000

$$$$
