AV-unprocessed.smi:1115|AV-procd|sdf|4806|dock5
  -GOLD-   22720 3353D 1   1.00000     0.00000
 Structure written by MMmdl.
 51 52  0  0  0  0  0  0  0  0  4 V2000
  152.8122  143.7182  159.4645 C   0  0  0  0  0  0  0  0  0  0  0  0
  151.6979  143.7749  158.5277 N   0  0  0  0  0  0  0  0  0  0  0  0
  150.9558  145.0170  158.3442 C   0  0  0  0  0  0  0  0  0  0  0  0
  151.2360  142.5879  157.9189 C   0  0  0  0  0  0  0  0  0  0  0  0
  151.5462  141.2949  158.4072 C   0  0  0  0  0  0  0  0  0  0  0  0
  151.0454  140.1558  157.7442 C   0  0  0  0  0  0  0  0  0  0  0  0
  150.2466  140.3085  156.5926 C   0  0  0  0  0  0  0  0  0  0  0  0
  149.7455  139.1314  155.9735 N   0  0  0  0  0  0  0  0  0  0  0  0
  148.8172  139.0067  155.0079 C   0  0  0  0  0  0  0  0  0  0  0  0
  148.3025  140.0099  154.5016 O   0  0  0  0  0  0  0  0  0  0  0  0
  148.5771  137.7052  154.6963 N   0  5  0  0  0  0  0  0  0  0  0  0
  147.4171  136.9398  155.1670 C   0  0  0  0  0  0  0  0  0  0  0  0
  147.6109  135.4038  154.9084 C   0  0  0  0  0  0  0  0  0  0  0  0
  149.0973  135.0053  155.1282 C   0  0  0  0  0  0  0  0  0  0  0  0
  146.7997  134.6154  155.9841 C   0  0  0  0  0  0  0  0  0  0  0  0
  147.1659  135.0786  153.4958 N   0  3  0  0  0  0  0  0  0  0  0  0
  147.2726  133.6466  153.0793 C   0  0  0  0  0  0  0  0  0  0  0  0
  147.0399  133.5061  151.5685 C   0  0  0  0  0  0  0  0  0  0  0  0
  145.7474  134.0006  151.2492 O   0  0  0  0  0  0  0  0  0  0  0  0
  145.6251  135.3812  151.5594 C   0  0  0  0  0  0  0  0  0  0  0  0
  145.8427  135.6134  153.0653 C   0  0  0  0  0  0  0  0  0  0  0  0
  149.9541  141.6200  156.1504 C   0  0  0  0  0  0  0  0  0  0  0  0
  150.4542  142.6837  156.8157 N   0  3  0  0  0  0  0  0  0  0  0  0
  152.5937  143.0280  160.2796 H   0  0  0  0  0  0  0  0  0  0  0  0
  153.0133  144.6964  159.9015 H   0  0  0  0  0  0  0  0  0  0  0  0
  153.7198  143.3863  158.9598 H   0  0  0  0  0  0  0  0  0  0  0  0
  149.9488  144.9245  158.7519 H   0  0  0  0  0  0  0  0  0  0  0  0
  150.8811  145.2666  157.2855 H   0  0  0  0  0  0  0  0  0  0  0  0
  151.4467  145.8502  158.8474 H   0  0  0  0  0  0  0  0  0  0  0  0
  152.1619  141.1550  159.2829 H   0  0  0  0  0  0  0  0  0  0  0  0
  151.2800  139.1698  158.1181 H   0  0  0  0  0  0  0  0  0  0  0  0
  150.1854  138.2694  156.2601 H   0  0  0  0  0  0  0  0  0  0  0  0
  147.2556  137.0981  156.2339 H   0  0  0  0  0  0  0  0  0  0  0  0
  146.4956  137.2712  154.6869 H   0  0  0  0  0  0  0  0  0  0  0  0
  149.4102  135.1460  156.1651 H   0  0  0  0  0  0  0  0  0  0  0  0
  149.7987  135.5708  154.5116 H   0  0  0  0  0  0  0  0  0  0  0  0
  149.2520  133.9502  154.8998 H   0  0  0  0  0  0  0  0  0  0  0  0
  147.0818  134.8874  157.0039 H   0  0  0  0  0  0  0  0  0  0  0  0
  146.9811  133.5423  155.9138 H   0  0  0  0  0  0  0  0  0  0  0  0
  145.7212  134.7654  155.9016 H   0  0  0  0  0  0  0  0  0  0  0  0
  148.2519  133.2327  153.3188 H   0  0  0  0  0  0  0  0  0  0  0  0
  146.5331  133.0449  153.6093 H   0  0  0  0  0  0  0  0  0  0  0  0
  147.8054  134.0391  151.0019 H   0  0  0  0  0  0  0  0  0  0  0  0
  147.0971  132.4575  151.2758 H   0  0  0  0  0  0  0  0  0  0  0  0
  146.3404  135.9596  150.9725 H   0  0  0  0  0  0  0  0  0  0  0  0
  144.6308  135.7202  151.2684 H   0  0  0  0  0  0  0  0  0  0  0  0
  145.0482  135.1389  153.6429 H   0  0  0  0  0  0  0  0  0  0  0  0
  145.7699  136.6873  153.2280 H   0  0  0  0  0  0  0  0  0  0  0  0
  149.3318  141.8655  155.3032 H   0  0  0  0  0  0  0  0  0  0  0  0
  150.2250  143.6146  156.4676 H   0  0  0  0  0  0  0  0  0  0  0  0
  147.8385  135.5767  152.9283 H   0  0  0  0  0  0  0  0  0  0  0  0
  1  2  1  0  0  0  0
  1 24  1  0  0  0  0
  1 25  1  0  0  0  0
  1 26  1  0  0  0  0
  2  3  1  0  0  0  0
  2  4  1  0  0  0  0
  3 27  1  0  0  0  0
  3 28  1  0  0  0  0
  3 29  1  0  0  0  0
  4 23  1  0  0  0  0
  4  5  2  0  0  0  0
  5  6  1  0  0  0  0
  5 30  1  0  0  0  0
  6  7  2  0  0  0  0
  6 31  1  0  0  0  0
  7  8  1  0  0  0  0
  7 22  1  0  0  0  0
  8  9  1  0  0  0  0
  8 32  1  0  0  0  0
  9 10  2  0  0  0  0
  9 11  1  0  0  0  0
 11 12  1  0  0  0  0
 12 13  1  0  0  0  0
 12 33  1  0  0  0  0
 12 34  1  0  0  0  0
 13 14  1  0  0  0  0
 13 15  1  0  0  0  0
 13 16  1  0  0  0  0
 14 35  1  0  0  0  0
 14 36  1  0  0  0  0
 14 37  1  0  0  0  0
 15 38  1  0  0  0  0
 15 39  1  0  0  0  0
 15 40  1  0  0  0  0
 16 21  1  0  0  0  0
 16 17  1  0  0  0  0
 16 51  1  0  0  0  0
 17 18  1  0  0  0  0
 17 41  1  0  0  0  0
 17 42  1  0  0  0  0
 18 19  1  0  0  0  0
 18 43  1  0  0  0  0
 18 44  1  0  0  0  0
 19 20  1  0  0  0  0
 20 21  1  0  0  0  0
 20 45  1  0  0  0  0
 20 46  1  0  0  0  0
 21 47  1  0  0  0  0
 21 48  1  0  0  0  0
 22 23  2  0  0  0  0
 22 49  1  0  0  0  0
 23 50  1  0  0  0  0
M  CHG  1  11  -1
M  CHG  1  16   1
M  CHG  1  23   1
M  END
> <s_m_source_file>
AV-unprocessed.smi

> <i_m_source_file_index>
1115

> <i_lp_mmshare_version>
43012

> <i_f3d_flags>
0

> <s_epik_input>
W0NIM11OKFtDSDNdKWMxW2NIXVtjSF1jKFtjSF1uMSlbTkhdQyg9TylbTkhdW0NIMl1DKFtDSDNdKShbQ0gzXSlOMltDSDJdW0NIMl1PW0NIMl1bQ0gyXTI=

> <s_epik_cmdline>
J2VwaWtfcHl0aG9uJywgJy1waCcsICc3LjAnLCAnLXRuJywgJzgnLCAnLW1hJywgJzIwMCcsICctbWV0YWxfYmluZGluZycsICctaW1hZScsICc8aW5maWxlLm1hZT4nLCAnLW9tYWUnLCAnPG91dGZpbGUubWFlPic=

> <r_lp_tautomer_probability>
0.999994

> <r_epik_Ionization_Penalty>
7.4335

> <r_epik_Ionization_Penalty_Charging>
7.4335

> <r_epik_Ionization_Penalty_Neutral>
3.43851e-06

> <r_epik_State_Penalty>
7.6346

> <r_epik_Charging_Adjusted_Penalty>
15.0681

> <i_epik_Tot_Q>
1

> <i_epik_Tot_abs_Q>
3

> <r_epik_Metal_State_Penalty>
3.83601

> <b_epik_Metal_Only>
1

> <s_lp_Force_Field>
OPLS_2005

> <r_lp_Energy>
31.3993

> <b_lp_Chiralities_Consistent>
1

> <s_lp_Variant>
AV-unprocessed.smi:1115-5

> <Gold.Version>
5.8.1

> <Gold.Id.Protein>
6NUR|6NUR_protein|mol2

> <Gold.PLP.Fitness>
42.8186

> <Gold.PLP.PLP>
-33.6763

> <Gold.PLP.part.hbond>
-2.0000

> <Gold.PLP.part.metal>
0.0000

> <Gold.PLP.part.buried>
-4.6845

> <Gold.PLP.part.nonpolar>
-27.2357

> <Gold.PLP.part.repulsive>
0.4757

> <Gold.PLP.ligand.clash>
0.0000

> <Gold.PLP.ligand.torsion>
1.5459

> <Gold.PLP.Chemscore.Hbond>
4.0000

> <Gold.PLP.Chemscore.CHOScore>
0.0000

> <Gold.PLP.Chemscore.Metal>
0.0000

> <Gold.Chemscore.Hbonds>
donor molecule, donor type, donor heavy atom, donor atom, acceptor molecule, acceptor atom, score
      L1  H    16    51       P1  7948  2.00
      L1  H    23    50       P1  8028  1.89

> <Gold.PLP.Chemscore.Internal.Correction>
0.2342

> <Gold.Rescore>
     Score         DG    S(hbond)    S(metal)    S(lipo)     H(rot)  DE(clash)    DE(int)     intcor
     14.75     -17.59       1.99        0.00      78.74       1.46       0.15       2.68       ----

> <Gold.Chemscore.Fitness>
14.7546

> <Gold.Chemscore.DG>
-17.5870

> <Gold.Chemscore.ZeroCoef>
-5.4800

> <Gold.Chemscore.Hbond>
1.9893

> <Gold.Chemscore.Metal>
0.0000

> <Gold.Chemscore.Lipo>
78.7412

> <Gold.Chemscore.Internal_Hbond>
0.0000

> <Gold.Chemscore.DEClash>
0.1537

> <Gold.Chemscore.DEInternal>
2.6786

> <Gold.Chemscore.Rot>
1.4648

> <Gold.Chemscore.Internal.Correction>
   9.000000E+99

> <Gold.Chemscore.Hbonds>
donor molecule, donor type, donor heavy atom, donor atom, acceptor molecule, acceptor atom, score
      L1  H    16    51       P1  7948  1.00
      L1  H    23    50       P1  8028  0.91

> <Gold.Chemscore.Hbond.Weighted>
-6.6442

> <Gold.Chemscore.Metal.Weighted>
-0.0000

> <Gold.Chemscore.Lipo.Weighted>
-9.2127

> <Gold.Chemscore.Internal_Hbond.Weighted>
0.0000

> <Gold.Chemscore.DEClash.Weighted>
0.1537

> <Gold.Chemscore.DEInternal.Weighted>
2.6786

> <Gold.Chemscore.Rot.Weighted>
3.7499

> <Gold.Chemscore.Internal.Correction.Weighted>
   9.000000E+99

> <Gold.Protein.RotatedTorsions>
[ 6907 6896 6895 6894 ] final  -55.41 input  -60.11 | X-H torsion
[ 7974 7965 7964 7962 ] final -114.83 input  175.53 | X-H torsion
[ 8008 7997 7996 7995 ] final  -24.49 input   59.86 | X-H torsion
[ 10167 10162 10161 10158 ] final  -95.30 input  -65.29 | X-H torsion
[ 10718 10713 10712 10709 ] final -134.56 input   66.30 | X-H torsion
[ 10763 10752 10751 10750 ] final  146.99 input  -60.55 | X-H torsion
[ 11005 11000 10999 10996 ] final  119.90 input  -57.11 | X-H torsion

> <Gold.Protein.ActiveResidues>
 VAL166  LYS551  ARG553  GLY616  TRP617  ASP618  TYR619  PRO620  LYS621  CYS622 
 ASP623  PHE694  ASN695  SER759  ASP760  ASP761  ALA762  ILE779  LEU786  VAL792 
 PHE793  MET794  SER795  GLU796  ALA797  LYS798  CYS799  TRP800  GLU811  SER814 

> <Gold.Protein.RotatedAtoms>
  150.8254  134.7482  159.6807 H   0  0  0  0  0  0  0  0  0  0  0  0  # atno 6907 bound_to 6896
  152.4365  134.5673  159.9921 H   0  0  0  0  0  0  0  0  0  0  0  0  # atno 6908 bound_to 6896
  151.5846  133.3336  159.3051 H   0  0  0  0  0  0  0  0  0  0  0  0  # atno 6909 bound_to 6896
  145.1155  140.8637  143.3845 H   0  0  0  0  0  0  0  0  0  0  0  0  # atno 7974 bound_to 7965
  154.4526  140.1952  156.0473 H   0  0  0  0  0  0  0  0  0  0  0  0  # atno 8008 bound_to 7997
  156.0680  140.3288  155.7514 H   0  0  0  0  0  0  0  0  0  0  0  0  # atno 8009 bound_to 7997
  155.5308  140.0578  157.2880 H   0  0  0  0  0  0  0  0  0  0  0  0  # atno 8010 bound_to 7997
  140.3056  143.3136  152.0202 H   0  0  0  0  0  0  0  0  0  0  0  0  # atno 10167 bound_to 10162
  156.2567  130.7185  151.1105 H   0  0  0  0  0  0  0  0  0  0  0  0  # atno 10718 bound_to 10713
  154.0310  135.2897  155.3368 H   0  0  0  0  0  0  0  0  0  0  0  0  # atno 10763 bound_to 10752
  154.6988  135.5197  153.8500 H   0  0  0  0  0  0  0  0  0  0  0  0  # atno 10764 bound_to 10752
  153.0640  135.6624  154.0523 H   0  0  0  0  0  0  0  0  0  0  0  0  # atno 10765 bound_to 10752
  139.9164  134.9631  156.7725 H   0  0  0  0  0  0  0  0  0  0  0  0  # atno 11005 bound_to 11000
  145.0799  139.2968  143.5789 LP  0  0  0  0  0  0  0  0  0  0  0  0  # atno 17320 bound_to 7965
  146.3524  140.0302  142.8651 LP  0  0  0  0  0  0  0  0  0  0  0  0  # atno 17321 bound_to 7965
  139.4905  144.6423  151.6851 LP  0  0  0  0  0  0  0  0  0  0  0  0  # atno 17342 bound_to 10162
  140.5613  144.0264  150.6171 LP  0  0  0  0  0  0  0  0  0  0  0  0  # atno 17343 bound_to 10162
  157.7235  131.0666  150.6033 LP  0  0  0  0  0  0  0  0  0  0  0  0  # atno 17370 bound_to 10713
  156.6117  130.4382  149.5856 LP  0  0  0  0  0  0  0  0  0  0  0  0  # atno 17371 bound_to 10713
  140.6609  133.9646  155.7804 LP  0  0  0  0  0  0  0  0  0  0  0  0  # atno 17394 bound_to 11000
  141.0644  134.0299  157.3614 LP  0  0  0  0  0  0  0  0  0  0  0  0  # atno 17395 bound_to 11000

$$$$
