#       Name:                AV-unprocessed.smi:3243
#       Creating user name   scv26
#       Creation time:       Fri Mar 27 18:27:00 2020


#       File generated by GOLD software.
#

@<TRIPOS>MOLECULE
AV-unprocessed.smi:3243
    40    41     1
SMALL
NO_CHARGES


@<TRIPOS>ATOM
      1 ****        -4.5740   2.8227  -2.0818 C.3            1 S1                 0.0000
      2 ****        -4.6977   1.9267  -0.8411 C.3            1 S1                 0.0000
      3 ****        -4.4668   2.6841   0.4744 C.3            1 S1                 0.0000
      4 ****        -3.8439   0.7020  -0.9438 C.2            1 S1                 0.0000
      5 ****        -2.5086   0.7299  -0.9997 N.2            1 S1                 0.0000
      6 ****        -1.9442  -0.5457  -1.0957 C.2            1 S1                 0.0000
      7 ****        -0.4553  -0.7016  -1.1646 C.3            1 S1                 0.0000
      8 ****         0.2063  -0.5790   0.2149 C.3            1 S1                 0.0000
      9 ****         1.6500  -0.7409   0.1086 N.am           1 S1                 0.0000
     10 ****         2.4965  -0.7061   1.1474 C.2            1 S1                 0.0000
     11 ****         2.1243  -0.5343   2.3091 O.2            1 S1                 0.0000
     12 ****         3.9293  -0.8939   0.7677 C.3            1 S1                 0.0000
     13 ****         4.9699  -0.1324   1.5634 C.3            1 S1                 0.0000
     14 ****         4.8313  -1.6243   1.7452 C.3            1 S1                 0.0000
     15 ****         5.8990  -2.5706   1.2402 C.3            1 S1                 0.0000
     16 ****        -2.8787  -1.5508  -1.1100 C.2            1 S1                 0.0000
     17 ****        -4.5026  -0.9294  -1.0048 S.3            1 S1                 0.0000
     18 ****        -4.8257   2.2731  -2.9892 H              1 S1                 0.0000
     19 ****        -3.5593   3.2056  -2.1949 H              1 S1                 0.0000
     20 ****        -5.2463   3.6785  -2.0170 H              1 S1                 0.0000
     21 ****        -5.7310   1.5782  -0.8165 H              1 S1                 0.0000
     22 ****        -4.6425   2.0380   1.3350 H              1 S1                 0.0000
     23 ****        -5.1400   3.5374   0.5597 H              1 S1                 0.0000
     24 ****        -3.4450   3.0590   0.5419 H              1 S1                 0.0000
     25 ****        -0.2046  -1.6687  -1.6026 H              1 S1                 0.0000
     26 ****        -0.0363   0.0484  -1.8369 H              1 S1                 0.0000
     27 ****        -0.0160   0.3951   0.6537 H              1 S1                 0.0000
     28 ****        -0.1947  -1.3368   0.8901 H              1 S1                 0.0000
     29 ****         2.0310  -0.8851  -0.8153 H              1 S1                 0.0000
     30 ****         4.1347  -1.0348  -0.2925 H              1 S1                 0.0000
     31 ****         5.8305   0.2430   1.0137 H              1 S1                 0.0000
     32 ****         4.6373   0.5031   2.3823 H              1 S1                 0.0000
     33 ****         4.3857  -1.9457   2.6854 H              1 S1                 0.0000
     34 ****         6.3213  -2.2135   0.3004 H              1 S1                 0.0000
     35 ****         5.4741  -3.5609   1.0763 H              1 S1                 0.0000
     36 ****         6.7020  -2.6533   1.9728 H              1 S1                 0.0000
     37 ****        -2.7107  -2.6157  -1.1743 H              1 S1                 0.0000
     38 ****        -1.9710   1.5727  -0.9755 LP             1 S1                 0.0000
     39 ****         1.1522  -0.4132   2.5099 LP             1 S1                 0.0000
     40 ****         2.7943  -0.5160   3.0512 LP             1 S1                 0.0000
@<TRIPOS>BOND
    1    1    2 1     
    2    1   18 1     
    3    1   19 1     
    4    1   20 1     
    5    2    3 1     
    6    2    4 1     
    7    2   21 1     
    8    3   22 1     
    9    3   23 1     
   10    3   24 1     
   11    4   17 1     
   12    4    5 2     
   13    5    6 1     
   14    6    7 1     
   15    6   16 2     
   16    7    8 1     
   17    7   25 1     
   18    7   26 1     
   19    8    9 1     
   20    8   27 1     
   21    8   28 1     
   22    9   10 am    
   23    9   29 1     
   24   10   11 2     
   25   10   12 1     
   26   12   14 1     
   27   12   13 1     
   28   12   30 1     
   29   13   14 1     
   30   13   31 1     
   31   13   32 1     
   32   14   15 1     
   33   14   33 1     
   34   15   34 1     
   35   15   35 1     
   36   15   36 1     
   37   16   17 1     
   38   16   37 1     
   39    5   38 1     
   40   11   39 1     
   41   11   40 1     
@<TRIPOS>SUBSTRUCTURE
      1 S1             1
@<TRIPOS>SET
LONE_PAIRS      STATIC     ATOMS    <user>   **** ""
3 38 39 40
DONOR_HYDROGENS      STATIC     ATOMS    <user>   **** ""
1 29
ATOM$BLUE        STATIC     ATOMS    COLORGROUP SYSTEM
3 38 39 40
ATOM$RED        STATIC     ATOMS    COLORGROUP SYSTEM
1 29
