#       Name:                AV-unprocessed.smi:794
#       Creating user name   scv26
#       Creation time:       Fri Mar 27 01:19:46 2020


#       File generated by GOLD software.
#

@<TRIPOS>MOLECULE
AV-unprocessed.smi:794
    46    48     1
SMALL
NO_CHARGES


@<TRIPOS>ATOM
      1 ****        -5.8429  -0.6922  -0.4128 C.3            1 S1                 0.0000
      2 ****        -4.8223   0.3687  -0.6899 C.2            1 S1                 0.0000
      3 ****        -3.4643   0.0750  -0.5351 N.2            1 S1                 0.0000
      4 ****        -2.6844   1.1223  -0.8218 C.2            1 S1                 0.0000
      5 ****        -1.2667   1.1075  -0.7574 N.am           1 S1                 0.0000
      6 ****        -0.4599   0.0829  -0.4313 C.2            1 S1                 0.0000
      7 ****        -0.8345  -1.0428  -0.1016 O.2            1 S1                 0.0000
      8 ****         0.8293   0.4403  -0.5092 N.am           1 S1                 0.0000
      9 ****         1.9618  -0.4367  -0.2246 C.3            1 S1                 0.0000
     10 ****         3.2614   0.1459  -0.8222 C.3            1 S1                 0.0000
     11 ****         4.3251  -0.9656  -0.8665 C.3            1 S1                 0.0000
     12 ****         4.6969  -1.1286   0.6195 C.3            1 S1                 0.0000
     13 ****         3.7839  -0.0997   1.3212 C.3            1 S1                 0.0000
     14 ****         3.7892   1.0328   0.3024 C.3            1 S1                 0.0000
     15 ****         2.2931  -0.5206   1.2873 C.3            1 S1                 0.0000
     16 ****         1.9538  -1.8789   1.9314 C.3            1 S1                 0.0000
     17 ****         2.2949  -1.8722   3.3014 O.3            1 S1                 0.0000
     18 ****        -3.5766   2.5542  -1.3042 S.3            1 S1                 0.0000
     19 ****        -5.0623   1.6587  -1.1044 C.2            1 S1                 0.0000
     20 ****        -6.3829   2.3003  -1.3725 C.3            1 S1                 0.0000
     21 ****        -6.6752  -0.2965   0.1694 H              1 S1                 0.0000
     22 ****        -5.4176  -1.5243   0.1493 H              1 S1                 0.0000
     23 ****        -6.2501  -1.0943  -1.3406 H              1 S1                 0.0000
     24 ****        -0.8133   1.9752  -1.0025 H              1 S1                 0.0000
     25 ****         1.0468   1.3866  -0.7856 H              1 S1                 0.0000
     26 ****         1.7643  -1.4224  -0.6510 H              1 S1                 0.0000
     27 ****         3.1246   0.6471  -1.7812 H              1 S1                 0.0000
     28 ****         3.9475  -1.8892  -1.3066 H              1 S1                 0.0000
     29 ****         5.1933  -0.6506  -1.4466 H              1 S1                 0.0000
     30 ****         4.5622  -2.1470   0.9810 H              1 S1                 0.0000
     31 ****         5.7454  -0.8704   0.7735 H              1 S1                 0.0000
     32 ****         4.1323   0.1850   2.3145 H              1 S1                 0.0000
     33 ****         4.7846   1.4351   0.1056 H              1 S1                 0.0000
     34 ****         3.1187   1.8540   0.5610 H              1 S1                 0.0000
     35 ****         1.7256   0.2449   1.8210 H              1 S1                 0.0000
     36 ****         0.8841  -2.0720   1.8481 H              1 S1                 0.0000
     37 ****         2.4573  -2.7059   1.4324 H              1 S1                 0.0000
     38 ****         2.0591  -2.7083   3.6736 H              1 S1                 0.0000
     39 ****        -7.0280   1.6357  -1.9474 H              1 S1                 0.0000
     40 ****        -6.2648   3.2238  -1.9400 H              1 S1                 0.0000
     41 ****        -6.8912   2.5411  -0.4387 H              1 S1                 0.0000
     42 ****        -3.1163  -0.8160  -0.2434 LP             1 S1                 0.0000
     43 ****        -1.8113  -1.2526  -0.0607 LP             1 S1                 0.0000
     44 ****        -0.1618  -1.7471   0.1253 LP             1 S1                 0.0000
     45 ****         1.7968  -1.1422   3.7694 LP             1 S1                 0.0000
     46 ****         3.2785  -1.7230   3.4033 LP             1 S1                 0.0000
@<TRIPOS>BOND
    1    1    2 1     
    2    1   21 1     
    3    1   22 1     
    4    1   23 1     
    5    2   19 2     
    6    2    3 1     
    7    3    4 2     
    8    4    5 1     
    9    4   18 1     
   10    5    6 am    
   11    5   24 1     
   12    6    7 2     
   13    6    8 am    
   14    8    9 1     
   15    8   25 1     
   16    9   15 1     
   17    9   10 1     
   18    9   26 1     
   19   10   14 1     
   20   10   11 1     
   21   10   27 1     
   22   11   12 1     
   23   11   28 1     
   24   11   29 1     
   25   12   13 1     
   26   12   30 1     
   27   12   31 1     
   28   13   14 1     
   29   13   15 1     
   30   13   32 1     
   31   14   33 1     
   32   14   34 1     
   33   15   16 1     
   34   15   35 1     
   35   16   17 1     
   36   16   36 1     
   37   16   37 1     
   38   17   38 1     
   39   18   19 1     
   40   19   20 1     
   41   20   39 1     
   42   20   40 1     
   43   20   41 1     
   44    3   42 1     
   45    7   43 1     
   46    7   44 1     
   47   17   45 1     
   48   17   46 1     
@<TRIPOS>SUBSTRUCTURE
      1 S1             1
@<TRIPOS>SET
LONE_PAIRS      STATIC     ATOMS    <user>   **** ""
5 42 43 44 45 46
DONOR_HYDROGENS      STATIC     ATOMS    <user>   **** ""
3 24 25 38
ATOM$BLUE        STATIC     ATOMS    COLORGROUP SYSTEM
5 42 43 44 45 46
ATOM$RED        STATIC     ATOMS    COLORGROUP SYSTEM
3 24 25 38
