AV-unprocessed.smi:247|AV-procd|sdf|1893|dock3
  -GOLD-   2262020553D 1   1.00000     0.00000
 Structure written by MMmdl.
 61 65  0  0  0  0  0  0  0  0  1 V2000
  149.1255  141.0236  153.6179 O   0  0  0  0  0  0  0  0  0  0  0  0
  149.0132  139.6781  154.0390 C   0  0  0  0  0  0  0  0  0  0  0  0
  150.0585  139.2774  155.1173 C   0  0  0  0  0  0  0  0  0  0  0  0
  149.4262  138.1899  156.0430 C   0  0  0  0  0  0  0  0  0  0  0  0
  149.3561  136.8538  155.4680 N   0  0  0  0  0  0  0  0  0  0  0  0
  150.4160  136.0240  155.1771 C   0  0  0  0  0  0  0  0  0  0  0  0
  150.0957  134.8684  154.6634 N   0  0  0  0  0  0  0  0  0  0  0  0
  148.7075  134.8918  154.6183 C   0  0  0  0  0  0  0  0  0  0  0  0
  147.7178  133.9754  154.1670 C   0  0  0  0  0  0  0  0  0  0  0  0
  148.0444  132.7699  153.6391 N   0  0  0  0  0  0  0  0  0  0  0  0
  149.0755  132.0674  154.3888 C   0  0  0  0  0  0  0  0  0  0  0  0
  149.0077  130.6204  153.9204 C   0  0  0  0  0  0  0  0  0  0  0  0
  147.5256  130.4296  153.6099 C   0  0  0  0  0  0  0  0  0  0  0  0
  147.0128  131.8238  153.1935 C   0  0  2  0  0  0  0  0  0  0  0  0
  146.6699  131.9160  151.6709 C   0  0  2  0  0  0  0  0  0  0  0  0
  146.7406  133.3461  151.0879 C   0  0  0  0  0  0  0  0  0  0  0  0
  145.5800  134.0940  151.4374 O   0  0  0  0  0  0  0  0  0  0  0  0
  144.3911  133.5665  150.8592 C   0  0  0  0  0  0  0  0  0  0  0  0
  144.1216  132.1481  151.3848 C   0  0  0  0  0  0  0  0  0  0  0  0
  145.3543  131.2499  151.1935 C   0  0  2  0  0  0  0  0  0  0  0  0
  145.1484  129.9803  151.7787 O   0  0  0  0  0  0  0  0  0  0  0  0
  146.4174  134.3544  154.2775 N   0  0  0  0  0  0  0  0  0  0  0  0
  146.1033  135.5486  154.7871 C   0  0  0  0  0  0  0  0  0  0  0  0
  146.9187  136.5033  155.2386 N   0  0  0  0  0  0  0  0  0  0  0  0
  148.2258  136.1295  155.1290 C   0  0  0  0  0  0  0  0  0  0  0  0
  151.3544  138.7742  154.4298 C   0  0  0  0  0  0  0  0  0  0  0  0
  152.5085  138.5792  155.4288 C   0  0  0  0  0  0  0  0  0  0  0  0
  152.7630  139.7988  156.1154 O   0  0  0  0  0  0  0  0  0  0  0  0
  151.6558  140.2457  156.8889 C   0  0  0  0  0  0  0  0  0  0  0  0
  150.4412  140.5097  155.9777 C   0  0  0  0  0  0  0  0  0  0  0  0
  148.5158  141.5458  154.1166 H   0  0  0  0  0  0  0  0  0  0  0  0
  148.0014  139.5276  154.4172 H   0  0  0  0  0  0  0  0  0  0  0  0
  149.1152  139.0556  153.1502 H   0  0  0  0  0  0  0  0  0  0  0  0
  149.9664  138.1042  156.9843 H   0  0  0  0  0  0  0  0  0  0  0  0
  148.4139  138.4867  156.3202 H   0  0  0  0  0  0  0  0  0  0  0  0
  151.4438  136.3079  155.3498 H   0  0  0  0  0  0  0  0  0  0  0  0
  150.0637  132.4917  154.2110 H   0  0  0  0  0  0  0  0  0  0  0  0
  148.8642  132.1308  155.4576 H   0  0  0  0  0  0  0  0  0  0  0  0
  149.6042  130.4951  153.0167 H   0  0  0  0  0  0  0  0  0  0  0  0
  149.3807  129.9182  154.6663 H   0  0  0  0  0  0  0  0  0  0  0  0
  147.3539  129.6552  152.8617 H   0  0  0  0  0  0  0  0  0  0  0  0
  147.0103  130.1166  154.5192 H   0  0  0  0  0  0  0  0  0  0  0  0
  146.0877  131.9711  153.7492 H   0  0  0  0  0  0  0  0  0  0  0  0
  147.4618  131.3482  151.1803 H   0  0  0  0  0  0  0  0  0  0  0  0
  147.6264  133.8728  151.4374 H   0  0  0  0  0  0  0  0  0  0  0  0
  146.8279  133.3065  150.0010 H   0  0  0  0  0  0  0  0  0  0  0  0
  143.5567  134.2216  151.1107 H   0  0  0  0  0  0  0  0  0  0  0  0
  144.4757  133.5660  149.7714 H   0  0  0  0  0  0  0  0  0  0  0  0
  143.8291  132.1972  152.4291 H   0  0  0  0  0  0  0  0  0  0  0  0
  143.2656  131.7199  150.8624 H   0  0  0  0  0  0  0  0  0  0  0  0
  145.4524  131.0752  150.1210 H   0  0  0  0  0  0  0  0  0  0  0  0
  145.7776  129.8634  152.4739 H   0  0  0  0  0  0  0  0  0  0  0  0
  145.0479  135.7719  154.8359 H   0  0  0  0  0  0  0  0  0  0  0  0
  151.1753  137.8557  153.8720 H   0  0  0  0  0  0  0  0  0  0  0  0
  151.6855  139.5021  153.6885 H   0  0  0  0  0  0  0  0  0  0  0  0
  152.2962  137.7816  156.1410 H   0  0  0  0  0  0  0  0  0  0  0  0
  153.4132  138.2867  154.8957 H   0  0  0  0  0  0  0  0  0  0  0  0
  151.4269  139.5220  157.6711 H   0  0  0  0  0  0  0  0  0  0  0  0
  151.9404  141.1667  157.3974 H   0  0  0  0  0  0  0  0  0  0  0  0
  150.6970  141.3533  155.3359 H   0  0  0  0  0  0  0  0  0  0  0  0
  149.5898  140.8364  156.5758 H   0  0  0  0  0  0  0  0  0  0  0  0
  1  2  1  0  0  0  0
  1 31  1  0  0  0  0
  2  3  1  0  0  0  0
  2 32  1  0  0  0  0
  2 33  1  0  0  0  0
  3 30  1  0  0  0  0
  3  4  1  0  0  0  0
  3 26  1  0  0  0  0
  4  5  1  0  0  0  0
  4 34  1  0  0  0  0
  4 35  1  0  0  0  0
  5 25  1  0  0  0  0
  5  6  1  0  0  0  0
  6  7  2  0  0  0  0
  6 36  1  0  0  0  0
  7  8  1  0  0  0  0
  8 25  2  0  0  0  0
  8  9  1  0  0  0  0
  9 10  1  0  0  0  0
  9 22  2  0  0  0  0
 10 14  1  0  0  0  0
 10 11  1  0  0  0  0
 11 12  1  0  0  0  0
 11 37  1  0  0  0  0
 11 38  1  0  0  0  0
 12 13  1  0  0  0  0
 12 39  1  0  0  0  0
 12 40  1  0  0  0  0
 13 14  1  0  0  0  0
 13 41  1  0  0  0  0
 13 42  1  0  0  0  0
 14 15  1  0  0  0  0
 14 43  1  0  0  0  0
 15 20  1  0  0  0  0
 15 16  1  0  0  0  0
 15 44  1  0  0  0  0
 16 17  1  0  0  0  0
 16 45  1  0  0  0  0
 16 46  1  0  0  0  0
 17 18  1  0  0  0  0
 18 19  1  0  0  0  0
 18 47  1  0  0  0  0
 18 48  1  0  0  0  0
 19 20  1  0  0  0  0
 19 49  1  0  0  0  0
 19 50  1  0  0  0  0
 20 21  1  0  0  0  0
 20 51  1  0  0  0  0
 21 52  1  0  0  0  0
 22 23  1  0  0  0  0
 23 24  2  0  0  0  0
 23 53  1  0  0  0  0
 24 25  1  0  0  0  0
 26 27  1  0  0  0  0
 26 54  1  0  0  0  0
 26 55  1  0  0  0  0
 27 28  1  0  0  0  0
 27 56  1  0  0  0  0
 27 57  1  0  0  0  0
 28 29  1  0  0  0  0
 29 30  1  0  0  0  0
 29 58  1  0  0  0  0
 29 59  1  0  0  0  0
 30 60  1  0  0  0  0
 30 61  1  0  0  0  0
M  END
> <s_m_source_file>
AV-unprocessed.smi

> <i_m_source_file_index>
247

> <i_lp_mmshare_version>
43012

> <i_f3d_flags>
0

> <s_epik_input>
W0NIMl0xW0NIMl1PW0NIMl1bQ0gyXUMxKFtDSDJdW09IXSlbQ0gyXW4oW2NIXW4yKWMoYzIzKW5bY0hdbmMzTjRbQ0gyXVtDSDJdW0NIMl1bQ0BIXTRbQ0BASF01W0NIMl1PW0NIMl1bQ0gyXVtDQEhdNVtPSF0=

> <s_epik_cmdline>
J2VwaWtfcHl0aG9uJywgJy1waCcsICc3LjAnLCAnLXRuJywgJzgnLCAnLW1hJywgJzIwMCcsICctbWV0YWxfYmluZGluZycsICctaW1hZScsICc8aW5maWxlLm1hZT4nLCAnLW9tYWUnLCAnPG91dGZpbGUubWFlPic=

> <r_lp_tautomer_probability>
1

> <r_epik_Ionization_Penalty>
0.00362597

> <r_epik_Ionization_Penalty_Charging>
0

> <r_epik_Ionization_Penalty_Neutral>
0.00362597

> <r_epik_State_Penalty>
0.00241433

> <r_epik_Charging_Adjusted_Penalty>
0.00241433

> <i_epik_Tot_Q>
0

> <i_epik_Tot_abs_Q>
0

> <r_epik_Metal_State_Penalty>
-0

> <b_epik_Metal_Only>
0

> <s_lp_Force_Field>
OPLS_2005

> <r_lp_Energy>
64.0337

> <b_lp_Chiralities_Consistent>
1

> <s_lp_Variant>
AV-unprocessed.smi:247-6

> <Gold.Version>
5.8.1

> <Gold.Id.Protein>
6NUR|6NUR_protein|mol2

> <Gold.PLP.Fitness>
43.8763

> <Gold.PLP.PLP>
-40.5426

> <Gold.PLP.part.hbond>
-4.0000

> <Gold.PLP.part.metal>
0.0000

> <Gold.PLP.part.buried>
-1.7100

> <Gold.PLP.part.nonpolar>
-36.0469

> <Gold.PLP.part.repulsive>
0.5415

> <Gold.PLP.ligand.clash>
0.0000

> <Gold.PLP.ligand.torsion>
1.3965

> <Gold.PLP.Chemscore.Hbond>
1.9234

> <Gold.PLP.Chemscore.CHOScore>
0.0000

> <Gold.PLP.Chemscore.Metal>
0.0000

> <Gold.Chemscore.Hbonds>
donor molecule, donor type, donor heavy atom, donor atom, acceptor molecule, acceptor atom, score
      P1  H  7997  8008       L1    28  1.00
      P1  H  8011  8017       L1     1  1.00

> <Gold.PLP.Chemscore.Internal.Correction>
0.3565

> <Gold.Rescore>
     Score         DG    S(hbond)    S(metal)    S(lipo)     H(rot)  DE(clash)    DE(int)     intcor
     11.55     -14.51       1.58        0.00     102.72       3.23       0.20       2.76       ----

> <Gold.Chemscore.Fitness>
11.5454

> <Gold.Chemscore.DG>
-14.5078

> <Gold.Chemscore.ZeroCoef>
-5.4800

> <Gold.Chemscore.Hbond>
1.5787

> <Gold.Chemscore.Metal>
0.0000

> <Gold.Chemscore.Lipo>
102.7209

> <Gold.Chemscore.Internal_Hbond>
0.0000

> <Gold.Chemscore.DEClash>
0.1999

> <Gold.Chemscore.DEInternal>
2.7625

> <Gold.Chemscore.Rot>
3.2278

> <Gold.Chemscore.Internal.Correction>
   9.000000E+99

> <Gold.Chemscore.Hbonds>
donor molecule, donor type, donor heavy atom, donor atom, acceptor molecule, acceptor atom, score
      P1  H  7997  8008       L1    28  0.82
      P1  H  8011  8017       L1     1  0.23

> <Gold.Chemscore.Hbond.Weighted>
-5.2727

> <Gold.Chemscore.Metal.Weighted>
-0.0000

> <Gold.Chemscore.Lipo.Weighted>
-12.0184

> <Gold.Chemscore.Internal_Hbond.Weighted>
0.0000

> <Gold.Chemscore.DEClash.Weighted>
0.1999

> <Gold.Chemscore.DEInternal.Weighted>
2.7625

> <Gold.Chemscore.Rot.Weighted>
8.2633

> <Gold.Chemscore.Internal.Correction.Weighted>
   9.000000E+99

> <Gold.Protein.RotatedTorsions>
[ 6907 6896 6895 6894 ] final    0.79 input  -60.11 | X-H torsion
[ 7974 7965 7964 7962 ] final  -81.78 input  175.53 | X-H torsion
[ 8008 7997 7996 7995 ] final  -29.00 input   59.86 | X-H torsion
[ 10167 10162 10161 10158 ] final  126.63 input  -65.29 | X-H torsion
[ 10718 10713 10712 10709 ] final   65.22 input   66.30 | X-H torsion
[ 10763 10752 10751 10750 ] final   92.64 input  -60.55 | X-H torsion
[ 11005 11000 10999 10996 ] final  132.76 input  -57.11 | X-H torsion

> <Gold.Protein.ActiveResidues>
 VAL166  LYS551  ARG553  GLY616  TRP617  ASP618  TYR619  PRO620  LYS621  CYS622 
 ASP623  PHE694  ASN695  SER759  ASP760  ASP761  ALA762  ILE779  LEU786  VAL792 
 PHE793  MET794  SER795  GLU796  ALA797  LYS798  CYS799  TRP800  GLU811  SER814 

> <Gold.Protein.RotatedAtoms>
  151.5821  135.1058  160.0019 H   0  0  0  0  0  0  0  0  0  0  0  0  # atno 6907 bound_to 6896
  152.4349  133.7338  159.6613 H   0  0  0  0  0  0  0  0  0  0  0  0  # atno 6908 bound_to 6896
  150.8245  133.8125  159.3147 H   0  0  0  0  0  0  0  0  0  0  0  0  # atno 6909 bound_to 6896
  145.5420  140.9508  143.1546 H   0  0  0  0  0  0  0  0  0  0  0  0  # atno 7974 bound_to 7965
  154.4308  140.1830  156.1179 H   0  0  0  0  0  0  0  0  0  0  0  0  # atno 8008 bound_to 7997
  156.0166  140.3345  155.6970 H   0  0  0  0  0  0  0  0  0  0  0  0  # atno 8009 bound_to 7997
  155.6035  140.0643  157.2717 H   0  0  0  0  0  0  0  0  0  0  0  0  # atno 8010 bound_to 7997
  139.5621  144.6888  151.4014 H   0  0  0  0  0  0  0  0  0  0  0  0  # atno 10167 bound_to 10162
  157.6091  130.9202  149.9947 H   0  0  0  0  0  0  0  0  0  0  0  0  # atno 10718 bound_to 10713
  153.2214  135.4354  155.0493 H   0  0  0  0  0  0  0  0  0  0  0  0  # atno 10763 bound_to 10752
  154.8251  135.3357  154.6922 H   0  0  0  0  0  0  0  0  0  0  0  0  # atno 10764 bound_to 10752
  153.7354  135.7008  153.5035 H   0  0  0  0  0  0  0  0  0  0  0  0  # atno 10765 bound_to 10752
  139.9810  134.9548  156.9628 H   0  0  0  0  0  0  0  0  0  0  0  0  # atno 11005 bound_to 11000
  144.7572  139.7045  143.7249 LP  0  0  0  0  0  0  0  0  0  0  0  0  # atno 17320 bound_to 7965
  146.1974  139.5249  142.9765 LP  0  0  0  0  0  0  0  0  0  0  0  0  # atno 17321 bound_to 7965
  140.6901  143.7880  150.7243 LP  0  0  0  0  0  0  0  0  0  0  0  0  # atno 17342 bound_to 10162
  140.1360  143.4483  152.2224 LP  0  0  0  0  0  0  0  0  0  0  0  0  # atno 17343 bound_to 10162
  156.1187  130.3647  149.9924 LP  0  0  0  0  0  0  0  0  0  0  0  0  # atno 17370 bound_to 10713
  156.8008  130.9290  151.3646 LP  0  0  0  0  0  0  0  0  0  0  0  0  # atno 17371 bound_to 10713
  140.5097  134.1014  155.7268 LP  0  0  0  0  0  0  0  0  0  0  0  0  # atno 17394 bound_to 11000
  141.1481  133.9018  157.2165 LP  0  0  0  0  0  0  0  0  0  0  0  0  # atno 17395 bound_to 11000

$$$$
