AV-unprocessed.smi:334|AV-procd|sdf|2362|dock6
  -GOLD-   2262022273D 1   1.00000     0.00000
 Structure written by MMmdl.
 44 46  0  0  0  0  0  0  0  0  3 V2000
  152.5881  139.6566  159.2015 C   0  0  0  0  0  0  0  0  0  0  0  0
  151.4899  140.7015  158.9427 C   0  0  2  0  0  0  0  0  0  0  0  0
  150.6322  140.2032  157.8681 N   0  0  0  0  0  0  0  0  0  0  0  0
  149.3595  140.5641  157.6404 C   0  0  0  0  0  0  0  0  0  0  0  0
  148.7575  141.3947  158.3221 O   0  0  0  0  0  0  0  0  0  0  0  0
  148.6824  139.8925  156.4372 C   0  0  0  0  0  0  0  0  0  0  0  0
  149.5273  138.8816  155.7793 N   0  0  0  0  0  0  0  0  0  0  0  0
  149.1817  137.5304  155.9799 C   0  0  0  0  0  0  0  0  0  0  0  0
  149.8876  136.5219  155.4319 C   0  0  0  0  0  0  0  0  0  0  0  0
  149.5219  135.1401  155.6536 N   0  3  0  0  0  0  0  0  0  0  0  0
  148.5330  134.8954  156.3371 O   0  0  0  0  0  0  0  0  0  0  0  0
  150.2094  134.2544  155.1541 O   0  5  0  0  0  0  0  0  0  0  0  0
  151.0331  136.8681  154.6129 C   0  0  0  0  0  0  0  0  0  0  0  0
  151.3711  138.1583  154.4206 C   0  0  0  0  0  0  0  0  0  0  0  0
  150.6045  139.2541  155.0224 C   0  0  0  0  0  0  0  0  0  0  0  0
  150.9128  140.4345  154.8567 O   0  0  0  0  0  0  0  0  0  0  0  0
  152.0737  142.0884  158.5708 C   0  0  2  0  0  0  0  0  0  0  0  0
  152.8042  142.7843  159.7460 C   0  0  0  0  0  0  0  0  0  0  0  0
  152.1209  144.1608  159.8265 C   0  0  1  0  0  0  0  0  0  0  0  0
  152.5122  145.0037  158.5993 C   0  0  0  0  0  0  0  0  0  0  0  0
  151.7298  144.3234  157.4609 C   0  0  0  0  0  0  0  0  0  0  0  0
  151.0214  143.1605  158.1820 C   0  0  2  0  0  0  0  0  0  0  0  0
  150.6730  143.8016  159.5209 C   0  0  0  0  0  0  0  0  0  0  0  0
  153.2338  139.9462  160.0303 H   0  0  0  0  0  0  0  0  0  0  0  0
  153.2194  139.5176  158.3231 H   0  0  0  0  0  0  0  0  0  0  0  0
  152.1538  138.6888  159.4544 H   0  0  0  0  0  0  0  0  0  0  0  0
  150.9115  140.8015  159.8624 H   0  0  0  0  0  0  0  0  0  0  0  0
  151.0425  139.5209  157.2469 H   0  0  0  0  0  0  0  0  0  0  0  0
  147.7482  139.4444  156.7792 H   0  0  0  0  0  0  0  0  0  0  0  0
  148.3828  140.6590  155.7198 H   0  0  0  0  0  0  0  0  0  0  0  0
  148.3177  137.3779  156.6109 H   0  0  0  0  0  0  0  0  0  0  0  0
  151.6286  136.0961  154.1486 H   0  0  0  0  0  0  0  0  0  0  0  0
  152.2288  138.3938  153.8076 H   0  0  0  0  0  0  0  0  0  0  0  0
  152.7664  141.9484  157.7393 H   0  0  0  0  0  0  0  0  0  0  0  0
  152.6559  142.2485  160.6842 H   0  0  0  0  0  0  0  0  0  0  0  0
  153.8790  142.8624  159.5784 H   0  0  0  0  0  0  0  0  0  0  0  0
  152.2786  144.6717  160.7767 H   0  0  0  0  0  0  0  0  0  0  0  0
  152.1920  146.0394  158.7194 H   0  0  0  0  0  0  0  0  0  0  0  0
  153.5887  145.0032  158.4238 H   0  0  0  0  0  0  0  0  0  0  0  0
  151.0014  145.0136  157.0334 H   0  0  0  0  0  0  0  0  0  0  0  0
  152.3783  143.9830  156.6528 H   0  0  0  0  0  0  0  0  0  0  0  0
  150.1660  142.7829  157.6227 H   0  0  0  0  0  0  0  0  0  0  0  0
  150.2361  143.1049  160.2382 H   0  0  0  0  0  0  0  0  0  0  0  0
  150.0214  144.6724  159.4273 H   0  0  0  0  0  0  0  0  0  0  0  0
  1  2  1  0  0  0  0
  1 24  1  0  0  0  0
  1 25  1  0  0  0  0
  1 26  1  0  0  0  0
  2  3  1  0  0  0  0
  2 17  1  0  0  0  0
  2 27  1  0  0  0  0
  3  4  1  0  0  0  0
  3 28  1  0  0  0  0
  4  5  2  0  0  0  0
  4  6  1  0  0  0  0
  6  7  1  0  0  0  0
  6 29  1  0  0  0  0
  6 30  1  0  0  0  0
  7 15  1  0  0  0  0
  7  8  1  0  0  0  0
  8  9  2  0  0  0  0
  8 31  1  0  0  0  0
  9 10  1  0  0  0  0
  9 13  1  0  0  0  0
 10 11  2  0  0  0  0
 10 12  1  0  0  0  0
 13 14  2  0  0  0  0
 13 32  1  0  0  0  0
 14 15  1  0  0  0  0
 14 33  1  0  0  0  0
 15 16  2  0  0  0  0
 17 22  1  0  0  0  0
 17 18  1  0  0  0  0
 17 34  1  0  0  0  0
 18 19  1  0  0  0  0
 18 35  1  0  0  0  0
 18 36  1  0  0  0  0
 19 23  1  0  0  0  0
 19 20  1  0  0  0  0
 19 37  1  0  0  0  0
 20 21  1  0  0  0  0
 20 38  1  0  0  0  0
 20 39  1  0  0  0  0
 21 22  1  0  0  0  0
 21 40  1  0  0  0  0
 21 41  1  0  0  0  0
 22 23  1  0  0  0  0
 22 42  1  0  0  0  0
 23 43  1  0  0  0  0
 23 44  1  0  0  0  0
M  CHG  1  10   1
M  CHG  1  12  -1
M  END
> <s_m_source_file>
AV-unprocessed.smi

> <i_m_source_file_index>
334

> <i_lp_mmshare_version>
43012

> <i_f3d_flags>
0

> <s_epik_input>
W0NIMl0xW0NIMl1bQ0BIXShbQ0gyXTIpW0NAQEhdKFtDSDJdW0NAQEhdMTIpW0NASF0oW0NIM10pW05IXUMoPU8pW0NIMl1uM1tjSF1jKFtOK10oPU8pW08tXSlbY0hdW2NIXWMzPU8=

> <s_epik_cmdline>
J2VwaWtfcHl0aG9uJywgJy1waCcsICc3LjAnLCAnLXRuJywgJzgnLCAnLW1hJywgJzIwMCcsICctbWV0YWxfYmluZGluZycsICctaW1hZScsICc8aW5maWxlLm1hZT4nLCAnLW9tYWUnLCAnPG91dGZpbGUubWFlPic=

> <r_lp_tautomer_probability>
1

> <r_epik_Ionization_Penalty>
2.17081e-08

> <r_epik_Ionization_Penalty_Charging>
8.1195e-11

> <r_epik_Ionization_Penalty_Neutral>
2.16269e-08

> <r_epik_State_Penalty>
-0

> <r_epik_Charging_Adjusted_Penalty>
8.1195e-11

> <i_epik_Tot_Q>
0

> <i_epik_Tot_abs_Q>
2

> <r_epik_Metal_State_Penalty>
-0

> <b_epik_Metal_Only>
0

> <s_lp_Force_Field>
OPLS_2005

> <r_lp_Energy>
62.1866

> <b_lp_Chiralities_Consistent>
1

> <s_lp_Variant>
AV-unprocessed.smi:334-1

> <Gold.Version>
5.8.1

> <Gold.Id.Protein>
6NUR|6NUR_protein|mol2

> <Gold.PLP.Fitness>
42.2991

> <Gold.PLP.PLP>
-40.3186

> <Gold.PLP.part.hbond>
-1.2492

> <Gold.PLP.part.metal>
0.0000

> <Gold.PLP.part.buried>
-5.8780

> <Gold.PLP.part.nonpolar>
-33.5152

> <Gold.PLP.part.repulsive>
0.3217

> <Gold.PLP.ligand.clash>
0.0027

> <Gold.PLP.ligand.torsion>
0.5213

> <Gold.PLP.Chemscore.Hbond>
1.0000

> <Gold.PLP.Chemscore.CHOScore>
0.0000

> <Gold.PLP.Chemscore.Metal>
0.0000

> <Gold.Chemscore.Hbonds>
donor molecule, donor type, donor heavy atom, donor atom, acceptor molecule, acceptor atom, score
      P1  H  7989  7998       L1    16  1.00

> <Gold.PLP.Chemscore.Internal.Correction>
0.0259

> <Gold.Rescore>
     Score         DG    S(hbond)    S(metal)    S(lipo)     H(rot)  DE(clash)    DE(int)     intcor
     15.95     -17.90       0.98        0.00     116.36       1.75       0.02       1.93       ----

> <Gold.Chemscore.Fitness>
15.9502

> <Gold.Chemscore.DG>
-17.8963

> <Gold.Chemscore.ZeroCoef>
-5.4800

> <Gold.Chemscore.Hbond>
0.9806

> <Gold.Chemscore.Metal>
0.0000

> <Gold.Chemscore.Lipo>
116.3634

> <Gold.Chemscore.Internal_Hbond>
0.0000

> <Gold.Chemscore.DEClash>
0.0208

> <Gold.Chemscore.DEInternal>
1.9253

> <Gold.Chemscore.Rot>
1.7474

> <Gold.Chemscore.Internal.Correction>
   9.000000E+99

> <Gold.Chemscore.Hbonds>
donor molecule, donor type, donor heavy atom, donor atom, acceptor molecule, acceptor atom, score
      P1  H  7989  7998       L1    16  0.94

> <Gold.Chemscore.Hbond.Weighted>
-3.2751

> <Gold.Chemscore.Metal.Weighted>
-0.0000

> <Gold.Chemscore.Lipo.Weighted>
-13.6145

> <Gold.Chemscore.Internal_Hbond.Weighted>
0.0000

> <Gold.Chemscore.DEClash.Weighted>
0.0208

> <Gold.Chemscore.DEInternal.Weighted>
1.9253

> <Gold.Chemscore.Rot.Weighted>
4.4733

> <Gold.Chemscore.Internal.Correction.Weighted>
   9.000000E+99

> <Gold.Protein.RotatedTorsions>
[ 6907 6896 6895 6894 ] final  -33.59 input  -60.11 | X-H torsion
[ 7974 7965 7964 7962 ] final  -94.62 input  175.53 | X-H torsion
[ 8008 7997 7996 7995 ] final  110.46 input   59.86 | X-H torsion
[ 10167 10162 10161 10158 ] final  -69.29 input  -65.29 | X-H torsion
[ 10718 10713 10712 10709 ] final  -54.08 input   66.30 | X-H torsion
[ 10763 10752 10751 10750 ] final    2.65 input  -60.55 | X-H torsion
[ 11005 11000 10999 10996 ] final -166.09 input  -57.11 | X-H torsion

> <Gold.Protein.ActiveResidues>
 VAL166  LYS551  ARG553  GLY616  TRP617  ASP618  TYR619  PRO620  LYS621  CYS622 
 ASP623  PHE694  ASN695  SER759  ASP760  ASP761  ALA762  ILE779  LEU786  VAL792 
 PHE793  MET794  SER795  GLU796  ALA797  LYS798  CYS799  TRP800  GLU811  SER814 

> <Gold.Protein.RotatedAtoms>
  151.0636  134.9752  159.8272 H   0  0  0  0  0  0  0  0  0  0  0  0  # atno 6907 bound_to 6896
  152.5399  134.2387  159.8863 H   0  0  0  0  0  0  0  0  0  0  0  0  # atno 6908 bound_to 6896
  151.2408  133.4357  159.2641 H   0  0  0  0  0  0  0  0  0  0  0  0  # atno 6909 bound_to 6896
  145.3708  140.9505  143.2448 H   0  0  0  0  0  0  0  0  0  0  0  0  # atno 7974 bound_to 7965
  156.2054  140.3038  155.9616 H   0  0  0  0  0  0  0  0  0  0  0  0  # atno 8008 bound_to 7997
  155.2853  140.0439  157.3036 H   0  0  0  0  0  0  0  0  0  0  0  0  # atno 8009 bound_to 7997
  154.5626  140.2325  155.8320 H   0  0  0  0  0  0  0  0  0  0  0  0  # atno 8010 bound_to 7997
  140.5442  143.2313  151.7033 H   0  0  0  0  0  0  0  0  0  0  0  0  # atno 10167 bound_to 10162
  156.1480  130.4152  149.9991 H   0  0  0  0  0  0  0  0  0  0  0  0  # atno 10718 bound_to 10713
  153.2929  135.6950  153.7276 H   0  0  0  0  0  0  0  0  0  0  0  0  # atno 10763 bound_to 10752
  153.6219  135.3425  155.3014 H   0  0  0  0  0  0  0  0  0  0  0  0  # atno 10764 bound_to 10752
  154.8529  135.4388  154.2017 H   0  0  0  0  0  0  0  0  0  0  0  0  # atno 10765 bound_to 10752
  140.5683  134.5263  157.5157 H   0  0  0  0  0  0  0  0  0  0  0  0  # atno 11005 bound_to 11000
  144.8578  139.5224  143.6826 LP  0  0  0  0  0  0  0  0  0  0  0  0  # atno 17320 bound_to 7965
  146.2886  139.7074  142.9177 LP  0  0  0  0  0  0  0  0  0  0  0  0  # atno 17321 bound_to 7965
  139.5000  144.3921  152.0269 LP  0  0  0  0  0  0  0  0  0  0  0  0  # atno 17342 bound_to 10162
  140.3033  144.3622  150.6054 LP  0  0  0  0  0  0  0  0  0  0  0  0  # atno 17343 bound_to 10162
  156.7857  130.9238  151.3646 LP  0  0  0  0  0  0  0  0  0  0  0  0  # atno 17370 bound_to 10713
  157.6633  130.8985  149.9877 LP  0  0  0  0  0  0  0  0  0  0  0  0  # atno 17371 bound_to 10713
  139.9374  134.7850  156.0767 LP  0  0  0  0  0  0  0  0  0  0  0  0  # atno 17394 bound_to 11000
  141.1072  133.6656  156.2891 LP  0  0  0  0  0  0  0  0  0  0  0  0  # atno 17395 bound_to 11000

$$$$
