AV-unprocessed.smi:2473|AV-procd|sdf|9748|dock10
  -GOLD-   2272013393D 1   1.00000     0.00000
 Structure written by MMmdl.
 47 48  0  0  0  0  0  0  0  0  1 V2000
  153.8159  141.2600  160.7483 C   0  0  0  0  0  0  0  0  0  0  0  0
  153.1334  142.0765  159.6415 C   0  0  1  0  0  0  0  0  0  0  0  0
  152.0320  141.2601  158.9411 C   0  0  0  0  0  0  0  0  0  0  0  0
  151.3564  142.0755  157.8219 C   0  0  1  0  0  0  0  0  0  0  0  0
  150.2514  141.2660  157.1314 C   0  0  0  0  0  0  0  0  0  0  0  0
  149.9921  140.1229  157.5082 O   0  0  0  0  0  0  0  0  0  0  0  0
  149.5847  141.8880  156.1456 N   0  0  0  0  0  0  0  0  0  0  0  0
  148.3966  141.3743  155.4684 C   0  0  0  0  0  0  0  0  0  0  0  0
  148.7455  140.6784  154.1378 C   0  0  0  0  0  0  0  0  0  0  0  0
  149.7791  139.5973  154.2680 C   0  0  0  0  0  0  0  0  0  0  0  0
  151.0867  139.8207  154.1788 N   0  0  0  0  0  0  0  0  0  0  0  0
  151.6755  138.5795  154.3923 C   0  0  0  0  0  0  0  0  0  0  0  0
  150.6955  137.6398  154.6014 C   0  0  0  0  0  0  0  0  0  0  0  0
  149.4802  138.3062  154.5186 N   0  0  0  0  0  0  0  0  0  0  0  0
  148.1707  137.7030  154.6795 C   0  0  0  0  0  0  0  0  0  0  0  0
  150.7834  143.3930  158.3912 C   0  0  0  0  0  0  0  0  0  0  0  0
  151.8353  144.2591  159.1253 C   0  0  0  0  0  0  0  0  0  0  0  0
  152.8440  144.8680  158.1267 C   0  0  0  0  0  0  0  0  0  0  0  0
  151.1122  145.4243  159.8290 C   0  0  0  0  0  0  0  0  0  0  0  0
  152.5574  143.3984  160.1927 C   0  0  0  0  0  0  0  0  0  0  0  0
  153.1072  140.9738  161.5259 H   0  0  0  0  0  0  0  0  0  0  0  0
  154.6164  141.8308  161.2200 H   0  0  0  0  0  0  0  0  0  0  0  0
  154.2568  140.3470  160.3471 H   0  0  0  0  0  0  0  0  0  0  0  0
  153.9006  142.3127  158.9040 H   0  0  0  0  0  0  0  0  0  0  0  0
  152.4603  140.3464  158.5262 H   0  0  0  0  0  0  0  0  0  0  0  0
  151.2898  140.9455  159.6770 H   0  0  0  0  0  0  0  0  0  0  0  0
  152.1107  142.3146  157.0715 H   0  0  0  0  0  0  0  0  0  0  0  0
  149.8786  142.8211  155.8964 H   0  0  0  0  0  0  0  0  0  0  0  0
  147.9026  140.6656  156.1333 H   0  0  0  0  0  0  0  0  0  0  0  0
  147.6764  142.1743  155.2901 H   0  0  0  0  0  0  0  0  0  0  0  0
  147.8412  140.2679  153.6887 H   0  0  0  0  0  0  0  0  0  0  0  0
  149.1158  141.4205  153.4299 H   0  0  0  0  0  0  0  0  0  0  0  0
  152.7486  138.4593  154.3795 H   0  0  0  0  0  0  0  0  0  0  0  0
  150.7618  136.5802  154.7995 H   0  0  0  0  0  0  0  0  0  0  0  0
  148.2722  136.6539  154.9582 H   0  0  0  0  0  0  0  0  0  0  0  0
  147.6172  137.7673  153.7426 H   0  0  0  0  0  0  0  0  0  0  0  0
  147.6147  138.2183  155.4628 H   0  0  0  0  0  0  0  0  0  0  0  0
  150.3241  143.9750  157.5913 H   0  0  0  0  0  0  0  0  0  0  0  0
  149.9748  143.1566  159.0853 H   0  0  0  0  0  0  0  0  0  0  0  0
  153.5696  145.5015  158.6379 H   0  0  0  0  0  0  0  0  0  0  0  0
  152.3379  145.4864  157.3846 H   0  0  0  0  0  0  0  0  0  0  0  0
  153.4075  144.1118  157.5825 H   0  0  0  0  0  0  0  0  0  0  0  0
  151.8149  146.0620  160.3664 H   0  0  0  0  0  0  0  0  0  0  0  0
  150.3802  145.0637  160.5528 H   0  0  0  0  0  0  0  0  0  0  0  0
  150.5801  146.0516  159.1128 H   0  0  0  0  0  0  0  0  0  0  0  0
  151.8552  143.1599  160.9933 H   0  0  0  0  0  0  0  0  0  0  0  0
  153.3531  143.9805  160.6594 H   0  0  0  0  0  0  0  0  0  0  0  0
  1  2  1  0  0  0  0
  1 21  1  0  0  0  0
  1 22  1  0  0  0  0
  1 23  1  0  0  0  0
  2 20  1  0  0  0  0
  2  3  1  0  0  0  0
  2 24  1  0  0  0  0
  3  4  1  0  0  0  0
  3 25  1  0  0  0  0
  3 26  1  0  0  0  0
  4  5  1  0  0  0  0
  4 16  1  0  0  0  0
  4 27  1  0  0  0  0
  5  6  2  0  0  0  0
  5  7  1  0  0  0  0
  7  8  1  0  0  0  0
  7 28  1  0  0  0  0
  8  9  1  0  0  0  0
  8 29  1  0  0  0  0
  8 30  1  0  0  0  0
  9 10  1  0  0  0  0
  9 31  1  0  0  0  0
  9 32  1  0  0  0  0
 10 14  1  0  0  0  0
 10 11  2  0  0  0  0
 11 12  1  0  0  0  0
 12 13  2  0  0  0  0
 12 33  1  0  0  0  0
 13 14  1  0  0  0  0
 13 34  1  0  0  0  0
 14 15  1  0  0  0  0
 15 35  1  0  0  0  0
 15 36  1  0  0  0  0
 15 37  1  0  0  0  0
 16 17  1  0  0  0  0
 16 38  1  0  0  0  0
 16 39  1  0  0  0  0
 17 18  1  0  0  0  0
 17 19  1  0  0  0  0
 17 20  1  0  0  0  0
 18 40  1  0  0  0  0
 18 41  1  0  0  0  0
 18 42  1  0  0  0  0
 19 43  1  0  0  0  0
 19 44  1  0  0  0  0
 19 45  1  0  0  0  0
 20 46  1  0  0  0  0
 20 47  1  0  0  0  0
M  END
> <s_m_source_file>
AV-unprocessed.smi

> <i_m_source_file_index>
2473

> <i_lp_mmshare_version>
43012

> <i_f3d_flags>
0

> <s_epik_input>
W0NIM11bQ0BASF0oW0NIMl0xKVtDSDJdW0NASF0oW0NIMl1DMShbQ0gzXSlbQ0gzXSlDKD1PKVtOSF1bQ0gyXVtDSDJdYzJuW2NIXVtjSF1uMltDSDNd

> <s_epik_cmdline>
J2VwaWtfcHl0aG9uJywgJy1waCcsICc3LjAnLCAnLXRuJywgJzgnLCAnLW1hJywgJzIwMCcsICctbWV0YWxfYmluZGluZycsICctaW1hZScsICc8aW5maWxlLm1hZT4nLCAnLW9tYWUnLCAnPG91dGZpbGUubWFlPic=

> <r_lp_tautomer_probability>
1

> <r_epik_Ionization_Penalty>
1.22858

> <r_epik_Ionization_Penalty_Charging>
1.22858

> <r_epik_Ionization_Penalty_Neutral>
2.12671e-08

> <r_epik_State_Penalty>
1.2965

> <r_epik_Charging_Adjusted_Penalty>
2.52508

> <i_epik_Tot_Q>
0

> <i_epik_Tot_abs_Q>
0

> <r_epik_Metal_State_Penalty>
0.411461

> <b_epik_Metal_Only>
0

> <s_lp_Force_Field>
OPLS_2005

> <r_lp_Energy>
12.6142

> <b_lp_Chiralities_Consistent>
1

> <s_lp_Variant>
AV-unprocessed.smi:2473-6

> <Gold.Version>
5.8.1

> <Gold.Id.Protein>
6NUR|6NUR_protein|mol2

> <Gold.PLP.Fitness>
51.4748

> <Gold.PLP.PLP>
-47.1611

> <Gold.PLP.part.hbond>
-2.0000

> <Gold.PLP.part.metal>
0.0000

> <Gold.PLP.part.buried>
-6.8397

> <Gold.PLP.part.nonpolar>
-39.6096

> <Gold.PLP.part.repulsive>
0.1950

> <Gold.PLP.ligand.clash>
0.0000

> <Gold.PLP.ligand.torsion>
0.5541

> <Gold.PLP.Chemscore.Hbond>
1.8000

> <Gold.PLP.Chemscore.CHOScore>
0.0000

> <Gold.PLP.Chemscore.Metal>
0.0000

> <Gold.Chemscore.Hbonds>
donor molecule, donor type, donor heavy atom, donor atom, acceptor molecule, acceptor atom, score
      L1  H     7    28       P1  8028  0.48
      P1  H  7989  7998       L1    11  0.57

> <Gold.PLP.Chemscore.Internal.Correction>
0.0218

> <Gold.Rescore>
     Score         DG    S(hbond)    S(metal)    S(lipo)     H(rot)  DE(clash)    DE(int)     intcor
     20.26     -21.32       1.48        0.00     126.28       1.51       0.50       0.56       ----

> <Gold.Chemscore.Fitness>
20.2558

> <Gold.Chemscore.DG>
-21.3165

> <Gold.Chemscore.ZeroCoef>
-5.4800

> <Gold.Chemscore.Hbond>
1.4758

> <Gold.Chemscore.Metal>
0.0000

> <Gold.Chemscore.Lipo>
126.2840

> <Gold.Chemscore.Internal_Hbond>
0.0000

> <Gold.Chemscore.DEClash>
0.5023

> <Gold.Chemscore.DEInternal>
0.5584

> <Gold.Chemscore.Rot>
1.5109

> <Gold.Chemscore.Internal.Correction>
   9.000000E+99

> <Gold.Chemscore.Hbonds>
donor molecule, donor type, donor heavy atom, donor atom, acceptor molecule, acceptor atom, score
      L1  H     7    28       P1  8028  0.48
      P1  H  7989  7998       L1    11  0.56

> <Gold.Chemscore.Hbond.Weighted>
-4.9292

> <Gold.Chemscore.Metal.Weighted>
-0.0000

> <Gold.Chemscore.Lipo.Weighted>
-14.7752

> <Gold.Chemscore.Internal_Hbond.Weighted>
0.0000

> <Gold.Chemscore.DEClash.Weighted>
0.5023

> <Gold.Chemscore.DEInternal.Weighted>
0.5584

> <Gold.Chemscore.Rot.Weighted>
3.8680

> <Gold.Chemscore.Internal.Correction.Weighted>
   9.000000E+99

> <Gold.Protein.RotatedTorsions>
[ 6907 6896 6895 6894 ] final   82.90 input  -60.11 | X-H torsion
[ 7974 7965 7964 7962 ] final   31.11 input  175.53 | X-H torsion
[ 8008 7997 7996 7995 ] final -179.22 input   59.86 | X-H torsion
[ 10167 10162 10161 10158 ] final  142.84 input  -65.29 | X-H torsion
[ 10718 10713 10712 10709 ] final  -66.92 input   66.30 | X-H torsion
[ 10763 10752 10751 10750 ] final  -91.46 input  -60.55 | X-H torsion
[ 11005 11000 10999 10996 ] final  -97.81 input  -57.11 | X-H torsion

> <Gold.Protein.ActiveResidues>
 VAL166  LYS551  ARG553  GLY616  TRP617  ASP618  TYR619  PRO620  LYS621  CYS622 
 ASP623  PHE694  ASN695  SER759  ASP760  ASP761  ALA762  ILE779  LEU786  VAL792 
 PHE793  MET794  SER795  GLU796  ALA797  LYS798  CYS799  TRP800  GLU811  SER814 

> <Gold.Protein.RotatedAtoms>
  152.5312  134.2979  159.9067 H   0  0  0  0  0  0  0  0  0  0  0  0  # atno 6907 bound_to 6896
  151.2930  133.4150  159.2642 H   0  0  0  0  0  0  0  0  0  0  0  0  # atno 6908 bound_to 6896
  151.0184  134.9466  159.8103 H   0  0  0  0  0  0  0  0  0  0  0  0  # atno 6909 bound_to 6896
  146.1571  139.6700  142.9059 H   0  0  0  0  0  0  0  0  0  0  0  0  # atno 7974 bound_to 7965
  156.0280  140.1275  157.0288 H   0  0  0  0  0  0  0  0  0  0  0  0  # atno 8008 bound_to 7997
  154.4338  140.1055  156.6129 H   0  0  0  0  0  0  0  0  0  0  0  0  # atno 8009 bound_to 7997
  155.5849  140.3468  155.4552 H   0  0  0  0  0  0  0  0  0  0  0  0  # atno 8010 bound_to 7997
  139.4984  144.6080  151.6335 H   0  0  0  0  0  0  0  0  0  0  0  0  # atno 10167 bound_to 10162
  156.0586  130.4269  150.1778 H   0  0  0  0  0  0  0  0  0  0  0  0  # atno 10718 bound_to 10713
  154.6762  135.5267  153.8203 H   0  0  0  0  0  0  0  0  0  0  0  0  # atno 10763 bound_to 10752
  153.0534  135.6541  154.0647 H   0  0  0  0  0  0  0  0  0  0  0  0  # atno 10764 bound_to 10752
  154.0540  135.2967  155.3315 H   0  0  0  0  0  0  0  0  0  0  0  0  # atno 10765 bound_to 10752
  141.1366  133.8198  157.0755 H   0  0  0  0  0  0  0  0  0  0  0  0  # atno 11005 bound_to 11000
  145.4682  141.0435  143.2713 LP  0  0  0  0  0  0  0  0  0  0  0  0  # atno 17320 bound_to 7965
  144.7977  139.6202  143.7085 LP  0  0  0  0  0  0  0  0  0  0  0  0  # atno 17321 bound_to 7965
  140.5747  144.0049  150.6235 LP  0  0  0  0  0  0  0  0  0  0  0  0  # atno 17342 bound_to 10162
  140.3178  143.3156  152.0815 LP  0  0  0  0  0  0  0  0  0  0  0  0  # atno 17343 bound_to 10162
  156.9850  130.9876  151.3428 LP  0  0  0  0  0  0  0  0  0  0  0  0  # atno 17370 bound_to 10713
  157.5576  130.8224  149.8225 LP  0  0  0  0  0  0  0  0  0  0  0  0  # atno 17371 bound_to 10713
  140.0484  134.9818  157.1091 LP  0  0  0  0  0  0  0  0  0  0  0  0  # atno 17394 bound_to 11000
  140.4027  134.2065  155.7163 LP  0  0  0  0  0  0  0  0  0  0  0  0  # atno 17395 bound_to 11000

$$$$
