#       Name:                AV-unprocessed.smi:608
#       Creating user name   scv26
#       Creation time:       Thu Mar 26 23:56:24 2020


#       File generated by GOLD software.
#

@<TRIPOS>MOLECULE
AV-unprocessed.smi:608
    45    46     1
SMALL
NO_CHARGES


@<TRIPOS>ATOM
      1 ****        -7.1524   0.2742   2.1571 C.3            1 S1                 0.0000
      2 ****        -6.5953  -0.3022   0.8507 C.3            1 S1                 0.0000
      3 ****        -5.1234  -0.5499   0.8982 C.2            1 S1                 0.0000
      4 ****        -4.4807  -1.7587   1.0050 C.2            1 S1                 0.0000
      5 ****        -3.0878  -1.6580   1.0318 N.2            1 S1                 0.0000
      6 ****        -2.6668  -0.3930   0.9608 C.2            1 S1                 0.0000
      7 ****        -1.2267  -0.0023   0.9518 C.3            1 S1                 0.0000
      8 ****        -0.6304   0.0284  -0.4614 C.3            1 S1                 0.0000
      9 ****         0.7697   0.4257  -0.4121 N.am           1 S1                 0.0000
     10 ****         1.5827   0.5033  -1.4784 C.2            1 S1                 0.0000
     11 ****         1.1924   0.2395  -2.6166 O.2            1 S1                 0.0000
     12 ****         2.8528   0.8967  -1.1984 N.am           1 S1                 0.0000
     13 ****         3.4125   1.1000   0.1451 C.3            1 S1                 0.0000
     14 ****         4.0370  -0.2189   0.6348 C.3            1 S1                 0.0000
     15 ****         5.3903  -0.3969   0.1182 N.am           1 S1                 0.0000
     16 ****         5.7675  -0.4246  -1.1733 C.2            1 S1                 0.0000
     17 ****         6.9510  -0.5482  -1.4807 O.2            1 S1                 0.0000
     18 ****         4.7104  -0.3260  -2.2882 C.3            1 S1                 0.0000
     19 ****         3.8791   0.9745  -2.2455 C.3            1 S1                 0.0000
     20 ****        -3.9813   0.7676   0.8185 S.3            1 S1                 0.0000
     21 ****        -8.2291   0.4296   2.0861 H              1 S1                 0.0000
     22 ****        -6.6935   1.2350   2.3920 H              1 S1                 0.0000
     23 ****        -6.9673  -0.3994   2.9944 H              1 S1                 0.0000
     24 ****        -7.1143  -1.2330   0.6195 H              1 S1                 0.0000
     25 ****        -6.8207   0.3797   0.0303 H              1 S1                 0.0000
     26 ****        -4.9351  -2.7365   1.0693 H              1 S1                 0.0000
     27 ****        -1.1334   0.9784   1.4199 H              1 S1                 0.0000
     28 ****        -0.6708  -0.7012   1.5786 H              1 S1                 0.0000
     29 ****        -0.7138  -0.9560  -0.9252 H              1 S1                 0.0000
     30 ****        -1.1832   0.7303  -1.0879 H              1 S1                 0.0000
     31 ****         1.1498   0.6578   0.4938 H              1 S1                 0.0000
     32 ****         4.1534   1.9014   0.1450 H              1 S1                 0.0000
     33 ****         2.6538   1.4352   0.8526 H              1 S1                 0.0000
     34 ****         4.1128  -0.1960   1.7221 H              1 S1                 0.0000
     35 ****         3.4164  -1.0819   0.3877 H              1 S1                 0.0000
     36 ****         6.1218  -0.4836   0.8092 H              1 S1                 0.0000
     37 ****         5.2294  -0.3752  -3.2462 H              1 S1                 0.0000
     38 ****         4.0625  -1.2029  -2.2547 H              1 S1                 0.0000
     39 ****         3.4324   1.1522  -3.2248 H              1 S1                 0.0000
     40 ****         4.5274   1.8362  -2.0783 H              1 S1                 0.0000
     41 ****        -2.4745  -2.4453   1.0969 LP             1 S1                 0.0000
     42 ****         0.2449  -0.0423  -2.7675 LP             1 S1                 0.0000
     43 ****         1.8231   0.3071  -3.3897 LP             1 S1                 0.0000
     44 ****         7.6470  -0.6297  -0.7673 LP             1 S1                 0.0000
     45 ****         7.2179  -0.5674  -2.4442 LP             1 S1                 0.0000
@<TRIPOS>BOND
    1    1    2 1     
    2    1   21 1     
    3    1   22 1     
    4    1   23 1     
    5    2    3 1     
    6    2   24 1     
    7    2   25 1     
    8    3   20 1     
    9    3    4 2     
   10    4    5 1     
   11    4   26 1     
   12    5    6 2     
   13    6    7 1     
   14    6   20 1     
   15    7    8 1     
   16    7   27 1     
   17    7   28 1     
   18    8    9 1     
   19    8   29 1     
   20    8   30 1     
   21    9   10 am    
   22    9   31 1     
   23   10   11 2     
   24   10   12 am    
   25   12   19 1     
   26   12   13 1     
   27   13   14 1     
   28   13   32 1     
   29   13   33 1     
   30   14   15 1     
   31   14   34 1     
   32   14   35 1     
   33   15   16 am    
   34   15   36 1     
   35   16   17 2     
   36   16   18 1     
   37   18   19 1     
   38   18   37 1     
   39   18   38 1     
   40   19   39 1     
   41   19   40 1     
   42    5   41 1     
   43   11   42 1     
   44   11   43 1     
   45   17   44 1     
   46   17   45 1     
@<TRIPOS>SUBSTRUCTURE
      1 S1             1
@<TRIPOS>SET
LONE_PAIRS      STATIC     ATOMS    <user>   **** ""
5 41 42 43 44 45
DONOR_HYDROGENS      STATIC     ATOMS    <user>   **** ""
2 31 36
ATOM$BLUE        STATIC     ATOMS    COLORGROUP SYSTEM
5 41 42 43 44 45
ATOM$RED        STATIC     ATOMS    COLORGROUP SYSTEM
2 31 36
