AV-unprocessed.smi:3184|AV-procd|sdf|12163|dock1
  -GOLD-   2272017593D 1   1.00000     0.00000
 Structure written by MMmdl.
 34 35  0  0  0  0  0  0  0  0  1 V2000
  152.2240  139.3501  155.5076 C   0  0  0  0  0  0  0  0  0  0  0  0
  150.9422  140.1383  155.8133 C   0  0  2  0  0  0  0  0  0  0  0  0
  150.2865  140.6799  154.5293 C   0  0  0  0  0  0  0  0  0  0  0  0
  148.8440  140.7820  154.6535 N   0  0  0  0  0  0  0  0  0  0  0  0
  147.8892  140.0733  153.9363 C   0  0  0  0  0  0  0  0  0  0  0  0
  146.6614  140.4907  154.3979 C   0  0  0  0  0  0  0  0  0  0  0  0
  146.8357  141.4514  155.3916 N   0  0  0  0  0  0  0  0  0  0  0  0
  148.1533  141.5727  155.4865 C   0  0  0  0  0  0  0  0  0  0  0  0
  151.2464  141.2432  156.7195 N   0  0  0  0  0  0  0  0  0  0  0  0
  152.0571  141.1830  157.7896 C   0  0  0  0  0  0  0  0  0  0  0  0
  152.6876  140.1710  158.0981 O   0  0  0  0  0  0  0  0  0  0  0  0
  152.1238  142.3348  158.4918 N   0  0  0  0  0  0  0  0  0  0  0  0
  151.7361  143.6681  158.0207 C   0  0  0  0  0  0  0  0  0  0  0  0
  151.7726  144.5722  159.2532 C   0  0  0  0  0  0  0  0  0  0  0  0
  152.7546  143.8849  160.1914 C   0  0  0  0  0  0  0  0  0  0  0  0
  152.5941  142.3981  159.8743 C   0  0  0  0  0  0  0  0  0  0  0  0
  152.0186  138.5107  154.8428 H   0  0  0  0  0  0  0  0  0  0  0  0
  152.6636  138.9453  156.4199 H   0  0  0  0  0  0  0  0  0  0  0  0
  152.9733  139.9801  155.0270 H   0  0  0  0  0  0  0  0  0  0  0  0
  150.2340  139.4573  156.2893 H   0  0  0  0  0  0  0  0  0  0  0  0
  150.6900  141.6609  154.2735 H   0  0  0  0  0  0  0  0  0  0  0  0
  150.5056  140.0218  153.6875 H   0  0  0  0  0  0  0  0  0  0  0  0
  148.1552  139.3481  153.1813 H   0  0  0  0  0  0  0  0  0  0  0  0
  145.6739  140.1757  154.0945 H   0  0  0  0  0  0  0  0  0  0  0  0
  148.6277  142.2481  156.1834 H   0  0  0  0  0  0  0  0  0  0  0  0
  150.7794  142.1196  156.5378 H   0  0  0  0  0  0  0  0  0  0  0  0
  152.4592  144.0071  157.2776 H   0  0  0  0  0  0  0  0  0  0  0  0
  150.7458  143.6736  157.5622 H   0  0  0  0  0  0  0  0  0  0  0  0
  152.0591  145.5975  159.0170 H   0  0  0  0  0  0  0  0  0  0  0  0
  150.7852  144.5994  159.7161 H   0  0  0  0  0  0  0  0  0  0  0  0
  153.7704  144.2021  159.9517 H   0  0  0  0  0  0  0  0  0  0  0  0
  152.5716  144.1163  161.2410 H   0  0  0  0  0  0  0  0  0  0  0  0
  151.8430  141.9470  160.5243 H   0  0  0  0  0  0  0  0  0  0  0  0
  153.5323  141.8591  160.0151 H   0  0  0  0  0  0  0  0  0  0  0  0
  1  2  1  0  0  0  0
  1 17  1  0  0  0  0
  1 18  1  0  0  0  0
  1 19  1  0  0  0  0
  2  3  1  0  0  0  0
  2  9  1  0  0  0  0
  2 20  1  0  0  0  0
  3  4  1  0  0  0  0
  3 21  1  0  0  0  0
  3 22  1  0  0  0  0
  4  8  1  0  0  0  0
  4  5  1  0  0  0  0
  5  6  2  0  0  0  0
  5 23  1  0  0  0  0
  6  7  1  0  0  0  0
  6 24  1  0  0  0  0
  7  8  2  0  0  0  0
  8 25  1  0  0  0  0
  9 10  1  0  0  0  0
  9 26  1  0  0  0  0
 10 11  2  0  0  0  0
 10 12  1  0  0  0  0
 12 16  1  0  0  0  0
 12 13  1  0  0  0  0
 13 14  1  0  0  0  0
 13 27  1  0  0  0  0
 13 28  1  0  0  0  0
 14 15  1  0  0  0  0
 14 29  1  0  0  0  0
 14 30  1  0  0  0  0
 15 16  1  0  0  0  0
 15 31  1  0  0  0  0
 15 32  1  0  0  0  0
 16 33  1  0  0  0  0
 16 34  1  0  0  0  0
M  END
> <s_m_source_file>
AV-unprocessed.smi

> <i_m_source_file_index>
3184

> <i_lp_mmshare_version>
43012

> <i_f3d_flags>
0

> <s_epik_input>
W2NIXTFuW2NIXVtjSF1uMVtDSDJdW0NAQEhdKFtDSDNdKVtOSF1DKD1PKU4yW0NIMl1bQ0gyXVtDSDJdW0NIMl0y

> <s_epik_cmdline>
J2VwaWtfcHl0aG9uJywgJy1waCcsICc3LjAnLCAnLXRuJywgJzgnLCAnLW1hJywgJzIwMCcsICctbWV0YWxfYmluZGluZycsICctaW1hZScsICc8aW5maWxlLm1hZT4nLCAnLW9tYWUnLCAnPG91dGZpbGUubWFlPic=

> <r_lp_tautomer_probability>
1

> <r_epik_Ionization_Penalty>
0.625774

> <r_epik_Ionization_Penalty_Charging>
0.625709

> <r_epik_Ionization_Penalty_Neutral>
6.46152e-05

> <r_epik_State_Penalty>
0.642123

> <r_epik_Charging_Adjusted_Penalty>
1.26783

> <i_epik_Tot_Q>
0

> <i_epik_Tot_abs_Q>
0

> <r_epik_Metal_State_Penalty>
0.307922

> <b_epik_Metal_Only>
0

> <s_lp_Force_Field>
OPLS_2005

> <r_lp_Energy>
35.6501

> <b_lp_Chiralities_Consistent>
1

> <s_lp_Variant>
AV-unprocessed.smi:3184-3

> <Gold.Version>
5.8.1

> <Gold.Id.Protein>
6NUR|6NUR_protein|mol2

> <Gold.PLP.Fitness>
40.6723

> <Gold.PLP.PLP>
-31.0816

> <Gold.PLP.part.hbond>
-1.0000

> <Gold.PLP.part.metal>
0.0000

> <Gold.PLP.part.buried>
1.8886

> <Gold.PLP.part.nonpolar>
-29.6047

> <Gold.PLP.part.repulsive>
0.1996

> <Gold.PLP.ligand.clash>
0.0000

> <Gold.PLP.ligand.torsion>
0.7486

> <Gold.PLP.Chemscore.Hbond>
0.9913

> <Gold.PLP.Chemscore.CHOScore>
2.6905

> <Gold.PLP.Chemscore.Metal>
0.0000

> <Gold.Chemscore.Hbonds>
donor molecule, donor type, donor heavy atom, donor atom, acceptor molecule, acceptor atom, score
      P1  H  7997  8008       L1    11  0.65
      L1  C     5    23       P1  7957  0.72
      L1  C     6    24       P1 10175  0.87
      L1  C     8    25       P1  8028  0.81

> <Gold.PLP.Chemscore.Internal.Correction>
0.0426

> <Gold.Rescore>
     Score         DG    S(hbond)    S(metal)    S(lipo)     H(rot)  DE(clash)    DE(int)     intcor
     10.11     -13.77       0.86        0.00      81.45       1.60       1.75       1.90       ----

> <Gold.Chemscore.Fitness>
10.1082

> <Gold.Chemscore.DG>
-13.7674

> <Gold.Chemscore.ZeroCoef>
-5.4800

> <Gold.Chemscore.Hbond>
0.8550

> <Gold.Chemscore.Metal>
0.0000

> <Gold.Chemscore.Lipo>
81.4519

> <Gold.Chemscore.Internal_Hbond>
0.0000

> <Gold.Chemscore.DEClash>
1.7549

> <Gold.Chemscore.DEInternal>
1.9043

> <Gold.Chemscore.Rot>
1.6009

> <Gold.Chemscore.Internal.Correction>
   9.000000E+99

> <Gold.Chemscore.Hbonds>
donor molecule, donor type, donor heavy atom, donor atom, acceptor molecule, acceptor atom, score
      P1  H  7997  8008       L1    11  0.40

> <Gold.Chemscore.Hbond.Weighted>
-2.8558

> <Gold.Chemscore.Metal.Weighted>
-0.0000

> <Gold.Chemscore.Lipo.Weighted>
-9.5299

> <Gold.Chemscore.Internal_Hbond.Weighted>
0.0000

> <Gold.Chemscore.DEClash.Weighted>
1.7549

> <Gold.Chemscore.DEInternal.Weighted>
1.9043

> <Gold.Chemscore.Rot.Weighted>
4.0983

> <Gold.Chemscore.Internal.Correction.Weighted>
   9.000000E+99

> <Gold.Protein.RotatedTorsions>
[ 6907 6896 6895 6894 ] final -172.45 input  -60.11 | X-H torsion
[ 7974 7965 7964 7962 ] final  150.52 input  175.53 | X-H torsion
[ 8008 7997 7996 7995 ] final  -73.47 input   59.86 | X-H torsion
[ 10167 10162 10161 10158 ] final  -15.31 input  -65.29 | X-H torsion
[ 10718 10713 10712 10709 ] final    8.81 input   66.30 | X-H torsion
[ 10763 10752 10751 10750 ] final  136.99 input  -60.55 | X-H torsion
[ 11005 11000 10999 10996 ] final  -75.47 input  -57.11 | X-H torsion

> <Gold.Protein.ActiveResidues>
 VAL166  LYS551  ARG553  GLY616  TRP617  ASP618  TYR619  PRO620  LYS621  CYS622 
 ASP623  PHE694  ASN695  SER759  ASP760  ASP761  ALA762  ILE779  LEU786  VAL792 
 PHE793  MET794  SER795  GLU796  ALA797  LYS798  CYS799  TRP800  GLU811  SER814 

> <Gold.Protein.RotatedAtoms>
  151.5402  133.3434  159.2933 H   0  0  0  0  0  0  0  0  0  0  0  0  # atno 6907 bound_to 6896
  150.8540  134.7876  159.7042 H   0  0  0  0  0  0  0  0  0  0  0  0  # atno 6908 bound_to 6896
  152.4579  134.5259  159.9848 H   0  0  0  0  0  0  0  0  0  0  0  0  # atno 6909 bound_to 6896
  144.8358  139.6419  143.6038 H   0  0  0  0  0  0  0  0  0  0  0  0  # atno 7974 bound_to 7965
  154.5250  140.0778  156.8242 H   0  0  0  0  0  0  0  0  0  0  0  0  # atno 8008 bound_to 7997
  155.3495  140.3412  155.4221 H   0  0  0  0  0  0  0  0  0  0  0  0  # atno 8009 bound_to 7997
  156.1722  140.1623  156.8414 H   0  0  0  0  0  0  0  0  0  0  0  0  # atno 8010 bound_to 7997
  140.7216  143.5231  150.9609 H   0  0  0  0  0  0  0  0  0  0  0  0  # atno 10167 bound_to 10162
  156.9571  130.5919  149.5660 H   0  0  0  0  0  0  0  0  0  0  0  0  # atno 10718 bound_to 10713
  153.8656  135.3062  155.3440 H   0  0  0  0  0  0  0  0  0  0  0  0  # atno 10763 bound_to 10752
  154.7829  135.4825  153.9886 H   0  0  0  0  0  0  0  0  0  0  0  0  # atno 10764 bound_to 10752
  153.1436  135.6829  153.9084 H   0  0  0  0  0  0  0  0  0  0  0  0  # atno 10765 bound_to 10752
  141.1645  133.6948  156.7521 H   0  0  0  0  0  0  0  0  0  0  0  0  # atno 11005 bound_to 11000
  146.2657  139.6514  142.9331 LP  0  0  0  0  0  0  0  0  0  0  0  0  # atno 17320 bound_to 7965
  145.4798  141.0437  143.2652 LP  0  0  0  0  0  0  0  0  0  0  0  0  # atno 17321 bound_to 7965
  139.8949  143.6907  152.3140 LP  0  0  0  0  0  0  0  0  0  0  0  0  # atno 17342 bound_to 10162
  139.7236  144.7597  151.0915 LP  0  0  0  0  0  0  0  0  0  0  0  0  # atno 17343 bound_to 10162
  156.0338  130.5427  150.8601 LP  0  0  0  0  0  0  0  0  0  0  0  0  # atno 17370 bound_to 10713
  157.5683  131.0946  150.9457 LP  0  0  0  0  0  0  0  0  0  0  0  0  # atno 17371 bound_to 10713
  140.2596  134.8477  157.3746 LP  0  0  0  0  0  0  0  0  0  0  0  0  # atno 17394 bound_to 11000
  140.1624  134.4712  155.7886 LP  0  0  0  0  0  0  0  0  0  0  0  0  # atno 17395 bound_to 11000

$$$$
