#       Name:                AV-unprocessed.smi:1759
#       Creating user name   scv26
#       Creation time:       Fri Mar 27 08:30:38 2020


#       File generated by GOLD software.
#

@<TRIPOS>MOLECULE
AV-unprocessed.smi:1759
    38    39     1
SMALL
NO_CHARGES


@<TRIPOS>ATOM
      1 ****        -6.0734  -2.2449   0.8640 C.3            1 S1                 0.0000
      2 ****        -4.7598  -1.5417   0.8637 C.2            1 S1                 0.0000
      3 ****        -3.4672  -1.9849   0.8673 C.2            1 S1                 0.0000
      4 ****        -2.7162  -0.7795   0.8675 C.2            1 S1                 0.0000
      5 ****        -1.2985  -0.8058   0.8766 N.am           1 S1                 0.0000
      6 ****        -0.4600   0.2441   0.8654 C.2            1 S1                 0.0000
      7 ****        -0.8031   1.4258   0.8179 O.2            1 S1                 0.0000
      8 ****         0.8193  -0.1540   0.9067 N.am           1 S1                 0.0000
      9 ****         1.9724   0.7383   0.8797 C.3            1 S1                 0.0000
     10 ****         2.3425   1.1327  -0.5593 C.3            1 S1                 0.0000
     11 ****         3.4966   2.1305  -0.6432 C.3            1 S1                 0.0000
     12 ****         4.0655   1.8291  -2.0104 C.3            1 S1                 0.0000
     13 ****         3.9355   0.3110  -2.0669 C.3            1 S1                 0.0000
     14 ****         2.7824  -0.0092  -1.2932 O.3            1 S1                 0.0000
     15 ****        -3.4810   0.3017   0.8631 N.2            1 S1                 0.0000
     16 ****        -4.7949  -0.1814   0.8606 O.3            1 S1                 0.0000
     17 ****        -5.9365  -3.3264   0.8641 H              1 S1                 0.0000
     18 ****        -6.6547  -1.9773  -0.0184 H              1 S1                 0.0000
     19 ****        -6.6539  -1.9771   1.7468 H              1 S1                 0.0000
     20 ****        -3.1182  -3.0069   0.8705 H              1 S1                 0.0000
     21 ****        -0.8774  -1.7225   0.9012 H              1 S1                 0.0000
     22 ****         1.0121  -1.1444   0.9389 H              1 S1                 0.0000
     23 ****         1.7690   1.6297   1.4759 H              1 S1                 0.0000
     24 ****         2.8117   0.2325   1.3577 H              1 S1                 0.0000
     25 ****         1.4779   1.5512  -1.0775 H              1 S1                 0.0000
     26 ****         3.1712   3.1652  -0.5330 H              1 S1                 0.0000
     27 ****         4.2440   1.9231   0.1243 H              1 S1                 0.0000
     28 ****         3.4495   2.2899  -2.7838 H              1 S1                 0.0000
     29 ****         5.0918   2.1752  -2.1358 H              1 S1                 0.0000
     30 ****         3.8498  -0.0630  -3.0874 H              1 S1                 0.0000
     31 ****         4.8029  -0.1616  -1.6045 H              1 S1                 0.0000
     32 ****        -1.7738   1.6636   0.7839 LP             1 S1                 0.0000
     33 ****        -0.1110   2.1476   0.8134 LP             1 S1                 0.0000
     34 ****         2.0498  -0.3110  -1.9032 LP             1 S1                 0.0000
     35 ****         3.0082  -0.7445  -0.6542 LP             1 S1                 0.0000
     36 ****        -3.1841   1.2566   0.8619 LP             1 S1                 0.0000
     37 ****        -5.2748   0.1447   1.6751 LP             1 S1                 0.0000
     38 ****        -5.2704   0.1411   0.0421 LP             1 S1                 0.0000
@<TRIPOS>BOND
    1    1    2 1     
    2    1   17 1     
    3    1   18 1     
    4    1   19 1     
    5    2   16 1     
    6    2    3 2     
    7    3    4 1     
    8    3   20 1     
    9    4    5 1     
   10    4   15 2     
   11    5    6 am    
   12    5   21 1     
   13    6    7 2     
   14    6    8 am    
   15    8    9 1     
   16    8   22 1     
   17    9   10 1     
   18    9   23 1     
   19    9   24 1     
   20   10   14 1     
   21   10   11 1     
   22   10   25 1     
   23   11   12 1     
   24   11   26 1     
   25   11   27 1     
   26   12   13 1     
   27   12   28 1     
   28   12   29 1     
   29   13   14 1     
   30   13   30 1     
   31   13   31 1     
   32   15   16 1     
   33    7   32 1     
   34    7   33 1     
   35   14   34 1     
   36   14   35 1     
   37   15   36 1     
   38   16   37 1     
   39   16   38 1     
@<TRIPOS>SUBSTRUCTURE
      1 S1             1
@<TRIPOS>SET
LONE_PAIRS      STATIC     ATOMS    <user>   **** ""
7 32 33 34 35 36 37 38
DONOR_HYDROGENS      STATIC     ATOMS    <user>   **** ""
2 21 22
ATOM$BLUE        STATIC     ATOMS    COLORGROUP SYSTEM
7 32 33 34 35 36 37 38
ATOM$RED        STATIC     ATOMS    COLORGROUP SYSTEM
2 21 22
