AV-unprocessed.smi:760|AV-procd|sdf|3629|dock10
  -GOLD-   22720 1 23D 1   1.00000     0.00000
 Structure written by MMmdl.
 43 44  0  0  0  0  0  0  0  0  1 V2000
  142.3532  135.9878  154.1200 C   0  0  0  0  0  0  0  0  0  0  0  0
  142.6244  135.2767  153.0134 C   0  0  0  0  0  0  0  0  0  0  0  0
  141.8086  134.0577  152.6214 C   0  0  0  0  0  0  0  0  0  0  0  0
  143.7868  135.6357  152.0993 C   0  0  0  0  0  0  0  0  0  0  0  0
  144.6902  134.5200  151.8071 N   0  0  0  0  0  0  0  0  0  0  0  0
  144.1604  133.6057  150.7903 C   0  0  0  0  0  0  0  0  0  0  0  0
  145.1697  132.4842  150.4868 C   0  0  0  0  0  0  0  0  0  0  0  0
  145.5349  131.6996  151.7546 C   0  0  0  0  0  0  0  0  0  0  0  0
  146.5876  130.7345  151.4524 N   0  0  0  0  0  0  0  0  0  0  0  0
  146.5286  129.4195  151.7053 C   0  0  0  0  0  0  0  0  0  0  0  0
  145.5594  128.8683  152.2277 O   0  0  0  0  0  0  0  0  0  0  0  0
  147.6548  128.7984  151.3184 N   0  0  0  0  0  0  0  0  0  0  0  0
  147.9594  127.4182  151.4299 C   0  0  0  0  0  0  0  0  0  0  0  0
  147.7287  126.6298  152.5872 C   0  0  0  0  0  0  0  0  0  0  0  0
  148.1131  125.3766  152.3978 N   0  0  0  0  0  0  0  0  0  0  0  0
  148.5888  125.3439  151.1291 N   0  0  0  0  0  0  0  0  0  0  0  0
  149.0983  124.0988  150.5957 C   0  0  0  0  0  0  0  0  0  0  0  0
  148.5108  126.5743  150.5076 C   0  0  0  0  0  0  0  0  0  0  0  0
  145.9912  132.6893  152.8391 C   0  0  0  0  0  0  0  0  0  0  0  0
  144.9424  133.7935  153.0539 C   0  0  0  0  0  0  0  0  0  0  0  0
  141.5334  135.7235  154.7720 H   0  0  0  0  0  0  0  0  0  0  0  0
  142.9492  136.8477  154.3892 H   0  0  0  0  0  0  0  0  0  0  0  0
  142.4384  133.1679  152.6365 H   0  0  0  0  0  0  0  0  0  0  0  0
  141.3940  134.1606  151.6194 H   0  0  0  0  0  0  0  0  0  0  0  0
  140.9810  133.8962  153.3130 H   0  0  0  0  0  0  0  0  0  0  0  0
  143.3698  135.9985  151.1586 H   0  0  0  0  0  0  0  0  0  0  0  0
  144.3409  136.4686  152.5354 H   0  0  0  0  0  0  0  0  0  0  0  0
  143.2100  133.1855  151.1228 H   0  0  0  0  0  0  0  0  0  0  0  0
  143.9716  134.1450  149.8630 H   0  0  0  0  0  0  0  0  0  0  0  0
  144.7543  131.8096  149.7372 H   0  0  0  0  0  0  0  0  0  0  0  0
  146.0678  132.9200  150.0459 H   0  0  0  0  0  0  0  0  0  0  0  0
  144.6453  131.1703  152.1021 H   0  0  0  0  0  0  0  0  0  0  0  0
  147.4241  131.0977  151.0197 H   0  0  0  0  0  0  0  0  0  0  0  0
  148.3717  129.3741  150.9017 H   0  0  0  0  0  0  0  0  0  0  0  0
  147.3050  126.9181  153.5379 H   0  0  0  0  0  0  0  0  0  0  0  0
  149.3644  124.2226  149.5455 H   0  0  0  0  0  0  0  0  0  0  0  0
  148.3378  123.3215  150.6788 H   0  0  0  0  0  0  0  0  0  0  0  0
  149.9849  123.7947  151.1531 H   0  0  0  0  0  0  0  0  0  0  0  0
  148.8468  126.7278  149.4927 H   0  0  0  0  0  0  0  0  0  0  0  0
  146.1665  132.1647  153.7788 H   0  0  0  0  0  0  0  0  0  0  0  0
  146.9423  133.1431  152.5558 H   0  0  0  0  0  0  0  0  0  0  0  0
  145.3061  134.4856  153.8145 H   0  0  0  0  0  0  0  0  0  0  0  0
  144.0136  133.3629  153.4318 H   0  0  0  0  0  0  0  0  0  0  0  0
  1  2  2  0  0  0  0
  1 21  1  0  0  0  0
  1 22  1  0  0  0  0
  2  3  1  0  0  0  0
  2  4  1  0  0  0  0
  3 23  1  0  0  0  0
  3 24  1  0  0  0  0
  3 25  1  0  0  0  0
  4  5  1  0  0  0  0
  4 26  1  0  0  0  0
  4 27  1  0  0  0  0
  5 20  1  0  0  0  0
  5  6  1  0  0  0  0
  6  7  1  0  0  0  0
  6 28  1  0  0  0  0
  6 29  1  0  0  0  0
  7  8  1  0  0  0  0
  7 30  1  0  0  0  0
  7 31  1  0  0  0  0
  8  9  1  0  0  0  0
  8 19  1  0  0  0  0
  8 32  1  0  0  0  0
  9 10  1  0  0  0  0
  9 33  1  0  0  0  0
 10 11  2  0  0  0  0
 10 12  1  0  0  0  0
 12 13  1  0  0  0  0
 12 34  1  0  0  0  0
 13 18  2  0  0  0  0
 13 14  1  0  0  0  0
 14 15  2  0  0  0  0
 14 35  1  0  0  0  0
 15 16  1  0  0  0  0
 16 17  1  0  0  0  0
 16 18  1  0  0  0  0
 17 36  1  0  0  0  0
 17 37  1  0  0  0  0
 17 38  1  0  0  0  0
 18 39  1  0  0  0  0
 19 20  1  0  0  0  0
 19 40  1  0  0  0  0
 19 41  1  0  0  0  0
 20 42  1  0  0  0  0
 20 43  1  0  0  0  0
M  END
> <s_m_source_file>
AV-unprocessed.smi

> <i_m_source_file_index>
760

> <i_lp_mmshare_version>
43012

> <i_f3d_flags>
0

> <s_epik_input>
W0NIMl09QyhbQ0gzXSlbQ0gyXU4xW0NIMl1bQ0gyXVtDSF0oW0NIMl1bQ0gyXTEpW05IXUMoPU8pW05IXWMyW2NIXW5uKFtDSDNdKVtjSF0y

> <s_epik_cmdline>
J2VwaWtfcHl0aG9uJywgJy1waCcsICc3LjAnLCAnLXRuJywgJzgnLCAnLW1hJywgJzIwMCcsICctbWV0YWxfYmluZGluZycsICctaW1hZScsICc8aW5maWxlLm1hZT4nLCAnLW9tYWUnLCAnPG91dGZpbGUubWFlPic=

> <r_lp_tautomer_probability>
1

> <r_epik_Ionization_Penalty>
2.03709

> <r_epik_Ionization_Penalty_Charging>
0

> <r_epik_Ionization_Penalty_Neutral>
2.03709

> <r_epik_State_Penalty>
2.16834

> <r_epik_Charging_Adjusted_Penalty>
2.16834

> <i_epik_Tot_Q>
0

> <i_epik_Tot_abs_Q>
0

> <r_epik_Metal_State_Penalty>
2.16831

> <b_epik_Metal_Only>
0

> <s_lp_Force_Field>
OPLS_2005

> <r_lp_Energy>
20.5491

> <b_lp_Chiralities_Consistent>
1

> <s_lp_Variant>
AV-unprocessed.smi:760-3

> <Gold.Version>
5.8.1

> <Gold.Id.Protein>
6NUR|6NUR_protein|mol2

> <Gold.PLP.Fitness>
41.6145

> <Gold.PLP.PLP>
-37.3063

> <Gold.PLP.part.hbond>
-2.6422

> <Gold.PLP.part.metal>
0.0000

> <Gold.PLP.part.buried>
-5.6248

> <Gold.PLP.part.nonpolar>
-29.1529

> <Gold.PLP.part.repulsive>
0.4073

> <Gold.PLP.ligand.clash>
0.0000

> <Gold.PLP.ligand.torsion>
0.6315

> <Gold.PLP.Chemscore.Hbond>
1.8500

> <Gold.PLP.Chemscore.CHOScore>
0.0000

> <Gold.PLP.Chemscore.Metal>
0.0000

> <Gold.Chemscore.Hbonds>
donor molecule, donor type, donor heavy atom, donor atom, acceptor molecule, acceptor atom, score
      L1  H     9    33       P1 10747  1.00
      L1  H    12    34       P1 10747  0.80

> <Gold.PLP.Chemscore.Internal.Correction>
0.0213

> <Gold.Rescore>
     Score         DG    S(hbond)    S(metal)    S(lipo)     H(rot)  DE(clash)    DE(int)     intcor
     13.27     -14.78       1.01        0.00      80.24       1.35       0.11       1.39       ----

> <Gold.Chemscore.Fitness>
13.2747

> <Gold.Chemscore.DG>
-14.7810

> <Gold.Chemscore.ZeroCoef>
-5.4800

> <Gold.Chemscore.Hbond>
1.0081

> <Gold.Chemscore.Metal>
0.0000

> <Gold.Chemscore.Lipo>
80.2359

> <Gold.Chemscore.Internal_Hbond>
0.0000

> <Gold.Chemscore.DEClash>
0.1125

> <Gold.Chemscore.DEInternal>
1.3938

> <Gold.Chemscore.Rot>
1.3491

> <Gold.Chemscore.Internal.Correction>
   9.000000E+99

> <Gold.Chemscore.Hbonds>
donor molecule, donor type, donor heavy atom, donor atom, acceptor molecule, acceptor atom, score
      L1  H     9    33       P1 10747  0.94
      L1  H    12    34       P1 10747  0.12

> <Gold.Chemscore.Hbond.Weighted>
-3.3672

> <Gold.Chemscore.Metal.Weighted>
-0.0000

> <Gold.Chemscore.Lipo.Weighted>
-9.3876

> <Gold.Chemscore.Internal_Hbond.Weighted>
0.0000

> <Gold.Chemscore.DEClash.Weighted>
0.1125

> <Gold.Chemscore.DEInternal.Weighted>
1.3938

> <Gold.Chemscore.Rot.Weighted>
3.4538

> <Gold.Chemscore.Internal.Correction.Weighted>
   9.000000E+99

> <Gold.Protein.RotatedTorsions>
[ 6907 6896 6895 6894 ] final -111.08 input  -60.11 | X-H torsion
[ 7974 7965 7964 7962 ] final  142.93 input  175.53 | X-H torsion
[ 8008 7997 7996 7995 ] final -149.26 input   59.86 | X-H torsion
[ 10167 10162 10161 10158 ] final  -55.94 input  -65.29 | X-H torsion
[ 10718 10713 10712 10709 ] final  -38.95 input   66.30 | X-H torsion
[ 10763 10752 10751 10750 ] final   -1.72 input  -60.55 | X-H torsion
[ 11005 11000 10999 10996 ] final -144.02 input  -57.11 | X-H torsion

> <Gold.Protein.ActiveResidues>
 VAL166  LYS551  ARG553  GLY616  TRP617  ASP618  TYR619  PRO620  LYS621  CYS622 
 ASP623  PHE694  ASN695  SER759  ASP760  ASP761  ALA762  ILE779  LEU786  VAL792 
 PHE793  MET794  SER795  GLU796  ALA797  LYS798  CYS799  TRP800  GLU811  SER814 

> <Gold.Protein.RotatedAtoms>
  150.7666  133.9288  159.3420 H   0  0  0  0  0  0  0  0  0  0  0  0  # atno 6907 bound_to 6896
  151.7184  135.0897  160.0289 H   0  0  0  0  0  0  0  0  0  0  0  0  # atno 6908 bound_to 6896
  152.3665  133.6326  159.6090 H   0  0  0  0  0  0  0  0  0  0  0  0  # atno 6909 bound_to 6896
  144.8965  139.5484  143.5774 H   0  0  0  0  0  0  0  0  0  0  0  0  # atno 7974 bound_to 7965
  155.6048  140.0665  157.2723 H   0  0  0  0  0  0  0  0  0  0  0  0  # atno 8008 bound_to 7997
  154.4269  140.1812  156.1258 H   0  0  0  0  0  0  0  0  0  0  0  0  # atno 8009 bound_to 7997
  156.0131  140.3324  155.6964 H   0  0  0  0  0  0  0  0  0  0  0  0  # atno 8010 bound_to 7997
  140.6346  143.2475  151.5153 H   0  0  0  0  0  0  0  0  0  0  0  0  # atno 10167 bound_to 10162
  156.2979  130.4236  149.8172 H   0  0  0  0  0  0  0  0  0  0  0  0  # atno 10718 bound_to 10713
  153.3485  135.6984  153.6808 H   0  0  0  0  0  0  0  0  0  0  0  0  # atno 10763 bound_to 10752
  153.5544  135.3547  155.2773 H   0  0  0  0  0  0  0  0  0  0  0  0  # atno 10764 bound_to 10752
  154.8649  135.4234  154.2715 H   0  0  0  0  0  0  0  0  0  0  0  0  # atno 10765 bound_to 10752
  140.8067  134.2793  157.4957 H   0  0  0  0  0  0  0  0  0  0  0  0  # atno 11005 bound_to 11000
  146.3084  139.7660  142.9038 LP  0  0  0  0  0  0  0  0  0  0  0  0  # atno 17320 bound_to 7965
  145.3691  141.0339  143.3241 LP  0  0  0  0  0  0  0  0  0  0  0  0  # atno 17321 bound_to 7965
  139.5557  144.2282  152.1608 LP  0  0  0  0  0  0  0  0  0  0  0  0  # atno 17342 bound_to 10162
  140.1535  144.5093  150.6674 LP  0  0  0  0  0  0  0  0  0  0  0  0  # atno 17343 bound_to 10162
  156.5561  130.8363  151.3314 LP  0  0  0  0  0  0  0  0  0  0  0  0  # atno 17370 bound_to 10713
  157.7360  130.9772  150.2113 LP  0  0  0  0  0  0  0  0  0  0  0  0  # atno 17371 bound_to 10713
  139.8717  134.9460  156.3925 LP  0  0  0  0  0  0  0  0  0  0  0  0  # atno 17394 bound_to 11000
  140.9240  133.7625  155.9941 LP  0  0  0  0  0  0  0  0  0  0  0  0  # atno 17395 bound_to 11000

$$$$
