AV-unprocessed.smi:1887|AV-procd|sdf|7655|dock8
  -GOLD-   22720 9393D 1   1.00000     0.00000
 Structure written by MMmdl.
 44 46  0  0  0  0  0  0  0  0  1 V2000
  153.7148  138.3542  159.5260 C   0  0  0  0  0  0  0  0  0  0  0  0
  153.6472  138.9774  158.2565 O   0  0  0  0  0  0  0  0  0  0  0  0
  152.3355  138.9846  157.7186 C   0  0  0  0  0  0  0  0  0  0  0  0
  152.3638  139.5809  156.3047 C   0  0  0  0  0  0  0  0  0  0  0  0
  151.0949  140.2102  155.9489 N   0  0  0  0  0  0  0  0  0  0  0  0
  150.5538  141.3561  156.4386 C   0  0  0  0  0  0  0  0  0  0  0  0
  151.2153  142.1268  157.4174 N   0  0  0  0  0  0  0  0  0  0  0  0
  151.6908  141.5382  158.5343 N   0  0  0  0  0  0  0  0  0  0  0  0
  152.2281  142.5225  159.2345 C   0  0  0  0  0  0  0  0  0  0  0  0
  152.8752  142.2072  160.5523 C   0  0  0  0  0  0  0  0  0  0  0  0
  152.0942  143.7861  158.5883 C   0  0  0  0  0  0  0  0  0  0  0  0
  152.5709  145.1236  159.0851 C   0  0  0  0  0  0  0  0  0  0  0  0
  151.4364  143.4923  157.4244 C   0  0  0  0  0  0  0  0  0  0  0  0
  150.9930  144.3881  156.3107 C   0  0  0  0  0  0  0  0  0  0  0  0
  149.3811  141.7016  155.9001 N   0  0  0  0  0  0  0  0  0  0  0  0
  149.1513  140.6818  154.9878 C   0  0  0  0  0  0  0  0  0  0  0  0
  150.1693  139.7833  154.9976 C   0  0  0  0  0  0  0  0  0  0  0  0
  150.1997  138.6142  154.1103 C   0  0  0  0  0  0  0  0  0  0  0  0
  151.1172  137.7964  154.0985 O   0  0  0  0  0  0  0  0  0  0  0  0
  149.1158  138.5344  153.3007 N   0  0  0  0  0  0  0  0  0  0  0  0
  148.0580  139.3999  153.2397 C   0  0  0  0  0  0  0  0  0  0  0  0
  147.1429  139.1970  152.4420 O   0  0  0  0  0  0  0  0  0  0  0  0
  148.0670  140.4789  154.0867 N   0  0  0  0  0  0  0  0  0  0  0  0
  146.9615  141.4384  154.0616 C   0  0  0  0  0  0  0  0  0  0  0  0
  149.0868  137.7486  152.6676 H   0  0  0  0  0  0  0  0  0  0  0  0
  154.7417  138.3810  159.8908 H   0  0  0  0  0  0  0  0  0  0  0  0
  153.4047  137.3101  159.4694 H   0  0  0  0  0  0  0  0  0  0  0  0
  153.0851  138.8693  160.2525 H   0  0  0  0  0  0  0  0  0  0  0  0
  151.9376  137.9691  157.6899 H   0  0  0  0  0  0  0  0  0  0  0  0
  151.6755  139.5757  158.3551 H   0  0  0  0  0  0  0  0  0  0  0  0
  153.1620  140.3169  156.2162 H   0  0  0  0  0  0  0  0  0  0  0  0
  152.6052  138.8032  155.5821 H   0  0  0  0  0  0  0  0  0  0  0  0
  153.2205  143.1103  161.0553 H   0  0  0  0  0  0  0  0  0  0  0  0
  153.7382  141.5548  160.4173 H   0  0  0  0  0  0  0  0  0  0  0  0
  152.1776  141.7034  161.2218 H   0  0  0  0  0  0  0  0  0  0  0  0
  152.1297  145.9503  158.5285 H   0  0  0  0  0  0  0  0  0  0  0  0
  153.6533  145.2199  158.9996 H   0  0  0  0  0  0  0  0  0  0  0  0
  152.3157  145.2782  160.1336 H   0  0  0  0  0  0  0  0  0  0  0  0
  151.6505  145.2526  156.2199 H   0  0  0  0  0  0  0  0  0  0  0  0
  149.9804  144.7500  156.4891 H   0  0  0  0  0  0  0  0  0  0  0  0
  151.0014  143.8703  155.3515 H   0  0  0  0  0  0  0  0  0  0  0  0
  146.0069  140.9314  154.2114 H   0  0  0  0  0  0  0  0  0  0  0  0
  146.9274  141.9525  153.1001 H   0  0  0  0  0  0  0  0  0  0  0  0
  147.0484  142.1986  154.8378 H   0  0  0  0  0  0  0  0  0  0  0  0
  1  2  1  0  0  0  0
  1 26  1  0  0  0  0
  1 27  1  0  0  0  0
  1 28  1  0  0  0  0
  2  3  1  0  0  0  0
  3  4  1  0  0  0  0
  3 29  1  0  0  0  0
  3 30  1  0  0  0  0
  4  5  1  0  0  0  0
  4 31  1  0  0  0  0
  4 32  1  0  0  0  0
  5 17  1  0  0  0  0
  5  6  1  0  0  0  0
  6  7  1  0  0  0  0
  6 15  2  0  0  0  0
  7 13  1  0  0  0  0
  7  8  1  0  0  0  0
  8  9  2  0  0  0  0
  9 10  1  0  0  0  0
  9 11  1  0  0  0  0
 10 33  1  0  0  0  0
 10 34  1  0  0  0  0
 10 35  1  0  0  0  0
 11 12  1  0  0  0  0
 11 13  2  0  0  0  0
 12 36  1  0  0  0  0
 12 37  1  0  0  0  0
 12 38  1  0  0  0  0
 13 14  1  0  0  0  0
 14 39  1  0  0  0  0
 14 40  1  0  0  0  0
 14 41  1  0  0  0  0
 15 16  1  0  0  0  0
 16 23  1  0  0  0  0
 16 17  2  0  0  0  0
 17 18  1  0  0  0  0
 18 19  2  0  0  0  0
 18 20  1  0  0  0  0
 20 25  1  0  0  0  0
 20 21  1  0  0  0  0
 21 22  2  0  0  0  0
 21 23  1  0  0  0  0
 23 24  1  0  0  0  0
 24 42  1  0  0  0  0
 24 43  1  0  0  0  0
 24 44  1  0  0  0  0
M  END
> <s_m_source_file>
AV-unprocessed.smi

> <i_m_source_file_index>
1887

> <i_lp_mmshare_version>
43012

> <i_f3d_flags>
0

> <s_epik_input>
W0NIM11uMWMoPU8pW25IXWMoPU8pYyhjMTIpbihbQ0gyXVtDSDJdT1tDSDNdKWMobjIpLW4zbmMoW0NIM10pYyhbQ0gzXSljM1tDSDNd

> <s_epik_cmdline>
J2VwaWtfcHl0aG9uJywgJy1waCcsICc3LjAnLCAnLXRuJywgJzgnLCAnLW1hJywgJzIwMCcsICctbWV0YWxfYmluZGluZycsICctaW1hZScsICc8aW5maWxlLm1hZT4nLCAnLW9tYWUnLCAnPG91dGZpbGUubWFlPic=

> <r_lp_tautomer_probability>
1

> <r_epik_Ionization_Penalty>
0.00244877

> <r_epik_Ionization_Penalty_Charging>
0.000731299

> <r_epik_Ionization_Penalty_Neutral>
0.00171747

> <r_epik_State_Penalty>
-0

> <r_epik_Charging_Adjusted_Penalty>
0.000731299

> <i_epik_Tot_Q>
0

> <i_epik_Tot_abs_Q>
0

> <r_epik_Metal_State_Penalty>
0.260296

> <b_epik_Metal_Only>
0

> <s_lp_Force_Field>
OPLS_2005

> <r_lp_Energy>
24.2445

> <b_lp_Chiralities_Consistent>
1

> <s_lp_Variant>
AV-unprocessed.smi:1887-1

> <Gold.Version>
5.8.1

> <Gold.Id.Protein>
6NUR|6NUR_protein|mol2

> <Gold.PLP.Fitness>
43.8405

> <Gold.PLP.PLP>
-39.6593

> <Gold.PLP.part.hbond>
-3.0000

> <Gold.PLP.part.metal>
0.0000

> <Gold.PLP.part.buried>
2.4188

> <Gold.PLP.part.nonpolar>
-41.3908

> <Gold.PLP.part.repulsive>
2.6811

> <Gold.PLP.ligand.clash>
0.0000

> <Gold.PLP.ligand.torsion>
1.0930

> <Gold.PLP.Chemscore.Hbond>
2.0000

> <Gold.PLP.Chemscore.CHOScore>
0.0000

> <Gold.PLP.Chemscore.Metal>
0.0000

> <Gold.Chemscore.Hbonds>
donor molecule, donor type, donor heavy atom, donor atom, acceptor molecule, acceptor atom, score
      L1  H    20    25       P1  7948  1.00
      P1  H  7997  8010       L1     2  1.00

> <Gold.PLP.Chemscore.Internal.Correction>
0.3672

> <Gold.Rescore>
     Score         DG    S(hbond)    S(metal)    S(lipo)     H(rot)  DE(clash)    DE(int)     intcor
     13.85     -19.79       1.94        0.00      99.70       1.50       2.52       3.42       ----

> <Gold.Chemscore.Fitness>
13.8523

> <Gold.Chemscore.DG>
-19.7884

> <Gold.Chemscore.ZeroCoef>
-5.4800

> <Gold.Chemscore.Hbond>
1.9423

> <Gold.Chemscore.Metal>
0.0000

> <Gold.Chemscore.Lipo>
99.6993

> <Gold.Chemscore.Internal_Hbond>
0.0000

> <Gold.Chemscore.DEClash>
2.5159

> <Gold.Chemscore.DEInternal>
3.4202

> <Gold.Chemscore.Rot>
1.5014

> <Gold.Chemscore.Internal.Correction>
   9.000000E+99

> <Gold.Chemscore.Hbonds>
donor molecule, donor type, donor heavy atom, donor atom, acceptor molecule, acceptor atom, score
      L1  H    20    25       P1  7948  0.99
      P1  H  7997  8010       L1     2  0.74

> <Gold.Chemscore.Hbond.Weighted>
-6.4872

> <Gold.Chemscore.Metal.Weighted>
-0.0000

> <Gold.Chemscore.Lipo.Weighted>
-11.6648

> <Gold.Chemscore.Internal_Hbond.Weighted>
0.0000

> <Gold.Chemscore.DEClash.Weighted>
2.5159

> <Gold.Chemscore.DEInternal.Weighted>
3.4202

> <Gold.Chemscore.Rot.Weighted>
3.8437

> <Gold.Chemscore.Internal.Correction.Weighted>
   9.000000E+99

> <Gold.Protein.RotatedTorsions>
[ 6907 6896 6895 6894 ] final   58.87 input  -60.11 | X-H torsion
[ 7974 7965 7964 7962 ] final   -3.51 input  175.53 | X-H torsion
[ 8008 7997 7996 7995 ] final   19.60 input   59.86 | X-H torsion
[ 10167 10162 10161 10158 ] final   77.87 input  -65.29 | X-H torsion
[ 10718 10713 10712 10709 ] final  144.69 input   66.30 | X-H torsion
[ 10763 10752 10751 10750 ] final   47.82 input  -60.55 | X-H torsion
[ 11005 11000 10999 10996 ] final   77.25 input  -57.11 | X-H torsion

> <Gold.Protein.ActiveResidues>
 VAL166  LYS551  ARG553  GLY616  TRP617  ASP618  TYR619  PRO620  LYS621  CYS622 
 ASP623  PHE694  ASN695  SER759  ASP760  ASP761  ALA762  ILE779  LEU786  VAL792 
 PHE793  MET794  SER795  GLU796  ALA797  LYS798  CYS799  TRP800  GLU811  SER814 

> <Gold.Protein.RotatedAtoms>
  152.3863  134.6512  160.0124 H   0  0  0  0  0  0  0  0  0  0  0  0  # atno 6907 bound_to 6896
  151.6759  133.3307  159.3216 H   0  0  0  0  0  0  0  0  0  0  0  0  # atno 6908 bound_to 6896
  150.7789  134.6759  159.6462 H   0  0  0  0  0  0  0  0  0  0  0  0  # atno 6909 bound_to 6896
  146.2388  140.1733  142.8332 H   0  0  0  0  0  0  0  0  0  0  0  0  # atno 7974 bound_to 7965
  154.9231  140.3030  155.5206 H   0  0  0  0  0  0  0  0  0  0  0  0  # atno 8008 bound_to 7997
  156.3008  140.2367  156.4220 H   0  0  0  0  0  0  0  0  0  0  0  0  # atno 8009 bound_to 7997
  154.8311  140.0418  157.1466 H   0  0  0  0  0  0  0  0  0  0  0  0  # atno 8010 bound_to 7997
  139.9770  144.5854  150.7934 H   0  0  0  0  0  0  0  0  0  0  0  0  # atno 10167 bound_to 10162
  157.3542  131.0955  151.0973 H   0  0  0  0  0  0  0  0  0  0  0  0  # atno 10718 bound_to 10713
  152.9796  135.5964  154.3826 H   0  0  0  0  0  0  0  0  0  0  0  0  # atno 10763 bound_to 10752
  154.3489  135.2767  155.2385 H   0  0  0  0  0  0  0  0  0  0  0  0  # atno 10764 bound_to 10752
  154.4433  135.6008  153.6198 H   0  0  0  0  0  0  0  0  0  0  0  0  # atno 10765 bound_to 10752
  139.9263  134.7667  156.1498 H   0  0  0  0  0  0  0  0  0  0  0  0  # atno 11005 bound_to 11000
  144.9994  140.8618  143.5291 LP  0  0  0  0  0  0  0  0  0  0  0  0  # atno 17320 bound_to 7965
  145.1750  139.2383  143.5322 LP  0  0  0  0  0  0  0  0  0  0  0  0  # atno 17321 bound_to 7965
  140.7502  143.2952  151.3224 LP  0  0  0  0  0  0  0  0  0  0  0  0  # atno 17342 bound_to 10162
  139.6438  144.0489  152.2575 LP  0  0  0  0  0  0  0  0  0  0  0  0  # atno 17343 bound_to 10162
  157.2137  130.6449  149.5784 LP  0  0  0  0  0  0  0  0  0  0  0  0  # atno 17370 bound_to 10713
  155.9726  130.4651  150.6243 LP  0  0  0  0  0  0  0  0  0  0  0  0  # atno 17371 bound_to 10713
  141.0822  133.6749  156.2360 LP  0  0  0  0  0  0  0  0  0  0  0  0  # atno 17394 bound_to 11000
  140.6328  134.5246  157.5561 LP  0  0  0  0  0  0  0  0  0  0  0  0  # atno 17395 bound_to 11000

$$$$
