AV-unprocessed.smi:252|AV-procd|sdf|1942|dock4
  -GOLD-   2262021 73D 1   1.00000     0.00000
 Structure written by MMmdl.
 56 59  0  0  0  0  0  0  0  0  1 V2000
  152.2765  144.9821  158.5289 C   0  0  0  0  0  0  0  0  0  0  0  0
  150.8928  144.3195  158.4420 C   0  0  0  0  0  0  0  0  0  0  0  0
  150.9208  142.9103  157.8408 C   0  0  0  0  0  0  0  0  0  0  0  0
  151.5746  142.0086  158.3659 O   0  0  0  0  0  0  0  0  0  0  0  0
  150.1935  142.7381  156.7270 N   0  0  0  0  0  0  0  0  0  0  0  0
  150.0579  141.4864  155.9897 C   0  0  2  0  0  0  0  0  0  0  0  0
  149.1673  141.6787  154.7461 C   0  0  0  0  0  0  0  0  0  0  0  0
  148.9318  140.3346  154.0413 C   0  0  0  0  0  0  0  0  0  0  0  0
  148.3598  139.2939  155.0168 C   0  0  0  0  0  0  0  0  0  0  0  0
  149.2153  139.1657  156.1973 N   0  0  0  0  0  0  0  0  0  0  0  0
  149.0289  138.0850  156.9962 C   0  0  0  0  0  0  0  0  0  0  0  0
  149.9742  137.1086  157.0514 N   0  0  0  0  0  0  0  0  0  0  0  0
  149.7909  136.0360  157.8269 C   0  0  0  0  0  0  0  0  0  0  0  0
  148.7558  135.7439  158.6164 N   0  0  0  0  0  0  0  0  0  0  0  0
  147.8055  136.7207  158.5684 C   0  0  0  0  0  0  0  0  0  0  0  0
  147.8635  137.9147  157.7953 C   0  0  0  0  0  0  0  0  0  0  0  0
  146.7244  138.6790  158.0193 N   0  0  0  0  0  0  0  0  0  0  0  0
  146.0311  137.9752  158.8718 C   0  0  0  0  0  0  0  0  0  0  0  0
  146.5994  136.7779  159.2452 N   0  0  0  0  0  0  0  0  0  0  0  0
  146.0485  135.8052  160.1759 C   0  0  0  0  0  0  0  0  0  0  0  0
  146.2749  136.1577  161.6723 C   0  0  2  0  0  0  0  0  0  0  0  0
  146.1367  137.5535  161.8588 O   0  0  0  0  0  0  0  0  0  0  0  0
  147.6297  135.7182  162.2145 C   0  0  0  0  0  0  0  0  0  0  0  0
  147.3895  134.2517  162.5608 C   0  0  0  0  0  0  0  0  0  0  0  0
  146.0095  134.1575  162.9025 O   0  0  0  0  0  0  0  0  0  0  0  0
  145.3517  135.3948  162.6417 C   0  0  2  0  0  0  0  0  0  0  0  0
  143.9070  135.1562  162.1786 C   0  0  0  0  0  0  0  0  0  0  0  0
  149.4659  140.4120  156.9199 C   0  0  0  0  0  0  0  0  0  0  0  0
  152.1947  145.9907  158.9345 H   0  0  0  0  0  0  0  0  0  0  0  0
  152.7438  145.0590  157.5465 H   0  0  0  0  0  0  0  0  0  0  0  0
  152.9469  144.4199  159.1799 H   0  0  0  0  0  0  0  0  0  0  0  0
  150.4510  144.2632  159.4373 H   0  0  0  0  0  0  0  0  0  0  0  0
  150.2314  144.9436  157.8397 H   0  0  0  0  0  0  0  0  0  0  0  0
  149.6885  143.5342  156.3655 H   0  0  0  0  0  0  0  0  0  0  0  0
  151.0459  141.1485  155.6699 H   0  0  0  0  0  0  0  0  0  0  0  0
  148.2078  142.1073  155.0386 H   0  0  0  0  0  0  0  0  0  0  0  0
  149.6265  142.3843  154.0530 H   0  0  0  0  0  0  0  0  0  0  0  0
  148.2545  140.4671  153.1974 H   0  0  0  0  0  0  0  0  0  0  0  0
  149.8736  139.9694  153.6295 H   0  0  0  0  0  0  0  0  0  0  0  0
  147.3563  139.5879  155.3283 H   0  0  0  0  0  0  0  0  0  0  0  0
  148.2729  138.3317  154.5103 H   0  0  0  0  0  0  0  0  0  0  0  0
  150.5867  135.3058  157.8112 H   0  0  0  0  0  0  0  0  0  0  0  0
  145.0757  138.3093  159.2499 H   0  0  0  0  0  0  0  0  0  0  0  0
  144.9823  135.7124  159.9666 H   0  0  0  0  0  0  0  0  0  0  0  0
  146.4875  134.8342  159.9442 H   0  0  0  0  0  0  0  0  0  0  0  0
  146.3095  137.7544  162.7658 H   0  0  0  0  0  0  0  0  0  0  0  0
  148.4673  135.8684  161.5349 H   0  0  0  0  0  0  0  0  0  0  0  0
  147.8623  136.2607  163.1328 H   0  0  0  0  0  0  0  0  0  0  0  0
  147.5802  133.6160  161.6955 H   0  0  0  0  0  0  0  0  0  0  0  0
  148.0254  133.9096  163.3775 H   0  0  0  0  0  0  0  0  0  0  0  0
  145.3255  135.9283  163.5940 H   0  0  0  0  0  0  0  0  0  0  0  0
  143.4106  136.0982  161.9444 H   0  0  0  0  0  0  0  0  0  0  0  0
  143.3295  134.6625  162.9603 H   0  0  0  0  0  0  0  0  0  0  0  0
  143.8651  134.5215  161.2934 H   0  0  0  0  0  0  0  0  0  0  0  0
  150.1404  140.2524  157.7609 H   0  0  0  0  0  0  0  0  0  0  0  0
  148.5217  140.7612  157.3407 H   0  0  0  0  0  0  0  0  0  0  0  0
  1  2  1  0  0  0  0
  1 29  1  0  0  0  0
  1 30  1  0  0  0  0
  1 31  1  0  0  0  0
  2  3  1  0  0  0  0
  2 32  1  0  0  0  0
  2 33  1  0  0  0  0
  3  4  2  0  0  0  0
  3  5  1  0  0  0  0
  5  6  1  0  0  0  0
  5 34  1  0  0  0  0
  6 28  1  0  0  0  0
  6  7  1  0  0  0  0
  6 35  1  0  0  0  0
  7  8  1  0  0  0  0
  7 36  1  0  0  0  0
  7 37  1  0  0  0  0
  8  9  1  0  0  0  0
  8 38  1  0  0  0  0
  8 39  1  0  0  0  0
  9 10  1  0  0  0  0
  9 40  1  0  0  0  0
  9 41  1  0  0  0  0
 10 11  1  0  0  0  0
 10 28  1  0  0  0  0
 11 16  1  0  0  0  0
 11 12  2  0  0  0  0
 12 13  1  0  0  0  0
 13 14  2  0  0  0  0
 13 42  1  0  0  0  0
 14 15  1  0  0  0  0
 15 19  1  0  0  0  0
 15 16  2  0  0  0  0
 16 17  1  0  0  0  0
 17 18  2  0  0  0  0
 18 19  1  0  0  0  0
 18 43  1  0  0  0  0
 19 20  1  0  0  0  0
 20 21  1  0  0  0  0
 20 44  1  0  0  0  0
 20 45  1  0  0  0  0
 21 26  1  0  0  0  0
 21 22  1  0  0  0  0
 21 23  1  0  0  0  0
 22 46  1  0  0  0  0
 23 24  1  0  0  0  0
 23 47  1  0  0  0  0
 23 48  1  0  0  0  0
 24 25  1  0  0  0  0
 24 49  1  0  0  0  0
 24 50  1  0  0  0  0
 25 26  1  0  0  0  0
 26 27  1  0  0  0  0
 26 51  1  0  0  0  0
 27 52  1  0  0  0  0
 27 53  1  0  0  0  0
 27 54  1  0  0  0  0
 28 55  1  0  0  0  0
 28 56  1  0  0  0  0
M  END
> <s_m_source_file>
AV-unprocessed.smi

> <i_m_source_file_index>
252

> <i_lp_mmshare_version>
43012

> <i_f3d_flags>
0

> <s_epik_input>
W0NIM11bQ0gyXUMoPU8pW05IXVtDQEBIXTFbQ0gyXVtDSDJdW0NIMl1OKFtDSDJdMSljKG5bY0hdbjIpYyhjMjMpbltjSF1uM1tDSDJdW0NAQF00KFtPSF0pW0NIMl1bQ0gyXU9bQ0BIXTRbQ0gzXQ==

> <s_epik_cmdline>
J2VwaWtfcHl0aG9uJywgJy1waCcsICc3LjAnLCAnLXRuJywgJzgnLCAnLW1hJywgJzIwMCcsICctbWV0YWxfYmluZGluZycsICctaW1hZScsICc8aW5maWxlLm1hZT4nLCAnLW9tYWUnLCAnPG91dGZpbGUubWFlPic=

> <r_lp_tautomer_probability>
1

> <r_epik_Ionization_Penalty>
0.00182575

> <r_epik_Ionization_Penalty_Charging>
0

> <r_epik_Ionization_Penalty_Neutral>
0.00182575

> <r_epik_State_Penalty>
0.00104524

> <r_epik_Charging_Adjusted_Penalty>
0.00104524

> <i_epik_Tot_Q>
0

> <i_epik_Tot_abs_Q>
0

> <r_epik_Metal_State_Penalty>
-0

> <b_epik_Metal_Only>
0

> <s_lp_Force_Field>
OPLS_2005

> <r_lp_Energy>
36.2255

> <b_lp_Chiralities_Consistent>
1

> <s_lp_Variant>
AV-unprocessed.smi:252-7

> <Gold.Version>
5.8.1

> <Gold.Id.Protein>
6NUR|6NUR_protein|mol2

> <Gold.PLP.Fitness>
44.2242

> <Gold.PLP.PLP>
-39.8824

> <Gold.PLP.part.hbond>
-2.7834

> <Gold.PLP.part.metal>
0.0000

> <Gold.PLP.part.buried>
-3.8650

> <Gold.PLP.part.nonpolar>
-32.8429

> <Gold.PLP.part.repulsive>
0.0820

> <Gold.PLP.ligand.clash>
0.0000

> <Gold.PLP.ligand.torsion>
0.8033

> <Gold.PLP.Chemscore.Hbond>
1.8480

> <Gold.PLP.Chemscore.CHOScore>
0.0000

> <Gold.PLP.Chemscore.Metal>
0.0000

> <Gold.Chemscore.Hbonds>
donor molecule, donor type, donor heavy atom, donor atom, acceptor molecule, acceptor atom, score
      L1  H     5    34       P1  8028  1.00
      P1  H  6934  6947       L1    22  0.85

> <Gold.PLP.Chemscore.Internal.Correction>
0.4042

> <Gold.Rescore>
     Score         DG    S(hbond)    S(metal)    S(lipo)     H(rot)  DE(clash)    DE(int)     intcor
     12.86     -15.21       1.60        0.00      96.61       2.70       0.46       1.89       ----

> <Gold.Chemscore.Fitness>
12.8621

> <Gold.Chemscore.DG>
-15.2105

> <Gold.Chemscore.ZeroCoef>
-5.4800

> <Gold.Chemscore.Hbond>
1.6017

> <Gold.Chemscore.Metal>
0.0000

> <Gold.Chemscore.Lipo>
96.6104

> <Gold.Chemscore.Internal_Hbond>
0.0000

> <Gold.Chemscore.DEClash>
0.4613

> <Gold.Chemscore.DEInternal>
1.8871

> <Gold.Chemscore.Rot>
2.7041

> <Gold.Chemscore.Internal.Correction>
   9.000000E+99

> <Gold.Chemscore.Hbonds>
donor molecule, donor type, donor heavy atom, donor atom, acceptor molecule, acceptor atom, score
      L1  H     5    34       P1  8028  0.98
      P1  H  6934  6947       L1    22  0.21

> <Gold.Chemscore.Hbond.Weighted>
-5.3495

> <Gold.Chemscore.Metal.Weighted>
-0.0000

> <Gold.Chemscore.Lipo.Weighted>
-11.3034

> <Gold.Chemscore.Internal_Hbond.Weighted>
0.0000

> <Gold.Chemscore.DEClash.Weighted>
0.4613

> <Gold.Chemscore.DEInternal.Weighted>
1.8871

> <Gold.Chemscore.Rot.Weighted>
6.9225

> <Gold.Chemscore.Internal.Correction.Weighted>
   9.000000E+99

> <Gold.Protein.RotatedTorsions>
[ 6907 6896 6895 6894 ] final  160.67 input  -60.11 | X-H torsion
[ 7974 7965 7964 7962 ] final   60.86 input  175.53 | X-H torsion
[ 8008 7997 7996 7995 ] final  130.87 input   59.86 | X-H torsion
[ 10167 10162 10161 10158 ] final   43.01 input  -65.29 | X-H torsion
[ 10718 10713 10712 10709 ] final -156.82 input   66.30 | X-H torsion
[ 10763 10752 10751 10750 ] final  -49.28 input  -60.55 | X-H torsion
[ 11005 11000 10999 10996 ] final -104.11 input  -57.11 | X-H torsion

> <Gold.Protein.ActiveResidues>
 VAL166  LYS551  ARG553  GLY616  TRP617  ASP618  TYR619  PRO620  LYS621  CYS622 
 ASP623  PHE694  ASN695  SER759  ASP760  ASP761  ALA762  ILE779  LEU786  VAL792 
 PHE793  MET794  SER795  GLU796  ALA797  LYS798  CYS799  TRP800  GLU811  SER814 

> <Gold.Protein.RotatedAtoms>
  151.9671  133.3714  159.4056 H   0  0  0  0  0  0  0  0  0  0  0  0  # atno 6907 bound_to 6896
  150.6955  134.4179  159.5201 H   0  0  0  0  0  0  0  0  0  0  0  0  # atno 6908 bound_to 6896
  152.1877  134.8699  160.0571 H   0  0  0  0  0  0  0  0  0  0  0  0  # atno 6909 bound_to 6896
  145.8912  139.3512  143.0648 H   0  0  0  0  0  0  0  0  0  0  0  0  # atno 7974 bound_to 7965
  156.2961  140.2585  156.2833 H   0  0  0  0  0  0  0  0  0  0  0  0  # atno 8008 bound_to 7997
  154.9580  140.0393  157.2195 H   0  0  0  0  0  0  0  0  0  0  0  0  # atno 8009 bound_to 7997
  154.7973  140.2822  155.5952 H   0  0  0  0  0  0  0  0  0  0  0  0  # atno 8010 bound_to 7997
  140.3487  144.2378  150.6148 H   0  0  0  0  0  0  0  0  0  0  0  0  # atno 10167 bound_to 10162
  156.5318  130.8524  151.2719 H   0  0  0  0  0  0  0  0  0  0  0  0  # atno 10718 bound_to 10713
  154.0916  135.6576  153.4853 H   0  0  0  0  0  0  0  0  0  0  0  0  # atno 10763 bound_to 10752
  153.0320  135.5204  154.7375 H   0  0  0  0  0  0  0  0  0  0  0  0  # atno 10764 bound_to 10752
  154.6500  135.3000  154.9967 H   0  0  0  0  0  0  0  0  0  0  0  0  # atno 10765 bound_to 10752
  141.1115  133.8696  157.1570 H   0  0  0  0  0  0  0  0  0  0  0  0  # atno 11005 bound_to 11000
  145.8906  140.9306  143.0554 LP  0  0  0  0  0  0  0  0  0  0  0  0  # atno 17320 bound_to 7965
  144.6730  140.0900  143.7465 LP  0  0  0  0  0  0  0  0  0  0  0  0  # atno 17321 bound_to 7965
  140.5240  143.2259  151.8344 LP  0  0  0  0  0  0  0  0  0  0  0  0  # atno 17342 bound_to 10162
  139.4829  144.4802  151.9316 LP  0  0  0  0  0  0  0  0  0  0  0  0  # atno 17343 bound_to 10162
  157.7420  130.9882  150.2487 LP  0  0  0  0  0  0  0  0  0  0  0  0  # atno 17370 bound_to 10713
  156.3052  130.3764  149.7712 LP  0  0  0  0  0  0  0  0  0  0  0  0  # atno 17371 bound_to 10713
  140.0012  135.0027  157.0194 LP  0  0  0  0  0  0  0  0  0  0  0  0  # atno 17394 bound_to 11000
  140.4761  134.1337  155.7210 LP  0  0  0  0  0  0  0  0  0  0  0  0  # atno 17395 bound_to 11000

$$$$
