AV-unprocessed.smi:3263|AV-procd|sdf|12489|dock10
  -GOLD-   2272018393D 1   1.00000     0.00000
 Structure written by MMmdl.
 41 43  0  0  0  0  0  0  0  0  1 V2000
  154.4236  139.8222  159.3065 O   0  0  0  0  0  0  0  0  0  0  0  0
  153.2945  140.3116  159.3424 C   0  0  0  0  0  0  0  0  0  0  0  0
  153.1005  141.7785  159.7404 C   0  0  0  0  0  0  0  0  0  0  0  0
  152.4922  142.6312  158.6041 C   0  0  1  0  0  0  0  0  0  0  0  0
  150.9477  142.6618  158.5576 C   0  0  0  0  0  0  0  0  0  0  0  0
  150.6379  144.1676  158.4642 C   0  0  1  0  0  0  0  0  0  0  0  0
  150.8900  144.8178  159.8367 C   0  0  0  0  0  0  0  0  0  0  0  0
  152.4266  144.8224  159.9305 C   0  0  0  0  0  0  0  0  0  0  0  0
  152.8538  144.1355  158.6166 C   0  0  2  0  0  0  0  0  0  0  0  0
  151.8144  144.6908  157.6469 C   0  0  0  0  0  0  0  0  0  0  0  0
  152.1835  139.6222  159.0413 N   0  0  0  0  0  0  0  0  0  0  0  0
  152.1539  138.2312  158.6046 C   0  0  0  0  0  0  0  0  0  0  0  0
  152.7488  138.0713  157.1953 C   0  0  0  0  0  0  0  0  0  0  0  0
  151.7542  138.4281  156.1067 C   0  0  0  0  0  0  0  0  0  0  0  0
  151.2485  139.7411  155.9944 C   0  0  0  0  0  0  0  0  0  0  0  0
  150.3244  140.0186  154.9683 C   0  0  0  0  0  0  0  0  0  0  0  0
  149.9427  138.9781  154.0997 C   0  0  0  0  0  0  0  0  0  0  0  0
  150.5039  137.7007  154.2969 C   0  0  0  0  0  0  0  0  0  0  0  0
  151.3911  137.4242  155.2770 N   0  0  0  0  0  0  0  0  0  0  0  0
  152.4741  141.8236  160.6314 H   0  0  0  0  0  0  0  0  0  0  0  0
  154.0728  142.1833  160.0224 H   0  0  0  0  0  0  0  0  0  0  0  0
  152.8504  142.2305  157.6537 H   0  0  0  0  0  0  0  0  0  0  0  0
  150.5822  142.1301  157.6781 H   0  0  0  0  0  0  0  0  0  0  0  0
  150.4838  142.2075  159.4342 H   0  0  0  0  0  0  0  0  0  0  0  0
  149.6530  144.3869  158.0510 H   0  0  0  0  0  0  0  0  0  0  0  0
  150.5016  145.8366  159.8636 H   0  0  0  0  0  0  0  0  0  0  0  0
  150.4250  144.2604  160.6507 H   0  0  0  0  0  0  0  0  0  0  0  0
  152.7968  145.8483  159.9573 H   0  0  0  0  0  0  0  0  0  0  0  0
  152.7988  144.3252  160.8250 H   0  0  0  0  0  0  0  0  0  0  0  0
  153.8883  144.3360  158.3366 H   0  0  0  0  0  0  0  0  0  0  0  0
  151.8741  144.2566  156.6474 H   0  0  0  0  0  0  0  0  0  0  0  0
  151.8341  145.7790  157.5646 H   0  0  0  0  0  0  0  0  0  0  0  0
  151.2964  140.1010  159.1012 H   0  0  0  0  0  0  0  0  0  0  0  0
  152.6849  137.6015  159.3206 H   0  0  0  0  0  0  0  0  0  0  0  0
  151.1159  137.8981  158.6083 H   0  0  0  0  0  0  0  0  0  0  0  0
  153.6340  138.7005  157.0925 H   0  0  0  0  0  0  0  0  0  0  0  0
  153.0847  137.0450  157.0400 H   0  0  0  0  0  0  0  0  0  0  0  0
  151.5593  140.5180  156.6772 H   0  0  0  0  0  0  0  0  0  0  0  0
  149.9155  141.0113  154.8499 H   0  0  0  0  0  0  0  0  0  0  0  0
  149.2363  139.1540  153.3022 H   0  0  0  0  0  0  0  0  0  0  0  0
  150.2325  136.8792  153.6506 H   0  0  0  0  0  0  0  0  0  0  0  0
  1  2  2  0  0  0  0
  2  3  1  0  0  0  0
  2 11  1  0  0  0  0
  3  4  1  0  0  0  0
  3 20  1  0  0  0  0
  3 21  1  0  0  0  0
  4  9  1  0  0  0  0
  4  5  1  0  0  0  0
  4 22  1  0  0  0  0
  5  6  1  0  0  0  0
  5 23  1  0  0  0  0
  5 24  1  0  0  0  0
  6 10  1  0  0  0  0
  6  7  1  0  0  0  0
  6 25  1  0  0  0  0
  7  8  1  0  0  0  0
  7 26  1  0  0  0  0
  7 27  1  0  0  0  0
  8  9  1  0  0  0  0
  8 28  1  0  0  0  0
  8 29  1  0  0  0  0
  9 10  1  0  0  0  0
  9 30  1  0  0  0  0
 10 31  1  0  0  0  0
 10 32  1  0  0  0  0
 11 12  1  0  0  0  0
 11 33  1  0  0  0  0
 12 13  1  0  0  0  0
 12 34  1  0  0  0  0
 12 35  1  0  0  0  0
 13 14  1  0  0  0  0
 13 36  1  0  0  0  0
 13 37  1  0  0  0  0
 14 19  1  0  0  0  0
 14 15  2  0  0  0  0
 15 16  1  0  0  0  0
 15 38  1  0  0  0  0
 16 17  2  0  0  0  0
 16 39  1  0  0  0  0
 17 18  1  0  0  0  0
 17 40  1  0  0  0  0
 18 19  2  0  0  0  0
 18 41  1  0  0  0  0
M  END
> <s_m_source_file>
AV-unprocessed.smi

> <i_m_source_file_index>
3263

> <i_lp_mmshare_version>
43012

> <i_f3d_flags>
0

> <s_epik_input>
W0NIMl0xW0NIMl1bQ0BASF0oW0NIMl0yKVtDQEBIXShbQ0gyXVtDQEhdMTIpW0NIMl1DKD1PKVtOSF1bQ0gyXVtDSDJdYzNbY0hdW2NIXVtjSF1bY0hdbjM=

> <s_epik_cmdline>
J2VwaWtfcHl0aG9uJywgJy1waCcsICc3LjAnLCAnLXRuJywgJzgnLCAnLW1hJywgJzIwMCcsICctbWV0YWxfYmluZGluZycsICctaW1hZScsICc8aW5maWxlLm1hZT4nLCAnLW9tYWUnLCAnPG91dGZpbGUubWFlPic=

> <r_epik_Ionization_Penalty>
0.0273541

> <r_epik_Ionization_Penalty_Charging>
0

> <r_epik_Ionization_Penalty_Neutral>
0.0273541

> <r_epik_State_Penalty>
0.0223838

> <r_epik_Charging_Adjusted_Penalty>
0.0223838

> <i_epik_Tot_Q>
0

> <i_epik_Tot_abs_Q>
0

> <r_epik_Metal_State_Penalty>
0.0213927

> <b_epik_Metal_Only>
0

> <s_lp_Force_Field>
OPLS_2005

> <r_lp_Energy>
45.4659

> <b_lp_Chiralities_Consistent>
1

> <s_lp_Variant>
AV-unprocessed.smi:3263-4

> <Gold.Version>
5.8.1

> <Gold.Id.Protein>
6NUR|6NUR_protein|mol2

> <Gold.PLP.Fitness>
50.6854

> <Gold.PLP.PLP>
-42.9422

> <Gold.PLP.part.hbond>
-2.0000

> <Gold.PLP.part.metal>
0.0000

> <Gold.PLP.part.buried>
-3.3081

> <Gold.PLP.part.nonpolar>
-37.4046

> <Gold.PLP.part.repulsive>
0.1641

> <Gold.PLP.ligand.clash>
0.0000

> <Gold.PLP.ligand.torsion>
0.4978

> <Gold.PLP.Chemscore.Hbond>
1.8723

> <Gold.PLP.Chemscore.CHOScore>
1.0264

> <Gold.PLP.Chemscore.Metal>
0.0000

> <Gold.Chemscore.Hbonds>
donor molecule, donor type, donor heavy atom, donor atom, acceptor molecule, acceptor atom, score
      P1  H  7997  8010       L1     1  0.86
      L1  C    18    41       P1  7948  0.80
      L1  C    18    41       P1  7949  0.19

> <Gold.PLP.Chemscore.Internal.Correction>
0.0426

> <Gold.Rescore>
     Score         DG    S(hbond)    S(metal)    S(lipo)     H(rot)  DE(clash)    DE(int)     intcor
     21.34     -22.14       1.43        0.00     133.41       1.46       0.18       0.63       ----

> <Gold.Chemscore.Fitness>
21.3375

> <Gold.Chemscore.DG>
-22.1442

> <Gold.Chemscore.ZeroCoef>
-5.4800

> <Gold.Chemscore.Hbond>
1.4315

> <Gold.Chemscore.Metal>
0.0000

> <Gold.Chemscore.Lipo>
133.4099

> <Gold.Chemscore.Internal_Hbond>
0.0000

> <Gold.Chemscore.DEClash>
0.1754

> <Gold.Chemscore.DEInternal>
0.6314

> <Gold.Chemscore.Rot>
1.4555

> <Gold.Chemscore.Internal.Correction>
   9.000000E+99

> <Gold.Chemscore.Hbonds>
donor molecule, donor type, donor heavy atom, donor atom, acceptor molecule, acceptor atom, score
      P1  H  7997  8010       L1     1  0.46
      P1  H 10752 10765       L1    19  0.02

> <Gold.Chemscore.Hbond.Weighted>
-4.7813

> <Gold.Chemscore.Metal.Weighted>
-0.0000

> <Gold.Chemscore.Lipo.Weighted>
-15.6090

> <Gold.Chemscore.Internal_Hbond.Weighted>
0.0000

> <Gold.Chemscore.DEClash.Weighted>
0.1754

> <Gold.Chemscore.DEInternal.Weighted>
0.6314

> <Gold.Chemscore.Rot.Weighted>
3.7260

> <Gold.Chemscore.Internal.Correction.Weighted>
   9.000000E+99

> <Gold.Protein.RotatedTorsions>
[ 6907 6896 6895 6894 ] final  124.87 input  -60.11 | X-H torsion
[ 7974 7965 7964 7962 ] final  -83.85 input  175.53 | X-H torsion
[ 8008 7997 7996 7995 ] final    2.08 input   59.86 | X-H torsion
[ 10167 10162 10161 10158 ] final   73.85 input  -65.29 | X-H torsion
[ 10718 10713 10712 10709 ] final  102.21 input   66.30 | X-H torsion
[ 10763 10752 10751 10750 ] final -178.93 input  -60.55 | X-H torsion
[ 11005 11000 10999 10996 ] final  103.18 input  -57.11 | X-H torsion

> <Gold.Protein.ActiveResidues>
 VAL166  LYS551  ARG553  GLY616  TRP617  ASP618  TYR619  PRO620  LYS621  CYS622 
 ASP623  PHE694  ASN695  SER759  ASP760  ASP761  ALA762  ILE779  LEU786  VAL792 
 PHE793  MET794  SER795  GLU796  ALA797  LYS798  CYS799  TRP800  GLU811  SER814 

> <Gold.Protein.RotatedAtoms>
  152.4041  133.6862  159.6341 H   0  0  0  0  0  0  0  0  0  0  0  0  # atno 6907 bound_to 6896
  150.7928  133.8739  159.3275 H   0  0  0  0  0  0  0  0  0  0  0  0  # atno 6908 bound_to 6896
  151.6498  135.1004  160.0210 H   0  0  0  0  0  0  0  0  0  0  0  0  # atno 6909 bound_to 6896
  145.5145  140.9537  143.1689 H   0  0  0  0  0  0  0  0  0  0  0  0  # atno 7974 bound_to 7965
  154.6873  140.2645  155.6848 H   0  0  0  0  0  0  0  0  0  0  0  0  # atno 8008 bound_to 7997
  156.2719  140.2798  156.1362 H   0  0  0  0  0  0  0  0  0  0  0  0  # atno 8009 bound_to 7997
  155.0946  140.0374  157.2669 H   0  0  0  0  0  0  0  0  0  0  0  0  # atno 8010 bound_to 7997
  140.0200  144.5548  150.7589 H   0  0  0  0  0  0  0  0  0  0  0  0  # atno 10167 bound_to 10162
  157.6808  131.0747  150.5370 H   0  0  0  0  0  0  0  0  0  0  0  0  # atno 10718 bound_to 10713
  154.5415  135.2806  155.1091 H   0  0  0  0  0  0  0  0  0  0  0  0  # atno 10763 bound_to 10752
  154.2572  135.6328  153.5265 H   0  0  0  0  0  0  0  0  0  0  0  0  # atno 10764 bound_to 10752
  152.9980  135.5597  154.5955 H   0  0  0  0  0  0  0  0  0  0  0  0  # atno 10765 bound_to 10752
  139.8782  134.9253  156.5170 H   0  0  0  0  0  0  0  0  0  0  0  0  # atno 11005 bound_to 11000
  144.7709  139.6737  143.7195 LP  0  0  0  0  0  0  0  0  0  0  0  0  # atno 17320 bound_to 7965
  146.2145  139.5525  142.9659 LP  0  0  0  0  0  0  0  0  0  0  0  0  # atno 17321 bound_to 7965
  140.7346  143.2731  151.3826 LP  0  0  0  0  0  0  0  0  0  0  0  0  # atno 17342 bound_to 10162
  139.6146  144.1029  152.2333 LP  0  0  0  0  0  0  0  0  0  0  0  0  # atno 17343 bound_to 10162
  156.5678  130.4272  149.6033 LP  0  0  0  0  0  0  0  0  0  0  0  0  # atno 17370 bound_to 10713
  156.2766  130.7047  151.1860 LP  0  0  0  0  0  0  0  0  0  0  0  0  # atno 17371 bound_to 10713
  140.8478  133.8155  155.9139 LP  0  0  0  0  0  0  0  0  0  0  0  0  # atno 17394 bound_to 11000
  140.9174  134.2185  157.4948 LP  0  0  0  0  0  0  0  0  0  0  0  0  # atno 17395 bound_to 11000

$$$$
