AV-unprocessed.smi:694|AV-procd|sdf|3380|dock2
  -GOLD-   22720 0363D 1   1.00000     0.00000
 Structure written by MMmdl.
 42 43  0  0  0  0  0  0  0  0  1 V2000
  152.3427  145.1136  158.1111 C   0  0  0  0  0  0  0  0  0  0  0  0
  151.9194  144.6369  159.4241 N   0  0  0  0  0  0  0  0  0  0  0  0
  150.7974  145.2755  160.1001 C   0  0  0  0  0  0  0  0  0  0  0  0
  152.5282  143.4906  159.9848 C   0  0  0  0  0  0  0  0  0  0  0  0
  152.5613  143.2807  161.3855 C   0  0  0  0  0  0  0  0  0  0  0  0
  153.1750  142.1196  161.8921 C   0  0  0  0  0  0  0  0  0  0  0  0
  153.7375  141.1881  160.9987 C   0  0  0  0  0  0  0  0  0  0  0  0
  154.3577  140.0325  161.5478 N   0  0  0  0  0  0  0  0  0  0  0  0
  154.5979  138.8457  160.9639 C   0  0  0  0  0  0  0  0  0  0  0  0
  154.3057  138.5451  159.8071 O   0  0  0  0  0  0  0  0  0  0  0  0
  155.1929  138.0000  161.8169 N   0  0  0  0  0  0  0  0  0  0  0  0
  155.5778  136.6274  161.5048 C   0  0  0  0  0  0  0  0  0  0  0  0
  154.6941  135.5929  162.2313 C   0  0  2  0  0  0  0  0  0  0  0  0
  154.7214  135.7093  163.7641 C   0  0  0  0  0  0  0  0  0  0  0  0
  154.4696  134.2954  164.3123 C   0  0  0  0  0  0  0  0  0  0  0  0
  154.4212  133.3620  163.0970 C   0  0  0  0  0  0  0  0  0  0  0  0
  155.1050  134.1402  161.9723 C   0  0  1  0  0  0  0  0  0  0  0  0
  154.6878  133.6821  160.7029 O   0  0  0  0  0  0  0  0  0  0  0  0
  153.6711  141.4869  159.6175 C   0  0  0  0  0  0  0  0  0  0  0  0
  153.0842  142.5994  159.1283 N   0  0  0  0  0  0  0  0  0  0  0  0
  152.1690  144.3495  157.3527 H   0  0  0  0  0  0  0  0  0  0  0  0
  153.4045  145.3621  158.1165 H   0  0  0  0  0  0  0  0  0  0  0  0
  151.7940  146.0080  157.8161 H   0  0  0  0  0  0  0  0  0  0  0  0
  151.1020  145.6498  161.0776 H   0  0  0  0  0  0  0  0  0  0  0  0
  149.9777  144.5695  160.2351 H   0  0  0  0  0  0  0  0  0  0  0  0
  150.4168  146.1200  159.5256 H   0  0  0  0  0  0  0  0  0  0  0  0
  152.1297  143.9846  162.0807 H   0  0  0  0  0  0  0  0  0  0  0  0
  153.2081  141.9480  162.9581 H   0  0  0  0  0  0  0  0  0  0  0  0
  154.6045  140.1008  162.5242 H   0  0  0  0  0  0  0  0  0  0  0  0
  155.3929  138.3276  162.7506 H   0  0  0  0  0  0  0  0  0  0  0  0
  155.5366  136.4702  160.4257 H   0  0  0  0  0  0  0  0  0  0  0  0
  156.6210  136.4967  161.7935 H   0  0  0  0  0  0  0  0  0  0  0  0
  153.6583  135.7132  161.9080 H   0  0  0  0  0  0  0  0  0  0  0  0
  155.6990  136.0565  164.1016 H   0  0  0  0  0  0  0  0  0  0  0  0
  153.9822  136.4255  164.1248 H   0  0  0  0  0  0  0  0  0  0  0  0
  155.2795  134.0066  164.9832 H   0  0  0  0  0  0  0  0  0  0  0  0
  153.5411  134.2429  164.8818 H   0  0  0  0  0  0  0  0  0  0  0  0
  154.8949  132.3984  163.2873 H   0  0  0  0  0  0  0  0  0  0  0  0
  153.3789  133.1700  162.8370 H   0  0  0  0  0  0  0  0  0  0  0  0
  156.1875  134.0344  162.0589 H   0  0  0  0  0  0  0  0  0  0  0  0
  155.4070  133.2226  160.2972 H   0  0  0  0  0  0  0  0  0  0  0  0
  154.1060  140.8460  158.8675 H   0  0  0  0  0  0  0  0  0  0  0  0
  1  2  1  0  0  0  0
  1 21  1  0  0  0  0
  1 22  1  0  0  0  0
  1 23  1  0  0  0  0
  2  3  1  0  0  0  0
  2  4  1  0  0  0  0
  3 24  1  0  0  0  0
  3 25  1  0  0  0  0
  3 26  1  0  0  0  0
  4 20  1  0  0  0  0
  4  5  2  0  0  0  0
  5  6  1  0  0  0  0
  5 27  1  0  0  0  0
  6  7  2  0  0  0  0
  6 28  1  0  0  0  0
  7  8  1  0  0  0  0
  7 19  1  0  0  0  0
  8  9  1  0  0  0  0
  8 29  1  0  0  0  0
  9 10  2  0  0  0  0
  9 11  1  0  0  0  0
 11 12  1  0  0  0  0
 11 30  1  0  0  0  0
 12 13  1  0  0  0  0
 12 31  1  0  0  0  0
 12 32  1  0  0  0  0
 13 17  1  0  0  0  0
 13 14  1  0  0  0  0
 13 33  1  0  0  0  0
 14 15  1  0  0  0  0
 14 34  1  0  0  0  0
 14 35  1  0  0  0  0
 15 16  1  0  0  0  0
 15 36  1  0  0  0  0
 15 37  1  0  0  0  0
 16 17  1  0  0  0  0
 16 38  1  0  0  0  0
 16 39  1  0  0  0  0
 17 18  1  0  0  0  0
 17 40  1  0  0  0  0
 18 41  1  0  0  0  0
 19 20  2  0  0  0  0
 19 42  1  0  0  0  0
M  END
> <s_m_source_file>
AV-unprocessed.smi

> <i_m_source_file_index>
694

> <i_lp_mmshare_version>
43012

> <i_f3d_flags>
0

> <s_epik_input>
W0NIM11OKFtDSDNdKWMxW2NIXVtjSF1jKFtjSF1uMSlbTkhdQyg9TylbTkhdW0NIMl1bQ0BASF0yW0NIMl1bQ0gyXVtDSDJdW0NASF0yW09IXQ==

> <s_epik_cmdline>
J2VwaWtfcHl0aG9uJywgJy1waCcsICc3LjAnLCAnLXRuJywgJzgnLCAnLW1hJywgJzIwMCcsICctbWV0YWxfYmluZGluZycsICctaW1hZScsICc8aW5maWxlLm1hZT4nLCAnLW9tYWUnLCAnPG91dGZpbGUubWFlPic=

> <r_lp_tautomer_probability>
1

> <r_epik_Ionization_Penalty>
0.60335

> <r_epik_Ionization_Penalty_Charging>
0

> <r_epik_Ionization_Penalty_Neutral>
0.60335

> <r_epik_State_Penalty>
0.616805

> <r_epik_Charging_Adjusted_Penalty>
0.616805

> <i_epik_Tot_Q>
0

> <i_epik_Tot_abs_Q>
0

> <r_epik_Metal_State_Penalty>
0.301709

> <b_epik_Metal_Only>
0

> <s_lp_Force_Field>
OPLS_2005

> <r_lp_Energy>
26.6001

> <b_lp_Chiralities_Consistent>
1

> <s_lp_Variant>
AV-unprocessed.smi:694-5

> <Gold.Version>
5.8.1

> <Gold.Id.Protein>
6NUR|6NUR_protein|mol2

> <Gold.PLP.Fitness>
44.6031

> <Gold.PLP.PLP>
-43.6751

> <Gold.PLP.part.hbond>
-0.9546

> <Gold.PLP.part.metal>
0.0000

> <Gold.PLP.part.buried>
-5.8768

> <Gold.PLP.part.nonpolar>
-37.1121

> <Gold.PLP.part.repulsive>
0.0028

> <Gold.PLP.ligand.clash>
0.0000

> <Gold.PLP.ligand.torsion>
0.4820

> <Gold.PLP.Chemscore.Hbond>
0.6224

> <Gold.PLP.Chemscore.CHOScore>
0.0000

> <Gold.PLP.Chemscore.Metal>
0.0000

> <Gold.Chemscore.Hbonds>
donor molecule, donor type, donor heavy atom, donor atom, acceptor molecule, acceptor atom, score
      P1  H  6896  6908       L1    18  0.36

> <Gold.PLP.Chemscore.Internal.Correction>
0.0248

> <Gold.Rescore>
     Score         DG    S(hbond)    S(metal)    S(lipo)     H(rot)  DE(clash)    DE(int)     intcor
     14.51     -16.25       0.93        0.00     103.37       1.73       0.21       1.53       ----

> <Gold.Chemscore.Fitness>
14.5054

> <Gold.Chemscore.DG>
-16.2458

> <Gold.Chemscore.ZeroCoef>
-5.4800

> <Gold.Chemscore.Hbond>
0.9251

> <Gold.Chemscore.Metal>
0.0000

> <Gold.Chemscore.Lipo>
103.3704

> <Gold.Chemscore.Internal_Hbond>
0.0000

> <Gold.Chemscore.DEClash>
0.2064

> <Gold.Chemscore.DEInternal>
1.5341

> <Gold.Chemscore.Rot>
1.7259

> <Gold.Chemscore.Internal.Correction>
   9.000000E+99

> <Gold.Chemscore.Hbonds>
donor molecule, donor type, donor heavy atom, donor atom, acceptor molecule, acceptor atom, score
      P1  H  6896  6908       L1    18  0.34

> <Gold.Chemscore.Hbond.Weighted>
-3.0898

> <Gold.Chemscore.Metal.Weighted>
-0.0000

> <Gold.Chemscore.Lipo.Weighted>
-12.0943

> <Gold.Chemscore.Internal_Hbond.Weighted>
0.0000

> <Gold.Chemscore.DEClash.Weighted>
0.2064

> <Gold.Chemscore.DEInternal.Weighted>
1.5341

> <Gold.Chemscore.Rot.Weighted>
4.4184

> <Gold.Chemscore.Internal.Correction.Weighted>
   9.000000E+99

> <Gold.Protein.RotatedTorsions>
[ 6907 6896 6895 6894 ] final  -25.93 input  -60.11 | X-H torsion
[ 7974 7965 7964 7962 ] final   86.81 input  175.53 | X-H torsion
[ 8008 7997 7996 7995 ] final  -41.67 input   59.86 | X-H torsion
[ 10167 10162 10161 10158 ] final  122.36 input  -65.29 | X-H torsion
[ 10718 10713 10712 10709 ] final -151.89 input   66.30 | X-H torsion
[ 10763 10752 10751 10750 ] final   44.57 input  -60.55 | X-H torsion
[ 11005 11000 10999 10996 ] final  -58.46 input  -57.11 | X-H torsion

> <Gold.Protein.ActiveResidues>
 VAL166  LYS551  ARG553  GLY616  TRP617  ASP618  TYR619  PRO620  LYS621  CYS622 
 ASP623  PHE694  ASN695  SER759  ASP760  ASP761  ALA762  ILE779  LEU786  VAL792 
 PHE793  MET794  SER795  GLU796  ALA797  LYS798  CYS799  TRP800  GLU811  SER814 

> <Gold.Protein.RotatedAtoms>
  151.1682  135.0305  159.8739 H   0  0  0  0  0  0  0  0  0  0  0  0  # atno 6907 bound_to 6896
  152.5449  134.1200  159.8405 H   0  0  0  0  0  0  0  0  0  0  0  0  # atno 6908 bound_to 6896
  151.1303  133.4995  159.2632 H   0  0  0  0  0  0  0  0  0  0  0  0  # atno 6909 bound_to 6896
  145.5674  139.2310  143.2425 H   0  0  0  0  0  0  0  0  0  0  0  0  # atno 7974 bound_to 7965
  154.4003  140.1493  156.3229 H   0  0  0  0  0  0  0  0  0  0  0  0  # atno 8008 bound_to 7997
  155.8513  140.3457  155.5674 H   0  0  0  0  0  0  0  0  0  0  0  0  # atno 8009 bound_to 7997
  155.7981  140.0866  157.1963 H   0  0  0  0  0  0  0  0  0  0  0  0  # atno 8010 bound_to 7997
  139.5863  144.7008  151.3400 H   0  0  0  0  0  0  0  0  0  0  0  0  # atno 10167 bound_to 10162
  156.4652  130.8232  151.2462 H   0  0  0  0  0  0  0  0  0  0  0  0  # atno 10718 bound_to 10713
  152.9839  135.6066  154.3296 H   0  0  0  0  0  0  0  0  0  0  0  0  # atno 10763 bound_to 10752
  154.3000  135.2773  155.2617 H   0  0  0  0  0  0  0  0  0  0  0  0  # atno 10764 bound_to 10752
  154.4874  135.5901  153.6490 H   0  0  0  0  0  0  0  0  0  0  0  0  # atno 10765 bound_to 10752
  141.1208  133.6612  156.4923 H   0  0  0  0  0  0  0  0  0  0  0  0  # atno 11005 bound_to 11000
  146.1808  140.6500  142.9190 LP  0  0  0  0  0  0  0  0  0  0  0  0  # atno 17320 bound_to 7965
  144.7454  140.5053  143.6839 LP  0  0  0  0  0  0  0  0  0  0  0  0  # atno 17321 bound_to 7965
  140.7134  143.7329  150.7610 LP  0  0  0  0  0  0  0  0  0  0  0  0  # atno 17342 bound_to 10162
  140.0874  143.4910  152.2497 LP  0  0  0  0  0  0  0  0  0  0  0  0  # atno 17343 bound_to 10162
  157.7495  131.0094  150.3266 LP  0  0  0  0  0  0  0  0  0  0  0  0  # atno 17370 bound_to 10713
  156.3675  130.3857  149.7202 LP  0  0  0  0  0  0  0  0  0  0  0  0  # atno 17371 bound_to 10713
  140.4513  134.6926  157.5041 LP  0  0  0  0  0  0  0  0  0  0  0  0  # atno 17394 bound_to 11000
  140.0164  134.6613  155.9304 LP  0  0  0  0  0  0  0  0  0  0  0  0  # atno 17395 bound_to 11000

$$$$
