AV-unprocessed.smi:1593|AV-procd|sdf|6412|dock5
  -GOLD-   22720 7 43D 1   1.00000     0.00000
 Structure written by MMmdl.
 36 37  0  0  0  0  0  0  0  0  3 V2000
  149.3462  140.8564  154.1954 C   0  0  0  0  0  0  0  0  0  0  0  0
  150.0901  139.6056  154.5158 C   0  0  0  0  0  0  0  0  0  0  0  0
  149.6957  138.3126  154.7133 C   0  0  0  0  0  0  0  0  0  0  0  0
  150.9189  137.6360  154.9723 C   0  0  0  0  0  0  0  0  0  0  0  0
  151.0546  136.3284  155.2418 N   0  5  0  0  0  0  0  0  0  0  0  0
  149.9610  135.5523  155.4156 C   0  0  0  0  0  0  0  0  0  0  0  0
  149.1805  135.5887  156.3698 O   0  0  0  0  0  0  0  0  0  0  0  0
  149.7603  134.6738  154.4229 N   0  0  0  0  0  0  0  0  0  0  0  0
  148.6684  133.7106  154.3485 C   0  0  0  0  0  0  0  0  0  0  0  0
  148.9834  132.5820  153.3487 C   0  0  0  0  0  0  0  0  0  0  0  0
  147.8120  132.2274  152.5104 N   0  3  0  0  0  0  0  0  0  0  0  0
  146.8224  131.4018  153.2432 C   0  0  0  0  0  0  0  0  0  0  0  0
  145.6535  131.0163  152.3210 C   0  0  0  0  0  0  0  0  0  0  0  0
  145.0519  132.1926  151.7951 O   0  0  0  0  0  0  0  0  0  0  0  0
  145.9665  132.9540  151.0161 C   0  0  0  0  0  0  0  0  0  0  0  0
  147.1478  133.4026  151.8931 C   0  0  0  0  0  0  0  0  0  0  0  0
  151.9612  138.4497  154.9514 N   0  0  0  0  0  0  0  0  0  0  0  0
  151.4389  139.7136  154.6517 O   0  0  0  0  0  0  0  0  0  0  0  0
  148.2748  140.7209  154.3437 H   0  0  0  0  0  0  0  0  0  0  0  0
  149.5107  141.1470  153.1577 H   0  0  0  0  0  0  0  0  0  0  0  0
  149.6741  141.6767  154.8340 H   0  0  0  0  0  0  0  0  0  0  0  0
  148.6936  137.9128  154.6746 H   0  0  0  0  0  0  0  0  0  0  0  0
  150.4202  134.6806  153.6586 H   0  0  0  0  0  0  0  0  0  0  0  0
  148.4681  133.3204  155.3467 H   0  0  0  0  0  0  0  0  0  0  0  0
  147.7695  134.2431  154.0370 H   0  0  0  0  0  0  0  0  0  0  0  0
  149.7959  132.9198  152.7032 H   0  0  0  0  0  0  0  0  0  0  0  0
  149.3485  131.6903  153.8609 H   0  0  0  0  0  0  0  0  0  0  0  0
  147.3008  130.4981  153.6230 H   0  0  0  0  0  0  0  0  0  0  0  0
  146.4512  131.9557  154.1071 H   0  0  0  0  0  0  0  0  0  0  0  0
  145.9941  130.3726  151.5080 H   0  0  0  0  0  0  0  0  0  0  0  0
  144.9038  130.4549  152.8787 H   0  0  0  0  0  0  0  0  0  0  0  0
  146.3141  132.3675  150.1639 H   0  0  0  0  0  0  0  0  0  0  0  0
  145.4474  133.8238  150.6128 H   0  0  0  0  0  0  0  0  0  0  0  0
  146.7946  134.0772  152.6747 H   0  0  0  0  0  0  0  0  0  0  0  0
  147.8531  133.9650  151.2825 H   0  0  0  0  0  0  0  0  0  0  0  0
  148.1605  131.6516  151.7573 H   0  0  0  0  0  0  0  0  0  0  0  0
  1  2  1  0  0  0  0
  1 19  1  0  0  0  0
  1 20  1  0  0  0  0
  1 21  1  0  0  0  0
  2 18  1  0  0  0  0
  2  3  2  0  0  0  0
  3  4  1  0  0  0  0
  3 22  1  0  0  0  0
  4  5  1  0  0  0  0
  4 17  2  0  0  0  0
  5  6  1  0  0  0  0
  6  7  2  0  0  0  0
  6  8  1  0  0  0  0
  8  9  1  0  0  0  0
  8 23  1  0  0  0  0
  9 10  1  0  0  0  0
  9 24  1  0  0  0  0
  9 25  1  0  0  0  0
 10 11  1  0  0  0  0
 10 26  1  0  0  0  0
 10 27  1  0  0  0  0
 11 16  1  0  0  0  0
 11 12  1  0  0  0  0
 11 36  1  0  0  0  0
 12 13  1  0  0  0  0
 12 28  1  0  0  0  0
 12 29  1  0  0  0  0
 13 14  1  0  0  0  0
 13 30  1  0  0  0  0
 13 31  1  0  0  0  0
 14 15  1  0  0  0  0
 15 16  1  0  0  0  0
 15 32  1  0  0  0  0
 15 33  1  0  0  0  0
 16 34  1  0  0  0  0
 16 35  1  0  0  0  0
 17 18  1  0  0  0  0
M  CHG  1   5  -1
M  CHG  1  11   1
M  END
> <s_m_source_file>
AV-unprocessed.smi

> <i_m_source_file_index>
1593

> <i_lp_mmshare_version>
43012

> <i_f3d_flags>
0

> <s_epik_input>
W0NIM11jMVtjSF1jKG5vMSlbTkhdQyg9TylbTkhdW0NIMl1bQ0gyXU4yW0NIMl1bQ0gyXU9bQ0gyXVtDSDJdMg==

> <s_epik_cmdline>
J2VwaWtfcHl0aG9uJywgJy1waCcsICc3LjAnLCAnLXRuJywgJzgnLCAnLW1hJywgJzIwMCcsICctbWV0YWxfYmluZGluZycsICctaW1hZScsICc8aW5maWxlLm1hZT4nLCAnLW9tYWUnLCAnPG91dGZpbGUubWFlPic=

> <r_epik_Ionization_Penalty>
6.73013

> <r_epik_Ionization_Penalty_Charging>
6.73004

> <r_epik_Ionization_Penalty_Neutral>
9.27027e-05

> <r_epik_State_Penalty>
6.93052

> <r_epik_Charging_Adjusted_Penalty>
13.6606

> <i_epik_Tot_Q>
0

> <i_epik_Tot_abs_Q>
2

> <r_epik_Metal_State_Penalty>
2.86736

> <b_epik_Metal_Only>
1

> <s_lp_Force_Field>
OPLS_2005

> <r_lp_Energy>
3.0075

> <b_lp_Chiralities_Consistent>
1

> <s_lp_Variant>
AV-unprocessed.smi:1593-4

> <Gold.Version>
5.8.1

> <Gold.Id.Protein>
6NUR|6NUR_protein|mol2

> <Gold.PLP.Fitness>
40.0847

> <Gold.PLP.PLP>
-30.3987

> <Gold.PLP.part.hbond>
-3.9736

> <Gold.PLP.part.metal>
0.0000

> <Gold.PLP.part.buried>
-6.5174

> <Gold.PLP.part.nonpolar>
-21.6075

> <Gold.PLP.part.repulsive>
0.4574

> <Gold.PLP.ligand.clash>
0.0000

> <Gold.PLP.ligand.torsion>
1.1957

> <Gold.PLP.Chemscore.Hbond>
4.0000

> <Gold.PLP.Chemscore.CHOScore>
0.0000

> <Gold.PLP.Chemscore.Metal>
0.0000

> <Gold.Chemscore.Hbonds>
donor molecule, donor type, donor heavy atom, donor atom, acceptor molecule, acceptor atom, score
      L1  H    11    36       P1 10747  1.00
      P1  H  7989  7998       L1    18  0.85
      P1  H 10752 10764       L1     5  1.56

> <Gold.PLP.Chemscore.Internal.Correction>
0.0773

> <Gold.Rescore>
     Score         DG    S(hbond)    S(metal)    S(lipo)     H(rot)  DE(clash)    DE(int)     intcor
     16.19     -17.42       2.77        0.00      58.42       1.62       0.05       1.18       ----

> <Gold.Chemscore.Fitness>
16.1923

> <Gold.Chemscore.DG>
-17.4156

> <Gold.Chemscore.ZeroCoef>
-5.4800

> <Gold.Chemscore.Hbond>
2.7707

> <Gold.Chemscore.Metal>
0.0000

> <Gold.Chemscore.Lipo>
58.4244

> <Gold.Chemscore.Internal_Hbond>
0.0000

> <Gold.Chemscore.DEClash>
0.0460

> <Gold.Chemscore.DEInternal>
1.1773

> <Gold.Chemscore.Rot>
1.6228

> <Gold.Chemscore.Internal.Correction>
   9.000000E+99

> <Gold.Chemscore.Hbonds>
donor molecule, donor type, donor heavy atom, donor atom, acceptor molecule, acceptor atom, score
      L1  H    11    36       P1 10747  1.00
      P1  H  7989  7998       L1    18  0.15
      P1  H 10752 10764       L1     5  0.67

> <Gold.Chemscore.Hbond.Weighted>
-9.2542

> <Gold.Chemscore.Metal.Weighted>
-0.0000

> <Gold.Chemscore.Lipo.Weighted>
-6.8357

> <Gold.Chemscore.Internal_Hbond.Weighted>
0.0000

> <Gold.Chemscore.DEClash.Weighted>
0.0460

> <Gold.Chemscore.DEInternal.Weighted>
1.1773

> <Gold.Chemscore.Rot.Weighted>
4.1542

> <Gold.Chemscore.Internal.Correction.Weighted>
   9.000000E+99

> <Gold.Protein.RotatedTorsions>
[ 6907 6896 6895 6894 ] final   69.17 input  -60.11 | X-H torsion
[ 7974 7965 7964 7962 ] final -124.19 input  175.53 | X-H torsion
[ 8008 7997 7996 7995 ] final   78.24 input   59.86 | X-H torsion
[ 10167 10162 10161 10158 ] final  -96.10 input  -65.29 | X-H torsion
[ 10718 10713 10712 10709 ] final    8.14 input   66.30 | X-H torsion
[ 10763 10752 10751 10750 ] final  -54.92 input  -60.55 | X-H torsion
[ 11005 11000 10999 10996 ] final  -40.43 input  -57.11 | X-H torsion

> <Gold.Protein.ActiveResidues>
 VAL166  LYS551  ARG553  GLY616  TRP617  ASP618  TYR619  PRO620  LYS621  CYS622 
 ASP623  PHE694  ASN695  SER759  ASP760  ASP761  ALA762  ILE779  LEU786  VAL792 
 PHE793  MET794  SER795  GLU796  ALA797  LYS798  CYS799  TRP800  GLU811  SER814 

> <Gold.Protein.RotatedAtoms>
  152.4669  134.5055  159.9737 H   0  0  0  0  0  0  0  0  0  0  0  0  # atno 6907 bound_to 6896
  151.5090  133.3483  159.2889 H   0  0  0  0  0  0  0  0  0  0  0  0  # atno 6908 bound_to 6896
  150.8658  134.8049  159.7179 H   0  0  0  0  0  0  0  0  0  0  0  0  # atno 6909 bound_to 6896
  145.0107  140.7903  143.4440 H   0  0  0  0  0  0  0  0  0  0  0  0  # atno 7974 bound_to 7965
  155.8529  140.3457  155.5705 H   0  0  0  0  0  0  0  0  0  0  0  0  # atno 8008 bound_to 7997
  155.8018  140.0886  157.1972 H   0  0  0  0  0  0  0  0  0  0  0  0  # atno 8009 bound_to 7997
  154.4008  140.1464  156.3271 H   0  0  0  0  0  0  0  0  0  0  0  0  # atno 8010 bound_to 7997
  140.2973  143.3184  152.0284 H   0  0  0  0  0  0  0  0  0  0  0  0  # atno 10167 bound_to 10162
  156.9473  130.5883  149.5655 H   0  0  0  0  0  0  0  0  0  0  0  0  # atno 10718 bound_to 10713
  154.1825  135.6441  153.5038 H   0  0  0  0  0  0  0  0  0  0  0  0  # atno 10763 bound_to 10752
  153.0055  135.5409  154.6499 H   0  0  0  0  0  0  0  0  0  0  0  0  # atno 10764 bound_to 10752
  154.5867  135.2930  155.0650 H   0  0  0  0  0  0  0  0  0  0  0  0  # atno 10765 bound_to 10752
  141.0174  133.6879  156.2320 H   0  0  0  0  0  0  0  0  0  0  0  0  # atno 11005 bound_to 11000
  145.2027  139.2244  143.5184 LP  0  0  0  0  0  0  0  0  0  0  0  0  # atno 17320 bound_to 7965
  146.3469  140.1848  142.8589 LP  0  0  0  0  0  0  0  0  0  0  0  0  # atno 17321 bound_to 7965
  139.4923  144.6481  151.6734 LP  0  0  0  0  0  0  0  0  0  0  0  0  # atno 17342 bound_to 10162
  140.5681  144.0155  150.6202 LP  0  0  0  0  0  0  0  0  0  0  0  0  # atno 17343 bound_to 10162
  156.0378  130.5464  150.8697 LP  0  0  0  0  0  0  0  0  0  0  0  0  # atno 17370 bound_to 10713
  157.5745  131.0946  150.9366 LP  0  0  0  0  0  0  0  0  0  0  0  0  # atno 17371 bound_to 10713
  140.6631  134.4946  157.5584 LP  0  0  0  0  0  0  0  0  0  0  0  0  # atno 17394 bound_to 11000
  139.9125  134.8314  156.1478 LP  0  0  0  0  0  0  0  0  0  0  0  0  # atno 17395 bound_to 11000

$$$$
