#       Name:                AV-unprocessed.smi:37
#       Creating user name   scv26
#       Creation time:       Thu Mar 26 16:12:19 2020


#       File generated by GOLD software.
#

@<TRIPOS>MOLECULE
AV-unprocessed.smi:37
    54    55     1
SMALL
NO_CHARGES


@<TRIPOS>ATOM
      1 ****        -4.7846   2.4123  -2.0767 C.3            1 S1                 0.0000
      2 ****        -4.4266   2.0091  -0.6401 C.3            1 S1                 0.0000
      3 ****        -3.7237   0.6550  -0.5778 C.2            1 S1                 0.0000
      4 ****        -4.2562  -0.3187  -0.0446 O.2            1 S1                 0.0000
      5 ****        -2.5050   0.6790  -1.1446 O.3            1 S1                 0.0000
      6 ****        -1.6960  -0.4874  -1.1526 C.3            1 S1                 0.0000
      7 ****        -0.2195  -0.0766  -1.0810 C.3            1 S1                 0.0000
      8 ****         0.5746  -1.2499  -1.2487 O.3            1 S1                 0.0000
      9 ****         1.4445  -1.3888  -0.1707 C.3            1 S1                 0.0000
     10 ****         1.7311  -2.8511   0.1008 N.am           1 S1                 0.0000
     11 ****         3.0214  -3.2362   0.4361 C.2            1 S1                 0.0000
     12 ****         3.3721  -4.5214   0.6777 C.2            1 S1                 0.0000
     13 ****         4.6422  -4.8118   1.0065 F              1 S1                 0.0000
     14 ****         2.3847  -5.5920   0.5845 C.2            1 S1                 0.0000
     15 ****         2.6044  -6.7844   0.7868 O.2            1 S1                 0.0000
     16 ****         1.1027  -5.1637   0.2299 N.am           1 S1                 0.0000
     17 ****         0.7276  -3.8431  -0.0234 C.2            1 S1                 0.0000
     18 ****        -0.4340  -3.5941  -0.3419 O.2            1 S1                 0.0000
     19 ****         0.8680  -0.5964   1.0114 C.3            1 S1                 0.0000
     20 ****        -0.4787  -1.5677   2.1202 Br             1 S1                 0.0000
     21 ****         0.1686   0.5370   0.2775 C.3            1 S1                 0.0000
     22 ****         1.0641   1.6198   0.0471 O.3            1 S1                 0.0000
     23 ****         1.2171   2.5846   0.9722 C.2            1 S1                 0.0000
     24 ****         0.6562   2.6230   2.0686 O.2            1 S1                 0.0000
     25 ****         2.1996   3.6646   0.5149 C.3            1 S1                 0.0000
     26 ****         2.4087   4.7822   1.5475 C.3            1 S1                 0.0000
     27 ****         0.3871  -5.8709   0.1452 H              1 S1                 0.0000
     28 ****        -5.2985   3.3735  -2.0876 H              1 S1                 0.0000
     29 ****        -5.4458   1.6795  -2.5406 H              1 S1                 0.0000
     30 ****        -3.8950   2.5078  -2.7004 H              1 S1                 0.0000
     31 ****        -3.7780   2.7619  -0.1918 H              1 S1                 0.0000
     32 ****        -5.3299   1.9668  -0.0309 H              1 S1                 0.0000
     33 ****        -1.9348  -1.1524  -0.3222 H              1 S1                 0.0000
     34 ****        -1.8898  -1.0401  -2.0721 H              1 S1                 0.0000
     35 ****        -0.0022   0.6125  -1.8985 H              1 S1                 0.0000
     36 ****         2.3952  -0.9641  -0.4989 H              1 S1                 0.0000
     37 ****         3.7886  -2.4798   0.5219 H              1 S1                 0.0000
     38 ****         1.6646  -0.2660   1.6789 H              1 S1                 0.0000
     39 ****        -0.7081   0.8937   0.8205 H              1 S1                 0.0000
     40 ****         3.1551   3.1903   0.2893 H              1 S1                 0.0000
     41 ****         1.8319   4.0924  -0.4181 H              1 S1                 0.0000
     42 ****         3.1072   5.5285   1.1688 H              1 S1                 0.0000
     43 ****         2.8178   4.3914   2.4799 H              1 S1                 0.0000
     44 ****         1.4729   5.2936   1.7760 H              1 S1                 0.0000
     45 ****        -5.1671  -0.2319   0.3588 LP             1 S1                 0.0000
     46 ****        -3.7778  -1.1964  -0.0149 LP             1 S1                 0.0000
     47 ****         1.1031  -1.1750  -2.0943 LP             1 S1                 0.0000
     48 ****        -0.0225  -2.0506  -1.2987 LP             1 S1                 0.0000
     49 ****         3.5234  -7.0879   1.0385 LP             1 S1                 0.0000
     50 ****         1.8641  -7.4511   0.6997 LP             1 S1                 0.0000
     51 ****        -0.7103  -2.6513  -0.5281 LP             1 S1                 0.0000
     52 ****        -1.1022  -4.3346  -0.4146 LP             1 S1                 0.0000
     53 ****         0.0249   1.8939   2.3331 LP             1 S1                 0.0000
     54 ****         0.8322   3.3832   2.6939 LP             1 S1                 0.0000
@<TRIPOS>BOND
    1    1    2 1     
    2    1   28 1     
    3    1   29 1     
    4    1   30 1     
    5    2    3 1     
    6    2   31 1     
    7    2   32 1     
    8    3    4 2     
    9    3    5 1     
   10    5    6 1     
   11    6    7 1     
   12    6   33 1     
   13    6   34 1     
   14    7   21 1     
   15    7    8 1     
   16    7   35 1     
   17    8    9 1     
   18    9   10 1     
   19    9   19 1     
   20    9   36 1     
   21   10   17 1     
   22   10   11 1     
   23   11   12 2     
   24   11   37 1     
   25   12   13 1     
   26   12   14 1     
   27   14   15 2     
   28   14   16 1     
   29   16   27 1     
   30   16   17 1     
   31   17   18 2     
   32   19   20 1     
   33   19   21 1     
   34   19   38 1     
   35   21   22 1     
   36   21   39 1     
   37   22   23 1     
   38   23   24 2     
   39   23   25 1     
   40   25   26 1     
   41   25   40 1     
   42   25   41 1     
   43   26   42 1     
   44   26   43 1     
   45   26   44 1     
   46    4   45 1     
   47    4   46 1     
   48    8   47 1     
   49    8   48 1     
   50   15   49 1     
   51   15   50 1     
   52   18   51 1     
   53   18   52 1     
   54   24   53 1     
   55   24   54 1     
@<TRIPOS>SUBSTRUCTURE
      1 S1             1
@<TRIPOS>SET
LONE_PAIRS      STATIC     ATOMS    <user>   **** ""
10 45 46 47 48 49 50 51 52 53 54
DONOR_HYDROGENS      STATIC     ATOMS    <user>   **** ""
1 27
ATOM$BLUE        STATIC     ATOMS    COLORGROUP SYSTEM
10 45 46 47 48 49 50 51 52 53 54
ATOM$RED        STATIC     ATOMS    COLORGROUP SYSTEM
1 27
