AV-unprocessed.smi:470|AV-procd|sdf|2657|dock9
  -GOLD-   2262023 73D 1   1.00000     0.00000
 Structure written by MMmdl.
 32 33  0  0  0  0  0  0  0  0  2 V2000
  150.0046  144.1280  158.3888 N   0  0  0  0  0  0  0  0  0  0  0  0
  151.2797  144.1839  158.7846 C   0  0  0  0  0  0  0  0  0  0  0  0
  152.1677  144.6493  158.0730 O   0  0  0  0  0  0  0  0  0  0  0  0
  151.6048  143.6529  160.1832 C   0  0  0  0  0  0  0  0  0  0  0  0
  152.5027  142.4529  160.0955 C   0  0  0  0  0  0  0  0  0  0  0  0
  153.5564  142.1475  160.9176 C   0  0  0  0  0  0  0  0  0  0  0  0
  154.3326  140.6639  160.4443 S   0  0  0  0  0  0  0  0  0  0  0  0
  153.1941  140.5066  159.1053 C   0  0  0  0  0  0  0  0  0  0  0  0
  153.1805  139.4979  158.2170 N   0  5  0  0  0  0  0  0  0  0  0  0
  152.1078  139.1580  157.4465 C   0  0  0  0  0  0  0  0  0  0  0  0
  151.2234  138.3788  157.7964 O   0  0  0  0  0  0  0  0  0  0  0  0
  152.0163  139.8055  156.0317 C   0  0  1  0  0  0  0  0  0  0  0  0
  152.2476  138.7695  154.9030 C   0  0  0  0  0  0  0  0  0  0  0  0
  150.9948  138.0008  154.5219 C   0  0  0  0  0  0  0  0  0  0  0  0
  149.7514  138.4051  154.8289 C   0  0  0  0  0  0  0  0  0  0  0  0
  149.4465  139.6745  155.6016 C   0  0  0  0  0  0  0  0  0  0  0  0
  150.6898  140.5716  155.7936 C   0  0  0  0  0  0  0  0  0  0  0  0
  152.2987  141.5005  159.0931 N   0  0  0  0  0  0  0  0  0  0  0  0
  149.7491  144.4487  157.4666 H   0  0  0  0  0  0  0  0  0  0  0  0
  149.3043  143.7457  159.0084 H   0  0  0  0  0  0  0  0  0  0  0  0
  152.0791  144.4417  160.7685 H   0  0  0  0  0  0  0  0  0  0  0  0
  150.6741  143.4069  160.6960 H   0  0  0  0  0  0  0  0  0  0  0  0
  153.9238  142.7044  161.7664 H   0  0  0  0  0  0  0  0  0  0  0  0
  152.7861  140.5696  155.9364 H   0  0  0  0  0  0  0  0  0  0  0  0
  152.6241  139.2680  154.0096 H   0  0  0  0  0  0  0  0  0  0  0  0
  153.0100  138.0468  155.1931 H   0  0  0  0  0  0  0  0  0  0  0  0
  151.1374  137.0934  153.9537 H   0  0  0  0  0  0  0  0  0  0  0  0
  148.9049  137.8057  154.5283 H   0  0  0  0  0  0  0  0  0  0  0  0
  148.6691  140.2318  155.0786 H   0  0  0  0  0  0  0  0  0  0  0  0
  149.0224  139.3907  156.5646 H   0  0  0  0  0  0  0  0  0  0  0  0
  150.5096  141.2814  156.6021 H   0  0  0  0  0  0  0  0  0  0  0  0
  150.8128  141.1785  154.8958 H   0  0  0  0  0  0  0  0  0  0  0  0
  1  2  1  0  0  0  0
  1 19  1  0  0  0  0
  1 20  1  0  0  0  0
  2  3  2  0  0  0  0
  2  4  1  0  0  0  0
  4  5  1  0  0  0  0
  4 21  1  0  0  0  0
  4 22  1  0  0  0  0
  5 18  1  0  0  0  0
  5  6  2  0  0  0  0
  6  7  1  0  0  0  0
  6 23  1  0  0  0  0
  7  8  1  0  0  0  0
  8  9  1  0  0  0  0
  8 18  2  0  0  0  0
  9 10  1  0  0  0  0
 10 11  2  0  0  0  0
 10 12  1  0  0  0  0
 12 17  1  0  0  0  0
 12 13  1  0  0  0  0
 12 24  1  0  0  0  0
 13 14  1  0  0  0  0
 13 25  1  0  0  0  0
 13 26  1  0  0  0  0
 14 15  2  0  0  0  0
 14 27  1  0  0  0  0
 15 16  1  0  0  0  0
 15 28  1  0  0  0  0
 16 17  1  0  0  0  0
 16 29  1  0  0  0  0
 16 30  1  0  0  0  0
 17 31  1  0  0  0  0
 17 32  1  0  0  0  0
M  CHG  1   9  -1
M  END
> <s_m_source_file>
AV-unprocessed.smi

> <i_m_source_file_index>
470

> <i_lp_mmshare_version>
43012

> <i_f3d_flags>
0

> <s_epik_input>
W05IMl1DKD1PKVtDSDJdYzFbY0hdc2MobjEpW05IXUMoPU8pW0NAQEhdMltDSDJdW0NIXT1bQ0hdW0NIMl1bQ0gyXTI=

> <s_epik_cmdline>
J2VwaWtfcHl0aG9uJywgJy1waCcsICc3LjAnLCAnLXRuJywgJzgnLCAnLW1hJywgJzIwMCcsICctbWV0YWxfYmluZGluZycsICctaW1hZScsICc8aW5maWxlLm1hZT4nLCAnLW9tYWUnLCAnPG91dGZpbGUubWFlPic=

> <r_lp_tautomer_probability>
1

> <r_epik_Ionization_Penalty>
4.98985

> <r_epik_Ionization_Penalty_Charging>
4.63309

> <r_epik_Ionization_Penalty_Neutral>
0.356756

> <r_epik_State_Penalty>
4.63286

> <r_epik_Charging_Adjusted_Penalty>
9.26595

> <i_epik_Tot_Q>
-1

> <i_epik_Tot_abs_Q>
1

> <r_epik_Metal_State_Penalty>
0.88943

> <b_epik_Metal_Only>
1

> <s_lp_Force_Field>
OPLS_2005

> <r_lp_Energy>
8.68361

> <b_lp_Chiralities_Consistent>
1

> <s_lp_Variant>
AV-unprocessed.smi:470-4

> <Gold.Version>
5.8.1

> <Gold.Id.Protein>
6NUR|6NUR_protein|mol2

> <Gold.PLP.Fitness>
46.6185

> <Gold.PLP.PLP>
-40.1670

> <Gold.PLP.part.hbond>
-3.0000

> <Gold.PLP.part.metal>
0.0000

> <Gold.PLP.part.buried>
-3.6016

> <Gold.PLP.part.nonpolar>
-34.1395

> <Gold.PLP.part.repulsive>
0.1333

> <Gold.PLP.ligand.clash>
0.0000

> <Gold.PLP.ligand.torsion>
1.2398

> <Gold.PLP.Chemscore.Hbond>
2.9600

> <Gold.PLP.Chemscore.CHOScore>
0.0000

> <Gold.PLP.Chemscore.Metal>
0.0000

> <Gold.Chemscore.Hbonds>
donor molecule, donor type, donor heavy atom, donor atom, acceptor molecule, acceptor atom, score
      L1  H     1    19       P1  8028  0.85
      P1  H  7997  8009       L1     9  2.00

> <Gold.PLP.Chemscore.Internal.Correction>
0.0512

> <Gold.Rescore>
     Score         DG    S(hbond)    S(metal)    S(lipo)     H(rot)  DE(clash)    DE(int)     intcor
     11.38     -12.63       0.70        0.00      81.91       1.87       0.10       1.14       ----

> <Gold.Chemscore.Fitness>
11.3838

> <Gold.Chemscore.DG>
-12.6258

> <Gold.Chemscore.ZeroCoef>
-5.4800

> <Gold.Chemscore.Hbond>
0.7025

> <Gold.Chemscore.Metal>
0.0000

> <Gold.Chemscore.Lipo>
81.9125

> <Gold.Chemscore.Internal_Hbond>
0.0000

> <Gold.Chemscore.DEClash>
0.1007

> <Gold.Chemscore.DEInternal>
1.1413

> <Gold.Chemscore.Rot>
1.8689

> <Gold.Chemscore.Internal.Correction>
   9.000000E+99

> <Gold.Chemscore.Hbonds>
donor molecule, donor type, donor heavy atom, donor atom, acceptor molecule, acceptor atom, score
      L1  H     1    19       P1  8028  0.14
      P1  H  7997  8009       L1     9  0.19

> <Gold.Chemscore.Hbond.Weighted>
-2.3465

> <Gold.Chemscore.Metal.Weighted>
-0.0000

> <Gold.Chemscore.Lipo.Weighted>
-9.5838

> <Gold.Chemscore.Internal_Hbond.Weighted>
0.0000

> <Gold.Chemscore.DEClash.Weighted>
0.1007

> <Gold.Chemscore.DEInternal.Weighted>
1.1413

> <Gold.Chemscore.Rot.Weighted>
4.7844

> <Gold.Chemscore.Internal.Correction.Weighted>
   9.000000E+99

> <Gold.Protein.RotatedTorsions>
[ 6907 6896 6895 6894 ] final  -57.34 input  -60.11 | X-H torsion
[ 7974 7965 7964 7962 ] final -127.19 input  175.53 | X-H torsion
[ 8008 7997 7996 7995 ] final  149.93 input   59.86 | X-H torsion
[ 10167 10162 10161 10158 ] final  -54.29 input  -65.29 | X-H torsion
[ 10718 10713 10712 10709 ] final   29.06 input   66.30 | X-H torsion
[ 10763 10752 10751 10750 ] final   -2.21 input  -60.55 | X-H torsion
[ 11005 11000 10999 10996 ] final   30.35 input  -57.11 | X-H torsion

> <Gold.Protein.ActiveResidues>
 VAL166  LYS551  ARG553  GLY616  TRP617  ASP618  TYR619  PRO620  LYS621  CYS622 
 ASP623  PHE694  ASN695  SER759  ASP760  ASP761  ALA762  ILE779  LEU786  VAL792 
 PHE793  MET794  SER795  GLU796  ALA797  LYS798  CYS799  TRP800  GLU811  SER814 

> <Gold.Protein.RotatedAtoms>
  150.8094  134.7240  159.6673 H   0  0  0  0  0  0  0  0  0  0  0  0  # atno 6907 bound_to 6896
  152.4214  134.5945  159.9993 H   0  0  0  0  0  0  0  0  0  0  0  0  # atno 6908 bound_to 6896
  151.6159  133.3306  159.3113 H   0  0  0  0  0  0  0  0  0  0  0  0  # atno 6909 bound_to 6896
  144.9796  140.7627  143.4620 H   0  0  0  0  0  0  0  0  0  0  0  0  # atno 7974 bound_to 7965
  156.2736  140.2088  156.5936 H   0  0  0  0  0  0  0  0  0  0  0  0  # atno 8008 bound_to 7997
  154.6963  140.0525  157.0437 H   0  0  0  0  0  0  0  0  0  0  0  0  # atno 8009 bound_to 7997
  155.0797  140.3185  155.4608 H   0  0  0  0  0  0  0  0  0  0  0  0  # atno 8010 bound_to 7997
  140.6438  143.2523  151.4915 H   0  0  0  0  0  0  0  0  0  0  0  0  # atno 10167 bound_to 10162
  157.2417  130.7072  149.6362 H   0  0  0  0  0  0  0  0  0  0  0  0  # atno 10718 bound_to 10713
  153.3550  135.6987  153.6758 H   0  0  0  0  0  0  0  0  0  0  0  0  # atno 10763 bound_to 10752
  153.5469  135.3561  155.2743 H   0  0  0  0  0  0  0  0  0  0  0  0  # atno 10764 bound_to 10752
  154.8659  135.4217  154.2794 H   0  0  0  0  0  0  0  0  0  0  0  0  # atno 10765 bound_to 10752
  140.2953  134.2817  155.7766 H   0  0  0  0  0  0  0  0  0  0  0  0  # atno 11005 bound_to 11000
  145.2439  139.2060  143.4978 LP  0  0  0  0  0  0  0  0  0  0  0  0  # atno 17320 bound_to 7965
  146.3404  140.2340  142.8594 LP  0  0  0  0  0  0  0  0  0  0  0  0  # atno 17321 bound_to 7965
  139.5648  144.2068  152.1748 LP  0  0  0  0  0  0  0  0  0  0  0  0  # atno 17342 bound_to 10162
  140.1347  144.5257  150.6781 LP  0  0  0  0  0  0  0  0  0  0  0  0  # atno 17343 bound_to 10162
  155.9670  130.4456  150.5507 LP  0  0  0  0  0  0  0  0  0  0  0  0  # atno 17370 bound_to 10713
  157.3372  131.0710  151.1816 LP  0  0  0  0  0  0  0  0  0  0  0  0  # atno 17371 bound_to 10713
  141.2138  133.7611  156.9687 LP  0  0  0  0  0  0  0  0  0  0  0  0  # atno 17394 bound_to 11000
  140.1158  134.9448  157.2132 LP  0  0  0  0  0  0  0  0  0  0  0  0  # atno 17395 bound_to 11000

$$$$
