AV-unprocessed.smi:2183|AV-procd|sdf|8865|dock1
  -GOLD-   2272012 63D 1   1.00000     0.00000
 Structure written by MMmdl.
 40 42  0  0  0  0  0  0  0  0  1 V2000
  148.5656  142.1053  155.3844 O   0  0  0  0  0  0  0  0  0  0  0  0
  149.6547  141.2082  155.3784 C   0  0  0  0  0  0  0  0  0  0  0  0
  150.6012  141.4324  156.5185 C   0  0  0  0  0  0  0  0  0  0  0  0
  151.1079  142.6386  156.7775 N   0  0  0  0  0  0  0  0  0  0  0  0
  151.8911  142.4085  157.8911 C   0  0  0  0  0  0  0  0  0  0  0  0
  152.6879  143.2937  158.6519 C   0  0  0  0  0  0  0  0  0  0  0  0
  153.4051  142.8245  159.7721 C   0  0  0  0  0  0  0  0  0  0  0  0
  153.3351  141.4672  160.1469 C   0  0  0  0  0  0  0  0  0  0  0  0
  152.5483  140.5685  159.4013 C   0  0  0  0  0  0  0  0  0  0  0  0
  151.8367  141.0411  158.2820 C   0  0  0  0  0  0  0  0  0  0  0  0
  150.9951  140.4356  157.3533 N   0  0  0  0  0  0  0  0  0  0  0  0
  150.6244  139.0255  157.3345 C   0  0  0  0  0  0  0  0  0  0  0  0
  150.5273  138.4144  158.7474 C   0  0  2  0  0  0  0  0  0  0  0  0
  151.6748  137.6350  159.0168 O   0  0  0  0  0  0  0  0  0  0  0  0
  149.2865  137.5260  158.9150 C   0  0  0  0  0  0  0  0  0  0  0  0
  149.0478  137.3306  160.3024 O   0  0  0  0  0  0  0  0  0  0  0  0
  148.1689  136.3392  160.6810 C   0  0  0  0  0  0  0  0  0  0  0  0
  147.8736  136.2392  162.0564 C   0  0  0  0  0  0  0  0  0  0  0  0
  146.9872  135.2550  162.5340 C   0  0  0  0  0  0  0  0  0  0  0  0
  146.3837  134.3566  161.6345 C   0  0  0  0  0  0  0  0  0  0  0  0
  145.2968  133.1497  162.2161 Cl  0  0  0  0  0  0  0  0  0  0  0  0
  146.6691  134.4449  160.2592 C   0  0  0  0  0  0  0  0  0  0  0  0
  147.5560  135.4298  159.7820 C   0  0  0  0  0  0  0  0  0  0  0  0
  148.9012  142.9857  155.3150 H   0  0  0  0  0  0  0  0  0  0  0  0
  149.2628  140.1919  155.4315 H   0  0  0  0  0  0  0  0  0  0  0  0
  150.1899  141.2825  154.4317 H   0  0  0  0  0  0  0  0  0  0  0  0
  152.7460  144.3356  158.3745 H   0  0  0  0  0  0  0  0  0  0  0  0
  154.0105  143.5098  160.3471 H   0  0  0  0  0  0  0  0  0  0  0  0
  153.8856  141.1164  161.0074 H   0  0  0  0  0  0  0  0  0  0  0  0
  152.4923  139.5286  159.6870 H   0  0  0  0  0  0  0  0  0  0  0  0
  149.6623  138.9443  156.8274 H   0  0  0  0  0  0  0  0  0  0  0  0
  151.3315  138.4601  156.7293 H   0  0  0  0  0  0  0  0  0  0  0  0
  150.4931  139.2087  159.4934 H   0  0  0  0  0  0  0  0  0  0  0  0
  152.2471  138.1299  159.5834 H   0  0  0  0  0  0  0  0  0  0  0  0
  148.4248  137.9923  158.4343 H   0  0  0  0  0  0  0  0  0  0  0  0
  149.4593  136.5592  158.4385 H   0  0  0  0  0  0  0  0  0  0  0  0
  148.3326  136.9252  162.7534 H   0  0  0  0  0  0  0  0  0  0  0  0
  146.7721  135.1915  163.5906 H   0  0  0  0  0  0  0  0  0  0  0  0
  146.2075  133.7568  159.5664 H   0  0  0  0  0  0  0  0  0  0  0  0
  147.7500  135.4658  158.7209 H   0  0  0  0  0  0  0  0  0  0  0  0
  1  2  1  0  0  0  0
  1 24  1  0  0  0  0
  2  3  1  0  0  0  0
  2 25  1  0  0  0  0
  2 26  1  0  0  0  0
  3 11  1  0  0  0  0
  3  4  2  0  0  0  0
  4  5  1  0  0  0  0
  5 10  2  0  0  0  0
  5  6  1  0  0  0  0
  6  7  2  0  0  0  0
  6 27  1  0  0  0  0
  7  8  1  0  0  0  0
  7 28  1  0  0  0  0
  8  9  2  0  0  0  0
  8 29  1  0  0  0  0
  9 10  1  0  0  0  0
  9 30  1  0  0  0  0
 10 11  1  0  0  0  0
 11 12  1  0  0  0  0
 12 13  1  0  0  0  0
 12 31  1  0  0  0  0
 12 32  1  0  0  0  0
 13 14  1  0  0  0  0
 13 15  1  0  0  0  0
 13 33  1  0  0  0  0
 14 34  1  0  0  0  0
 15 16  1  0  0  0  0
 15 35  1  0  0  0  0
 15 36  1  0  0  0  0
 16 17  1  0  0  0  0
 17 23  1  0  0  0  0
 17 18  2  0  0  0  0
 18 19  1  0  0  0  0
 18 37  1  0  0  0  0
 19 20  2  0  0  0  0
 19 38  1  0  0  0  0
 20 21  1  0  0  0  0
 20 22  1  0  0  0  0
 22 23  2  0  0  0  0
 22 39  1  0  0  0  0
 23 40  1  0  0  0  0
M  END
> <s_m_source_file>
AV-unprocessed.smi

> <i_m_source_file_index>
2183

> <i_lp_mmshare_version>
43012

> <i_f3d_flags>
0

> <s_epik_input>
W2NIXTFbY0hdW2NIXVtjSF1jKGMxMiluKGMobjIpW0NIMl1bT0hdKVtDSDJdW0NASF0oW09IXSlbQ0gyXU9jM1tjSF1bY0hdYyhDbClbY0hdW2NIXTM=

> <s_epik_cmdline>
J2VwaWtfcHl0aG9uJywgJy1waCcsICc3LjAnLCAnLXRuJywgJzgnLCAnLW1hJywgJzIwMCcsICctbWV0YWxfYmluZGluZycsICctaW1hZScsICc8aW5maWxlLm1hZT4nLCAnLW9tYWUnLCAnPG91dGZpbGUubWFlPic=

> <r_lp_tautomer_probability>
1

> <r_epik_Ionization_Penalty>
0.0586933

> <r_epik_Ionization_Penalty_Charging>
0

> <r_epik_Ionization_Penalty_Neutral>
0.0586933

> <r_epik_State_Penalty>
0.0507031

> <r_epik_Charging_Adjusted_Penalty>
0.0507031

> <i_epik_Tot_Q>
0

> <i_epik_Tot_abs_Q>
0

> <r_epik_Metal_State_Penalty>
5.29335e-05

> <b_epik_Metal_Only>
0

> <s_lp_Force_Field>
OPLS_2005

> <r_lp_Energy>
13.44

> <b_lp_Chiralities_Consistent>
1

> <s_lp_Variant>
AV-unprocessed.smi:2183-1

> <Gold.Version>
5.8.1

> <Gold.Id.Protein>
6NUR|6NUR_protein|mol2

> <Gold.PLP.Fitness>
50.9809

> <Gold.PLP.PLP>
-48.4986

> <Gold.PLP.part.hbond>
-2.2889

> <Gold.PLP.part.metal>
0.0000

> <Gold.PLP.part.buried>
-6.8495

> <Gold.PLP.part.nonpolar>
-40.4777

> <Gold.PLP.part.repulsive>
0.1155

> <Gold.PLP.ligand.clash>
0.0000

> <Gold.PLP.ligand.torsion>
1.2376

> <Gold.PLP.Chemscore.Hbond>
1.5280

> <Gold.PLP.Chemscore.CHOScore>
0.0000

> <Gold.PLP.Chemscore.Metal>
0.0000

> <Gold.Chemscore.Hbonds>
donor molecule, donor type, donor heavy atom, donor atom, acceptor molecule, acceptor atom, score
      L1  H     1    24       P1  8028  1.00
      P1  H  6931  6943       L1    16  0.43

> <Gold.PLP.Chemscore.Internal.Correction>
0.3735

> <Gold.Rescore>
     Score         DG    S(hbond)    S(metal)    S(lipo)     H(rot)  DE(clash)    DE(int)     intcor
     16.15     -17.51       1.42        0.00     128.69       3.04       0.03       1.32       ----

> <Gold.Chemscore.Fitness>
16.1518

> <Gold.Chemscore.DG>
-17.5067

> <Gold.Chemscore.ZeroCoef>
-5.4800

> <Gold.Chemscore.Hbond>
1.4197

> <Gold.Chemscore.Metal>
0.0000

> <Gold.Chemscore.Lipo>
128.6884

> <Gold.Chemscore.Internal_Hbond>
0.0000

> <Gold.Chemscore.DEClash>
0.0333

> <Gold.Chemscore.DEInternal>
1.3216

> <Gold.Chemscore.Rot>
3.0358

> <Gold.Chemscore.Internal.Correction>
   9.000000E+99

> <Gold.Chemscore.Hbonds>
donor molecule, donor type, donor heavy atom, donor atom, acceptor molecule, acceptor atom, score
      L1  H     1    24       P1  8028  0.98
      P1  H  6931  6943       L1    16  0.09

> <Gold.Chemscore.Hbond.Weighted>
-4.7417

> <Gold.Chemscore.Metal.Weighted>
-0.0000

> <Gold.Chemscore.Lipo.Weighted>
-15.0565

> <Gold.Chemscore.Internal_Hbond.Weighted>
0.0000

> <Gold.Chemscore.DEClash.Weighted>
0.0333

> <Gold.Chemscore.DEInternal.Weighted>
1.3216

> <Gold.Chemscore.Rot.Weighted>
7.7716

> <Gold.Chemscore.Internal.Correction.Weighted>
   9.000000E+99

> <Gold.Protein.RotatedTorsions>
[ 6907 6896 6895 6894 ] final  135.55 input  -60.11 | X-H torsion
[ 7974 7965 7964 7962 ] final  152.75 input  175.53 | X-H torsion
[ 8008 7997 7996 7995 ] final  -87.46 input   59.86 | X-H torsion
[ 10167 10162 10161 10158 ] final  -60.23 input  -65.29 | X-H torsion
[ 10718 10713 10712 10709 ] final  -18.84 input   66.30 | X-H torsion
[ 10763 10752 10751 10750 ] final  -53.12 input  -60.55 | X-H torsion
[ 11005 11000 10999 10996 ] final  125.76 input  -57.11 | X-H torsion

> <Gold.Protein.ActiveResidues>
 VAL166  LYS551  ARG553  GLY616  TRP617  ASP618  TYR619  PRO620  LYS621  CYS622 
 ASP623  PHE694  ASN695  SER759  ASP760  ASP761  ALA762  ILE779  LEU786  VAL792 
 PHE793  MET794  SER795  GLU796  ALA797  LYS798  CYS799  TRP800  GLU811  SER814 

> <Gold.Protein.RotatedAtoms>
  152.2992  133.5638  159.5606 H   0  0  0  0  0  0  0  0  0  0  0  0  # atno 6907 bound_to 6896
  150.7270  134.0316  159.3744 H   0  0  0  0  0  0  0  0  0  0  0  0  # atno 6908 bound_to 6896
  151.8217  135.0650  160.0477 H   0  0  0  0  0  0  0  0  0  0  0  0  # atno 6909 bound_to 6896
  144.8201  139.6710  143.6104 H   0  0  0  0  0  0  0  0  0  0  0  0  # atno 7974 bound_to 7965
  154.6635  140.0565  157.0088 H   0  0  0  0  0  0  0  0  0  0  0  0  # atno 8008 bound_to 7997
  155.1194  140.3246  155.4482 H   0  0  0  0  0  0  0  0  0  0  0  0  # atno 8009 bound_to 7997
  156.2628  140.2000  156.6316 H   0  0  0  0  0  0  0  0  0  0  0  0  # atno 8010 bound_to 7997
  140.6084  143.2380  151.5767 H   0  0  0  0  0  0  0  0  0  0  0  0  # atno 10167 bound_to 10162
  156.5539  130.4708  149.6439 H   0  0  0  0  0  0  0  0  0  0  0  0  # atno 10718 bound_to 10713
  154.1537  135.6486  153.4969 H   0  0  0  0  0  0  0  0  0  0  0  0  # atno 10763 bound_to 10752
  153.0130  135.5344  154.6782 H   0  0  0  0  0  0  0  0  0  0  0  0  # atno 10764 bound_to 10752
  154.6077  135.2950  155.0438 H   0  0  0  0  0  0  0  0  0  0  0  0  # atno 10765 bound_to 10752
  139.9422  134.9634  156.8607 H   0  0  0  0  0  0  0  0  0  0  0  0  # atno 11005 bound_to 11000
  146.2506  139.6191  142.9430 LP  0  0  0  0  0  0  0  0  0  0  0  0  # atno 17320 bound_to 7965
  145.5125  141.0435  143.2480 LP  0  0  0  0  0  0  0  0  0  0  0  0  # atno 17321 bound_to 7965
  139.5342  144.2827  152.1216 LP  0  0  0  0  0  0  0  0  0  0  0  0  # atno 17342 bound_to 10162
  140.2022  144.4647  150.6426 LP  0  0  0  0  0  0  0  0  0  0  0  0  # atno 17343 bound_to 10162
  156.2859  130.7097  151.1934 LP  0  0  0  0  0  0  0  0  0  0  0  0  # atno 17370 bound_to 10713
  157.7382  131.0543  150.5309 LP  0  0  0  0  0  0  0  0  0  0  0  0  # atno 17371 bound_to 10713
  140.5922  134.0251  155.7504 LP  0  0  0  0  0  0  0  0  0  0  0  0  # atno 17394 bound_to 11000
  141.1061  133.9691  157.2994 LP  0  0  0  0  0  0  0  0  0  0  0  0  # atno 17395 bound_to 11000

$$$$
