AV-unprocessed.smi:269|AV-procd|sdf|2042|dock10
  -GOLD-   2262021263D 1   1.00000     0.00000
 Structure written by MMmdl.
 62 65  0  0  0  0  0  0  0  0  2 V2000
  141.7263  130.0862  160.1878 C   0  0  0  0  0  0  0  0  0  0  0  0
  142.0556  131.4598  159.5885 C   0  0  0  0  0  0  0  0  0  0  0  0
  142.2106  132.4761  160.6230 N   0  0  0  0  0  0  0  0  0  0  0  0
  142.4362  133.7789  160.3952 C   0  0  0  0  0  0  0  0  0  0  0  0
  142.5213  134.2640  159.2665 O   0  0  0  0  0  0  0  0  0  0  0  0
  142.5717  134.6705  161.6341 C   0  0  0  0  0  0  0  0  0  0  0  0
  143.9821  134.8652  162.0576 N   0  3  0  0  0  0  0  0  0  0  0  0
  144.6764  135.9461  161.3068 C   0  0  0  0  0  0  0  0  0  0  0  0
  146.1016  136.1646  161.8436 C   0  0  0  0  0  0  0  0  0  0  0  0
  146.8557  134.9138  161.8318 N   0  0  0  0  0  0  0  0  0  0  0  0
  147.5570  134.6431  160.6980 C   0  0  0  0  0  0  0  0  0  0  0  0
  147.7065  133.3556  160.2868 N   0  0  0  0  0  0  0  0  0  0  0  0
  148.3790  133.0749  159.1674 C   0  0  0  0  0  0  0  0  0  0  0  0
  148.9775  133.9151  158.3227 N   0  0  0  0  0  0  0  0  0  0  0  0
  148.8492  135.2084  158.7339 C   0  0  0  0  0  0  0  0  0  0  0  0
  148.1587  135.6561  159.8964 C   0  0  0  0  0  0  0  0  0  0  0  0
  148.2424  137.0401  159.9878 N   0  0  0  0  0  0  0  0  0  0  0  0
  148.9262  137.3905  158.9336 C   0  0  0  0  0  0  0  0  0  0  0  0
  149.3480  136.3524  158.1327 N   0  0  0  0  0  0  0  0  0  0  0  0
  150.1201  136.4576  156.9009 C   0  0  0  0  0  0  0  0  0  0  0  0
  149.4096  137.2167  155.7346 C   0  0  0  0  0  0  0  0  0  0  0  0
  148.0550  136.5485  155.3776 C   0  0  0  0  0  0  0  0  0  0  0  0
  147.4476  137.1403  154.2463 O   0  0  0  0  0  0  0  0  0  0  0  0
  149.1228  138.6948  156.1015 C   0  0  0  0  0  0  0  0  0  0  0  0
  150.4001  139.5521  156.1719 C   0  0  0  0  0  0  0  0  0  0  0  0
  151.0966  139.4837  154.9347 O   0  0  0  0  0  0  0  0  0  0  0  0
  151.5298  138.1665  154.6214 C   0  0  0  0  0  0  0  0  0  0  0  0
  150.3141  137.2327  154.4764 C   0  0  0  0  0  0  0  0  0  0  0  0
  146.1992  133.8191  162.5473 C   0  0  0  0  0  0  0  0  0  0  0  0
  144.7578  133.5983  162.0458 C   0  0  0  0  0  0  0  0  0  0  0  0
  141.6431  129.3331  159.4039 H   0  0  0  0  0  0  0  0  0  0  0  0
  140.7796  130.1044  160.7289 H   0  0  0  0  0  0  0  0  0  0  0  0
  142.5035  129.7606  160.8801 H   0  0  0  0  0  0  0  0  0  0  0  0
  142.9884  131.4012  159.0270 H   0  0  0  0  0  0  0  0  0  0  0  0
  141.2839  131.7585  158.8770 H   0  0  0  0  0  0  0  0  0  0  0  0
  142.1471  132.1625  161.5810 H   0  0  0  0  0  0  0  0  0  0  0  0
  142.1316  135.6346  161.3757 H   0  0  0  0  0  0  0  0  0  0  0  0
  141.9855  134.2699  162.4632 H   0  0  0  0  0  0  0  0  0  0  0  0
  144.7138  135.6854  160.2478 H   0  0  0  0  0  0  0  0  0  0  0  0
  144.1188  136.8797  161.3824 H   0  0  0  0  0  0  0  0  0  0  0  0
  146.5912  136.9466  161.2654 H   0  0  0  0  0  0  0  0  0  0  0  0
  146.0584  136.5289  162.8708 H   0  0  0  0  0  0  0  0  0  0  0  0
  148.4471  132.0277  158.9113 H   0  0  0  0  0  0  0  0  0  0  0  0
  149.1486  138.4249  158.7157 H   0  0  0  0  0  0  0  0  0  0  0  0
  151.0728  136.9237  157.1488 H   0  0  0  0  0  0  0  0  0  0  0  0
  150.3745  135.4452  156.5851 H   0  0  0  0  0  0  0  0  0  0  0  0
  148.1772  135.4809  155.1954 H   0  0  0  0  0  0  0  0  0  0  0  0
  147.3552  136.6325  156.2102 H   0  0  0  0  0  0  0  0  0  0  0  0
  148.0340  137.0558  153.5105 H   0  0  0  0  0  0  0  0  0  0  0  0
  148.4714  139.1351  155.3452 H   0  0  0  0  0  0  0  0  0  0  0  0
  148.5695  138.7663  157.0374 H   0  0  0  0  0  0  0  0  0  0  0  0
  150.1370  140.5920  156.3651 H   0  0  0  0  0  0  0  0  0  0  0  0
  151.0538  139.2403  156.9861 H   0  0  0  0  0  0  0  0  0  0  0  0
  152.0842  138.1985  153.6832 H   0  0  0  0  0  0  0  0  0  0  0  0
  152.2253  137.8068  155.3803 H   0  0  0  0  0  0  0  0  0  0  0  0
  150.6548  136.2248  154.2365 H   0  0  0  0  0  0  0  0  0  0  0  0
  149.7344  137.5666  153.6146 H   0  0  0  0  0  0  0  0  0  0  0  0
  146.7792  132.8981  162.4760 H   0  0  0  0  0  0  0  0  0  0  0  0
  146.1784  134.0778  163.6065 H   0  0  0  0  0  0  0  0  0  0  0  0
  144.2657  132.8578  162.6773 H   0  0  0  0  0  0  0  0  0  0  0  0
  144.7658  133.1930  161.0330 H   0  0  0  0  0  0  0  0  0  0  0  0
  143.9462  135.1620  163.0227 H   0  0  0  0  0  0  0  0  0  0  0  0
  1  2  1  0  0  0  0
  1 31  1  0  0  0  0
  1 32  1  0  0  0  0
  1 33  1  0  0  0  0
  2  3  1  0  0  0  0
  2 34  1  0  0  0  0
  2 35  1  0  0  0  0
  3  4  1  0  0  0  0
  3 36  1  0  0  0  0
  4  5  2  0  0  0  0
  4  6  1  0  0  0  0
  6  7  1  0  0  0  0
  6 37  1  0  0  0  0
  6 38  1  0  0  0  0
  7 30  1  0  0  0  0
  7  8  1  0  0  0  0
  7 62  1  0  0  0  0
  8  9  1  0  0  0  0
  8 39  1  0  0  0  0
  8 40  1  0  0  0  0
  9 10  1  0  0  0  0
  9 41  1  0  0  0  0
  9 42  1  0  0  0  0
 10 11  1  0  0  0  0
 10 29  1  0  0  0  0
 11 16  1  0  0  0  0
 11 12  2  0  0  0  0
 12 13  1  0  0  0  0
 13 14  2  0  0  0  0
 13 43  1  0  0  0  0
 14 15  1  0  0  0  0
 15 19  1  0  0  0  0
 15 16  2  0  0  0  0
 16 17  1  0  0  0  0
 17 18  2  0  0  0  0
 18 19  1  0  0  0  0
 18 44  1  0  0  0  0
 19 20  1  0  0  0  0
 20 21  1  0  0  0  0
 20 45  1  0  0  0  0
 20 46  1  0  0  0  0
 21 28  1  0  0  0  0
 21 22  1  0  0  0  0
 21 24  1  0  0  0  0
 22 23  1  0  0  0  0
 22 47  1  0  0  0  0
 22 48  1  0  0  0  0
 23 49  1  0  0  0  0
 24 25  1  0  0  0  0
 24 50  1  0  0  0  0
 24 51  1  0  0  0  0
 25 26  1  0  0  0  0
 25 52  1  0  0  0  0
 25 53  1  0  0  0  0
 26 27  1  0  0  0  0
 27 28  1  0  0  0  0
 27 54  1  0  0  0  0
 27 55  1  0  0  0  0
 28 56  1  0  0  0  0
 28 57  1  0  0  0  0
 29 30  1  0  0  0  0
 29 58  1  0  0  0  0
 29 59  1  0  0  0  0
 30 60  1  0  0  0  0
 30 61  1  0  0  0  0
M  CHG  1   7   1
M  END
> <s_m_source_file>
AV-unprocessed.smi

> <i_m_source_file_index>
269

> <i_lp_mmshare_version>
43012

> <i_f3d_flags>
0

> <s_epik_input>
W0NIM11bQ0gyXVtOSF1DKD1PKVtDSDJdTjFbQ0gyXVtDSDJdTihbQ0gyXVtDSDJdMSljKG5bY0hdbjIpYyhjMjMpbltjSF1uM1tDSDJdQzQoW0NIMl1bT0hdKVtDSDJdW0NIMl1PW0NIMl1bQ0gyXTQ=

> <s_epik_cmdline>
J2VwaWtfcHl0aG9uJywgJy1waCcsICc3LjAnLCAnLXRuJywgJzgnLCAnLW1hJywgJzIwMCcsICctbWV0YWxfYmluZGluZycsICctaW1hZScsICc8aW5maWxlLm1hZT4nLCAnLW9tYWUnLCAnPG91dGZpbGUubWFlPic=

> <r_lp_tautomer_probability>
1

> <r_epik_Ionization_Penalty>
0.146524

> <r_epik_Ionization_Penalty_Charging>
0.146459

> <r_epik_Ionization_Penalty_Neutral>
6.45448e-05

> <r_epik_State_Penalty>
0.136576

> <r_epik_Charging_Adjusted_Penalty>
0.283035

> <i_epik_Tot_Q>
1

> <i_epik_Tot_abs_Q>
1

> <r_epik_Metal_State_Penalty>
0.148847

> <b_epik_Metal_Only>
0

> <s_lp_Force_Field>
OPLS_2005

> <r_lp_Energy>
42.6281

> <b_lp_Chiralities_Consistent>
1

> <s_lp_Variant>
AV-unprocessed.smi:269-1

> <Gold.Version>
5.8.1

> <Gold.Id.Protein>
6NUR|6NUR_protein|mol2

> <Gold.PLP.Fitness>
47.5196

> <Gold.PLP.PLP>
-34.8250

> <Gold.PLP.part.hbond>
-5.9267

> <Gold.PLP.part.metal>
0.0000

> <Gold.PLP.part.buried>
-6.5114

> <Gold.PLP.part.nonpolar>
-23.5450

> <Gold.PLP.part.repulsive>
0.0870

> <Gold.PLP.ligand.clash>
0.0000

> <Gold.PLP.ligand.torsion>
0.9659

> <Gold.PLP.Chemscore.Hbond>
4.6923

> <Gold.PLP.Chemscore.CHOScore>
0.0000

> <Gold.PLP.Chemscore.Metal>
0.0000

> <Gold.Chemscore.Hbonds>
donor molecule, donor type, donor heavy atom, donor atom, acceptor molecule, acceptor atom, score
      L1  H    23    49       P1  7948  0.93
      P1  H  6896  6907       L1    14  0.04
      P1  H  6931  6943       L1    17  0.06
      P1  H  6934  6947       L1    17  0.01
      P1  H  7989  7998       L1    26  0.91
      P1  H 11000 11005       L1     5  0.10

> <Gold.PLP.Chemscore.Internal.Correction>
0.5495

> <Gold.Rescore>
     Score         DG    S(hbond)    S(metal)    S(lipo)     H(rot)  DE(clash)    DE(int)     intcor
     15.16     -17.20       3.80        0.00      65.38       3.37       0.00       2.04       ----

> <Gold.Chemscore.Fitness>
15.1574

> <Gold.Chemscore.DG>
-17.1981

> <Gold.Chemscore.ZeroCoef>
-5.4800

> <Gold.Chemscore.Hbond>
3.8042

> <Gold.Chemscore.Metal>
0.0000

> <Gold.Chemscore.Lipo>
65.3755

> <Gold.Chemscore.Internal_Hbond>
0.0000

> <Gold.Chemscore.DEClash>
0.0000

> <Gold.Chemscore.DEInternal>
2.0408

> <Gold.Chemscore.Rot>
3.3738

> <Gold.Chemscore.Internal.Correction>
   9.000000E+99

> <Gold.Chemscore.Hbonds>
donor molecule, donor type, donor heavy atom, donor atom, acceptor molecule, acceptor atom, score
      L1  H    23    49       P1  7948  0.88
      P1  H  6931  6943       L1    17  0.06
      P1  H  6934  6947       L1    17  0.03
      P1  H  7989  7998       L1    26  0.73
      P1  H 11000 11005       L1     5  0.13

> <Gold.Chemscore.Hbond.Weighted>
-12.7061

> <Gold.Chemscore.Metal.Weighted>
-0.0000

> <Gold.Chemscore.Lipo.Weighted>
-7.6489

> <Gold.Chemscore.Internal_Hbond.Weighted>
0.0000

> <Gold.Chemscore.DEClash.Weighted>
0.0000

> <Gold.Chemscore.DEInternal.Weighted>
2.0408

> <Gold.Chemscore.Rot.Weighted>
8.6369

> <Gold.Chemscore.Internal.Correction.Weighted>
   9.000000E+99

> <Gold.Protein.RotatedTorsions>
[ 6907 6896 6895 6894 ] final -100.51 input  -60.11 | X-H torsion
[ 7974 7965 7964 7962 ] final   56.08 input  175.53 | X-H torsion
[ 8008 7997 7996 7995 ] final  129.52 input   59.86 | X-H torsion
[ 10167 10162 10161 10158 ] final  -30.65 input  -65.29 | X-H torsion
[ 10718 10713 10712 10709 ] final   12.01 input   66.30 | X-H torsion
[ 10763 10752 10751 10750 ] final -165.45 input  -60.55 | X-H torsion
[ 11005 11000 10999 10996 ] final -119.73 input  -57.11 | X-H torsion

> <Gold.Protein.ActiveResidues>
 VAL166  LYS551  ARG553  GLY616  TRP617  ASP618  TYR619  PRO620  LYS621  CYS622 
 ASP623  PHE694  ASN695  SER759  ASP760  ASP761  ALA762  ILE779  LEU786  VAL792 
 PHE793  MET794  SER795  GLU796  ALA797  LYS798  CYS799  TRP800  GLU811  SER814 

> <Gold.Protein.RotatedAtoms>
  150.7119  134.0876  159.3919 H   0  0  0  0  0  0  0  0  0  0  0  0  # atno 6907 bound_to 6896
  151.8861  135.0432  160.0503 H   0  0  0  0  0  0  0  0  0  0  0  0  # atno 6908 bound_to 6896
  152.2529  133.5195  159.5372 H   0  0  0  0  0  0  0  0  0  0  0  0  # atno 6909 bound_to 6896
  145.9436  139.3910  143.0348 H   0  0  0  0  0  0  0  0  0  0  0  0  # atno 7974 bound_to 7965
  156.2937  140.2618  156.2612 H   0  0  0  0  0  0  0  0  0  0  0  0  # atno 8008 bound_to 7997
  154.9787  140.0390  157.2286 H   0  0  0  0  0  0  0  0  0  0  0  0  # atno 8009 bound_to 7997
  154.7792  140.2792  155.6082 H   0  0  0  0  0  0  0  0  0  0  0  0  # atno 8010 bound_to 7997
  140.7246  143.3832  151.1563 H   0  0  0  0  0  0  0  0  0  0  0  0  # atno 10167 bound_to 10162
  157.0039  130.6090  149.5699 H   0  0  0  0  0  0  0  0  0  0  0  0  # atno 10718 bound_to 10713
  154.6931  135.2974  154.9451 H   0  0  0  0  0  0  0  0  0  0  0  0  # atno 10763 bound_to 10752
  154.0408  135.6657  153.4794 H   0  0  0  0  0  0  0  0  0  0  0  0  # atno 10764 bound_to 10752
  153.0626  135.5107  154.8033 H   0  0  0  0  0  0  0  0  0  0  0  0  # atno 10765 bound_to 10752
  141.0195  134.0146  157.3303 H   0  0  0  0  0  0  0  0  0  0  0  0  # atno 11005 bound_to 11000
  145.8266  140.9652  143.0871 LP  0  0  0  0  0  0  0  0  0  0  0  0  # atno 17320 bound_to 7965
  144.6783  140.0109  143.7484 LP  0  0  0  0  0  0  0  0  0  0  0  0  # atno 17321 bound_to 7965
  139.7424  143.8904  152.3054 LP  0  0  0  0  0  0  0  0  0  0  0  0  # atno 17342 bound_to 10162
  139.8729  144.7058  150.8966 LP  0  0  0  0  0  0  0  0  0  0  0  0  # atno 17343 bound_to 10162
  156.0161  130.5255  150.8138 LP  0  0  0  0  0  0  0  0  0  0  0  0  # atno 17370 bound_to 10713
  157.5370  131.0939  150.9879 LP  0  0  0  0  0  0  0  0  0  0  0  0  # atno 17371 bound_to 10713
  139.9137  135.0194  156.7796 LP  0  0  0  0  0  0  0  0  0  0  0  0  # atno 17394 bound_to 11000
  140.6598  133.9656  155.7798 LP  0  0  0  0  0  0  0  0  0  0  0  0  # atno 17395 bound_to 11000

$$$$
