AV-unprocessed.smi:37|AV-procd|sdf|326|dock2
  -GOLD-   2262016153D 1   1.00000     0.00000
 Structure written by MMmdl.
 43 44  0  0  0  0  0  0  0  0  2 V2000
  154.0154  137.0029  162.0899 C   0  0  0  0  0  0  0  0  0  0  0  0
  154.4358  137.5576  160.7222 C   0  0  0  0  0  0  0  0  0  0  0  0
  153.8226  136.7684  159.5680 C   0  0  0  0  0  0  0  0  0  0  0  0
  153.9470  135.5461  159.4883 O   0  0  0  0  0  0  0  0  0  0  0  0
  153.1692  137.5517  158.6965 O   0  0  0  0  0  0  0  0  0  0  0  0
  152.6170  136.9845  157.5207 C   0  0  0  0  0  0  0  0  0  0  0  0
  151.0949  136.8788  157.6795 C   0  0  1  0  0  0  0  0  0  0  0  0
  150.7234  136.8128  159.0515 O   0  0  0  0  0  0  0  0  0  0  0  0
  149.4255  137.3074  159.2188 C   0  0  2  0  0  0  0  0  0  0  0  0
  148.5145  136.2030  159.7062 N   0  0  0  0  0  0  0  0  0  0  0  0
  148.5282  134.9464  159.1228 C   0  0  0  0  0  0  0  0  0  0  0  0
  147.7161  133.9641  159.5638 C   0  0  0  0  0  0  0  0  0  0  0  0
  147.7469  132.7560  158.9752 F   0  0  0  0  0  0  0  0  0  0  0  0
  146.8060  134.2229  160.6781 C   0  0  0  0  0  0  0  0  0  0  0  0
  146.0722  133.3210  161.0796 O   0  0  0  0  0  0  0  0  0  0  0  0
  146.8117  135.4710  161.2300 N   0  5  0  0  0  0  0  0  0  0  0  0
  147.6279  136.4702  160.7840 C   0  0  0  0  0  0  0  0  0  0  0  0
  147.6328  137.6035  161.2653 O   0  0  0  0  0  0  0  0  0  0  0  0
  148.9792  137.9123  157.8695 C   0  0  2  0  0  0  0  0  0  0  0  0
  147.8389  136.6848  156.7776 Br  0  0  0  0  0  0  0  0  0  0  0  0
  150.3075  138.0806  157.1521 C   0  0  1  0  0  0  0  0  0  0  0  0
  150.9458  139.2920  157.5441 O   0  0  0  0  0  0  0  0  0  0  0  0
  151.0793  140.3065  156.6709 C   0  0  0  0  0  0  0  0  0  0  0  0
  151.0277  140.2154  155.4443 O   0  0  0  0  0  0  0  0  0  0  0  0
  151.2978  141.6513  157.3608 C   0  0  0  0  0  0  0  0  0  0  0  0
  151.4396  141.5075  158.8824 C   0  0  0  0  0  0  0  0  0  0  0  0
  154.4857  137.5690  162.8937 H   0  0  0  0  0  0  0  0  0  0  0  0
  154.3138  135.9600  162.2025 H   0  0  0  0  0  0  0  0  0  0  0  0
  152.9357  137.0628  162.2326 H   0  0  0  0  0  0  0  0  0  0  0  0
  154.1354  138.6018  160.6335 H   0  0  0  0  0  0  0  0  0  0  0  0
  155.5220  137.5318  160.6300 H   0  0  0  0  0  0  0  0  0  0  0  0
  152.8722  137.5841  156.6455 H   0  0  0  0  0  0  0  0  0  0  0  0
  153.0439  135.9910  157.3762 H   0  0  0  0  0  0  0  0  0  0  0  0
  150.7343  135.9786  157.1787 H   0  0  0  0  0  0  0  0  0  0  0  0
  149.4657  138.0411  160.0258 H   0  0  0  0  0  0  0  0  0  0  0  0
  149.1887  134.7377  158.2948 H   0  0  0  0  0  0  0  0  0  0  0  0
  148.4282  138.8415  158.0182 H   0  0  0  0  0  0  0  0  0  0  0  0
  150.2026  138.0403  156.0665 H   0  0  0  0  0  0  0  0  0  0  0  0
  152.1941  142.1163  156.9492 H   0  0  0  0  0  0  0  0  0  0  0  0
  150.4621  142.3098  157.1228 H   0  0  0  0  0  0  0  0  0  0  0  0
  151.6450  142.4745  159.3417 H   0  0  0  0  0  0  0  0  0  0  0  0
  152.2597  140.8374  159.1429 H   0  0  0  0  0  0  0  0  0  0  0  0
  150.5278  141.1155  159.3345 H   0  0  0  0  0  0  0  0  0  0  0  0
  1  2  1  0  0  0  0
  1 27  1  0  0  0  0
  1 28  1  0  0  0  0
  1 29  1  0  0  0  0
  2  3  1  0  0  0  0
  2 30  1  0  0  0  0
  2 31  1  0  0  0  0
  3  4  2  0  0  0  0
  3  5  1  0  0  0  0
  5  6  1  0  0  0  0
  6  7  1  0  0  0  0
  6 32  1  0  0  0  0
  6 33  1  0  0  0  0
  7 21  1  0  0  0  0
  7  8  1  0  0  0  0
  7 34  1  0  0  0  0
  8  9  1  0  0  0  0
  9 10  1  0  0  0  0
  9 19  1  0  0  0  0
  9 35  1  0  0  0  0
 10 17  1  0  0  0  0
 10 11  1  0  0  0  0
 11 12  2  0  0  0  0
 11 36  1  0  0  0  0
 12 13  1  0  0  0  0
 12 14  1  0  0  0  0
 14 15  2  0  0  0  0
 14 16  1  0  0  0  0
 16 17  1  0  0  0  0
 17 18  2  0  0  0  0
 19 20  1  0  0  0  0
 19 21  1  0  0  0  0
 19 37  1  0  0  0  0
 21 22  1  0  0  0  0
 21 38  1  0  0  0  0
 22 23  1  0  0  0  0
 23 24  2  0  0  0  0
 23 25  1  0  0  0  0
 25 26  1  0  0  0  0
 25 39  1  0  0  0  0
 25 40  1  0  0  0  0
 26 41  1  0  0  0  0
 26 42  1  0  0  0  0
 26 43  1  0  0  0  0
M  CHG  1  16  -1
M  END
> <s_m_source_file>
AV-unprocessed.smi

> <i_m_source_file_index>
37

> <i_lp_mmshare_version>
43012

> <i_f3d_flags>
0

> <s_epik_input>
W0NIM11bQ0gyXUMoPU8pT1tDSDJdW0NAQEhdMU9bQ0BASF0objJbY0hdYyhGKWMoPU8pW25IXWMyPU8pW0NAQEhdKEJyKVtDQEhdMU9DKD1PKVtDSDJdW0NIM10=

> <s_epik_cmdline>
J2VwaWtfcHl0aG9uJywgJy1waCcsICc3LjAnLCAnLXRuJywgJzgnLCAnLW1hJywgJzIwMCcsICctbWV0YWxfYmluZGluZycsICctaW1hZScsICc8aW5maWxlLm1hZT4nLCAnLW9tYWUnLCAnPG91dGZpbGUubWFlPic=

> <r_epik_Ionization_Penalty>
1.08158

> <r_epik_Ionization_Penalty_Charging>
9.05154e-09

> <r_epik_Ionization_Penalty_Neutral>
1.08158

> <r_epik_State_Penalty>
1.13706

> <r_epik_Charging_Adjusted_Penalty>
1.13706

> <i_epik_Tot_Q>
-1

> <i_epik_Tot_abs_Q>
1

> <r_epik_Metal_State_Penalty>
0.00343535

> <b_epik_Metal_Only>
0

> <s_epik_Chemistry_Notes>
This compound has an ester and may undergo hydrolysis at high or low pH. This compound contains an acetal/aminal-like group ( X-CH(R)-Y where X, Y are N, S, or O) that may be acid/base labile, releasing an aldehyde.

> <s_lp_Force_Field>
OPLS_2005

> <r_lp_Energy>
32.8467

> <b_lp_Chiralities_Consistent>
1

> <s_lp_Variant>
AV-unprocessed.smi:37-24

> <Gold.Version>
5.8.1

> <Gold.Id.Protein>
6NUR|6NUR_protein|mol2

> <Gold.PLP.Fitness>
37.6834

> <Gold.PLP.PLP>
-27.7903

> <Gold.PLP.part.hbond>
-4.8354

> <Gold.PLP.part.metal>
0.0000

> <Gold.PLP.part.buried>
-2.9931

> <Gold.PLP.part.nonpolar>
-19.2265

> <Gold.PLP.part.repulsive>
0.0235

> <Gold.PLP.ligand.clash>
0.0178

> <Gold.PLP.ligand.torsion>
2.1438

> <Gold.PLP.Chemscore.Hbond>
4.6661

> <Gold.PLP.Chemscore.CHOScore>
0.0000

> <Gold.PLP.Chemscore.Metal>
0.0000

> <Gold.Chemscore.Hbonds>
donor molecule, donor type, donor heavy atom, donor atom, acceptor molecule, acceptor atom, score
      P1  H  6896  6907       L1     8  1.00
      P1  H  6896  6908       L1     4  1.00
      P1  H  6931  6943       L1    18  0.72
      P1  H  6934  6947       L1    18  0.76
      P1  H  7989  7998       L1    24  0.73

> <Gold.PLP.Chemscore.Internal.Correction>
0.2002

> <Gold.Rescore>
     Score         DG    S(hbond)    S(metal)    S(lipo)     H(rot)  DE(clash)    DE(int)     intcor
     13.51     -16.71       4.30        0.00      44.67       3.27       0.00       3.20       ----

> <Gold.Chemscore.Fitness>
13.5143

> <Gold.Chemscore.DG>
-16.7138

> <Gold.Chemscore.ZeroCoef>
-5.4800

> <Gold.Chemscore.Hbond>
4.3027

> <Gold.Chemscore.Metal>
0.0000

> <Gold.Chemscore.Lipo>
44.6669

> <Gold.Chemscore.Internal_Hbond>
0.0000

> <Gold.Chemscore.DEClash>
0.0000

> <Gold.Chemscore.DEInternal>
3.1995

> <Gold.Chemscore.Rot>
3.2669

> <Gold.Chemscore.Internal.Correction>
   9.000000E+99

> <Gold.Chemscore.Hbonds>
donor molecule, donor type, donor heavy atom, donor atom, acceptor molecule, acceptor atom, score
      P1  H  6896  6907       L1     8  0.66
      P1  H  6896  6908       L1     4  0.95
      P1  H  6931  6943       L1    18  0.71
      P1  H  6934  6947       L1    18  0.71
      P1  H  7989  7998       L1    24  0.71

> <Gold.Chemscore.Hbond.Weighted>
-14.3712

> <Gold.Chemscore.Metal.Weighted>
-0.0000

> <Gold.Chemscore.Lipo.Weighted>
-5.2260

> <Gold.Chemscore.Internal_Hbond.Weighted>
0.0000

> <Gold.Chemscore.DEClash.Weighted>
0.0000

> <Gold.Chemscore.DEInternal.Weighted>
3.1995

> <Gold.Chemscore.Rot.Weighted>
8.3634

> <Gold.Chemscore.Internal.Correction.Weighted>
   9.000000E+99

> <Gold.Protein.RotatedTorsions>
[ 6907 6896 6895 6894 ] final  -39.57 input  -60.11 | X-H torsion
[ 7974 7965 7964 7962 ] final   17.01 input  175.53 | X-H torsion
[ 8008 7997 7996 7995 ] final  105.48 input   59.86 | X-H torsion
[ 10167 10162 10161 10158 ] final -176.97 input  -65.29 | X-H torsion
[ 10718 10713 10712 10709 ] final -120.68 input   66.30 | X-H torsion
[ 10763 10752 10751 10750 ] final  162.44 input  -60.55 | X-H torsion
[ 11005 11000 10999 10996 ] final  139.32 input  -57.11 | X-H torsion

> <Gold.Protein.ActiveResidues>
 VAL166  LYS551  ARG553  GLY616  TRP617  ASP618  TYR619  PRO620  LYS621  CYS622 
 ASP623  PHE694  ASN695  SER759  ASP760  ASP761  ALA762  ILE779  LEU786  VAL792 
 PHE793  MET794  SER795  GLU796  ALA797  LYS798  CYS799  TRP800  GLU811  SER814 

> <Gold.Protein.RotatedAtoms>
  150.9887  134.9227  159.7886 H   0  0  0  0  0  0  0  0  0  0  0  0  # atno 6907 bound_to 6896
  152.5244  134.3311  159.9193 H   0  0  0  0  0  0  0  0  0  0  0  0  # atno 6908 bound_to 6896
  151.3317  133.3956  159.2697 H   0  0  0  0  0  0  0  0  0  0  0  0  # atno 6909 bound_to 6896
  146.2232  139.8664  142.8595 H   0  0  0  0  0  0  0  0  0  0  0  0  # atno 7974 bound_to 7965
  156.1663  140.3129  155.8894 H   0  0  0  0  0  0  0  0  0  0  0  0  # atno 8008 bound_to 7997
  155.3680  140.0480  157.3063 H   0  0  0  0  0  0  0  0  0  0  0  0  # atno 8009 bound_to 7997
  154.5195  140.2193  155.9013 H   0  0  0  0  0  0  0  0  0  0  0  0  # atno 8010 bound_to 7997
  139.5503  144.2126  152.1065 H   0  0  0  0  0  0  0  0  0  0  0  0  # atno 10167 bound_to 10162
  156.1277  130.6371  150.9569 H   0  0  0  0  0  0  0  0  0  0  0  0  # atno 10718 bound_to 10713
  154.2784  135.2764  155.2708 H   0  0  0  0  0  0  0  0  0  0  0  0  # atno 10763 bound_to 10752
  154.5240  135.5748  153.6707 H   0  0  0  0  0  0  0  0  0  0  0  0  # atno 10764 bound_to 10752
  152.9933  135.6211  154.2942 H   0  0  0  0  0  0  0  0  0  0  0  0  # atno 10765 bound_to 10752
  140.0246  134.9380  157.0543 H   0  0  0  0  0  0  0  0  0  0  0  0  # atno 11005 bound_to 11000
  145.2652  141.0090  143.3803 LP  0  0  0  0  0  0  0  0  0  0  0  0  # atno 17320 bound_to 7965
  144.9267  139.4347  143.6515 LP  0  0  0  0  0  0  0  0  0  0  0  0  # atno 17321 bound_to 7965
  140.1620  144.5016  150.6627 LP  0  0  0  0  0  0  0  0  0  0  0  0  # atno 17342 bound_to 10162
  140.6764  143.2307  151.5497 LP  0  0  0  0  0  0  0  0  0  0  0  0  # atno 17343 bound_to 10162
  157.6457  131.0904  150.8158 LP  0  0  0  0  0  0  0  0  0  0  0  0  # atno 17370 bound_to 10713
  156.8246  130.4995  149.5339 LP  0  0  0  0  0  0  0  0  0  0  0  0  # atno 17371 bound_to 10713
  140.4328  134.1762  155.7169 LP  0  0  0  0  0  0  0  0  0  0  0  0  # atno 17394 bound_to 11000
  141.1795  133.8444  157.1307 LP  0  0  0  0  0  0  0  0  0  0  0  0  # atno 17395 bound_to 11000

$$$$
