AV-unprocessed.smi:1776|AV-procd|sdf|7174|dock1
  -GOLD-   22720 8413D 1   1.00000     0.00000
 Structure written by MMmdl.
 31 32  0  0  0  0  0  0  0  0  1 V2000
  149.3439  134.2409  158.2628 O   0  0  0  0  0  0  0  0  0  0  0  0
  148.2960  134.1444  158.9013 C   0  0  0  0  0  0  0  0  0  0  0  0
  147.1785  133.5254  158.4689 N   0  0  0  0  0  0  0  0  0  0  0  0
  146.9187  132.8585  157.2587 C   0  0  0  0  0  0  0  0  0  0  0  0
  147.8421  132.5734  156.3026 C   0  0  0  0  0  0  0  0  0  0  0  0
  147.4946  131.8719  155.0780 C   0  0  0  0  0  0  0  0  0  0  0  0
  148.5238  131.6247  153.9857 C   0  0  0  0  0  0  0  0  0  0  0  0
  148.1371  132.1540  152.8241 F   0  0  0  0  0  0  0  0  0  0  0  0
  149.7031  132.1526  154.3140 F   0  0  0  0  0  0  0  0  0  0  0  0
  148.6912  130.3148  153.8103 F   0  0  0  0  0  0  0  0  0  0  0  0
  146.2024  131.5267  154.9294 C   0  0  0  0  0  0  0  0  0  0  0  0
  145.2501  131.8013  155.9129 N   0  0  0  0  0  0  0  0  0  0  0  0
  145.5178  132.4442  157.0714 C   0  0  0  0  0  0  0  0  0  0  0  0
  144.6203  132.6491  157.8882 O   0  0  0  0  0  0  0  0  0  0  0  0
  148.1998  134.7487  160.3104 C   0  0  1  0  0  0  0  0  0  0  0  0
  148.3189  136.2907  160.3237 C   0  0  0  0  0  0  0  0  0  0  0  0
  148.1792  136.7619  161.6581 O   0  0  0  0  0  0  0  0  0  0  0  0
  146.9203  136.3971  162.2067 C   0  0  0  0  0  0  0  0  0  0  0  0
  146.8031  134.8643  162.2066 C   0  0  0  0  0  0  0  0  0  0  0  0
  146.9409  134.3892  160.8743 O   0  0  0  0  0  0  0  0  0  0  0  0
  144.3039  131.4979  155.7327 H   0  0  0  0  0  0  0  0  0  0  0  0
  146.3908  133.5580  159.1008 H   0  0  0  0  0  0  0  0  0  0  0  0
  148.8768  132.8461  156.4216 H   0  0  0  0  0  0  0  0  0  0  0  0
  145.8012  131.0265  154.0603 H   0  0  0  0  0  0  0  0  0  0  0  0
  149.0008  134.3136  160.9109 H   0  0  0  0  0  0  0  0  0  0  0  0
  149.2938  136.6055  159.9495 H   0  0  0  0  0  0  0  0  0  0  0  0
  147.5637  136.7529  159.6852 H   0  0  0  0  0  0  0  0  0  0  0  0
  146.8482  136.7835  163.2234 H   0  0  0  0  0  0  0  0  0  0  0  0
  146.1111  136.8502  161.6316 H   0  0  0  0  0  0  0  0  0  0  0  0
  147.5626  134.4149  162.8485 H   0  0  0  0  0  0  0  0  0  0  0  0
  145.8314  134.5586  162.5944 H   0  0  0  0  0  0  0  0  0  0  0  0
  1  2  2  0  0  0  0
  2  3  1  0  0  0  0
  2 15  1  0  0  0  0
  3  4  1  0  0  0  0
  3 22  1  0  0  0  0
  4 13  1  0  0  0  0
  4  5  2  0  0  0  0
  5  6  1  0  0  0  0
  5 23  1  0  0  0  0
  6  7  1  0  0  0  0
  6 11  2  0  0  0  0
  7  8  1  0  0  0  0
  7  9  1  0  0  0  0
  7 10  1  0  0  0  0
 11 12  1  0  0  0  0
 11 24  1  0  0  0  0
 12 21  1  0  0  0  0
 12 13  1  0  0  0  0
 13 14  2  0  0  0  0
 15 20  1  0  0  0  0
 15 16  1  0  0  0  0
 15 25  1  0  0  0  0
 16 17  1  0  0  0  0
 16 26  1  0  0  0  0
 16 27  1  0  0  0  0
 17 18  1  0  0  0  0
 18 19  1  0  0  0  0
 18 28  1  0  0  0  0
 18 29  1  0  0  0  0
 19 20  1  0  0  0  0
 19 30  1  0  0  0  0
 19 31  1  0  0  0  0
M  END
> <s_m_source_file>
AV-unprocessed.smi

> <i_m_source_file_index>
1776

> <i_lp_mmshare_version>
43012

> <i_f3d_flags>
0

> <s_epik_input>
TzFbQ0gyXVtDSDJdT1tDSDJdW0NASF0xQyg9TylbTkhdYzJbY0hdYyhDKEYpKEYpRilbY0hdW25IXWMyPU8=

> <s_epik_cmdline>
J2VwaWtfcHl0aG9uJywgJy1waCcsICc3LjAnLCAnLXRuJywgJzgnLCAnLW1hJywgJzIwMCcsICctbWV0YWxfYmluZGluZycsICctaW1hZScsICc8aW5maWxlLm1hZT4nLCAnLW9tYWUnLCAnPG91dGZpbGUubWFlPic=

> <r_lp_tautomer_probability>
0.999

> <r_epik_Ionization_Penalty>
0.0100875

> <r_epik_Ionization_Penalty_Charging>
0.0100873

> <r_epik_Ionization_Penalty_Neutral>
1.79075e-07

> <r_epik_State_Penalty>
0.00769562

> <r_epik_Charging_Adjusted_Penalty>
0.017783

> <i_epik_Tot_Q>
0

> <i_epik_Tot_abs_Q>
0

> <r_epik_Metal_State_Penalty>
0.325451

> <b_epik_Metal_Only>
0

> <s_lp_Force_Field>
OPLS_2005

> <r_lp_Energy>
23.697

> <b_lp_Chiralities_Consistent>
1

> <s_lp_Variant>
AV-unprocessed.smi:1776-2

> <Gold.Version>
5.8.1

> <Gold.Id.Protein>
6NUR|6NUR_protein|mol2

> <Gold.PLP.Fitness>
37.3880

> <Gold.PLP.PLP>
-28.5955

> <Gold.PLP.part.hbond>
-3.2999

> <Gold.PLP.part.metal>
0.0000

> <Gold.PLP.part.buried>
-3.4461

> <Gold.PLP.part.nonpolar>
-21.9329

> <Gold.PLP.part.repulsive>
0.0972

> <Gold.PLP.ligand.clash>
0.0000

> <Gold.PLP.ligand.torsion>
0.1193

> <Gold.PLP.Chemscore.Hbond>
3.0000

> <Gold.PLP.Chemscore.CHOScore>
0.0000

> <Gold.PLP.Chemscore.Metal>
0.0000

> <Gold.Chemscore.Hbonds>
donor molecule, donor type, donor heavy atom, donor atom, acceptor molecule, acceptor atom, score
      L1  H    12    21       P1 10957  0.85
      P1  H  6896  6907       L1     1  1.00
      P1  H  6931  6943       L1    17  1.00

> <Gold.PLP.Chemscore.Internal.Correction>
0.0311

> <Gold.Rescore>
     Score         DG    S(hbond)    S(metal)    S(lipo)     H(rot)  DE(clash)    DE(int)     intcor
     15.27     -16.48       2.69        0.00      39.17       1.00       0.07       1.14       ----

> <Gold.Chemscore.Fitness>
15.2728

> <Gold.Chemscore.DG>
-16.4777

> <Gold.Chemscore.ZeroCoef>
-5.4800

> <Gold.Chemscore.Hbond>
2.6872

> <Gold.Chemscore.Metal>
0.0000

> <Gold.Chemscore.Lipo>
39.1662

> <Gold.Chemscore.Internal_Hbond>
0.0000

> <Gold.Chemscore.DEClash>
0.0667

> <Gold.Chemscore.DEInternal>
1.1382

> <Gold.Chemscore.Rot>
1.0000

> <Gold.Chemscore.Internal.Correction>
   9.000000E+99

> <Gold.Chemscore.Hbonds>
donor molecule, donor type, donor heavy atom, donor atom, acceptor molecule, acceptor atom, score
      L1  H    12    21       P1 10957  0.14
      P1  H  6896  6907       L1     1  0.70
      P1  H  6931  6943       L1    17  0.82

> <Gold.Chemscore.Hbond.Weighted>
-8.9752

> <Gold.Chemscore.Metal.Weighted>
-0.0000

> <Gold.Chemscore.Lipo.Weighted>
-4.5824

> <Gold.Chemscore.Internal_Hbond.Weighted>
0.0000

> <Gold.Chemscore.DEClash.Weighted>
0.0667

> <Gold.Chemscore.DEInternal.Weighted>
1.1382

> <Gold.Chemscore.Rot.Weighted>
2.5600

> <Gold.Chemscore.Internal.Correction.Weighted>
   9.000000E+99

> <Gold.Protein.RotatedTorsions>
[ 6907 6896 6895 6894 ] final -103.97 input  -60.11 | X-H torsion
[ 7974 7965 7964 7962 ] final -127.22 input  175.53 | X-H torsion
[ 8008 7997 7996 7995 ] final  174.36 input   59.86 | X-H torsion
[ 10167 10162 10161 10158 ] final -115.31 input  -65.29 | X-H torsion
[ 10718 10713 10712 10709 ] final  -25.22 input   66.30 | X-H torsion
[ 10763 10752 10751 10750 ] final  -70.49 input  -60.55 | X-H torsion
[ 11005 11000 10999 10996 ] final   21.97 input  -57.11 | X-H torsion

> <Gold.Protein.ActiveResidues>
 VAL166  LYS551  ARG553  GLY616  TRP617  ASP618  TYR619  PRO620  LYS621  CYS622 
 ASP623  PHE694  ASN695  SER759  ASP760  ASP761  ALA762  ILE779  LEU786  VAL792 
 PHE793  MET794  SER795  GLU796  ALA797  LYS798  CYS799  TRP800  GLU811  SER814 

> <Gold.Protein.RotatedAtoms>
  150.7265  134.0348  159.3745 H   0  0  0  0  0  0  0  0  0  0  0  0  # atno 6907 bound_to 6896
  151.8319  135.0616  160.0447 H   0  0  0  0  0  0  0  0  0  0  0  0  # atno 6908 bound_to 6896
  152.2927  133.5541  159.5604 H   0  0  0  0  0  0  0  0  0  0  0  0  # atno 6909 bound_to 6896
  144.9792  140.7624  143.4622 H   0  0  0  0  0  0  0  0  0  0  0  0  # atno 7974 bound_to 7965
  156.0982  140.1436  156.9502 H   0  0  0  0  0  0  0  0  0  0  0  0  # atno 8008 bound_to 7997
  154.4685  140.0918  156.7129 H   0  0  0  0  0  0  0  0  0  0  0  0  # atno 8009 bound_to 7997
  155.4804  140.3445  155.4341 H   0  0  0  0  0  0  0  0  0  0  0  0  # atno 8010 bound_to 7997
  140.0914  143.4696  152.1867 H   0  0  0  0  0  0  0  0  0  0  0  0  # atno 10167 bound_to 10162
  156.4673  130.4517  149.6891 H   0  0  0  0  0  0  0  0  0  0  0  0  # atno 10718 bound_to 10713
  154.4184  135.5992  153.5995 H   0  0  0  0  0  0  0  0  0  0  0  0  # atno 10763 bound_to 10752
  152.9793  135.5946  154.3985 H   0  0  0  0  0  0  0  0  0  0  0  0  # atno 10764 bound_to 10752
  154.3807  135.2841  155.2191 H   0  0  0  0  0  0  0  0  0  0  0  0  # atno 10765 bound_to 10752
  140.3858  134.1872  155.7663 H   0  0  0  0  0  0  0  0  0  0  0  0  # atno 11005 bound_to 11000
  145.2445  139.2058  143.4975 LP  0  0  0  0  0  0  0  0  0  0  0  0  # atno 17320 bound_to 7965
  146.3403  140.2347  142.8594 LP  0  0  0  0  0  0  0  0  0  0  0  0  # atno 17321 bound_to 7965
  139.5722  144.7469  151.3859 LP  0  0  0  0  0  0  0  0  0  0  0  0  # atno 17342 bound_to 10162
  140.7026  143.7593  150.7428 LP  0  0  0  0  0  0  0  0  0  0  0  0  # atno 17343 bound_to 10162
  156.3655  130.7503  151.2480 LP  0  0  0  0  0  0  0  0  0  0  0  0  # atno 17370 bound_to 10713
  157.7494  131.0338  150.4288 LP  0  0  0  0  0  0  0  0  0  0  0  0  # atno 17371 bound_to 10713
  141.1908  133.8209  157.0904 LP  0  0  0  0  0  0  0  0  0  0  0  0  # atno 17394 bound_to 11000
  140.0444  134.9838  157.1022 LP  0  0  0  0  0  0  0  0  0  0  0  0  # atno 17395 bound_to 11000

$$$$
