AV-unprocessed.smi:1116|AV-procd|sdf|4808|dock8
  -GOLD-   22720 3363D 1   1.00000     0.00000
 Structure written by MMmdl.
 36 37  0  0  0  0  0  0  0  0  1 V2000
  153.1309  142.4362  163.2099 C   0  0  0  0  0  0  0  0  0  0  0  0
  152.8381  142.1257  161.7818 C   0  0  0  0  0  0  0  0  0  0  0  0
  151.8818  142.7324  161.0739 N   0  0  0  0  0  0  0  0  0  0  0  0
  151.8087  142.2670  159.7572 C   0  0  0  0  0  0  0  0  0  0  0  0
  150.7903  142.8368  158.8167 C   0  0  0  0  0  0  0  0  0  0  0  0
  151.4273  143.3841  157.5281 C   0  0  0  0  0  0  0  0  0  0  0  0
  150.5643  143.1740  156.3711 N   0  0  0  0  0  0  0  0  0  0  0  0
  150.3967  142.0045  155.7351 C   0  0  0  0  0  0  0  0  0  0  0  0
  150.9762  140.9696  156.0654 O   0  0  0  0  0  0  0  0  0  0  0  0
  149.4154  142.0125  154.5580 C   0  0  0  0  0  0  0  0  0  0  0  0
  148.1960  141.0940  154.7725 C   0  0  0  0  0  0  0  0  0  0  0  0
  147.0282  141.4063  153.8165 C   0  0  1  0  0  0  0  0  0  0  0  0
  147.3468  141.1325  152.4253 N   0  0  0  0  0  0  0  0  0  0  0  0
  146.5282  140.2214  151.8818 C   0  0  0  0  0  0  0  0  0  0  0  0
  146.5720  139.8115  150.7245 O   0  0  0  0  0  0  0  0  0  0  0  0
  145.6565  139.8375  152.8204 N   0  0  0  0  0  0  0  0  0  0  0  0
  145.8590  140.4520  153.9846 C   0  0  0  0  0  0  0  0  0  0  0  0
  145.2262  140.2912  155.0263 O   0  0  0  0  0  0  0  0  0  0  0  0
  152.7311  141.2895  159.4773 C   0  0  0  0  0  0  0  0  0  0  0  0
  153.7251  140.9187  160.8593 S   0  0  0  0  0  0  0  0  0  0  0  0
  152.4497  143.2004  163.5854 H   0  0  0  0  0  0  0  0  0  0  0  0
  154.1537  142.8002  163.3093 H   0  0  0  0  0  0  0  0  0  0  0  0
  153.0174  141.5381  163.8171 H   0  0  0  0  0  0  0  0  0  0  0  0
  150.0530  142.0725  158.5674 H   0  0  0  0  0  0  0  0  0  0  0  0
  150.2357  143.6343  159.3124 H   0  0  0  0  0  0  0  0  0  0  0  0
  151.6003  144.4559  157.6277 H   0  0  0  0  0  0  0  0  0  0  0  0
  152.4035  142.9269  157.3567 H   0  0  0  0  0  0  0  0  0  0  0  0
  150.0509  143.9753  156.0337 H   0  0  0  0  0  0  0  0  0  0  0  0
  149.0819  143.0388  154.4005 H   0  0  0  0  0  0  0  0  0  0  0  0
  149.9476  141.7138  153.6538 H   0  0  0  0  0  0  0  0  0  0  0  0
  148.5008  140.0517  154.6599 H   0  0  0  0  0  0  0  0  0  0  0  0
  147.8399  141.1976  155.7990 H   0  0  0  0  0  0  0  0  0  0  0  0
  146.6880  142.4368  153.9269 H   0  0  0  0  0  0  0  0  0  0  0  0
  148.0975  141.5930  151.9315 H   0  0  0  0  0  0  0  0  0  0  0  0
  144.9318  139.1519  152.6667 H   0  0  0  0  0  0  0  0  0  0  0  0
  152.8857  140.7668  158.5451 H   0  0  0  0  0  0  0  0  0  0  0  0
  1  2  1  0  0  0  0
  1 21  1  0  0  0  0
  1 22  1  0  0  0  0
  1 23  1  0  0  0  0
  2 20  1  0  0  0  0
  2  3  2  0  0  0  0
  3  4  1  0  0  0  0
  4  5  1  0  0  0  0
  4 19  2  0  0  0  0
  5  6  1  0  0  0  0
  5 24  1  0  0  0  0
  5 25  1  0  0  0  0
  6  7  1  0  0  0  0
  6 26  1  0  0  0  0
  6 27  1  0  0  0  0
  7  8  1  0  0  0  0
  7 28  1  0  0  0  0
  8  9  2  0  0  0  0
  8 10  1  0  0  0  0
 10 11  1  0  0  0  0
 10 29  1  0  0  0  0
 10 30  1  0  0  0  0
 11 12  1  0  0  0  0
 11 31  1  0  0  0  0
 11 32  1  0  0  0  0
 12 17  1  0  0  0  0
 12 13  1  0  0  0  0
 12 33  1  0  0  0  0
 13 14  1  0  0  0  0
 13 34  1  0  0  0  0
 14 15  2  0  0  0  0
 14 16  1  0  0  0  0
 16 17  1  0  0  0  0
 16 35  1  0  0  0  0
 17 18  2  0  0  0  0
 19 20  1  0  0  0  0
 19 36  1  0  0  0  0
M  END
> <s_m_source_file>
AV-unprocessed.smi

> <i_m_source_file_index>
1116

> <i_lp_mmshare_version>
43012

> <i_f3d_flags>
0

> <s_epik_input>
W0NIM11jMW5jKFtjSF1zMSlbQ0gyXVtDSDJdW05IXUMoPU8pW0NIMl1bQ0gyXVtDQEBIXTJbTkhdQyg9TylbTkhdQzI9Tw==

> <s_epik_cmdline>
J2VwaWtfcHl0aG9uJywgJy1waCcsICc3LjAnLCAnLXRuJywgJzgnLCAnLW1hJywgJzIwMCcsICctbWV0YWxfYmluZGluZycsICctaW1hZScsICc8aW5maWxlLm1hZT4nLCAnLW9tYWUnLCAnPG91dGZpbGUubWFlPic=

> <r_lp_tautomer_probability>
1

> <r_epik_Ionization_Penalty>
0.00889251

> <r_epik_Ionization_Penalty_Charging>
0

> <r_epik_Ionization_Penalty_Neutral>
0.00889251

> <r_epik_State_Penalty>
0.00583796

> <r_epik_Charging_Adjusted_Penalty>
0.00583796

> <i_epik_Tot_Q>
0

> <i_epik_Tot_abs_Q>
0

> <r_epik_Metal_State_Penalty>
0.408839

> <b_epik_Metal_Only>
0

> <s_lp_Force_Field>
OPLS_2005

> <r_lp_Energy>
13.0769

> <b_lp_Chiralities_Consistent>
1

> <s_lp_Variant>
AV-unprocessed.smi:1116-2

> <Gold.Version>
5.8.1

> <Gold.Id.Protein>
6NUR|6NUR_protein|mol2

> <Gold.PLP.Fitness>
49.0012

> <Gold.PLP.PLP>
-41.8803

> <Gold.PLP.part.hbond>
-4.2200

> <Gold.PLP.part.metal>
0.0000

> <Gold.PLP.part.buried>
-7.1102

> <Gold.PLP.part.nonpolar>
-31.1507

> <Gold.PLP.part.repulsive>
0.7985

> <Gold.PLP.ligand.clash>
0.0000

> <Gold.PLP.ligand.torsion>
0.4551

> <Gold.PLP.Chemscore.Hbond>
2.6560

> <Gold.PLP.Chemscore.CHOScore>
0.0000

> <Gold.PLP.Chemscore.Metal>
0.0000

> <Gold.Chemscore.Hbonds>
donor molecule, donor type, donor heavy atom, donor atom, acceptor molecule, acceptor atom, score
      L1  H     7    28       P1  8028  0.71
      L1  H    13    34       P1  7957  0.09
      P1  H  6933  6945       L1     3  0.06

> <Gold.PLP.Chemscore.Internal.Correction>
0.0632

> <Gold.Rescore>
     Score         DG    S(hbond)    S(metal)    S(lipo)     H(rot)  DE(clash)    DE(int)     intcor
     16.27     -18.62       2.90        0.00      91.37       2.83       1.69       0.66       ----

> <Gold.Chemscore.Fitness>
16.2741

> <Gold.Chemscore.DG>
-18.6191

> <Gold.Chemscore.ZeroCoef>
-5.4800

> <Gold.Chemscore.Hbond>
2.9042

> <Gold.Chemscore.Metal>
0.0000

> <Gold.Chemscore.Lipo>
91.3672

> <Gold.Chemscore.Internal_Hbond>
0.0000

> <Gold.Chemscore.DEClash>
1.6870

> <Gold.Chemscore.DEInternal>
0.6579

> <Gold.Chemscore.Rot>
2.8324

> <Gold.Chemscore.Internal.Correction>
   9.000000E+99

> <Gold.Chemscore.Hbonds>
donor molecule, donor type, donor heavy atom, donor atom, acceptor molecule, acceptor atom, score
      L1  H     7    28       P1  8028  0.72
      L1  H    13    34       P1  7957  0.09
      L1  H    16    35       P1 10175  0.01
      P1  H  6933  6945       L1     3  0.01

> <Gold.Chemscore.Hbond.Weighted>
-9.7001

> <Gold.Chemscore.Metal.Weighted>
-0.0000

> <Gold.Chemscore.Lipo.Weighted>
-10.6900

> <Gold.Chemscore.Internal_Hbond.Weighted>
0.0000

> <Gold.Chemscore.DEClash.Weighted>
1.6870

> <Gold.Chemscore.DEInternal.Weighted>
0.6579

> <Gold.Chemscore.Rot.Weighted>
7.2510

> <Gold.Chemscore.Internal.Correction.Weighted>
   9.000000E+99

> <Gold.Protein.RotatedTorsions>
[ 6907 6896 6895 6894 ] final  -30.00 input  -60.11 | X-H torsion
[ 7974 7965 7964 7962 ] final  178.57 input  175.53 | X-H torsion
[ 8008 7997 7996 7995 ] final  -22.14 input   59.86 | X-H torsion
[ 10167 10162 10161 10158 ] final   76.04 input  -65.29 | X-H torsion
[ 10718 10713 10712 10709 ] final   27.59 input   66.30 | X-H torsion
[ 10763 10752 10751 10750 ] final   87.48 input  -60.55 | X-H torsion
[ 11005 11000 10999 10996 ] final -143.75 input  -57.11 | X-H torsion

> <Gold.Protein.ActiveResidues>
 VAL166  LYS551  ARG553  GLY616  TRP617  ASP618  TYR619  PRO620  LYS621  CYS622 
 ASP623  PHE694  ASN695  SER759  ASP760  ASP761  ALA762  ILE779  LEU786  VAL792 
 PHE793  MET794  SER795  GLU796  ALA797  LYS798  CYS799  TRP800  GLU811  SER814 

> <Gold.Protein.RotatedAtoms>
  151.1115  135.0029  159.8495 H   0  0  0  0  0  0  0  0  0  0  0  0  # atno 6907 bound_to 6896
  152.5443  134.1830  159.8653 H   0  0  0  0  0  0  0  0  0  0  0  0  # atno 6908 bound_to 6896
  151.1881  133.4639  159.2628 H   0  0  0  0  0  0  0  0  0  0  0  0  # atno 6909 bound_to 6896
  144.7155  140.0417  143.6437 H   0  0  0  0  0  0  0  0  0  0  0  0  # atno 7974 bound_to 7965
  154.4662  140.2016  156.0112 H   0  0  0  0  0  0  0  0  0  0  0  0  # atno 8008 bound_to 7997
  156.0931  140.3255  155.7812 H   0  0  0  0  0  0  0  0  0  0  0  0  # atno 8009 bound_to 7997
  155.4924  140.0547  157.2942 H   0  0  0  0  0  0  0  0  0  0  0  0  # atno 8010 bound_to 7997
  139.9965  144.5718  150.7773 H   0  0  0  0  0  0  0  0  0  0  0  0  # atno 10167 bound_to 10162
  157.2223  130.6984  149.6275 H   0  0  0  0  0  0  0  0  0  0  0  0  # atno 10718 bound_to 10713
  153.1673  135.4542  154.9854 H   0  0  0  0  0  0  0  0  0  0  0  0  # atno 10763 bound_to 10752
  154.7941  135.3231  154.7711 H   0  0  0  0  0  0  0  0  0  0  0  0  # atno 10764 bound_to 10752
  153.8192  135.6948  153.4884 H   0  0  0  0  0  0  0  0  0  0  0  0  # atno 10765 bound_to 10752
  140.8093  134.2763  157.4947 H   0  0  0  0  0  0  0  0  0  0  0  0  # atno 11005 bound_to 11000
  146.0018  139.3097  143.0923 LP  0  0  0  0  0  0  0  0  0  0  0  0  # atno 17320 bound_to 7965
  145.8784  140.9378  143.0614 LP  0  0  0  0  0  0  0  0  0  0  0  0  # atno 17321 bound_to 7965
  140.7435  143.2847  151.3497 LP  0  0  0  0  0  0  0  0  0  0  0  0  # atno 17342 bound_to 10162
  139.6302  144.0735  152.2470 LP  0  0  0  0  0  0  0  0  0  0  0  0  # atno 17343 bound_to 10162
  155.9681  130.4516  150.5741 LP  0  0  0  0  0  0  0  0  0  0  0  0  # atno 17370 bound_to 10713
  157.3563  131.0742  151.1672 LP  0  0  0  0  0  0  0  0  0  0  0  0  # atno 17371 bound_to 10713
  139.8715  134.9474  156.3966 LP  0  0  0  0  0  0  0  0  0  0  0  0  # atno 17394 bound_to 11000
  140.9214  133.7642  155.9911 LP  0  0  0  0  0  0  0  0  0  0  0  0  # atno 17395 bound_to 11000

$$$$
