AV-unprocessed.smi:699|AV-procd|sdf|3406|dock6
  -GOLD-   22720 0383D 1   1.00000     0.00000
 Structure written by MMmdl.
 35 36  0  0  0  0  0  0  0  0  2 V2000
  149.7241  133.8001  155.4862 N   0  0  0  0  0  0  0  0  0  0  0  0
  149.6191  132.5080  155.8066 C   0  0  0  0  0  0  0  0  0  0  0  0
  149.1640  132.1392  156.8876 O   0  0  0  0  0  0  0  0  0  0  0  0
  150.0945  131.4872  154.7616 C   0  0  1  0  0  0  0  0  0  0  0  0
  151.2518  130.6098  155.2604 C   0  0  0  0  0  0  0  0  0  0  0  0
  151.1554  129.3433  154.4152 C   0  0  0  0  0  0  0  0  0  0  0  0
  149.6544  129.1043  154.2562 C   0  0  0  0  0  0  0  0  0  0  0  0
  148.9866  130.4921  154.3356 C   0  0  2  0  0  0  0  0  0  0  0  0
  148.3924  130.8892  153.0602 N   0  0  0  0  0  0  0  0  0  0  0  0
  147.1536  131.3780  152.9052 C   0  0  0  0  0  0  0  0  0  0  0  0
  146.3648  131.5331  153.8368 O   0  0  0  0  0  0  0  0  0  0  0  0
  146.8961  131.6495  151.6137 N   0  0  0  0  0  0  0  0  0  0  0  0
  145.7112  132.1795  151.0324 C   0  0  0  0  0  0  0  0  0  0  0  0
  144.7404  132.7143  151.9086 C   0  0  0  0  0  0  0  0  0  0  0  0
  143.5420  133.2400  151.3840 C   0  0  0  0  0  0  0  0  0  0  0  0
  143.3261  133.2202  150.0514 N   0  3  0  0  0  0  0  0  0  0  0  0
  144.2168  132.7081  149.1753 C   0  0  0  0  0  0  0  0  0  0  0  0
  145.4334  132.1687  149.6412 C   0  0  0  0  0  0  0  0  0  0  0  0
  149.4256  134.5039  156.1460 H   0  0  0  0  0  0  0  0  0  0  0  0
  150.1025  134.0706  154.5903 H   0  0  0  0  0  0  0  0  0  0  0  0
  150.4541  132.0211  153.8794 H   0  0  0  0  0  0  0  0  0  0  0  0
  152.2198  131.0992  155.1490 H   0  0  0  0  0  0  0  0  0  0  0  0
  151.1301  130.3538  156.3143 H   0  0  0  0  0  0  0  0  0  0  0  0
  151.6040  129.5208  153.4369 H   0  0  0  0  0  0  0  0  0  0  0  0
  151.6692  128.4951  154.8683 H   0  0  0  0  0  0  0  0  0  0  0  0
  149.4264  128.5629  153.3371 H   0  0  0  0  0  0  0  0  0  0  0  0
  149.2984  128.4896  155.0840 H   0  0  0  0  0  0  0  0  0  0  0  0
  148.1960  130.4515  155.0884 H   0  0  0  0  0  0  0  0  0  0  0  0
  148.9709  130.7846  152.2398 H   0  0  0  0  0  0  0  0  0  0  0  0
  147.6223  131.3978  150.9590 H   0  0  0  0  0  0  0  0  0  0  0  0
  144.9108  132.7282  152.9755 H   0  0  0  0  0  0  0  0  0  0  0  0
  142.7550  133.6701  151.9864 H   0  0  0  0  0  0  0  0  0  0  0  0
  143.9298  132.7392  148.1342 H   0  0  0  0  0  0  0  0  0  0  0  0
  146.1198  131.7486  148.9223 H   0  0  0  0  0  0  0  0  0  0  0  0
  142.4517  133.6037  149.6917 H   0  0  0  0  0  0  0  0  0  0  0  0
  1  2  1  0  0  0  0
  1 19  1  0  0  0  0
  1 20  1  0  0  0  0
  2  3  2  0  0  0  0
  2  4  1  0  0  0  0
  4  8  1  0  0  0  0
  4  5  1  0  0  0  0
  4 21  1  0  0  0  0
  5  6  1  0  0  0  0
  5 22  1  0  0  0  0
  5 23  1  0  0  0  0
  6  7  1  0  0  0  0
  6 24  1  0  0  0  0
  6 25  1  0  0  0  0
  7  8  1  0  0  0  0
  7 26  1  0  0  0  0
  7 27  1  0  0  0  0
  8  9  1  0  0  0  0
  8 28  1  0  0  0  0
  9 10  1  0  0  0  0
  9 29  1  0  0  0  0
 10 11  2  0  0  0  0
 10 12  1  0  0  0  0
 12 13  1  0  0  0  0
 12 30  1  0  0  0  0
 13 18  1  0  0  0  0
 13 14  2  0  0  0  0
 14 15  1  0  0  0  0
 14 31  1  0  0  0  0
 15 16  2  0  0  0  0
 15 32  1  0  0  0  0
 16 17  1  0  0  0  0
 16 35  1  0  0  0  0
 17 18  2  0  0  0  0
 17 33  1  0  0  0  0
 18 34  1  0  0  0  0
M  CHG  1  16   1
M  END
> <s_m_source_file>
AV-unprocessed.smi

> <i_m_source_file_index>
699

> <i_lp_mmshare_version>
43012

> <i_f3d_flags>
0

> <s_epik_input>
W05IMl1DKD1PKVtDQEBIXTFbQ0gyXVtDSDJdW0NIMl1bQ0BIXTFbTkhdQyg9TylbTkhdYzJbY0hdW2NIXW5bY0hdW2NIXTI=

> <s_epik_cmdline>
J2VwaWtfcHl0aG9uJywgJy1waCcsICc3LjAnLCAnLXRuJywgJzgnLCAnLW1hJywgJzIwMCcsICctbWV0YWxfYmluZGluZycsICctaW1hZScsICc8aW5maWxlLm1hZT4nLCAnLW9tYWUnLCAnPG91dGZpbGUubWFlPic=

> <r_epik_Ionization_Penalty>
1.0332

> <r_epik_Ionization_Penalty_Charging>
1.03318

> <r_epik_Ionization_Penalty_Neutral>
1.91967e-05

> <r_epik_State_Penalty>
1.08452

> <r_epik_Charging_Adjusted_Penalty>
2.11769

> <i_epik_Tot_Q>
1

> <i_epik_Tot_abs_Q>
1

> <r_epik_Metal_State_Penalty>
1.18144

> <b_epik_Metal_Only>
0

> <s_lp_Force_Field>
OPLS_2005

> <r_lp_Energy>
26.7554

> <b_lp_Chiralities_Consistent>
1

> <s_lp_Variant>
AV-unprocessed.smi:699-8

> <Gold.Version>
5.8.1

> <Gold.Id.Protein>
6NUR|6NUR_protein|mol2

> <Gold.PLP.Fitness>
44.1861

> <Gold.PLP.PLP>
-32.7642

> <Gold.PLP.part.hbond>
-3.0000

> <Gold.PLP.part.metal>
0.0000

> <Gold.PLP.part.buried>
-5.3751

> <Gold.PLP.part.nonpolar>
-24.2532

> <Gold.PLP.part.repulsive>
0.2654

> <Gold.PLP.ligand.clash>
0.0000

> <Gold.PLP.ligand.torsion>
0.1583

> <Gold.PLP.Chemscore.Hbond>
3.9120

> <Gold.PLP.Chemscore.CHOScore>
0.0000

> <Gold.PLP.Chemscore.Metal>
0.0000

> <Gold.Chemscore.Hbonds>
donor molecule, donor type, donor heavy atom, donor atom, acceptor molecule, acceptor atom, score
      L1  H     9    29       P1 10747  0.91
      L1  H    12    30       P1 10747  1.00
      L1  H    16    35       P1 10186  2.00

> <Gold.PLP.Chemscore.Internal.Correction>
0.0025

> <Gold.Rescore>
     Score         DG    S(hbond)    S(metal)    S(lipo)     H(rot)  DE(clash)    DE(int)     intcor
     17.24     -18.84       2.61        0.00      72.70       1.50       0.03       1.57       ----

> <Gold.Chemscore.Fitness>
17.2430

> <Gold.Chemscore.DG>
-18.8394

> <Gold.Chemscore.ZeroCoef>
-5.4800

> <Gold.Chemscore.Hbond>
2.6059

> <Gold.Chemscore.Metal>
0.0000

> <Gold.Chemscore.Lipo>
72.6960

> <Gold.Chemscore.Internal_Hbond>
0.0000

> <Gold.Chemscore.DEClash>
0.0276

> <Gold.Chemscore.DEInternal>
1.5689

> <Gold.Chemscore.Rot>
1.5038

> <Gold.Chemscore.Internal.Correction>
   9.000000E+99

> <Gold.Chemscore.Hbonds>
donor molecule, donor type, donor heavy atom, donor atom, acceptor molecule, acceptor atom, score
      L1  H     9    29       P1 10747  0.35
      L1  H    12    30       P1 10747  0.99
      L1  H    16    35       P1 10186  1.00

> <Gold.Chemscore.Hbond.Weighted>
-8.7036

> <Gold.Chemscore.Metal.Weighted>
-0.0000

> <Gold.Chemscore.Lipo.Weighted>
-8.5054

> <Gold.Chemscore.Internal_Hbond.Weighted>
0.0000

> <Gold.Chemscore.DEClash.Weighted>
0.0276

> <Gold.Chemscore.DEInternal.Weighted>
1.5689

> <Gold.Chemscore.Rot.Weighted>
3.8496

> <Gold.Chemscore.Internal.Correction.Weighted>
   9.000000E+99

> <Gold.Protein.RotatedTorsions>
[ 6907 6896 6895 6894 ] final  -57.27 input  -60.11 | X-H torsion
[ 7974 7965 7964 7962 ] final  118.27 input  175.53 | X-H torsion
[ 8008 7997 7996 7995 ] final   -1.43 input   59.86 | X-H torsion
[ 10167 10162 10161 10158 ] final  126.63 input  -65.29 | X-H torsion
[ 10718 10713 10712 10709 ] final -148.73 input   66.30 | X-H torsion
[ 10763 10752 10751 10750 ] final -114.14 input  -60.55 | X-H torsion
[ 11005 11000 10999 10996 ] final -151.20 input  -57.11 | X-H torsion

> <Gold.Protein.ActiveResidues>
 VAL166  LYS551  ARG553  GLY616  TRP617  ASP618  TYR619  PRO620  LYS621  CYS622 
 ASP623  PHE694  ASN695  SER759  ASP760  ASP761  ALA762  ILE779  LEU786  VAL792 
 PHE793  MET794  SER795  GLU796  ALA797  LYS798  CYS799  TRP800  GLU811  SER814 

> <Gold.Protein.RotatedAtoms>
  150.8099  134.7248  159.6678 H   0  0  0  0  0  0  0  0  0  0  0  0  # atno 6907 bound_to 6896
  152.4219  134.5936  159.9990 H   0  0  0  0  0  0  0  0  0  0  0  0  # atno 6908 bound_to 6896
  151.6149  133.3307  159.3111 H   0  0  0  0  0  0  0  0  0  0  0  0  # atno 6909 bound_to 6896
  145.1573  139.3175  143.4535 H   0  0  0  0  0  0  0  0  0  0  0  0  # atno 7974 bound_to 7965
  154.6469  140.2559  155.7258 H   0  0  0  0  0  0  0  0  0  0  0  0  # atno 8008 bound_to 7997
  156.2556  140.2876  156.0807 H   0  0  0  0  0  0  0  0  0  0  0  0  # atno 8009 bound_to 7997
  155.1511  140.0382  157.2811 H   0  0  0  0  0  0  0  0  0  0  0  0  # atno 8010 bound_to 7997
  139.5621  144.6888  151.4014 H   0  0  0  0  0  0  0  0  0  0  0  0  # atno 10167 bound_to 10162
  156.4240  130.8043  151.2267 H   0  0  0  0  0  0  0  0  0  0  0  0  # atno 10718 bound_to 10713
  154.8427  135.4429  154.1459 H   0  0  0  0  0  0  0  0  0  0  0  0  # atno 10763 bound_to 10752
  153.2632  135.6938  153.7563 H   0  0  0  0  0  0  0  0  0  0  0  0  # atno 10764 bound_to 10752
  153.6832  135.3399  155.3159 H   0  0  0  0  0  0  0  0  0  0  0  0  # atno 10765 bound_to 10752
  140.7321  134.3609  157.5164 H   0  0  0  0  0  0  0  0  0  0  0  0  # atno 11005 bound_to 11000
  146.3487  140.1670  142.8590 LP  0  0  0  0  0  0  0  0  0  0  0  0  # atno 17320 bound_to 7965
  145.0368  140.8914  143.5076 LP  0  0  0  0  0  0  0  0  0  0  0  0  # atno 17321 bound_to 7965
  140.6901  143.7881  150.7243 LP  0  0  0  0  0  0  0  0  0  0  0  0  # atno 17342 bound_to 10162
  140.1360  143.4483  152.2224 LP  0  0  0  0  0  0  0  0  0  0  0  0  # atno 17343 bound_to 10162
  157.7508  131.0219  150.3770 LP  0  0  0  0  0  0  0  0  0  0  0  0  # atno 17370 bound_to 10713
  156.4093  130.3931  149.6903 LP  0  0  0  0  0  0  0  0  0  0  0  0  # atno 17371 bound_to 10713
  139.8824  134.9025  156.2834 LP  0  0  0  0  0  0  0  0  0  0  0  0  # atno 17394 bound_to 11000
  140.9912  133.7208  156.0816 LP  0  0  0  0  0  0  0  0  0  0  0  0  # atno 17395 bound_to 11000

$$$$
