#       Name:                AV-unprocessed.smi:2953
#       Creating user name   scv26
#       Creation time:       Fri Mar 27 16:18:37 2020


#       File generated by GOLD software.
#

@<TRIPOS>MOLECULE
AV-unprocessed.smi:2953
    50    52     1
SMALL
NO_CHARGES


@<TRIPOS>ATOM
      1 ****         0.6511   2.2138   4.9284 C.3            1 S1                 0.0000
      2 ****        -0.4703   3.2340   4.9752 C.ar           1 S1                 0.0000
      3 ****        -1.3325   3.2666   6.0912 C.ar           1 S1                 0.0000
      4 ****        -2.3743   4.2094   6.1556 C.ar           1 S1                 0.0000
      5 ****        -2.5560   5.1237   5.1031 C.ar           1 S1                 0.0000
      6 ****        -1.6978   5.0959   3.9874 C.ar           1 S1                 0.0000
      7 ****        -0.6440   4.1489   3.9100 C.ar           1 S1                 0.0000
      8 ****         0.2321   4.0638   2.8468 O.3            1 S1                 0.0000
      9 ****         0.0770   4.9763   1.7679 C.3            1 S1                 0.0000
     10 ****         1.1290   4.6903   0.6875 C.3            1 S1                 0.0000
     11 ****         2.4888   4.7780   1.2021 N.pl3          1 S1                 0.0000
     12 ****         3.3213   3.7758   1.5912 C.2            1 S1                 0.0000
     13 ****         2.9236   2.3208   1.5181 C.3            1 S1                 0.0000
     14 ****         3.5704   1.4380   2.6033 C.3            1 S1                 0.0000
     15 ****         3.1649   1.8156   0.1661 N.am           1 S1                 0.0000
     16 ****         4.3622   1.6629  -0.4171 C.2            1 S1                 0.0000
     17 ****         5.4203   1.9406   0.1417 O.2            1 S1                 0.0000
     18 ****         4.5428   4.1619   1.9695 N.2            1 S1                 0.0000
     19 ****         4.4826   5.5361   1.8570 C.ar           1 S1                 0.0000
     20 ****         5.4563   6.5237   2.1288 C.ar           1 S1                 0.0000
     21 ****         5.1621   7.8889   1.9316 C.ar           1 S1                 0.0000
     22 ****         3.8940   8.2846   1.4593 C.ar           1 S1                 0.0000
     23 ****         2.9110   7.3157   1.1797 C.ar           1 S1                 0.0000
     24 ****         3.2094   5.9545   1.3805 C.ar           1 S1                 0.0000
     25 ****         0.5540   1.4766   5.7260 H              1 S1                 0.0000
     26 ****         1.6135   2.7132   5.0418 H              1 S1                 0.0000
     27 ****         0.6471   1.6811   3.9770 H              1 S1                 0.0000
     28 ****        -1.1973   2.5682   6.9042 H              1 S1                 0.0000
     29 ****        -3.0324   4.2317   7.0118 H              1 S1                 0.0000
     30 ****        -3.3550   5.8490   5.1509 H              1 S1                 0.0000
     31 ****        -1.8716   5.8151   3.2022 H              1 S1                 0.0000
     32 ****        -0.9177   4.8800   1.3304 H              1 S1                 0.0000
     33 ****         0.1897   6.0007   2.1266 H              1 S1                 0.0000
     34 ****         0.9632   3.7115   0.2393 H              1 S1                 0.0000
     35 ****         1.0248   5.4098  -0.1252 H              1 S1                 0.0000
     36 ****         1.8493   2.2542   1.6852 H              1 S1                 0.0000
     37 ****         3.3304   1.8072   3.6000 H              1 S1                 0.0000
     38 ****         4.6572   1.4130   2.5185 H              1 S1                 0.0000
     39 ****         3.2101   0.4113   2.5370 H              1 S1                 0.0000
     40 ****         2.3493   1.5646  -0.3734 H              1 S1                 0.0000
     41 ****         4.2766   1.2647  -1.4399 H              1 S1                 0.0000
     42 ****         6.4311   6.2305   2.4894 H              1 S1                 0.0000
     43 ****         5.9133   8.6358   2.1432 H              1 S1                 0.0000
     44 ****         3.6765   9.3320   1.3106 H              1 S1                 0.0000
     45 ****         1.9393   7.6151   0.8165 H              1 S1                 0.0000
     46 ****         0.1490   3.1419   2.4685 LP             1 S1                 0.0000
     47 ****         1.1539   4.1922   3.2124 LP             1 S1                 0.0000
     48 ****         5.4137   2.2988   1.0753 LP             1 S1                 0.0000
     49 ****         6.2882   1.8084  -0.3370 LP             1 S1                 0.0000
     50 ****         5.3123   3.5944   2.2624 LP             1 S1                 0.0000
@<TRIPOS>BOND
    1    1    2 1     
    2    1   25 1     
    3    1   26 1     
    4    1   27 1     
    5    2    7 ar    
    6    2    3 ar    
    7    3    4 ar    
    8    3   28 1     
    9    4    5 ar    
   10    4   29 1     
   11    5    6 ar    
   12    5   30 1     
   13    6    7 ar    
   14    6   31 1     
   15    7    8 1     
   16    8    9 1     
   17    9   10 1     
   18    9   32 1     
   19    9   33 1     
   20   10   11 1     
   21   10   34 1     
   22   10   35 1     
   23   11   24 1     
   24   11   12 1     
   25   12   13 1     
   26   12   18 2     
   27   13   14 1     
   28   13   15 1     
   29   13   36 1     
   30   14   37 1     
   31   14   38 1     
   32   14   39 1     
   33   15   16 am    
   34   15   40 1     
   35   16   17 2     
   36   16   41 1     
   37   18   19 1     
   38   19   24 ar    
   39   19   20 ar    
   40   20   21 ar    
   41   20   42 1     
   42   21   22 ar    
   43   21   43 1     
   44   22   23 ar    
   45   22   44 1     
   46   23   24 ar    
   47   23   45 1     
   48    8   46 1     
   49    8   47 1     
   50   17   48 1     
   51   17   49 1     
   52   18   50 1     
@<TRIPOS>SUBSTRUCTURE
      1 S1             1
@<TRIPOS>SET
LONE_PAIRS      STATIC     ATOMS    <user>   **** ""
5 46 47 48 49 50
DONOR_HYDROGENS      STATIC     ATOMS    <user>   **** ""
1 40
ATOM$BLUE        STATIC     ATOMS    COLORGROUP SYSTEM
5 46 47 48 49 50
ATOM$RED        STATIC     ATOMS    COLORGROUP SYSTEM
1 40
