AV-unprocessed.smi:287|AV-procd|sdf|2202|dock2
  -GOLD-   2262022 23D 1   1.00000     0.00000
 Structure written by MMmdl.
 55 58  0  0  0  0  0  0  0  0  1 V2000
  153.8027  142.9990  163.5830 C   0  0  0  0  0  0  0  0  0  0  0  0
  153.2611  142.8488  162.2025 C   0  0  0  0  0  0  0  0  0  0  0  0
  152.3924  143.5787  161.4447 C   0  0  0  0  0  0  0  0  0  0  0  0
  152.2688  142.9205  160.1845 C   0  0  0  0  0  0  0  0  0  0  0  0
  151.3977  143.3733  159.0205 C   0  0  2  0  0  0  0  0  0  0  0  0
  151.9043  144.7237  158.4876 C   0  0  0  0  0  0  0  0  0  0  0  0
  150.0519  143.5975  159.3942 O   0  0  0  0  0  0  0  0  0  0  0  0
  151.3536  142.3346  157.8770 C   0  0  0  0  0  0  0  0  0  0  0  0
  150.1721  142.4663  157.0342 N   0  0  0  0  0  0  0  0  0  0  0  0
  149.5112  141.3777  156.5876 C   0  0  0  0  0  0  0  0  0  0  0  0
  150.0199  140.1864  156.9825 N   0  0  0  0  0  0  0  0  0  0  0  0
  149.4417  139.0473  156.5937 C   0  0  0  0  0  0  0  0  0  0  0  0
  148.3669  138.8797  155.8225 N   0  0  0  0  0  0  0  0  0  0  0  0
  147.8456  140.0743  155.4186 C   0  0  0  0  0  0  0  0  0  0  0  0
  148.3519  141.3632  155.7551 C   0  0  0  0  0  0  0  0  0  0  0  0
  147.5545  142.3364  155.1612 N   0  0  0  0  0  0  0  0  0  0  0  0
  146.6418  141.6621  154.5175 C   0  0  0  0  0  0  0  0  0  0  0  0
  146.7456  140.2937  154.6132 N   0  0  0  0  0  0  0  0  0  0  0  0
  145.8581  139.2668  153.9809 C   0  0  2  0  0  0  0  0  0  0  0  0
  145.3338  138.4597  154.9871 O   0  0  0  0  0  0  0  0  0  0  0  0
  145.2137  137.1285  154.5013 C   0  0  2  0  0  0  0  0  0  0  0  0
  145.0844  136.1274  155.6629 C   0  0  0  0  0  0  0  0  0  0  0  0
  144.9390  134.8170  155.1586 O   0  0  0  0  0  0  0  0  0  0  0  0
  146.4590  136.9652  153.6171 C   0  0  2  0  0  0  0  0  0  0  0  0
  147.5881  136.5923  154.3890 O   0  0  0  0  0  0  0  0  0  0  0  0
  146.6026  138.3499  152.9866 C   0  0  2  0  0  0  0  0  0  0  0  0
  147.9440  138.7123  152.6991 O   0  0  0  0  0  0  0  0  0  0  0  0
  153.0795  141.8152  160.2853 C   0  0  0  0  0  0  0  0  0  0  0  0
  153.4175  140.6887  159.3649 C   0  0  0  0  0  0  0  0  0  0  0  0
  153.6876  141.7671  161.5036 O   0  0  0  0  0  0  0  0  0  0  0  0
  145.0627  139.8435  153.5067 H   0  0  0  0  0  0  0  0  0  0  0  0
  144.3326  137.0740  153.8585 H   0  0  0  0  0  0  0  0  0  0  0  0
  146.3089  136.1957  152.8591 H   0  0  0  0  0  0  0  0  0  0  0  0
  146.0385  138.3744  152.0533 H   0  0  0  0  0  0  0  0  0  0  0  0
  153.6238  144.0048  163.9640 H   0  0  0  0  0  0  0  0  0  0  0  0
  154.8775  142.8180  163.6008 H   0  0  0  0  0  0  0  0  0  0  0  0
  153.3281  142.2910  164.2626 H   0  0  0  0  0  0  0  0  0  0  0  0
  151.9007  144.4879  161.7579 H   0  0  0  0  0  0  0  0  0  0  0  0
  152.9334  144.6476  158.1343 H   0  0  0  0  0  0  0  0  0  0  0  0
  151.8801  145.4905  159.2632 H   0  0  0  0  0  0  0  0  0  0  0  0
  151.2980  145.0782  157.6532 H   0  0  0  0  0  0  0  0  0  0  0  0
  149.4951  143.3471  158.6729 H   0  0  0  0  0  0  0  0  0  0  0  0
  152.2593  142.3882  157.2713 H   0  0  0  0  0  0  0  0  0  0  0  0
  151.3241  141.3374  158.3180 H   0  0  0  0  0  0  0  0  0  0  0  0
  149.8903  143.4127  156.8213 H   0  0  0  0  0  0  0  0  0  0  0  0
  149.9069  138.1402  156.9506 H   0  0  0  0  0  0  0  0  0  0  0  0
  145.8651  142.1491  153.9461 H   0  0  0  0  0  0  0  0  0  0  0  0
  145.9867  136.1425  156.2749 H   0  0  0  0  0  0  0  0  0  0  0  0
  144.2446  136.3779  156.3122 H   0  0  0  0  0  0  0  0  0  0  0  0
  144.0913  134.4886  155.4169 H   0  0  0  0  0  0  0  0  0  0  0  0
  148.2530  136.2625  153.8022 H   0  0  0  0  0  0  0  0  0  0  0  0
  148.4540  137.9232  152.5989 H   0  0  0  0  0  0  0  0  0  0  0  0
  152.5121  140.2184  158.9809 H   0  0  0  0  0  0  0  0  0  0  0  0
  154.0007  139.9220  159.8755 H   0  0  0  0  0  0  0  0  0  0  0  0
  154.0011  141.0461  158.5163 H   0  0  0  0  0  0  0  0  0  0  0  0
  1  2  1  0  0  0  0
  1 35  1  0  0  0  0
  1 36  1  0  0  0  0
  1 37  1  0  0  0  0
  2 30  1  0  0  0  0
  2  3  2  0  0  0  0
  3  4  1  0  0  0  0
  3 38  1  0  0  0  0
  4  5  1  0  0  0  0
  4 28  2  0  0  0  0
  5  6  1  0  0  0  0
  5  7  1  0  0  0  0
  5  8  1  0  0  0  0
  6 39  1  0  0  0  0
  6 40  1  0  0  0  0
  6 41  1  0  0  0  0
  7 42  1  0  0  0  0
  8  9  1  0  0  0  0
  8 43  1  0  0  0  0
  8 44  1  0  0  0  0
  9 10  1  0  0  0  0
  9 45  1  0  0  0  0
 10 15  1  0  0  0  0
 10 11  2  0  0  0  0
 11 12  1  0  0  0  0
 12 13  2  0  0  0  0
 12 46  1  0  0  0  0
 13 14  1  0  0  0  0
 14 18  1  0  0  0  0
 14 15  2  0  0  0  0
 15 16  1  0  0  0  0
 16 17  2  0  0  0  0
 17 18  1  0  0  0  0
 17 47  1  0  0  0  0
 18 19  1  0  0  0  0
 19 31  1  0  0  0  0
 19 26  1  0  0  0  0
 19 20  1  0  0  0  0
 20 21  1  0  0  0  0
 21 32  1  0  0  0  0
 21 22  1  0  0  0  0
 21 24  1  0  0  0  0
 22 23  1  0  0  0  0
 22 48  1  0  0  0  0
 22 49  1  0  0  0  0
 23 50  1  0  0  0  0
 24 33  1  0  0  0  0
 24 25  1  0  0  0  0
 24 26  1  0  0  0  0
 25 51  1  0  0  0  0
 26 34  1  0  0  0  0
 26 27  1  0  0  0  0
 27 52  1  0  0  0  0
 28 29  1  0  0  0  0
 28 30  1  0  0  0  0
 29 53  1  0  0  0  0
 29 54  1  0  0  0  0
 29 55  1  0  0  0  0
M  END
> <s_m_source_file>
AV-unprocessed.smi

> <i_m_source_file_index>
287

> <i_lp_mmshare_version>
43012

> <i_f3d_flags>
0

> <s_epik_input>
W0NIM11jMVtjSF1jKGMobzEpW0NIM10pW0NAQF0oW0NIM10pKFtPSF0pW0NIMl1bTkhdYyhuW2NIXW4yKWMoYzIzKW5bY0hdbjNbQ0BASF00T1tDQEhdKFtDSDJdW09IXSlbQ0BASF0oW09IXSlbQ0BIXTRbT0hd

> <s_epik_cmdline>
J2VwaWtfcHl0aG9uJywgJy1waCcsICc3LjAnLCAnLXRuJywgJzgnLCAnLW1hJywgJzIwMCcsICctbWV0YWxfYmluZGluZycsICctaW1hZScsICc8aW5maWxlLm1hZT4nLCAnLW9tYWUnLCAnPG91dGZpbGUubWFlPic=

> <r_lp_tautomer_probability>
1

> <r_epik_Ionization_Penalty>
0.000992612

> <r_epik_Ionization_Penalty_Charging>
0

> <r_epik_Ionization_Penalty_Neutral>
0.000992612

> <r_epik_State_Penalty>
-0

> <r_epik_Charging_Adjusted_Penalty>
0

> <i_epik_Tot_Q>
0

> <i_epik_Tot_abs_Q>
0

> <r_epik_Metal_State_Penalty>
-0

> <b_epik_Metal_Only>
0

> <s_epik_Chemistry_Notes>
This compound contains an acetal/aminal-like group ( X-CH(R)-Y where X, Y are N, S, or O) that may be acid/base labile, releasing an aldehyde.

> <s_lp_Force_Field>
OPLS_2005

> <r_lp_Energy>
48.118

> <b_lp_Chiralities_Consistent>
1

> <s_lp_Variant>
AV-unprocessed.smi:287-26

> <Gold.Version>
5.8.1

> <Gold.Id.Protein>
6NUR|6NUR_protein|mol2

> <Gold.PLP.Fitness>
52.3429

> <Gold.PLP.PLP>
-44.4425

> <Gold.PLP.part.hbond>
-4.2330

> <Gold.PLP.part.metal>
0.0000

> <Gold.PLP.part.buried>
-5.6027

> <Gold.PLP.part.nonpolar>
-37.3815

> <Gold.PLP.part.repulsive>
2.9265

> <Gold.PLP.ligand.clash>
0.0000

> <Gold.PLP.ligand.torsion>
0.6351

> <Gold.PLP.Chemscore.Hbond>
2.9760

> <Gold.PLP.Chemscore.CHOScore>
0.0000

> <Gold.PLP.Chemscore.Metal>
0.0000

> <Gold.Chemscore.Hbonds>
donor molecule, donor type, donor heavy atom, donor atom, acceptor molecule, acceptor atom, score
      L1  H     9    45       P1  8028  1.00
      L1  H    25    51       P1  7948  0.86
      L1  H    27    52       P1  7948  1.00

> <Gold.PLP.Chemscore.Internal.Correction>
0.2426

> <Gold.Rescore>
     Score         DG    S(hbond)    S(metal)    S(lipo)     H(rot)  DE(clash)    DE(int)     intcor
     11.00     -14.80       2.99        0.00     109.59       5.27       1.66       2.14       ----

> <Gold.Chemscore.Fitness>
11.0009

> <Gold.Chemscore.DG>
-14.7969

> <Gold.Chemscore.ZeroCoef>
-5.4800

> <Gold.Chemscore.Hbond>
2.9877

> <Gold.Chemscore.Metal>
0.0000

> <Gold.Chemscore.Lipo>
109.5905

> <Gold.Chemscore.Internal_Hbond>
0.0000

> <Gold.Chemscore.DEClash>
1.6568

> <Gold.Chemscore.DEInternal>
2.1392

> <Gold.Chemscore.Rot>
5.2672

> <Gold.Chemscore.Internal.Correction>
   9.000000E+99

> <Gold.Chemscore.Hbonds>
donor molecule, donor type, donor heavy atom, donor atom, acceptor molecule, acceptor atom, score
      L1  H     9    45       P1  8028  0.91
      L1  H    25    51       P1  7948  0.81
      L1  H    27    52       P1  7948  0.99

> <Gold.Chemscore.Hbond.Weighted>
-9.9788

> <Gold.Chemscore.Metal.Weighted>
-0.0000

> <Gold.Chemscore.Lipo.Weighted>
-12.8221

> <Gold.Chemscore.Internal_Hbond.Weighted>
0.0000

> <Gold.Chemscore.DEClash.Weighted>
1.6568

> <Gold.Chemscore.DEInternal.Weighted>
2.1392

> <Gold.Chemscore.Rot.Weighted>
13.4839

> <Gold.Chemscore.Internal.Correction.Weighted>
   9.000000E+99

> <Gold.Protein.RotatedTorsions>
[ 6907 6896 6895 6894 ] final  160.12 input  -60.11 | X-H torsion
[ 7974 7965 7964 7962 ] final  134.42 input  175.53 | X-H torsion
[ 8008 7997 7996 7995 ] final  -40.75 input   59.86 | X-H torsion
[ 10167 10162 10161 10158 ] final -131.00 input  -65.29 | X-H torsion
[ 10718 10713 10712 10709 ] final   61.47 input   66.30 | X-H torsion
[ 10763 10752 10751 10750 ] final   87.45 input  -60.55 | X-H torsion
[ 11005 11000 10999 10996 ] final  162.95 input  -57.11 | X-H torsion

> <Gold.Protein.ActiveResidues>
 VAL166  LYS551  ARG553  GLY616  TRP617  ASP618  TYR619  PRO620  LYS621  CYS622 
 ASP623  PHE694  ASN695  SER759  ASP760  ASP761  ALA762  ILE779  LEU786  VAL792 
 PHE793  MET794  SER795  GLU796  ALA797  LYS798  CYS799  TRP800  GLU811  SER814 

> <Gold.Protein.RotatedAtoms>
  151.9754  133.3740  159.4086 H   0  0  0  0  0  0  0  0  0  0  0  0  # atno 6907 bound_to 6896
  150.6942  134.4095  159.5164 H   0  0  0  0  0  0  0  0  0  0  0  0  # atno 6908 bound_to 6896
  152.1806  134.8757  160.0577 H   0  0  0  0  0  0  0  0  0  0  0  0  # atno 6909 bound_to 6896
  144.9766  139.4549  143.5407 H   0  0  0  0  0  0  0  0  0  0  0  0  # atno 7974 bound_to 7965
  154.4009  140.1517  156.3078 H   0  0  0  0  0  0  0  0  0  0  0  0  # atno 8008 bound_to 7997
  155.8643  140.3452  155.5756 H   0  0  0  0  0  0  0  0  0  0  0  0  # atno 8009 bound_to 7997
  155.7846  140.0848  157.2032 H   0  0  0  0  0  0  0  0  0  0  0  0  # atno 8010 bound_to 7997
  139.9235  143.6354  152.2548 H   0  0  0  0  0  0  0  0  0  0  0  0  # atno 10167 bound_to 10162
  157.5830  130.8996  149.9465 H   0  0  0  0  0  0  0  0  0  0  0  0  # atno 10718 bound_to 10713
  153.1669  135.4543  154.9849 H   0  0  0  0  0  0  0  0  0  0  0  0  # atno 10763 bound_to 10752
  154.7938  135.3230  154.7717 H   0  0  0  0  0  0  0  0  0  0  0  0  # atno 10764 bound_to 10752
  153.8199  135.6947  153.4883 H   0  0  0  0  0  0  0  0  0  0  0  0  # atno 10765 bound_to 10752
  140.2309  134.8125  157.3315 H   0  0  0  0  0  0  0  0  0  0  0  0  # atno 11005 bound_to 11000
  146.3397  139.9012  142.8794 LP  0  0  0  0  0  0  0  0  0  0  0  0  # atno 17320 bound_to 7965
  145.2482  141.0034  143.3896 LP  0  0  0  0  0  0  0  0  0  0  0  0  # atno 17321 bound_to 7965
  139.6841  144.7653  151.1555 LP  0  0  0  0  0  0  0  0  0  0  0  0  # atno 17342 bound_to 10162
  140.7656  143.5682  150.9025 LP  0  0  0  0  0  0  0  0  0  0  0  0  # atno 17343 bound_to 10162
  156.0877  130.3666  150.0455 LP  0  0  0  0  0  0  0  0  0  0  0  0  # atno 17370 bound_to 10713
  156.8591  130.9485  151.3619 LP  0  0  0  0  0  0  0  0  0  0  0  0  # atno 17371 bound_to 10713
  140.1752  134.4559  155.7806 LP  0  0  0  0  0  0  0  0  0  0  0  0  # atno 17394 bound_to 11000
  141.2218  133.6959  156.7775 LP  0  0  0  0  0  0  0  0  0  0  0  0  # atno 17395 bound_to 11000

$$$$
