#       Name:                AV-unprocessed.smi:2960
#       Creating user name   scv26
#       Creation time:       Fri Mar 27 16:21:11 2020


#       File generated by GOLD software.
#

@<TRIPOS>MOLECULE
AV-unprocessed.smi:2960
    53    55     1
SMALL
NO_CHARGES


@<TRIPOS>ATOM
      1 ****        -0.3206   2.7279  -4.9202 C.3            1 S1                 0.0000
      2 ****        -0.5326   3.2973  -3.5222 C.2            1 S1                 0.0000
      3 ****         0.3428   3.9819  -2.9937 O.2            1 S1                 0.0000
      4 ****        -1.6972   2.9961  -2.9298 N.am           1 S1                 0.0000
      5 ****        -2.0950   3.4329  -1.5953 C.3            1 S1                 0.0000
      6 ****        -1.5110   2.5488  -0.4763 C.3            1 S1                 0.0000
      7 ****        -1.8240   1.0872  -0.6326 C.2            1 S1                 0.0000
      8 ****        -3.0516   0.6156  -0.4098 N.2            1 S1                 0.0000
      9 ****        -2.9092  -0.7363  -0.6518 C.ar           1 S1                 0.0000
     10 ****        -3.8540  -1.7853  -0.5857 C.ar           1 S1                 0.0000
     11 ****        -3.4701  -3.1109  -0.8759 C.ar           1 S1                 0.0000
     12 ****        -2.1388  -3.4060  -1.2344 C.ar           1 S1                 0.0000
     13 ****        -1.1825  -2.3752  -1.3078 C.ar           1 S1                 0.0000
     14 ****        -1.5714  -1.0528  -1.0198 C.ar           1 S1                 0.0000
     15 ****        -0.8964   0.1643  -0.9973 N.pl3          1 S1                 0.0000
     16 ****         0.5156   0.3601  -1.2951 C.3            1 S1                 0.0000
     17 ****         1.3827   0.3341  -0.0288 C.3            1 S1                 0.0000
     18 ****         1.1665  -0.8876   0.6654 O.3            1 S1                 0.0000
     19 ****         1.8235  -1.0855   1.8601 C.ar           1 S1                 0.0000
     20 ****         1.5345  -2.2756   2.5586 C.ar           1 S1                 0.0000
     21 ****         2.1609  -2.5612   3.7868 C.ar           1 S1                 0.0000
     22 ****         3.0899  -1.6547   4.3341 C.ar           1 S1                 0.0000
     23 ****         3.7642  -1.9677   5.6540 C.3            1 S1                 0.0000
     24 ****         3.3878  -0.4627   3.6437 C.ar           1 S1                 0.0000
     25 ****         2.7600  -0.1775   2.4156 C.ar           1 S1                 0.0000
     26 ****        -1.1288   3.0350  -5.5846 H              1 S1                 0.0000
     27 ****        -0.2954   1.6384  -4.8849 H              1 S1                 0.0000
     28 ****         0.6214   3.0786  -5.3432 H              1 S1                 0.0000
     29 ****        -2.3557   2.4233  -3.4380 H              1 S1                 0.0000
     30 ****        -1.8147   4.4755  -1.4378 H              1 S1                 0.0000
     31 ****        -3.1840   3.4006  -1.5513 H              1 S1                 0.0000
     32 ****        -0.4352   2.7026  -0.4085 H              1 S1                 0.0000
     33 ****        -1.9103   2.8788   0.4833 H              1 S1                 0.0000
     34 ****        -4.8756  -1.5699  -0.3098 H              1 S1                 0.0000
     35 ****        -4.2002  -3.9051  -0.8214 H              1 S1                 0.0000
     36 ****        -1.8519  -4.4242  -1.4527 H              1 S1                 0.0000
     37 ****        -0.1615  -2.5990  -1.5790 H              1 S1                 0.0000
     38 ****         0.8379  -0.4252  -1.9791 H              1 S1                 0.0000
     39 ****         0.6504   1.2974  -1.8316 H              1 S1                 0.0000
     40 ****         2.4329   0.4301  -0.3079 H              1 S1                 0.0000
     41 ****         1.1255   1.1792   0.6112 H              1 S1                 0.0000
     42 ****         0.8230  -2.9774   2.1481 H              1 S1                 0.0000
     43 ****         1.9267  -3.4783   4.3073 H              1 S1                 0.0000
     44 ****         4.3220  -1.1089   6.0287 H              1 S1                 0.0000
     45 ****         4.4581  -2.8000   5.5337 H              1 S1                 0.0000
     46 ****         3.0226  -2.2437   6.4040 H              1 S1                 0.0000
     47 ****         4.1003   0.2391   4.0521 H              1 S1                 0.0000
     48 ****         3.0166   0.7451   1.9175 H              1 S1                 0.0000
     49 ****         1.1962   4.1661  -3.4814 LP             1 S1                 0.0000
     50 ****         0.2009   4.3541  -2.0764 LP             1 S1                 0.0000
     51 ****        -3.8721   1.1171  -0.1353 LP             1 S1                 0.0000
     52 ****         1.4385  -1.6289   0.0518 LP             1 S1                 0.0000
     53 ****         0.1863  -0.9523   0.8524 LP             1 S1                 0.0000
@<TRIPOS>BOND
    1    1    2 1     
    2    1   26 1     
    3    1   27 1     
    4    1   28 1     
    5    2    3 2     
    6    2    4 am    
    7    4    5 1     
    8    4   29 1     
    9    5    6 1     
   10    5   30 1     
   11    5   31 1     
   12    6    7 1     
   13    6   32 1     
   14    6   33 1     
   15    7   15 1     
   16    7    8 2     
   17    8    9 1     
   18    9   14 ar    
   19    9   10 ar    
   20   10   11 ar    
   21   10   34 1     
   22   11   12 ar    
   23   11   35 1     
   24   12   13 ar    
   25   12   36 1     
   26   13   14 ar    
   27   13   37 1     
   28   14   15 1     
   29   15   16 1     
   30   16   17 1     
   31   16   38 1     
   32   16   39 1     
   33   17   18 1     
   34   17   40 1     
   35   17   41 1     
   36   18   19 1     
   37   19   25 ar    
   38   19   20 ar    
   39   20   21 ar    
   40   20   42 1     
   41   21   22 ar    
   42   21   43 1     
   43   22   23 1     
   44   22   24 ar    
   45   23   44 1     
   46   23   45 1     
   47   23   46 1     
   48   24   25 ar    
   49   24   47 1     
   50   25   48 1     
   51    3   49 1     
   52    3   50 1     
   53    8   51 1     
   54   18   52 1     
   55   18   53 1     
@<TRIPOS>SUBSTRUCTURE
      1 S1             1
@<TRIPOS>SET
LONE_PAIRS      STATIC     ATOMS    <user>   **** ""
5 49 50 51 52 53
DONOR_HYDROGENS      STATIC     ATOMS    <user>   **** ""
1 29
ATOM$BLUE        STATIC     ATOMS    COLORGROUP SYSTEM
5 49 50 51 52 53
ATOM$RED        STATIC     ATOMS    COLORGROUP SYSTEM
1 29
