AV-unprocessed.smi:3158|AV-procd|sdf|12043|dock4
  -GOLD-   2272017463D 1   1.00000     0.00000
 Structure written by MMmdl.
 40 40  0  0  0  0  0  0  0  0  2 V2000
  150.6148  136.9136  154.8986 C   0  0  0  0  0  0  0  0  0  0  0  0
  150.1363  138.3295  155.2525 C   0  0  0  0  0  0  0  0  0  0  0  0
  149.7803  139.2043  154.0324 C   0  0  2  0  0  0  0  0  0  0  0  0
  149.4820  140.6517  154.4471 C   0  0  0  0  0  0  0  0  0  0  0  0
  148.6231  138.6674  153.3174 N   0  0  0  0  0  0  0  0  0  0  0  0
  147.3386  138.8236  153.6748 C   0  0  0  0  0  0  0  0  0  0  0  0
  146.9822  139.4553  154.6705 O   0  0  0  0  0  0  0  0  0  0  0  0
  146.2892  138.1666  152.7684 C   0  0  1  0  0  0  0  0  0  0  0  0
  146.3918  138.7381  151.3464 C   0  0  0  0  0  0  0  0  0  0  0  0
  146.4743  136.6996  152.7361 N   0  3  0  0  0  0  0  0  0  0  0  0
  145.3776  135.9473  152.0876 C   0  0  0  0  0  0  0  0  0  0  0  0
  145.4616  134.4480  152.4160 C   0  0  0  0  0  0  0  0  0  0  0  0
  144.7984  133.6295  151.4150 N   0  0  0  0  0  0  0  0  0  0  0  0
  145.0527  133.5551  150.0614 C   0  0  0  0  0  0  0  0  0  0  0  0
  144.1769  132.6505  149.5326 C   0  0  0  0  0  0  0  0  0  0  0  0
  143.4085  132.2277  150.6531 C   0  0  0  0  0  0  0  0  0  0  0  0
  143.7774  132.8217  151.7762 N   0  0  0  0  0  0  0  0  0  0  0  0
  150.9363  136.3798  155.7931 H   0  0  0  0  0  0  0  0  0  0  0  0
  151.4582  136.9429  154.2081 H   0  0  0  0  0  0  0  0  0  0  0  0
  149.8221  136.3261  154.4364 H   0  0  0  0  0  0  0  0  0  0  0  0
  149.2786  138.2616  155.9229 H   0  0  0  0  0  0  0  0  0  0  0  0
  150.9241  138.8239  155.8223 H   0  0  0  0  0  0  0  0  0  0  0  0
  150.6457  139.2330  153.3679 H   0  0  0  0  0  0  0  0  0  0  0  0
  150.3395  141.1006  154.9492 H   0  0  0  0  0  0  0  0  0  0  0  0
  148.6329  140.7038  155.1295 H   0  0  0  0  0  0  0  0  0  0  0  0
  149.2508  141.2699  153.5790 H   0  0  0  0  0  0  0  0  0  0  0  0
  148.8194  138.1319  152.4840 H   0  0  0  0  0  0  0  0  0  0  0  0
  145.2893  138.3811  153.1504 H   0  0  0  0  0  0  0  0  0  0  0  0
  146.2507  139.8198  151.3429 H   0  0  0  0  0  0  0  0  0  0  0  0
  145.6286  138.3089  150.6967 H   0  0  0  0  0  0  0  0  0  0  0  0
  147.3638  138.5284  150.8974 H   0  0  0  0  0  0  0  0  0  0  0  0
  147.3320  136.4864  152.2482 H   0  0  0  0  0  0  0  0  0  0  0  0
  144.4081  136.3356  152.4021 H   0  0  0  0  0  0  0  0  0  0  0  0
  145.4372  136.1030  151.0103 H   0  0  0  0  0  0  0  0  0  0  0  0
  146.5049  134.1352  152.4738 H   0  0  0  0  0  0  0  0  0  0  0  0
  145.0169  134.2449  153.3911 H   0  0  0  0  0  0  0  0  0  0  0  0
  145.8295  134.1408  149.5916 H   0  0  0  0  0  0  0  0  0  0  0  0
  144.0952  132.3400  148.5014 H   0  0  0  0  0  0  0  0  0  0  0  0
  142.5979  131.5143  150.6838 H   0  0  0  0  0  0  0  0  0  0  0  0
  146.5594  136.3864  153.6931 H   0  0  0  0  0  0  0  0  0  0  0  0
  1  2  1  0  0  0  0
  1 18  1  0  0  0  0
  1 19  1  0  0  0  0
  1 20  1  0  0  0  0
  2  3  1  0  0  0  0
  2 21  1  0  0  0  0
  2 22  1  0  0  0  0
  3  4  1  0  0  0  0
  3  5  1  0  0  0  0
  3 23  1  0  0  0  0
  4 24  1  0  0  0  0
  4 25  1  0  0  0  0
  4 26  1  0  0  0  0
  5  6  1  0  0  0  0
  5 27  1  0  0  0  0
  6  7  2  0  0  0  0
  6  8  1  0  0  0  0
  8  9  1  0  0  0  0
  8 10  1  0  0  0  0
  8 28  1  0  0  0  0
  9 29  1  0  0  0  0
  9 30  1  0  0  0  0
  9 31  1  0  0  0  0
 10 11  1  0  0  0  0
 10 32  1  0  0  0  0
 10 40  1  0  0  0  0
 11 12  1  0  0  0  0
 11 33  1  0  0  0  0
 11 34  1  0  0  0  0
 12 13  1  0  0  0  0
 12 35  1  0  0  0  0
 12 36  1  0  0  0  0
 13 17  1  0  0  0  0
 13 14  1  0  0  0  0
 14 15  2  0  0  0  0
 14 37  1  0  0  0  0
 15 16  1  0  0  0  0
 15 38  1  0  0  0  0
 16 17  2  0  0  0  0
 16 39  1  0  0  0  0
M  CHG  1  10   1
M  END
> <s_m_source_file>
AV-unprocessed.smi

> <i_m_source_file_index>
3158

> <i_lp_mmshare_version>
43012

> <i_f3d_flags>
0

> <s_epik_input>
W0NIM11bQ0gyXVtDQEhdKFtDSDNdKVtOSF1DKD1PKVtDQEhdKFtDSDNdKVtOSF1bQ0gyXVtDSDJdbjFbY0hdW2NIXVtjSF1uMQ==

> <s_epik_cmdline>
J2VwaWtfcHl0aG9uJywgJy1waCcsICc3LjAnLCAnLXRuJywgJzgnLCAnLW1hJywgJzIwMCcsICctbWV0YWxfYmluZGluZycsICctaW1hZScsICc8aW5maWxlLm1hZT4nLCAnLW9tYWUnLCAnPG91dGZpbGUubWFlPic=

> <r_lp_tautomer_probability>
1

> <r_epik_Ionization_Penalty>
0.20724

> <r_epik_Ionization_Penalty_Charging>
0.207237

> <r_epik_Ionization_Penalty_Neutral>
3.33806e-06

> <r_epik_State_Penalty>
0.197234

> <r_epik_Charging_Adjusted_Penalty>
0.404471

> <i_epik_Tot_Q>
1

> <i_epik_Tot_abs_Q>
1

> <r_epik_Metal_State_Penalty>
0.197524

> <b_epik_Metal_Only>
0

> <s_lp_Force_Field>
OPLS_2005

> <r_lp_Energy>
5.46656

> <b_lp_Chiralities_Consistent>
1

> <s_lp_Variant>
AV-unprocessed.smi:3158-3

> <Gold.Version>
5.8.1

> <Gold.Id.Protein>
6NUR|6NUR_protein|mol2

> <Gold.PLP.Fitness>
43.9866

> <Gold.PLP.PLP>
-30.2275

> <Gold.PLP.part.hbond>
-3.0000

> <Gold.PLP.part.metal>
0.0000

> <Gold.PLP.part.buried>
0.0815

> <Gold.PLP.part.nonpolar>
-28.3694

> <Gold.PLP.part.repulsive>
0.3692

> <Gold.PLP.ligand.clash>
0.0000

> <Gold.PLP.ligand.torsion>
0.5014

> <Gold.PLP.Chemscore.Hbond>
2.8960

> <Gold.PLP.Chemscore.CHOScore>
1.9938

> <Gold.PLP.Chemscore.Metal>
0.0000

> <Gold.Chemscore.Hbonds>
donor molecule, donor type, donor heavy atom, donor atom, acceptor molecule, acceptor atom, score
      L1  H     5    27       P1  7948  0.85
      L1  H    10    32       P1  7948  2.00
      L1  C    14    37       P1  7921  1.00
      L1  C    16    39       P1 10952  1.00

> <Gold.PLP.Chemscore.Internal.Correction>
0.0925

> <Gold.Rescore>
     Score         DG    S(hbond)    S(metal)    S(lipo)     H(rot)  DE(clash)    DE(int)     intcor
     13.07     -15.50       1.95        0.00      78.29       2.21       0.68       1.76       ----

> <Gold.Chemscore.Fitness>
13.0659

> <Gold.Chemscore.DG>
-15.4964

> <Gold.Chemscore.ZeroCoef>
-5.4800

> <Gold.Chemscore.Hbond>
1.9528

> <Gold.Chemscore.Metal>
0.0000

> <Gold.Chemscore.Lipo>
78.2896

> <Gold.Chemscore.Internal_Hbond>
0.0000

> <Gold.Chemscore.DEClash>
0.6754

> <Gold.Chemscore.DEInternal>
1.7551

> <Gold.Chemscore.Rot>
2.2132

> <Gold.Chemscore.Internal.Correction>
   9.000000E+99

> <Gold.Chemscore.Hbonds>
donor molecule, donor type, donor heavy atom, donor atom, acceptor molecule, acceptor atom, score
      L1  H     5    27       P1  7948  0.82
      L1  H    10    32       P1  7948  1.00

> <Gold.Chemscore.Hbond.Weighted>
-6.5223

> <Gold.Chemscore.Metal.Weighted>
-0.0000

> <Gold.Chemscore.Lipo.Weighted>
-9.1599

> <Gold.Chemscore.Internal_Hbond.Weighted>
0.0000

> <Gold.Chemscore.DEClash.Weighted>
0.6754

> <Gold.Chemscore.DEInternal.Weighted>
1.7551

> <Gold.Chemscore.Rot.Weighted>
5.6658

> <Gold.Chemscore.Internal.Correction.Weighted>
   9.000000E+99

> <Gold.Protein.RotatedTorsions>
[ 6907 6896 6895 6894 ] final -168.07 input  -60.11 | X-H torsion
[ 7974 7965 7964 7962 ] final -124.06 input  175.53 | X-H torsion
[ 8008 7997 7996 7995 ] final   75.56 input   59.86 | X-H torsion
[ 10167 10162 10161 10158 ] final   66.50 input  -65.29 | X-H torsion
[ 10718 10713 10712 10709 ] final -160.59 input   66.30 | X-H torsion
[ 10763 10752 10751 10750 ] final   -6.09 input  -60.55 | X-H torsion
[ 11005 11000 10999 10996 ] final   34.45 input  -57.11 | X-H torsion

> <Gold.Protein.ActiveResidues>
 VAL166  LYS551  ARG553  GLY616  TRP617  ASP618  TYR619  PRO620  LYS621  CYS622 
 ASP623  PHE694  ASN695  SER759  ASP760  ASP761  ALA762  ILE779  LEU786  VAL792 
 PHE793  MET794  SER795  GLU796  ALA797  LYS798  CYS799  TRP800  GLU811  SER814 

> <Gold.Protein.RotatedAtoms>
  151.4696  133.3572  159.2821 H   0  0  0  0  0  0  0  0  0  0  0  0  # atno 6907 bound_to 6896
  150.8970  134.8381  159.7344 H   0  0  0  0  0  0  0  0  0  0  0  0  # atno 6908 bound_to 6896
  152.4857  134.4612  159.9658 H   0  0  0  0  0  0  0  0  0  0  0  0  # atno 6909 bound_to 6896
  145.0120  140.7914  143.4432 H   0  0  0  0  0  0  0  0  0  0  0  0  # atno 7974 bound_to 7965
  155.8147  140.3472  155.5478 H   0  0  0  0  0  0  0  0  0  0  0  0  # atno 8008 bound_to 7997
  155.8404  140.0941  157.1758 H   0  0  0  0  0  0  0  0  0  0  0  0  # atno 8009 bound_to 7997
  154.4005  140.1395  156.3710 H   0  0  0  0  0  0  0  0  0  0  0  0  # atno 8010 bound_to 7997
  140.0998  144.4914  150.7045 H   0  0  0  0  0  0  0  0  0  0  0  0  # atno 10167 bound_to 10162
  156.5843  130.8743  151.2873 H   0  0  0  0  0  0  0  0  0  0  0  0  # atno 10718 bound_to 10713
  153.4076  135.7007  153.6382 H   0  0  0  0  0  0  0  0  0  0  0  0  # atno 10763 bound_to 10752
  153.4889  135.3677  155.2482 H   0  0  0  0  0  0  0  0  0  0  0  0  # atno 10764 bound_to 10752
  154.8715  135.4084  154.3422 H   0  0  0  0  0  0  0  0  0  0  0  0  # atno 10765 bound_to 10752
  140.2527  134.3284  155.7885 H   0  0  0  0  0  0  0  0  0  0  0  0  # atno 11005 bound_to 11000
  145.2010  139.2252  143.5193 LP  0  0  0  0  0  0  0  0  0  0  0  0  # atno 17320 bound_to 7965
  146.3471  140.1827  142.8589 LP  0  0  0  0  0  0  0  0  0  0  0  0  # atno 17321 bound_to 7965
  140.6984  143.2418  151.4935 LP  0  0  0  0  0  0  0  0  0  0  0  0  # atno 17342 bound_to 10162
  139.5678  144.2001  152.1791 LP  0  0  0  0  0  0  0  0  0  0  0  0  # atno 17343 bound_to 10162
  157.7319  130.9707  150.1902 LP  0  0  0  0  0  0  0  0  0  0  0  0  # atno 17370 bound_to 10713
  156.2605  130.3710  149.8136 LP  0  0  0  0  0  0  0  0  0  0  0  0  # atno 17371 bound_to 10713
  141.2199  133.7363  156.9062 LP  0  0  0  0  0  0  0  0  0  0  0  0  # atno 17394 bound_to 11000
  140.1542  134.9209  157.2632 LP  0  0  0  0  0  0  0  0  0  0  0  0  # atno 17395 bound_to 11000

$$$$
