#       Name:                AV-unprocessed.smi:53
#       Creating user name   scv26
#       Creation time:       Thu Mar 26 16:40:13 2020


#       File generated by GOLD software.
#

@<TRIPOS>MOLECULE
AV-unprocessed.smi:53
    41    42     1
SMALL
NO_CHARGES


@<TRIPOS>ATOM
      1 ****        -4.9530  -0.2804   0.0421 N.pl3          1 S1                 0.0000
      2 ****        -3.6253  -0.4406   0.1319 C.2            1 S1                 0.0000
      3 ****        -2.8199   0.5247   0.8437 C.2            1 S1                 0.0000
      4 ****        -1.4884   0.2978   0.8864 C.2            1 S1                 0.0000
      5 ****        -0.9010  -0.7966   0.2608 N.am           1 S1                 0.0000
      6 ****         0.5922  -1.0745   0.3295 C.3            1 S1                 0.0000
      7 ****         1.2263  -0.0943   1.0941 O.3            1 S1                 0.0000
      8 ****         1.7041   0.9370   0.2402 C.3            1 S1                 0.0000
      9 ****         2.7790   1.7602   0.9650 C.3            1 S1                 0.0000
     10 ****         2.1679   2.7317   1.7870 O.3            1 S1                 0.0000
     11 ****         2.2375   0.1371  -0.9491 C.3            1 S1                 0.0000
     12 ****         2.2325   0.9316  -2.1185 O.3            1 S1                 0.0000
     13 ****         1.2431  -1.0153  -1.0729 C.3            1 S1                 0.0000
     14 ****         1.9213  -2.2147  -1.3871 O.3            1 S1                 0.0000
     15 ****        -1.7254  -1.7430  -0.3963 C.2            1 S1                 0.0000
     16 ****        -1.2585  -2.7566  -0.9154 O.2            1 S1                 0.0000
     17 ****        -3.0708  -1.4947  -0.4332 N.2            1 S1                 0.0000
     18 ****         0.6733  -2.0408   0.8317 H              1 S1                 0.0000
     19 ****         0.8756   1.5705  -0.0833 H              1 S1                 0.0000
     20 ****         3.2435  -0.2301  -0.7377 H              1 S1                 0.0000
     21 ****         0.4876  -0.8054  -1.8320 H              1 S1                 0.0000
     22 ****        -5.5138  -0.9595  -0.4517 H              1 S1                 0.0000
     23 ****        -5.3910   0.5220   0.4712 H              1 S1                 0.0000
     24 ****        -3.2309   1.3973   1.3310 H              1 S1                 0.0000
     25 ****        -0.8919   1.0126   1.4326 H              1 S1                 0.0000
     26 ****         3.4385   1.1223   1.5539 H              1 S1                 0.0000
     27 ****         3.3996   2.2878   0.2401 H              1 S1                 0.0000
     28 ****         2.8455   3.2367   2.2099 H              1 S1                 0.0000
     29 ****         2.5178   0.3964  -2.8432 H              1 S1                 0.0000
     30 ****         1.2848  -2.9131  -1.4246 H              1 S1                 0.0000
     31 ****         1.9950  -0.5016   1.5873 LP             1 S1                 0.0000
     32 ****         0.5759   0.2900   1.7493 LP             1 S1                 0.0000
     33 ****         1.6022   2.2813   2.4778 LP             1 S1                 0.0000
     34 ****         1.5967   3.3341   1.2294 LP             1 S1                 0.0000
     35 ****         2.8556   1.7053  -2.0040 LP             1 S1                 0.0000
     36 ****         1.3081   1.2710  -2.2925 LP             1 S1                 0.0000
     37 ****         2.6012  -2.4140  -0.6814 LP             1 S1                 0.0000
     38 ****         2.3768  -2.1240  -2.2727 LP             1 S1                 0.0000
     39 ****        -0.2740  -2.9286  -0.8797 LP             1 S1                 0.0000
     40 ****        -1.8636  -3.4082  -1.3729 LP             1 S1                 0.0000
     41 ****        -3.6617  -2.1441  -0.9119 LP             1 S1                 0.0000
@<TRIPOS>BOND
    1    1    2 1     
    2    1   22 1     
    3    1   23 1     
    4    2   17 2     
    5    2    3 1     
    6    3    4 2     
    7    3   24 1     
    8    4    5 1     
    9    4   25 1     
   10    5    6 1     
   11    5   15 am    
   12    6   18 1     
   13    6   13 1     
   14    6    7 1     
   15    7    8 1     
   16    8   19 1     
   17    8    9 1     
   18    8   11 1     
   19    9   10 1     
   20    9   26 1     
   21    9   27 1     
   22   10   28 1     
   23   11   20 1     
   24   11   12 1     
   25   11   13 1     
   26   12   29 1     
   27   13   21 1     
   28   13   14 1     
   29   14   30 1     
   30   15   16 2     
   31   15   17 1     
   32    7   31 1     
   33    7   32 1     
   34   10   33 1     
   35   10   34 1     
   36   12   35 1     
   37   12   36 1     
   38   14   37 1     
   39   14   38 1     
   40   16   39 1     
   41   16   40 1     
   42   17   41 1     
@<TRIPOS>SUBSTRUCTURE
      1 S1             1
@<TRIPOS>SET
LONE_PAIRS      STATIC     ATOMS    <user>   **** ""
11 31 32 33 34 35 36 37 38 39 40 41
DONOR_HYDROGENS      STATIC     ATOMS    <user>   **** ""
5 22 23 28 29 30
ATOM$BLUE        STATIC     ATOMS    COLORGROUP SYSTEM
11 31 32 33 34 35 36 37 38 39 40 41
ATOM$RED        STATIC     ATOMS    COLORGROUP SYSTEM
5 22 23 28 29 30
