#       Name:                AV-unprocessed.smi:1415
#       Creating user name   scv26
#       Creation time:       Fri Mar 27 05:40:22 2020


#       File generated by GOLD software.
#

@<TRIPOS>MOLECULE
AV-unprocessed.smi:1415
    45    46     1
SMALL
NO_CHARGES


@<TRIPOS>ATOM
      1 ****        -1.5115   1.6698   0.3396 O.2            1 S1                 0.0000
      2 ****        -1.9326   0.7362  -0.3441 C.2            1 S1                 0.0000
      3 ****        -1.1451  -0.2295  -0.8396 N.am           1 S1                 0.0000
      4 ****         0.2975  -0.3088  -0.6448 C.3            1 S1                 0.0000
      5 ****         0.6517  -0.8962   0.7346 C.3            1 S1                 0.0000
      6 ****         2.1060  -0.9753   0.9196 N.am           1 S1                 0.0000
      7 ****         2.7289  -2.2839   0.6583 C.3            1 S1                 0.0000
      8 ****         3.6077  -2.3139  -0.6147 C.3            1 S1                 0.0000
      9 ****         4.2785  -0.9848  -1.0148 C.3            1 S1                 0.0000
     10 ****         5.0921  -0.3011   0.1041 C.3            1 S1                 0.0000
     11 ****         4.3531  -0.0526   1.4404 C.3            1 S1                 0.0000
     12 ****         2.8307   0.1060   1.3002 C.2            1 S1                 0.0000
     13 ****         2.3265   1.2053   1.5309 O.2            1 S1                 0.0000
     14 ****        -3.2171   0.5445  -0.6927 N.am           1 S1                 0.0000
     15 ****        -4.3456   1.3392  -0.3564 C.ar           1 S1                 0.0000
     16 ****        -5.5739   0.8924  -0.8938 C.ar           1 S1                 0.0000
     17 ****        -6.7534   1.6112  -0.6183 C.ar           1 S1                 0.0000
     18 ****        -6.6744   2.7596   0.1894 C.ar           1 S1                 0.0000
     19 ****        -5.4125   3.1358   0.6850 C.ar           1 S1                 0.0000
     20 ****        -4.2810   2.4484   0.4220 N.ar           1 S1                 0.0000
     21 ****        -1.5715  -0.9593  -1.3917 H              1 S1                 0.0000
     22 ****         0.7111  -0.9392  -1.4324 H              1 S1                 0.0000
     23 ****         0.7429   0.6791  -0.7749 H              1 S1                 0.0000
     24 ****         0.2123  -0.2889   1.5281 H              1 S1                 0.0000
     25 ****         0.1918  -1.8787   0.8449 H              1 S1                 0.0000
     26 ****         3.3239  -2.5747   1.5242 H              1 S1                 0.0000
     27 ****         1.9788  -3.0711   0.5794 H              1 S1                 0.0000
     28 ****         4.3681  -3.0868  -0.4988 H              1 S1                 0.0000
     29 ****         2.9890  -2.6352  -1.4533 H              1 S1                 0.0000
     30 ****         4.9351  -1.1653  -1.8663 H              1 S1                 0.0000
     31 ****         3.5196  -0.2948  -1.3869 H              1 S1                 0.0000
     32 ****         5.9831  -0.8958   0.3075 H              1 S1                 0.0000
     33 ****         5.4587   0.6530  -0.2760 H              1 S1                 0.0000
     34 ****         4.5626  -0.8604   2.1411 H              1 S1                 0.0000
     35 ****         4.7631   0.8397   1.9153 H              1 S1                 0.0000
     36 ****        -3.4108  -0.2641  -1.2646 H              1 S1                 0.0000
     37 ****        -5.6165   0.0078  -1.5126 H              1 S1                 0.0000
     38 ****        -7.7018   1.2862  -1.0195 H              1 S1                 0.0000
     39 ****        -7.5565   3.3369   0.4234 H              1 S1                 0.0000
     40 ****        -5.3084   4.0110   1.3087 H              1 S1                 0.0000
     41 ****        -0.5362   1.7346   0.5509 LP             1 S1                 0.0000
     42 ****        -2.1448   2.3630   0.6835 LP             1 S1                 0.0000
     43 ****         1.3386   1.3312   1.4402 LP             1 S1                 0.0000
     44 ****         2.9049   1.9722   1.8089 LP             1 S1                 0.0000
     45 ****        -3.4053   2.7532   0.7966 LP             1 S1                 0.0000
@<TRIPOS>BOND
    1    1    2 2     
    2    2    3 am    
    3    2   14 am    
    4    3    4 1     
    5    3   21 1     
    6    4    5 1     
    7    4   22 1     
    8    4   23 1     
    9    5    6 1     
   10    5   24 1     
   11    5   25 1     
   12    6   12 am    
   13    6    7 1     
   14    7    8 1     
   15    7   26 1     
   16    7   27 1     
   17    8    9 1     
   18    8   28 1     
   19    8   29 1     
   20    9   10 1     
   21    9   30 1     
   22    9   31 1     
   23   10   11 1     
   24   10   32 1     
   25   10   33 1     
   26   11   12 1     
   27   11   34 1     
   28   11   35 1     
   29   12   13 2     
   30   14   15 1     
   31   14   36 1     
   32   15   20 ar    
   33   15   16 ar    
   34   16   17 ar    
   35   16   37 1     
   36   17   18 ar    
   37   17   38 1     
   38   18   19 ar    
   39   18   39 1     
   40   19   20 ar    
   41   19   40 1     
   42    1   41 1     
   43    1   42 1     
   44   13   43 1     
   45   13   44 1     
   46   20   45 1     
@<TRIPOS>SUBSTRUCTURE
      1 S1             1
@<TRIPOS>SET
LONE_PAIRS      STATIC     ATOMS    <user>   **** ""
5 41 42 43 44 45
DONOR_HYDROGENS      STATIC     ATOMS    <user>   **** ""
2 21 36
ATOM$BLUE        STATIC     ATOMS    COLORGROUP SYSTEM
5 41 42 43 44 45
ATOM$RED        STATIC     ATOMS    COLORGROUP SYSTEM
2 21 36
