AV-unprocessed.smi:2462|AV-procd|sdf|9718|dock10
  -GOLD-   2272013363D 1   1.00000     0.00000
 Structure written by MMmdl.
 40 41  0  0  0  0  0  0  0  0  1 V2000
  152.2355  144.2588  160.5798 C   0  0  0  0  0  0  0  0  0  0  0  0
  152.0771  143.2237  159.4800 C   0  0  0  0  0  0  0  0  0  0  0  0
  151.1865  143.5611  158.4577 N   0  0  0  0  0  0  0  0  0  0  0  0
  151.0025  142.7483  157.4694 C   0  0  0  0  0  0  0  0  0  0  0  0
  151.6798  141.5183  157.3846 N   0  0  0  0  0  0  0  0  0  0  0  0
  151.3898  140.6815  156.2018 C   0  0  0  0  0  0  0  0  0  0  0  0
  149.8801  140.5596  155.8339 C   0  0  1  0  0  0  0  0  0  0  0  0
  149.5430  141.6976  155.0621 O   0  0  0  0  0  0  0  0  0  0  0  0
  149.6738  139.3301  154.9156 C   0  0  0  0  0  0  0  0  0  0  0  0
  148.2002  139.0859  154.5423 C   0  0  0  0  0  0  0  0  0  0  0  0
  147.3110  138.9695  155.7921 C   0  0  2  0  0  0  0  0  0  0  0  0
  145.8441  138.7159  155.4178 C   0  0  0  0  0  0  0  0  0  0  0  0
  147.4615  140.2270  156.6651 C   0  0  0  0  0  0  0  0  0  0  0  0
  148.9291  140.4779  157.0552 C   0  0  0  0  0  0  0  0  0  0  0  0
  152.5337  141.0957  158.3621 C   0  0  0  0  0  0  0  0  0  0  0  0
  153.0846  139.9949  158.3118 O   0  0  0  0  0  0  0  0  0  0  0  0
  152.7485  142.0401  159.4706 C   0  0  0  0  0  0  0  0  0  0  0  0
  153.7316  141.6202  160.5563 C   0  0  0  0  0  0  0  0  0  0  0  0
  151.9783  143.8307  161.5490 H   0  0  0  0  0  0  0  0  0  0  0  0
  151.5864  145.1193  160.4126 H   0  0  0  0  0  0  0  0  0  0  0  0
  153.2639  144.6188  160.6182 H   0  0  0  0  0  0  0  0  0  0  0  0
  150.3224  142.9692  156.6450 H   0  0  0  0  0  0  0  0  0  0  0  0
  151.9595  141.0343  155.3397 H   0  0  0  0  0  0  0  0  0  0  0  0
  151.7896  139.6801  156.3729 H   0  0  0  0  0  0  0  0  0  0  0  0
  149.4549  142.4381  155.6425 H   0  0  0  0  0  0  0  0  0  0  0  0
  150.2689  139.4333  154.0070 H   0  0  0  0  0  0  0  0  0  0  0  0
  150.0490  138.4378  155.4190 H   0  0  0  0  0  0  0  0  0  0  0  0
  147.8407  139.8951  153.9051 H   0  0  0  0  0  0  0  0  0  0  0  0
  148.1251  138.1750  153.9475 H   0  0  0  0  0  0  0  0  0  0  0  0
  147.6551  138.1124  156.3731 H   0  0  0  0  0  0  0  0  0  0  0  0
  145.4362  139.5385  154.8296 H   0  0  0  0  0  0  0  0  0  0  0  0
  145.2249  138.6046  156.3085 H   0  0  0  0  0  0  0  0  0  0  0  0
  145.7414  137.8034  154.8300 H   0  0  0  0  0  0  0  0  0  0  0  0
  147.0678  141.0954  156.1353 H   0  0  0  0  0  0  0  0  0  0  0  0
  146.8611  140.1248  157.5697 H   0  0  0  0  0  0  0  0  0  0  0  0
  149.2552  139.6693  157.7104 H   0  0  0  0  0  0  0  0  0  0  0  0
  148.9844  141.3927  157.6465 H   0  0  0  0  0  0  0  0  0  0  0  0
  154.7098  141.4157  160.1194 H   0  0  0  0  0  0  0  0  0  0  0  0
  153.3834  140.7105  161.0470 H   0  0  0  0  0  0  0  0  0  0  0  0
  153.8710  142.3770  161.3266 H   0  0  0  0  0  0  0  0  0  0  0  0
  1  2  1  0  0  0  0
  1 19  1  0  0  0  0
  1 20  1  0  0  0  0
  1 21  1  0  0  0  0
  2 17  2  0  0  0  0
  2  3  1  0  0  0  0
  3  4  2  0  0  0  0
  4  5  1  0  0  0  0
  4 22  1  0  0  0  0
  5  6  1  0  0  0  0
  5 15  1  0  0  0  0
  6  7  1  0  0  0  0
  6 23  1  0  0  0  0
  6 24  1  0  0  0  0
  7 14  1  0  0  0  0
  7  8  1  0  0  0  0
  7  9  1  0  0  0  0
  8 25  1  0  0  0  0
  9 10  1  0  0  0  0
  9 26  1  0  0  0  0
  9 27  1  0  0  0  0
 10 11  1  0  0  0  0
 10 28  1  0  0  0  0
 10 29  1  0  0  0  0
 11 12  1  0  0  0  0
 11 13  1  0  0  0  0
 11 30  1  0  0  0  0
 12 31  1  0  0  0  0
 12 32  1  0  0  0  0
 12 33  1  0  0  0  0
 13 14  1  0  0  0  0
 13 34  1  0  0  0  0
 13 35  1  0  0  0  0
 14 36  1  0  0  0  0
 14 37  1  0  0  0  0
 15 16  2  0  0  0  0
 15 17  1  0  0  0  0
 17 18  1  0  0  0  0
 18 38  1  0  0  0  0
 18 39  1  0  0  0  0
 18 40  1  0  0  0  0
M  END
> <s_m_source_file>
AV-unprocessed.smi

> <i_m_source_file_index>
2462

> <i_lp_mmshare_version>
43012

> <i_f3d_flags>
0

> <s_epik_input>
W0NIM11jMW5bY0hdbihjKD1PKWMxW0NIM10pW0NIMl1bQ0BAXTIoW09IXSlbQ0gyXVtDSDJdW0NAQEhdKFtDSDNdKVtDSDJdW0NIMl0y

> <s_epik_cmdline>
J2VwaWtfcHl0aG9uJywgJy1waCcsICc3LjAnLCAnLXRuJywgJzgnLCAnLW1hJywgJzIwMCcsICctbWV0YWxfYmluZGluZycsICctaW1hZScsICc8aW5maWxlLm1hZT4nLCAnLW9tYWUnLCAnPG91dGZpbGUubWFlPic=

> <r_lp_tautomer_probability>
1

> <r_epik_Ionization_Penalty>
0.000179745

> <r_epik_Ionization_Penalty_Charging>
2.35483e-07

> <r_epik_Ionization_Penalty_Neutral>
0.00017951

> <r_epik_State_Penalty>
-0

> <r_epik_Charging_Adjusted_Penalty>
2.35483e-07

> <i_epik_Tot_Q>
0

> <i_epik_Tot_abs_Q>
0

> <r_epik_Metal_State_Penalty>
-0

> <b_epik_Metal_Only>
0

> <s_lp_Force_Field>
OPLS_2005

> <r_lp_Energy>
24.8563

> <b_lp_Chiralities_Consistent>
1

> <s_lp_Variant>
AV-unprocessed.smi:2462-2

> <Gold.Version>
5.8.1

> <Gold.Id.Protein>
6NUR|6NUR_protein|mol2

> <Gold.PLP.Fitness>
39.6503

> <Gold.PLP.PLP>
-32.1833

> <Gold.PLP.part.hbond>
-2.8042

> <Gold.PLP.part.metal>
0.0000

> <Gold.PLP.part.buried>
-4.2009

> <Gold.PLP.part.nonpolar>
-24.9729

> <Gold.PLP.part.repulsive>
0.1076

> <Gold.PLP.ligand.clash>
0.0000

> <Gold.PLP.ligand.torsion>
0.4969

> <Gold.PLP.Chemscore.Hbond>
1.8000

> <Gold.PLP.Chemscore.CHOScore>
1.0000

> <Gold.PLP.Chemscore.Metal>
0.0000

> <Gold.Chemscore.Hbonds>
donor molecule, donor type, donor heavy atom, donor atom, acceptor molecule, acceptor atom, score
      L1  H     8    25       P1  8028  0.16
      P1  H  7997  8009       L1    16  0.89
      L1  C     4    22       P1  8028  1.00

> <Gold.PLP.Chemscore.Internal.Correction>
0.0608

> <Gold.Rescore>
     Score         DG    S(hbond)    S(metal)    S(lipo)     H(rot)  DE(clash)    DE(int)     intcor
     13.91     -15.82       1.70        0.00      76.58       1.68       0.34       1.57       ----

> <Gold.Chemscore.Fitness>
13.9123

> <Gold.Chemscore.DG>
-15.8216

> <Gold.Chemscore.ZeroCoef>
-5.4800

> <Gold.Chemscore.Hbond>
1.6983

> <Gold.Chemscore.Metal>
0.0000

> <Gold.Chemscore.Lipo>
76.5755

> <Gold.Chemscore.Internal_Hbond>
0.0000

> <Gold.Chemscore.DEClash>
0.3393

> <Gold.Chemscore.DEInternal>
1.5700

> <Gold.Chemscore.Rot>
1.6758

> <Gold.Chemscore.Internal.Correction>
   9.000000E+99

> <Gold.Chemscore.Hbonds>
donor molecule, donor type, donor heavy atom, donor atom, acceptor molecule, acceptor atom, score
      L1  H     8    25       P1  8028  0.18
      P1  H  7997  8009       L1    16  0.49

> <Gold.Chemscore.Hbond.Weighted>
-5.6722

> <Gold.Chemscore.Metal.Weighted>
-0.0000

> <Gold.Chemscore.Lipo.Weighted>
-8.9593

> <Gold.Chemscore.Internal_Hbond.Weighted>
0.0000

> <Gold.Chemscore.DEClash.Weighted>
0.3393

> <Gold.Chemscore.DEInternal.Weighted>
1.5700

> <Gold.Chemscore.Rot.Weighted>
4.2899

> <Gold.Chemscore.Internal.Correction.Weighted>
   9.000000E+99

> <Gold.Protein.RotatedTorsions>
[ 6907 6896 6895 6894 ] final -163.45 input  -60.11 | X-H torsion
[ 7974 7965 7964 7962 ] final   79.44 input  175.53 | X-H torsion
[ 8008 7997 7996 7995 ] final  172.48 input   59.86 | X-H torsion
[ 10167 10162 10161 10158 ] final  -28.79 input  -65.29 | X-H torsion
[ 10718 10713 10712 10709 ] final  -98.54 input   66.30 | X-H torsion
[ 10763 10752 10751 10750 ] final  -33.85 input  -60.55 | X-H torsion
[ 11005 11000 10999 10996 ] final  128.94 input  -57.11 | X-H torsion

> <Gold.Protein.ActiveResidues>
 VAL166  LYS551  ARG553  GLY616  TRP617  ASP618  TYR619  PRO620  LYS621  CYS622 
 ASP623  PHE694  ASN695  SER759  ASP760  ASP761  ALA762  ILE779  LEU786  VAL792 
 PHE793  MET794  SER795  GLU796  ALA797  LYS798  CYS799  TRP800  GLU811  SER814 

> <Gold.Protein.RotatedAtoms>
  151.3963  133.3772  159.2726 H   0  0  0  0  0  0  0  0  0  0  0  0  # atno 6907 bound_to 6896
  150.9467  134.8872  159.7657 H   0  0  0  0  0  0  0  0  0  0  0  0  # atno 6908 bound_to 6896
  152.5095  134.3916  159.9438 H   0  0  0  0  0  0  0  0  0  0  0  0  # atno 6909 bound_to 6896
  145.6641  139.2479  143.1906 H   0  0  0  0  0  0  0  0  0  0  0  0  # atno 7974 bound_to 7965
  156.1170  140.1485  156.9259 H   0  0  0  0  0  0  0  0  0  0  0  0  # atno 8008 bound_to 7997
  154.4807  140.0880  156.7413 H   0  0  0  0  0  0  0  0  0  0  0  0  # atno 8009 bound_to 7997
  155.4496  140.3434  155.4301 H   0  0  0  0  0  0  0  0  0  0  0  0  # atno 8010 bound_to 7997
  140.7267  143.3981  151.1311 H   0  0  0  0  0  0  0  0  0  0  0  0  # atno 10167 bound_to 10162
  156.0110  130.5243  150.6538 H   0  0  0  0  0  0  0  0  0  0  0  0  # atno 10718 bound_to 10713
  153.8370  135.6861  153.4807 H   0  0  0  0  0  0  0  0  0  0  0  0  # atno 10763 bound_to 10752
  153.1476  135.4631  154.9588 H   0  0  0  0  0  0  0  0  0  0  0  0  # atno 10764 bound_to 10752
  154.7862  135.3285  154.7828 H   0  0  0  0  0  0  0  0  0  0  0  0  # atno 10765 bound_to 10752
  139.9588  134.9607  156.9075 H   0  0  0  0  0  0  0  0  0  0  0  0  # atno 11005 bound_to 11000
  146.1100  140.7439  142.9508 LP  0  0  0  0  0  0  0  0  0  0  0  0  # atno 17320 bound_to 7965
  144.7079  140.3924  143.7104 LP  0  0  0  0  0  0  0  0  0  0  0  0  # atno 17321 bound_to 7965
  139.7597  143.8654  152.3097 LP  0  0  0  0  0  0  0  0  0  0  0  0  # atno 17342 bound_to 10162
  139.8535  144.7152  150.9185 LP  0  0  0  0  0  0  0  0  0  0  0  0  # atno 17343 bound_to 10162
  157.4294  131.0847  151.1053 LP  0  0  0  0  0  0  0  0  0  0  0  0  # atno 17370 bound_to 10713
  157.1630  130.6234  149.5617 LP  0  0  0  0  0  0  0  0  0  0  0  0  # atno 17371 bound_to 10713
  140.5548  134.0592  155.7380 LP  0  0  0  0  0  0  0  0  0  0  0  0  # atno 17394 bound_to 11000
  141.1263  133.9378  157.2629 LP  0  0  0  0  0  0  0  0  0  0  0  0  # atno 17395 bound_to 11000

$$$$
