AV-unprocessed.smi:2068|AV-procd|sdf|8428|dock5
  -GOLD-   2272011123D 1   1.00000     0.00000
 Structure written by MMmdl.
 33 34  0  0  0  0  0  0  0  0  1 V2000
  146.6740  137.3015  153.0575 N   0  0  0  0  0  0  0  0  0  0  0  0
  146.6771  138.4265  152.3371 C   0  0  0  0  0  0  0  0  0  0  0  0
  146.6873  138.4207  151.1078 O   0  0  0  0  0  0  0  0  0  0  0  0
  146.6645  139.7486  153.1066 C   0  0  0  0  0  0  0  0  0  0  0  0
  147.9315  139.9027  153.8967 C   0  0  0  0  0  0  0  0  0  0  0  0
  148.9723  139.0082  153.9695 C   0  0  0  0  0  0  0  0  0  0  0  0
  150.2546  139.5781  155.0040 S   0  0  0  0  0  0  0  0  0  0  0  0
  149.3147  141.0316  155.3030 C   0  0  0  0  0  0  0  0  0  0  0  0
  149.7796  142.0655  156.1569 N   0  0  0  0  0  0  0  0  0  0  0  0
  150.8166  142.0353  157.0149 C   0  0  0  0  0  0  0  0  0  0  0  0
  151.5349  141.0543  157.2104 O   0  0  0  0  0  0  0  0  0  0  0  0
  151.0848  143.3339  157.7842 C   0  0  0  0  0  0  0  0  0  0  0  0
  152.3171  143.2587  158.7122 C   0  0  1  0  0  0  0  0  0  0  0  0
  152.4376  144.4340  159.6524 C   0  0  0  0  0  0  0  0  0  0  0  0
  152.5300  144.0656  160.9279 C   0  0  0  0  0  0  0  0  0  0  0  0
  152.4882  142.5728  161.1009 C   0  0  0  0  0  0  0  0  0  0  0  0
  152.2865  142.0366  159.6658 C   0  0  0  0  0  0  0  0  0  0  0  0
  148.1432  141.0571  154.6581 N   0  0  0  0  0  0  0  0  0  0  0  0
  146.6942  136.4064  152.5910 H   0  0  0  0  0  0  0  0  0  0  0  0
  146.6637  137.3499  154.0663 H   0  0  0  0  0  0  0  0  0  0  0  0
  146.5508  140.5723  152.4006 H   0  0  0  0  0  0  0  0  0  0  0  0
  145.7908  139.7818  153.7593 H   0  0  0  0  0  0  0  0  0  0  0  0
  149.0591  138.0493  153.4806 H   0  0  0  0  0  0  0  0  0  0  0  0
  149.2763  142.9386  156.0949 H   0  0  0  0  0  0  0  0  0  0  0  0
  151.2063  144.1589  157.0801 H   0  0  0  0  0  0  0  0  0  0  0  0
  150.1970  143.5632  158.3745 H   0  0  0  0  0  0  0  0  0  0  0  0
  153.2286  143.2239  158.1134 H   0  0  0  0  0  0  0  0  0  0  0  0
  152.4601  145.4553  159.3013 H   0  0  0  0  0  0  0  0  0  0  0  0
  152.6342  144.7400  161.7649 H   0  0  0  0  0  0  0  0  0  0  0  0
  153.4239  142.2212  161.5364 H   0  0  0  0  0  0  0  0  0  0  0  0
  151.6672  142.2874  161.7593 H   0  0  0  0  0  0  0  0  0  0  0  0
  151.3338  141.5096  159.5990 H   0  0  0  0  0  0  0  0  0  0  0  0
  153.0643  141.3181  159.4038 H   0  0  0  0  0  0  0  0  0  0  0  0
  1  2  1  0  0  0  0
  1 19  1  0  0  0  0
  1 20  1  0  0  0  0
  2  3  2  0  0  0  0
  2  4  1  0  0  0  0
  4  5  1  0  0  0  0
  4 21  1  0  0  0  0
  4 22  1  0  0  0  0
  5 18  1  0  0  0  0
  5  6  2  0  0  0  0
  6  7  1  0  0  0  0
  6 23  1  0  0  0  0
  7  8  1  0  0  0  0
  8  9  1  0  0  0  0
  8 18  2  0  0  0  0
  9 10  1  0  0  0  0
  9 24  1  0  0  0  0
 10 11  2  0  0  0  0
 10 12  1  0  0  0  0
 12 13  1  0  0  0  0
 12 25  1  0  0  0  0
 12 26  1  0  0  0  0
 13 17  1  0  0  0  0
 13 14  1  0  0  0  0
 13 27  1  0  0  0  0
 14 15  2  0  0  0  0
 14 28  1  0  0  0  0
 15 16  1  0  0  0  0
 15 29  1  0  0  0  0
 16 17  1  0  0  0  0
 16 30  1  0  0  0  0
 16 31  1  0  0  0  0
 17 32  1  0  0  0  0
 17 33  1  0  0  0  0
M  END
> <s_m_source_file>
AV-unprocessed.smi

> <i_m_source_file_index>
2068

> <i_lp_mmshare_version>
43012

> <i_f3d_flags>
0

> <s_epik_input>
W05IMl1DKD1PKVtDSDJdYzFbY0hdc2MobjEpW05IXUMoPU8pW0NIMl1bQ0BASF0yW0NIXT1bQ0hdW0NIMl1bQ0gyXTI=

> <s_epik_cmdline>
J2VwaWtfcHl0aG9uJywgJy1waCcsICc3LjAnLCAnLXRuJywgJzgnLCAnLW1hJywgJzIwMCcsICctbWV0YWxfYmluZGluZycsICctaW1hZScsICc8aW5maWxlLm1hZT4nLCAnLW9tYWUnLCAnPG91dGZpbGUubWFlPic=

> <r_lp_tautomer_probability>
1

> <r_epik_Ionization_Penalty>
0.000253249

> <r_epik_Ionization_Penalty_Charging>
0

> <r_epik_Ionization_Penalty_Neutral>
0.000253249

> <r_epik_State_Penalty>
-0

> <r_epik_Charging_Adjusted_Penalty>
0

> <i_epik_Tot_Q>
0

> <i_epik_Tot_abs_Q>
0

> <r_epik_Metal_State_Penalty>
0.148671

> <b_epik_Metal_Only>
0

> <s_lp_Force_Field>
OPLS_2005

> <r_lp_Energy>
16.4011

> <b_lp_Chiralities_Consistent>
1

> <s_lp_Variant>
AV-unprocessed.smi:2068-2

> <Gold.Version>
5.8.1

> <Gold.Id.Protein>
6NUR|6NUR_protein|mol2

> <Gold.PLP.Fitness>
47.0299

> <Gold.PLP.PLP>
-38.0680

> <Gold.PLP.part.hbond>
-3.0000

> <Gold.PLP.part.metal>
0.0000

> <Gold.PLP.part.buried>
-0.3670

> <Gold.PLP.part.nonpolar>
-35.3577

> <Gold.PLP.part.repulsive>
0.7439

> <Gold.PLP.ligand.clash>
0.0264

> <Gold.PLP.ligand.torsion>
0.1080

> <Gold.PLP.Chemscore.Hbond>
2.0612

> <Gold.PLP.Chemscore.CHOScore>
1.0000

> <Gold.PLP.Chemscore.Metal>
0.0000

> <Gold.Chemscore.Hbonds>
donor molecule, donor type, donor heavy atom, donor atom, acceptor molecule, acceptor atom, score
      L1  H     1    19       P1  7948  0.01
      L1  H     9    24       P1  8028  1.00
      P1  H  7954  7966       L1     3  1.00
      L1  C     6    23       P1  7948  1.00

> <Gold.PLP.Chemscore.Internal.Correction>
0.0208

> <Gold.Rescore>
     Score         DG    S(hbond)    S(metal)    S(lipo)     H(rot)  DE(clash)    DE(int)     intcor
     13.27     -17.90       1.99        0.00      97.47       2.21       1.71       2.92       ----

> <Gold.Chemscore.Fitness>
13.2654

> <Gold.Chemscore.DG>
-17.8968

> <Gold.Chemscore.ZeroCoef>
-5.4800

> <Gold.Chemscore.Hbond>
1.9935

> <Gold.Chemscore.Metal>
0.0000

> <Gold.Chemscore.Lipo>
97.4717

> <Gold.Chemscore.Internal_Hbond>
0.0000

> <Gold.Chemscore.DEClash>
1.7125

> <Gold.Chemscore.DEInternal>
2.9189

> <Gold.Chemscore.Rot>
2.2053

> <Gold.Chemscore.Internal.Correction>
   9.000000E+99

> <Gold.Chemscore.Hbonds>
donor molecule, donor type, donor heavy atom, donor atom, acceptor molecule, acceptor atom, score
      L1  H     1    19       P1  7948  0.02
      L1  H     9    24       P1  8028  1.00
      P1  H  7954  7966       L1     3  0.95

> <Gold.Chemscore.Hbond.Weighted>
-6.6582

> <Gold.Chemscore.Metal.Weighted>
-0.0000

> <Gold.Chemscore.Lipo.Weighted>
-11.4042

> <Gold.Chemscore.Internal_Hbond.Weighted>
0.0000

> <Gold.Chemscore.DEClash.Weighted>
1.7125

> <Gold.Chemscore.DEInternal.Weighted>
2.9189

> <Gold.Chemscore.Rot.Weighted>
5.6456

> <Gold.Chemscore.Internal.Correction.Weighted>
   9.000000E+99

> <Gold.Protein.RotatedTorsions>
[ 6907 6896 6895 6894 ] final  161.24 input  -60.11 | X-H torsion
[ 7974 7965 7964 7962 ] final    8.80 input  175.53 | X-H torsion
[ 8008 7997 7996 7995 ] final  -15.50 input   59.86 | X-H torsion
[ 10167 10162 10161 10158 ] final -165.03 input  -65.29 | X-H torsion
[ 10718 10713 10712 10709 ] final  148.55 input   66.30 | X-H torsion
[ 10763 10752 10751 10750 ] final   97.70 input  -60.55 | X-H torsion
[ 11005 11000 10999 10996 ] final  151.49 input  -57.11 | X-H torsion

> <Gold.Protein.ActiveResidues>
 VAL166  LYS551  ARG553  GLY616  TRP617  ASP618  TYR619  PRO620  LYS621  CYS622 
 ASP623  PHE694  ASN695  SER759  ASP760  ASP761  ALA762  ILE779  LEU786  VAL792 
 PHE793  MET794  SER795  GLU796  ALA797  LYS798  CYS799  TRP800  GLU811  SER814 

> <Gold.Protein.RotatedAtoms>
  151.9586  133.3688  159.4026 H   0  0  0  0  0  0  0  0  0  0  0  0  # atno 6907 bound_to 6896
  150.6968  134.4264  159.5237 H   0  0  0  0  0  0  0  0  0  0  0  0  # atno 6908 bound_to 6896
  152.1949  134.8639  160.0564 H   0  0  0  0  0  0  0  0  0  0  0  0  # atno 6909 bound_to 6896
  146.2412  139.9879  142.8429 H   0  0  0  0  0  0  0  0  0  0  0  0  # atno 7974 bound_to 7965
  154.5126  140.2195  155.9127 H   0  0  0  0  0  0  0  0  0  0  0  0  # atno 8008 bound_to 7997
  156.1570  140.3150  155.8708 H   0  0  0  0  0  0  0  0  0  0  0  0  # atno 8009 bound_to 7997
  155.3827  140.0473  157.3034 H   0  0  0  0  0  0  0  0  0  0  0  0  # atno 8010 bound_to 7997
  139.6210  144.0625  152.1932 H   0  0  0  0  0  0  0  0  0  0  0  0  # atno 10167 bound_to 10162
  157.3072  131.0881  151.1344 H   0  0  0  0  0  0  0  0  0  0  0  0  # atno 10718 bound_to 10713
  153.2800  135.4174  155.1070 H   0  0  0  0  0  0  0  0  0  0  0  0  # atno 10763 bound_to 10752
  154.8486  135.3493  154.6125 H   0  0  0  0  0  0  0  0  0  0  0  0  # atno 10764 bound_to 10752
  153.6545  135.7051  153.5255 H   0  0  0  0  0  0  0  0  0  0  0  0  # atno 10765 bound_to 10752
  140.1224  134.8855  157.2090 H   0  0  0  0  0  0  0  0  0  0  0  0  # atno 11005 bound_to 11000
  145.1530  140.9633  143.4421 LP  0  0  0  0  0  0  0  0  0  0  0  0  # atno 17320 bound_to 7965
  145.0187  139.3444  143.6083 LP  0  0  0  0  0  0  0  0  0  0  0  0  # atno 17321 bound_to 7965
  140.0267  144.6112  150.7522 LP  0  0  0  0  0  0  0  0  0  0  0  0  # atno 17342 bound_to 10162
  140.7382  143.2775  151.3699 LP  0  0  0  0  0  0  0  0  0  0  0  0  # atno 17343 bound_to 10162
  157.2680  130.6690  149.6006 LP  0  0  0  0  0  0  0  0  0  0  0  0  # atno 17370 bound_to 10713
  155.9675  130.4488  150.5633 LP  0  0  0  0  0  0  0  0  0  0  0  0  # atno 17371 bound_to 10713
  140.2948  134.3199  155.7305 LP  0  0  0  0  0  0  0  0  0  0  0  0  # atno 17394 bound_to 11000
  141.2154  133.7556  156.9556 LP  0  0  0  0  0  0  0  0  0  0  0  0  # atno 17395 bound_to 11000

$$$$
