#       Name:                AV-unprocessed.smi:941
#       Creating user name   scv26
#       Creation time:       Fri Mar 27 02:13:09 2020


#       File generated by GOLD software.
#

@<TRIPOS>MOLECULE
AV-unprocessed.smi:941
    22    22     1
SMALL
NO_CHARGES


@<TRIPOS>ATOM
      1 ****        -1.8237   2.5196  -0.1413 N.4            1 S1                 1.0000
      2 ****        -1.3268   1.1339  -0.1885 C.3            1 S1                 0.0000
      3 ****         0.2067   1.0864  -0.1661 C.3            1 S1                 0.0000
      4 ****         0.7302  -0.3101  -0.2078 C.2            1 S1                 0.0000
      5 ****         1.0137  -1.0912   0.8314 N.2            1 S1                 0.0000
      6 ****         1.3790  -2.2395   0.2005 C.2            1 S1                 0.0000
      7 ****         1.7826  -3.3711   0.9275 N.pl3          1 S1                 0.0000
      8 ****         1.3226  -2.2188  -1.1245 N.2            1 S1                 0.0000
      9 ****         0.8726  -0.9212  -1.4083 O.3            1 S1                 0.0000
     10 ****        -2.8338   2.5154  -0.1596 H              1 S1                 0.0000
     11 ****        -1.4761   3.0314  -0.9398 H              1 S1                 0.0000
     12 ****        -1.7355   0.5867   0.6619 H              1 S1                 0.0000
     13 ****        -1.7070   0.6563  -1.0920 H              1 S1                 0.0000
     14 ****         0.6143   1.6354  -1.0160 H              1 S1                 0.0000
     15 ****         0.5870   1.5727   0.7332 H              1 S1                 0.0000
     16 ****         1.8070  -3.3467   1.9367 H              1 S1                 0.0000
     17 ****         2.0094  -4.2310   0.4492 H              1 S1                 0.0000
     18 ****        -1.5059   2.9645   0.7082 H              1 S1                 0.0000
     19 ****         0.9701  -0.8890   1.8098 LP             1 S1                 0.0000
     20 ****         1.5469  -2.9519  -1.7665 LP             1 S1                 0.0000
     21 ****         1.5425  -0.4350  -1.9694 LP             1 S1                 0.0000
     22 ****        -0.0038  -0.9537  -1.8888 LP             1 S1                 0.0000
@<TRIPOS>BOND
    1    1    2 1     
    2    1   10 1     
    3    1   11 1     
    4    1   18 1     
    5    2    3 1     
    6    2   12 1     
    7    2   13 1     
    8    3    4 1     
    9    3   14 1     
   10    3   15 1     
   11    4    9 1     
   12    4    5 2     
   13    5    6 1     
   14    6    7 1     
   15    6    8 2     
   16    7   16 1     
   17    7   17 1     
   18    8    9 1     
   19    5   19 1     
   20    8   20 1     
   21    9   21 1     
   22    9   22 1     
@<TRIPOS>SUBSTRUCTURE
      1 S1             1
@<TRIPOS>SET
LONE_PAIRS      STATIC     ATOMS    <user>   **** ""
4 19 20 21 22
DONOR_HYDROGENS      STATIC     ATOMS    <user>   **** ""
5 10 11 18 16 17
ATOM$BLUE        STATIC     ATOMS    COLORGROUP SYSTEM
4 19 20 21 22
ATOM$RED        STATIC     ATOMS    COLORGROUP SYSTEM
5 10 11 18 16 17
