#       Name:                AV-unprocessed.smi:937
#       Creating user name   scv26
#       Creation time:       Fri Mar 27 02:12:35 2020


#       File generated by GOLD software.
#

@<TRIPOS>MOLECULE
AV-unprocessed.smi:937
    48    49     1
SMALL
NO_CHARGES


@<TRIPOS>ATOM
      1 ****        -3.2027   7.2959   0.0422 C.3            1 S1                 0.0000
      2 ****        -2.7341   5.8664   0.2126 C.ar           1 S1                 0.0000
      3 ****        -2.5342   5.2833   1.4825 C.ar           1 S1                 0.0000
      4 ****        -2.0910   3.9467   1.5645 C.ar           1 S1                 0.0000
      5 ****        -1.8579   3.2200   0.3762 C.ar           1 S1                 0.0000
      6 ****        -1.3693   1.7855   0.4277 C.3            1 S1                 0.0000
      7 ****         0.1520   1.6904   0.2517 C.3            1 S1                 0.0000
      8 ****         0.5895   0.3021   0.2917 N.am           1 S1                 0.0000
      9 ****         1.7798  -0.1337  -0.1515 C.2            1 S1                 0.0000
     10 ****         2.6339   0.6078  -0.6331 O.2            1 S1                 0.0000
     11 ****         1.9722  -1.4605  -0.0425 N.am           1 S1                 0.0000
     12 ****         3.1461  -2.2506  -0.4278 C.3            1 S1                 0.0000
     13 ****         4.2766  -2.1489   0.6194 C.3            1 S1                 0.0000
     14 ****         3.9170  -2.8676   1.9296 C.3            1 S1                 0.0000
     15 ****         3.5353  -4.3338   1.6744 C.3            1 S1                 0.0000
     16 ****         2.3778  -4.4538   0.6610 C.3            1 S1                 0.0000
     17 ****         1.9792  -5.9228   0.4096 C.3            1 S1                 0.0000
     18 ****         2.9931  -6.6059  -0.1231 F              1 S1                 0.0000
     19 ****         1.6241  -6.5029   1.5561 F              1 S1                 0.0000
     20 ****         0.9391  -5.9765  -0.4227 F              1 S1                 0.0000
     21 ****         2.7406  -3.7215  -0.6521 C.3            1 S1                 0.0000
     22 ****        -2.0768   3.8549  -0.8651 C.ar           1 S1                 0.0000
     23 ****        -2.5005   5.1371  -0.9014 N.pl3          1 S1                 1.0000
     24 ****        -3.3629   7.7754   1.0083 H              1 S1                 0.0000
     25 ****        -4.1409   7.3255  -0.5125 H              1 S1                 0.0000
     26 ****        -2.4594   7.8755  -0.5060 H              1 S1                 0.0000
     27 ****        -2.7145   5.8512   2.3839 H              1 S1                 0.0000
     28 ****        -1.9296   3.4885   2.5296 H              1 S1                 0.0000
     29 ****        -1.6665   1.3375   1.3771 H              1 S1                 0.0000
     30 ****        -1.8730   1.2146  -0.3537 H              1 S1                 0.0000
     31 ****         0.4414   2.1428  -0.6985 H              1 S1                 0.0000
     32 ****         0.6608   2.2450   1.0414 H              1 S1                 0.0000
     33 ****        -0.0548  -0.3758   0.6723 H              1 S1                 0.0000
     34 ****         1.1981  -1.9905   0.3312 H              1 S1                 0.0000
     35 ****         3.5165  -1.8692  -1.3808 H              1 S1                 0.0000
     36 ****         5.1818  -2.5972   0.2076 H              1 S1                 0.0000
     37 ****         4.5264  -1.1074   0.8236 H              1 S1                 0.0000
     38 ****         4.7597  -2.8203   2.6198 H              1 S1                 0.0000
     39 ****         3.0903  -2.3519   2.4200 H              1 S1                 0.0000
     40 ****         4.4069  -4.8765   1.3064 H              1 S1                 0.0000
     41 ****         3.2576  -4.8028   2.6186 H              1 S1                 0.0000
     42 ****         1.5086  -3.9561   1.0940 H              1 S1                 0.0000
     43 ****         1.9056  -3.7690  -1.3523 H              1 S1                 0.0000
     44 ****         3.5665  -4.2442  -1.1362 H              1 S1                 0.0000
     45 ****        -1.9219   3.3814  -1.8237 H              1 S1                 0.0000
     46 ****        -2.6483   5.5753  -1.8108 H              1 S1                 0.0000
     47 ****         2.4581   1.5892  -0.7100 LP             1 S1                 0.0000
     48 ****         3.5044   0.2296  -0.9480 LP             1 S1                 0.0000
@<TRIPOS>BOND
    1    1    2 1     
    2    1   24 1     
    3    1   25 1     
    4    1   26 1     
    5    2   23 ar    
    6    2    3 ar    
    7    3    4 ar    
    8    3   27 1     
    9    4    5 ar    
   10    4   28 1     
   11    5    6 1     
   12    5   22 ar    
   13    6    7 1     
   14    6   29 1     
   15    6   30 1     
   16    7    8 1     
   17    7   31 1     
   18    7   32 1     
   19    8    9 am    
   20    8   33 1     
   21    9   10 2     
   22    9   11 am    
   23   11   12 1     
   24   11   34 1     
   25   12   21 1     
   26   12   13 1     
   27   12   35 1     
   28   13   14 1     
   29   13   36 1     
   30   13   37 1     
   31   14   15 1     
   32   14   38 1     
   33   14   39 1     
   34   15   16 1     
   35   15   40 1     
   36   15   41 1     
   37   16   17 1     
   38   16   21 1     
   39   16   42 1     
   40   17   18 1     
   41   17   19 1     
   42   17   20 1     
   43   21   43 1     
   44   21   44 1     
   45   22   23 ar    
   46   22   45 1     
   47   23   46 1     
   48   10   47 1     
   49   10   48 1     
@<TRIPOS>SUBSTRUCTURE
      1 S1             1
@<TRIPOS>SET
LONE_PAIRS      STATIC     ATOMS    <user>   **** ""
2 47 48
DONOR_HYDROGENS      STATIC     ATOMS    <user>   **** ""
3 33 34 46
ATOM$BLUE        STATIC     ATOMS    COLORGROUP SYSTEM
2 47 48
ATOM$RED        STATIC     ATOMS    COLORGROUP SYSTEM
3 33 34 46
