AV-unprocessed.smi:1813|AV-procd|sdf|7345|dock4
  -GOLD-   22720 9 03D 1   1.00000     0.00000
 Structure written by MMmdl.
 39 40  0  0  0  0  0  0  0  0  3 V2000
  147.8080  132.4879  154.1922 C   0  0  0  0  0  0  0  0  0  0  0  0
  147.5940  133.9034  154.4697 N   0  5  0  0  0  0  0  0  0  0  0  0
  148.4180  134.6462  155.2566 C   0  0  0  0  0  0  0  0  0  0  0  0
  149.4534  134.3384  155.8566 O   0  0  0  0  0  0  0  0  0  0  0  0
  147.9337  136.0977  155.3488 C   0  0  0  0  0  0  0  0  0  0  0  0
  148.8772  136.9982  154.6405 N   0  3  2  0  0  0  0  0  0  0  0  0
  150.2401  136.9580  155.2282 C   0  0  0  0  0  0  0  0  0  0  0  0
  151.2325  137.7818  154.3890 C   0  0  0  0  0  0  0  0  0  0  0  0
  150.7641  139.2391  154.2058 C   0  0  2  0  0  0  0  0  0  0  0  0
  150.8491  140.0002  155.4521 N   0  0  0  0  0  0  0  0  0  0  0  0
  151.9004  140.0086  156.2847 C   0  0  0  0  0  0  0  0  0  0  0  0
  152.9254  139.3550  156.0886 O   0  0  0  0  0  0  0  0  0  0  0  0
  151.6797  140.8116  157.3406 N   0  0  0  0  0  0  0  0  0  0  0  0
  152.5423  141.0763  158.4368 C   0  0  0  0  0  0  0  0  0  0  0  0
  153.4180  140.1970  158.9376 N   0  0  0  0  0  0  0  0  0  0  0  0
  154.1337  140.7254  160.0149 C   0  0  0  0  0  0  0  0  0  0  0  0
  153.7859  142.0168  160.3243 C   0  0  0  0  0  0  0  0  0  0  0  0
  152.5406  142.6255  159.2665 S   0  0  0  0  0  0  0  0  0  0  0  0
  149.3250  139.2544  153.6623 C   0  0  0  0  0  0  0  0  0  0  0  0
  148.3751  138.3934  154.5146 C   0  0  0  0  0  0  0  0  0  0  0  0
  147.0074  132.0688  153.5832 H   0  0  0  0  0  0  0  0  0  0  0  0
  147.8523  131.8863  155.1004 H   0  0  0  0  0  0  0  0  0  0  0  0
  148.7360  132.3083  153.6485 H   0  0  0  0  0  0  0  0  0  0  0  0
  146.9179  136.2329  154.9700 H   0  0  0  0  0  0  0  0  0  0  0  0
  147.9015  136.3513  156.4094 H   0  0  0  0  0  0  0  0  0  0  0  0
  150.2074  137.3289  156.2538 H   0  0  0  0  0  0  0  0  0  0  0  0
  150.5889  135.9258  155.2767 H   0  0  0  0  0  0  0  0  0  0  0  0
  152.2237  137.7487  154.8425 H   0  0  0  0  0  0  0  0  0  0  0  0
  151.3376  137.3162  153.4081 H   0  0  0  0  0  0  0  0  0  0  0  0
  151.4077  139.7264  153.4710 H   0  0  0  0  0  0  0  0  0  0  0  0
  150.0517  140.5714  155.6917 H   0  0  0  0  0  0  0  0  0  0  0  0
  150.7911  141.2894  157.3650 H   0  0  0  0  0  0  0  0  0  0  0  0
  154.8741  140.1106  160.5054 H   0  0  0  0  0  0  0  0  0  0  0  0
  154.1862  142.6444  161.1067 H   0  0  0  0  0  0  0  0  0  0  0  0
  148.9526  140.2780  153.6039 H   0  0  0  0  0  0  0  0  0  0  0  0
  149.3251  138.8746  152.6397 H   0  0  0  0  0  0  0  0  0  0  0  0
  147.3879  138.3993  154.0521 H   0  0  0  0  0  0  0  0  0  0  0  0
  148.2563  138.8287  155.5078 H   0  0  0  0  0  0  0  0  0  0  0  0
  148.9588  136.6282  153.7041 H   0  0  0  0  0  0  0  0  0  0  0  0
  1  2  1  0  0  0  0
  1 21  1  0  0  0  0
  1 22  1  0  0  0  0
  1 23  1  0  0  0  0
  2  3  1  0  0  0  0
  3  4  2  0  0  0  0
  3  5  1  0  0  0  0
  5  6  1  0  0  0  0
  5 24  1  0  0  0  0
  5 25  1  0  0  0  0
  6 20  1  0  0  0  0
  6  7  1  0  0  0  0
  6 39  1  0  0  0  0
  7  8  1  0  0  0  0
  7 26  1  0  0  0  0
  7 27  1  0  0  0  0
  8  9  1  0  0  0  0
  8 28  1  0  0  0  0
  8 29  1  0  0  0  0
  9 10  1  0  0  0  0
  9 19  1  0  0  0  0
  9 30  1  0  0  0  0
 10 11  1  0  0  0  0
 10 31  1  0  0  0  0
 11 12  2  0  0  0  0
 11 13  1  0  0  0  0
 13 14  1  0  0  0  0
 13 32  1  0  0  0  0
 14 18  1  0  0  0  0
 14 15  2  0  0  0  0
 15 16  1  0  0  0  0
 16 17  2  0  0  0  0
 16 33  1  0  0  0  0
 17 18  1  0  0  0  0
 17 34  1  0  0  0  0
 19 20  1  0  0  0  0
 19 35  1  0  0  0  0
 19 36  1  0  0  0  0
 20 37  1  0  0  0  0
 20 38  1  0  0  0  0
M  CHG  1   2  -1
M  CHG  1   6   1
M  END
> <s_m_source_file>
AV-unprocessed.smi

> <i_m_source_file_index>
1813

> <i_lp_mmshare_version>
43012

> <i_f3d_flags>
0

> <s_epik_input>
W0NIM11bTkhdQyg9TylbQ0gyXU4xW0NIMl1bQ0gyXVtDSF0oW0NIMl1bQ0gyXTEpW05IXUMoPU8pW05IXWMybltjSF1bY0hdczI=

> <s_epik_cmdline>
J2VwaWtfcHl0aG9uJywgJy1waCcsICc3LjAnLCAnLXRuJywgJzgnLCAnLW1hJywgJzIwMCcsICctbWV0YWxfYmluZGluZycsICctaW1hZScsICc8aW5maWxlLm1hZT4nLCAnLW9tYWUnLCAnPG91dGZpbGUubWFlPic=

> <r_lp_tautomer_probability>
0.999

> <r_epik_Ionization_Penalty>
6.14232

> <r_epik_Ionization_Penalty_Charging>
6.14218

> <r_epik_Ionization_Penalty_Neutral>
0.000139308

> <r_epik_State_Penalty>
6.98503

> <r_epik_Charging_Adjusted_Penalty>
13.1272

> <i_epik_Tot_Q>
0

> <i_epik_Tot_abs_Q>
2

> <r_epik_Metal_State_Penalty>
2.95036

> <b_epik_Metal_Only>
1

> <s_lp_Force_Field>
OPLS_2005

> <r_lp_Energy>
8.34863

> <b_lp_Chiralities_Consistent>
1

> <s_lp_Variant>
AV-unprocessed.smi:1813-6

> <Gold.Version>
5.8.1

> <Gold.Id.Protein>
6NUR|6NUR_protein|mol2

> <Gold.PLP.Fitness>
42.5025

> <Gold.PLP.PLP>
-34.3045

> <Gold.PLP.part.hbond>
-3.0000

> <Gold.PLP.part.metal>
0.0000

> <Gold.PLP.part.buried>
-4.0273

> <Gold.PLP.part.nonpolar>
-27.6355

> <Gold.PLP.part.repulsive>
0.2909

> <Gold.PLP.ligand.clash>
0.0000

> <Gold.PLP.ligand.torsion>
0.4264

> <Gold.PLP.Chemscore.Hbond>
3.0000

> <Gold.PLP.Chemscore.CHOScore>
0.0000

> <Gold.PLP.Chemscore.Metal>
0.0000

> <Gold.Chemscore.Hbonds>
donor molecule, donor type, donor heavy atom, donor atom, acceptor molecule, acceptor atom, score
      L1  H     6    39       P1  7948  2.00
      P1  H  7997  8008       L1    12  1.00

> <Gold.PLP.Chemscore.Internal.Correction>
0.0507

> <Gold.Rescore>
     Score         DG    S(hbond)    S(metal)    S(lipo)     H(rot)  DE(clash)    DE(int)     intcor
     13.00     -15.98       1.98        0.00      71.03       1.73       0.05       2.94       ----

> <Gold.Chemscore.Fitness>
12.9966

> <Gold.Chemscore.DG>
-15.9846

> <Gold.Chemscore.ZeroCoef>
-5.4800

> <Gold.Chemscore.Hbond>
1.9836

> <Gold.Chemscore.Metal>
0.0000

> <Gold.Chemscore.Lipo>
71.0350

> <Gold.Chemscore.Internal_Hbond>
0.0000

> <Gold.Chemscore.DEClash>
0.0462

> <Gold.Chemscore.DEInternal>
2.9418

> <Gold.Chemscore.Rot>
1.7312

> <Gold.Chemscore.Internal.Correction>
   9.000000E+99

> <Gold.Chemscore.Hbonds>
donor molecule, donor type, donor heavy atom, donor atom, acceptor molecule, acceptor atom, score
      L1  H     6    39       P1  7948  1.00
      P1  H  7997  8008       L1    12  0.94

> <Gold.Chemscore.Hbond.Weighted>
-6.6253

> <Gold.Chemscore.Metal.Weighted>
-0.0000

> <Gold.Chemscore.Lipo.Weighted>
-8.3111

> <Gold.Chemscore.Internal_Hbond.Weighted>
0.0000

> <Gold.Chemscore.DEClash.Weighted>
0.0462

> <Gold.Chemscore.DEInternal.Weighted>
2.9418

> <Gold.Chemscore.Rot.Weighted>
4.4319

> <Gold.Chemscore.Internal.Correction.Weighted>
   9.000000E+99

> <Gold.Protein.RotatedTorsions>
[ 6907 6896 6895 6894 ] final   38.05 input  -60.11 | X-H torsion
[ 7974 7965 7964 7962 ] final  166.60 input  175.53 | X-H torsion
[ 8008 7997 7996 7995 ] final  -24.47 input   59.86 | X-H torsion
[ 10167 10162 10161 10158 ] final  -80.08 input  -65.29 | X-H torsion
[ 10718 10713 10712 10709 ] final -132.82 input   66.30 | X-H torsion
[ 10763 10752 10751 10750 ] final   60.92 input  -60.55 | X-H torsion
[ 11005 11000 10999 10996 ] final -166.35 input  -57.11 | X-H torsion

> <Gold.Protein.ActiveResidues>
 VAL166  LYS551  ARG553  GLY616  TRP617  ASP618  TYR619  PRO620  LYS621  CYS622 
 ASP623  PHE694  ASN695  SER759  ASP760  ASP761  ALA762  ILE779  LEU786  VAL792 
 PHE793  MET794  SER795  GLU796  ALA797  LYS798  CYS799  TRP800  GLU811  SER814 

> <Gold.Protein.RotatedAtoms>
  152.1514  134.8985  160.0547 H   0  0  0  0  0  0  0  0  0  0  0  0  # atno 6907 bound_to 6896
  152.0016  133.3822  159.4192 H   0  0  0  0  0  0  0  0  0  0  0  0  # atno 6908 bound_to 6896
  150.6876  134.3750  159.5052 H   0  0  0  0  0  0  0  0  0  0  0  0  # atno 6909 bound_to 6896
  144.7456  139.8639  143.6383 H   0  0  0  0  0  0  0  0  0  0  0  0  # atno 7974 bound_to 7965
  154.4527  140.1953  156.0469 H   0  0  0  0  0  0  0  0  0  0  0  0  # atno 8008 bound_to 7997
  156.0683  140.3288  155.7517 H   0  0  0  0  0  0  0  0  0  0  0  0  # atno 8009 bound_to 7997
  155.5304  140.0577  157.2881 H   0  0  0  0  0  0  0  0  0  0  0  0  # atno 8010 bound_to 7997
  140.4536  143.2475  151.8453 H   0  0  0  0  0  0  0  0  0  0  0  0  # atno 10167 bound_to 10162
  156.2385  130.7081  151.0932 H   0  0  0  0  0  0  0  0  0  0  0  0  # atno 10718 bound_to 10713
  152.9935  135.5519  154.5951 H   0  0  0  0  0  0  0  0  0  0  0  0  # atno 10763 bound_to 10752
  154.5304  135.2813  155.1187 H   0  0  0  0  0  0  0  0  0  0  0  0  # atno 10764 bound_to 10752
  154.2505  135.6400  153.5291 H   0  0  0  0  0  0  0  0  0  0  0  0  # atno 10765 bound_to 10752
  140.5654  134.5291  157.5151 H   0  0  0  0  0  0  0  0  0  0  0  0  # atno 11005 bound_to 11000
  146.1328  139.4367  143.0158 LP  0  0  0  0  0  0  0  0  0  0  0  0  # atno 17320 bound_to 7965
  145.7137  141.0098  143.1440 LP  0  0  0  0  0  0  0  0  0  0  0  0  # atno 17321 bound_to 7965
  139.4799  144.5091  151.8957 LP  0  0  0  0  0  0  0  0  0  0  0  0  # atno 17342 bound_to 10162
  140.4178  144.2284  150.5887 LP  0  0  0  0  0  0  0  0  0  0  0  0  # atno 17343 bound_to 10162
  157.7165  131.0707  150.6307 LP  0  0  0  0  0  0  0  0  0  0  0  0  # atno 17370 bound_to 10713
  156.6379  130.4450  149.5763 LP  0  0  0  0  0  0  0  0  0  0  0  0  # atno 17371 bound_to 10713
  139.9387  134.7827  156.0734 LP  0  0  0  0  0  0  0  0  0  0  0  0  # atno 17394 bound_to 11000
  141.1089  133.6650  156.2930 LP  0  0  0  0  0  0  0  0  0  0  0  0  # atno 17395 bound_to 11000

$$$$
