AV-unprocessed.smi:2822|AV-procd|sdf|10878|dock2
  -GOLD-   2272015323D 1   1.00000     0.00000
 Structure written by MMmdl.
 40 42  0  0  0  0  0  0  0  0  2 V2000
  153.0198  143.4583  160.2862 Cl  0  0  0  0  0  0  0  0  0  0  0  0
  152.0238  142.7789  159.0467 C   0  0  0  0  0  0  0  0  0  0  0  0
  151.0950  143.6044  158.3800 C   0  0  0  0  0  0  0  0  0  0  0  0
  150.3090  143.0914  157.4099 N   0  3  0  0  0  0  0  0  0  0  0  0
  150.3673  141.7965  157.0336 C   0  0  0  0  0  0  0  0  0  0  0  0
  151.2761  140.9218  157.6623 C   0  0  0  0  0  0  0  0  0  0  0  0
  152.1217  141.4114  158.6892 C   0  0  0  0  0  0  0  0  0  0  0  0
  153.0459  140.5913  159.3540 N   0  0  0  0  0  0  0  0  0  0  0  0
  152.9327  139.1415  159.3079 C   0  0  0  0  0  0  0  0  0  0  0  0
  154.2919  138.4804  159.0123 C   0  0  2  0  0  0  0  0  0  0  0  0
  154.5491  137.2303  159.8748 C   0  0  0  0  0  0  0  0  0  0  0  0
  154.8180  137.5537  161.2709 N   0  0  0  0  0  0  0  0  0  0  0  0
  155.0771  136.3424  162.0489 C   0  0  0  0  0  0  0  0  0  0  0  0
  155.3405  136.6396  163.5333 C   0  0  0  0  0  0  0  0  0  0  0  0
  156.5076  137.6258  163.6796 C   0  0  0  0  0  0  0  0  0  0  0  0
  156.2505  138.8748  162.8233 C   0  0  0  0  0  0  0  0  0  0  0  0
  155.9429  138.4892  161.3612 C   0  0  2  0  0  0  0  0  0  0  0  0
  155.6817  139.7514  160.5158 C   0  0  0  0  0  0  0  0  0  0  0  0
  155.3770  139.3968  159.1690 O   0  0  0  0  0  0  0  0  0  0  0  0
  150.9583  144.6546  158.5929 H   0  0  0  0  0  0  0  0  0  0  0  0
  149.6905  141.5004  156.2453 H   0  0  0  0  0  0  0  0  0  0  0  0
  151.3109  139.8901  157.3454 H   0  0  0  0  0  0  0  0  0  0  0  0
  153.6598  141.0000  160.0451 H   0  0  0  0  0  0  0  0  0  0  0  0
  152.5150  138.7686  160.2431 H   0  0  0  0  0  0  0  0  0  0  0  0
  152.2265  138.8784  158.5196 H   0  0  0  0  0  0  0  0  0  0  0  0
  154.2888  138.1663  157.9677 H   0  0  0  0  0  0  0  0  0  0  0  0
  153.6943  136.5565  159.8072 H   0  0  0  0  0  0  0  0  0  0  0  0
  155.3999  136.6880  159.4591 H   0  0  0  0  0  0  0  0  0  0  0  0
  154.2243  135.6670  161.9687 H   0  0  0  0  0  0  0  0  0  0  0  0
  155.9322  135.8093  161.6302 H   0  0  0  0  0  0  0  0  0  0  0  0
  154.4427  137.0596  163.9885 H   0  0  0  0  0  0  0  0  0  0  0  0
  155.5598  135.7156  164.0688 H   0  0  0  0  0  0  0  0  0  0  0  0
  156.6422  137.9026  164.7255 H   0  0  0  0  0  0  0  0  0  0  0  0
  157.4340  137.1475  163.3597 H   0  0  0  0  0  0  0  0  0  0  0  0
  155.4128  139.4344  163.2419 H   0  0  0  0  0  0  0  0  0  0  0  0
  157.1171  139.5355  162.8660 H   0  0  0  0  0  0  0  0  0  0  0  0
  156.8299  138.0010  160.9536 H   0  0  0  0  0  0  0  0  0  0  0  0
  154.8730  140.3469  160.9402 H   0  0  0  0  0  0  0  0  0  0  0  0
  156.5652  140.3901  160.5100 H   0  0  0  0  0  0  0  0  0  0  0  0
  149.6441  143.7081  156.9419 H   0  0  0  0  0  0  0  0  0  0  0  0
  1  2  1  0  0  0  0
  2  7  1  0  0  0  0
  2  3  2  0  0  0  0
  3  4  1  0  0  0  0
  3 20  1  0  0  0  0
  4  5  2  0  0  0  0
  4 40  1  0  0  0  0
  5  6  1  0  0  0  0
  5 21  1  0  0  0  0
  6  7  2  0  0  0  0
  6 22  1  0  0  0  0
  7  8  1  0  0  0  0
  8  9  1  0  0  0  0
  8 23  1  0  0  0  0
  9 10  1  0  0  0  0
  9 24  1  0  0  0  0
  9 25  1  0  0  0  0
 10 19  1  0  0  0  0
 10 11  1  0  0  0  0
 10 26  1  0  0  0  0
 11 12  1  0  0  0  0
 11 27  1  0  0  0  0
 11 28  1  0  0  0  0
 12 17  1  0  0  0  0
 12 13  1  0  0  0  0
 13 14  1  0  0  0  0
 13 29  1  0  0  0  0
 13 30  1  0  0  0  0
 14 15  1  0  0  0  0
 14 31  1  0  0  0  0
 14 32  1  0  0  0  0
 15 16  1  0  0  0  0
 15 33  1  0  0  0  0
 15 34  1  0  0  0  0
 16 17  1  0  0  0  0
 16 35  1  0  0  0  0
 16 36  1  0  0  0  0
 17 18  1  0  0  0  0
 17 37  1  0  0  0  0
 18 19  1  0  0  0  0
 18 38  1  0  0  0  0
 18 39  1  0  0  0  0
M  CHG  1   4   1
M  END
> <s_m_source_file>
AV-unprocessed.smi

> <i_m_source_file_index>
2822

> <i_lp_mmshare_version>
43012

> <i_f3d_flags>
0

> <s_epik_input>
Q2xjMVtjSF1uW2NIXVtjSF1jMVtOSF1bQ0gyXVtDQEhdKFtDSDJdMilPW0NIMl1bQ0BASF0oTjIzKVtDSDJdW0NIMl1bQ0gyXVtDSDJdMw==

> <s_epik_cmdline>
J2VwaWtfcHl0aG9uJywgJy1waCcsICc3LjAnLCAnLXRuJywgJzgnLCAnLW1hJywgJzIwMCcsICctbWV0YWxfYmluZGluZycsICctaW1hZScsICc8aW5maWxlLm1hZT4nLCAnLW9tYWUnLCAnPG91dGZpbGUubWFlPic=

> <r_epik_Ionization_Penalty>
1.37653

> <r_epik_Ionization_Penalty_Charging>
0.152973

> <r_epik_Ionization_Penalty_Neutral>
1.22356

> <r_epik_State_Penalty>
1.42693

> <r_epik_Charging_Adjusted_Penalty>
1.5799

> <i_epik_Tot_Q>
1

> <i_epik_Tot_abs_Q>
1

> <r_epik_Metal_State_Penalty>
4.59822

> <b_epik_Metal_Only>
0

> <s_lp_Force_Field>
OPLS_2005

> <r_lp_Energy>
45.685

> <b_lp_Chiralities_Consistent>
1

> <s_lp_Variant>
AV-unprocessed.smi:2822-19

> <Gold.Version>
5.8.1

> <Gold.Id.Protein>
6NUR|6NUR_protein|mol2

> <Gold.PLP.Fitness>
40.7713

> <Gold.PLP.PLP>
-36.3218

> <Gold.PLP.part.hbond>
-1.0000

> <Gold.PLP.part.metal>
0.0000

> <Gold.PLP.part.buried>
-5.5525

> <Gold.PLP.part.nonpolar>
-29.5333

> <Gold.PLP.part.repulsive>
0.1529

> <Gold.PLP.ligand.clash>
0.0000

> <Gold.PLP.ligand.torsion>
0.7775

> <Gold.PLP.Chemscore.Hbond>
2.0000

> <Gold.PLP.Chemscore.CHOScore>
0.0000

> <Gold.PLP.Chemscore.Metal>
0.0000

> <Gold.Chemscore.Hbonds>
donor molecule, donor type, donor heavy atom, donor atom, acceptor molecule, acceptor atom, score
      L1  H     4    40       P1  8028  2.00
      P1  H  7997  8008       L1    19  0.09

> <Gold.PLP.Chemscore.Internal.Correction>
0.0045

> <Gold.Rescore>
     Score         DG    S(hbond)    S(metal)    S(lipo)     H(rot)  DE(clash)    DE(int)     intcor
     18.38     -19.17       1.00        0.00     114.28       1.18       0.08       0.71       ----

> <Gold.Chemscore.Fitness>
18.3797

> <Gold.Chemscore.DG>
-19.1720

> <Gold.Chemscore.ZeroCoef>
-5.4800

> <Gold.Chemscore.Hbond>
0.9997

> <Gold.Chemscore.Metal>
0.0000

> <Gold.Chemscore.Lipo>
114.2806

> <Gold.Chemscore.Internal_Hbond>
0.0000

> <Gold.Chemscore.DEClash>
0.0816

> <Gold.Chemscore.DEInternal>
0.7107

> <Gold.Chemscore.Rot>
1.1788

> <Gold.Chemscore.Internal.Correction>
   9.000000E+99

> <Gold.Chemscore.Hbonds>
donor molecule, donor type, donor heavy atom, donor atom, acceptor molecule, acceptor atom, score
      L1  H     4    40       P1  8028  0.94
      P1  H  7997  8008       L1    19  0.06

> <Gold.Chemscore.Hbond.Weighted>
-3.3389

> <Gold.Chemscore.Metal.Weighted>
-0.0000

> <Gold.Chemscore.Lipo.Weighted>
-13.3708

> <Gold.Chemscore.Internal_Hbond.Weighted>
0.0000

> <Gold.Chemscore.DEClash.Weighted>
0.0816

> <Gold.Chemscore.DEInternal.Weighted>
0.7107

> <Gold.Chemscore.Rot.Weighted>
3.0177

> <Gold.Chemscore.Internal.Correction.Weighted>
   9.000000E+99

> <Gold.Protein.RotatedTorsions>
[ 6907 6896 6895 6894 ] final -173.08 input  -60.11 | X-H torsion
[ 7974 7965 7964 7962 ] final  -76.90 input  175.53 | X-H torsion
[ 8008 7997 7996 7995 ] final  178.13 input   59.86 | X-H torsion
[ 10167 10162 10161 10158 ] final  -16.98 input  -65.29 | X-H torsion
[ 10718 10713 10712 10709 ] final -102.83 input   66.30 | X-H torsion
[ 10763 10752 10751 10750 ] final  108.66 input  -60.55 | X-H torsion
[ 11005 11000 10999 10996 ] final -142.69 input  -57.11 | X-H torsion

> <Gold.Protein.ActiveResidues>
 VAL166  LYS551  ARG553  GLY616  TRP617  ASP618  TYR619  PRO620  LYS621  CYS622 
 ASP623  PHE694  ASN695  SER759  ASP760  ASP761  ALA762  ILE779  LEU786  VAL792 
 PHE793  MET794  SER795  GLU796  ALA797  LYS798  CYS799  TRP800  GLU811  SER814 

> <Gold.Protein.RotatedAtoms>
  151.5503  133.3418  159.2951 H   0  0  0  0  0  0  0  0  0  0  0  0  # atno 6907 bound_to 6896
  150.8482  134.7801  159.6999 H   0  0  0  0  0  0  0  0  0  0  0  0  # atno 6908 bound_to 6896
  152.4535  134.5350  159.9874 H   0  0  0  0  0  0  0  0  0  0  0  0  # atno 6909 bound_to 6896
  145.6067  140.9396  143.1211 H   0  0  0  0  0  0  0  0  0  0  0  0  # atno 7974 bound_to 7965
  156.0580  140.1341  156.9974 H   0  0  0  0  0  0  0  0  0  0  0  0  # atno 8008 bound_to 7997
  154.4467  140.0997  156.6546 H   0  0  0  0  0  0  0  0  0  0  0  0  # atno 8009 bound_to 7997
  155.5421  140.3461  155.4451 H   0  0  0  0  0  0  0  0  0  0  0  0  # atno 8010 bound_to 7997
  140.7241  143.5062  150.9807 H   0  0  0  0  0  0  0  0  0  0  0  0  # atno 10167 bound_to 10162
  156.0243  130.5438  150.7165 H   0  0  0  0  0  0  0  0  0  0  0  0  # atno 10718 bound_to 10713
  153.4237  135.3805  155.2127 H   0  0  0  0  0  0  0  0  0  0  0  0  # atno 10763 bound_to 10752
  154.8746  135.3823  154.4352 H   0  0  0  0  0  0  0  0  0  0  0  0  # atno 10764 bound_to 10752
  153.4875  135.7088  153.5965 H   0  0  0  0  0  0  0  0  0  0  0  0  # atno 10765 bound_to 10752
  140.8200  134.2642  157.4904 H   0  0  0  0  0  0  0  0  0  0  0  0  # atno 11005 bound_to 11000
  144.7287  139.7794  143.7355 LP  0  0  0  0  0  0  0  0  0  0  0  0  # atno 17320 bound_to 7965
  146.1535  139.4626  143.0033 LP  0  0  0  0  0  0  0  0  0  0  0  0  # atno 17321 bound_to 7965
  139.8774  143.7116  152.3160 LP  0  0  0  0  0  0  0  0  0  0  0  0  # atno 17342 bound_to 10162
  139.7386  144.7565  151.0688 LP  0  0  0  0  0  0  0  0  0  0  0  0  # atno 17343 bound_to 10162
  157.4791  131.0900  151.0557 LP  0  0  0  0  0  0  0  0  0  0  0  0  # atno 17370 bound_to 10713
  157.0995  130.5976  149.5457 LP  0  0  0  0  0  0  0  0  0  0  0  0  # atno 17371 bound_to 10713
  139.8709  134.9530  156.4132 LP  0  0  0  0  0  0  0  0  0  0  0  0  # atno 17394 bound_to 11000
  140.9108  133.7713  155.9790 LP  0  0  0  0  0  0  0  0  0  0  0  0  # atno 17395 bound_to 11000

$$$$
