AV-unprocessed.smi:586|AV-procd|sdf|3001|dock3
  -GOLD-   2262023503D 1   1.00000     0.00000
 Structure written by MMmdl.
 49 49  0  0  0  0  0  0  0  0  1 V2000
  146.4993  132.6204  151.3742 C   0  0  0  0  0  0  0  0  0  0  0  0
  147.3228  132.3201  152.6337 C   0  0  0  0  0  0  0  0  0  0  0  0
  148.7151  132.9838  152.6615 C   0  0  0  0  0  0  0  0  0  0  0  0
  149.3480  132.9681  153.9684 N   0  0  0  0  0  0  0  0  0  0  0  0
  149.5406  134.1212  154.7350 C   0  0  0  0  0  0  0  0  0  0  0  0
  149.1153  135.3294  154.2011 N   0  0  0  0  0  0  0  0  0  0  0  0
  150.0927  134.0724  155.9860 C   0  0  0  0  0  0  0  0  0  0  0  0
  150.3165  135.2397  156.7418 N   0  0  0  0  0  0  0  0  0  0  0  0
  149.1046  135.9753  157.1495 C   0  0  0  0  0  0  0  0  0  0  0  0
  148.4955  135.4160  158.4518 C   0  0  0  0  0  0  0  0  0  0  0  0
  149.2785  135.7595  159.5862 O   0  0  0  0  0  0  0  0  0  0  0  0
  148.5369  135.8757  160.7906 C   0  0  0  0  0  0  0  0  0  0  0  0
  151.5497  135.7769  156.9835 C   0  0  0  0  0  0  0  0  0  0  0  0
  152.5530  135.0680  156.8711 O   0  0  0  0  0  0  0  0  0  0  0  0
  151.7840  137.2884  157.3301 C   0  0  0  0  0  0  0  0  0  0  0  0
  151.2618  138.2850  156.2675 C   0  0  0  0  0  0  0  0  0  0  0  0
  153.3135  137.5312  157.4215 C   0  0  0  0  0  0  0  0  0  0  0  0
  151.1910  137.6177  158.7162 C   0  0  0  0  0  0  0  0  0  0  0  0
  150.5848  132.7985  156.5293 C   0  0  0  0  0  0  0  0  0  0  0  0
  151.1719  132.6518  157.6005 O   0  0  0  0  0  0  0  0  0  0  0  0
  150.3569  131.6881  155.7218 N   0  0  0  0  0  0  0  0  0  0  0  0
  149.7465  131.7060  154.4737 C   0  0  0  0  0  0  0  0  0  0  0  0
  149.5819  130.6445  153.8720 O   0  0  0  0  0  0  0  0  0  0  0  0
  150.6621  130.7921  156.0732 H   0  0  0  0  0  0  0  0  0  0  0  0
  145.5046  132.1810  151.4495 H   0  0  0  0  0  0  0  0  0  0  0  0
  146.9714  132.2100  150.4815 H   0  0  0  0  0  0  0  0  0  0  0  0
  146.3782  133.6944  151.2294 H   0  0  0  0  0  0  0  0  0  0  0  0
  146.7615  132.6581  153.5049 H   0  0  0  0  0  0  0  0  0  0  0  0
  147.4231  131.2400  152.7439 H   0  0  0  0  0  0  0  0  0  0  0  0
  149.3893  132.5383  151.9288 H   0  0  0  0  0  0  0  0  0  0  0  0
  148.6504  134.0338  152.3748 H   0  0  0  0  0  0  0  0  0  0  0  0
  148.6804  135.3854  153.2910 H   0  0  0  0  0  0  0  0  0  0  0  0
  149.2313  136.2018  154.6966 H   0  0  0  0  0  0  0  0  0  0  0  0
  149.3451  137.0284  157.2873 H   0  0  0  0  0  0  0  0  0  0  0  0
  148.3599  135.9567  156.3516 H   0  0  0  0  0  0  0  0  0  0  0  0
  147.5045  135.8425  158.6067 H   0  0  0  0  0  0  0  0  0  0  0  0
  148.3583  134.3354  158.3937 H   0  0  0  0  0  0  0  0  0  0  0  0
  149.2024  136.1877  161.5954 H   0  0  0  0  0  0  0  0  0  0  0  0
  148.0861  134.9285  161.0854 H   0  0  0  0  0  0  0  0  0  0  0  0
  147.7499  136.6254  160.7000 H   0  0  0  0  0  0  0  0  0  0  0  0
  151.7138  139.2696  156.3916 H   0  0  0  0  0  0  0  0  0  0  0  0
  150.1878  138.4496  156.3404 H   0  0  0  0  0  0  0  0  0  0  0  0
  151.4964  137.9561  155.2552 H   0  0  0  0  0  0  0  0  0  0  0  0
  153.8176  137.2690  156.4901 H   0  0  0  0  0  0  0  0  0  0  0  0
  153.7758  136.9545  158.2242 H   0  0  0  0  0  0  0  0  0  0  0  0
  153.5427  138.5778  157.6260 H   0  0  0  0  0  0  0  0  0  0  0  0
  151.5972  138.5516  159.1067 H   0  0  0  0  0  0  0  0  0  0  0  0
  151.4105  136.8391  159.4481 H   0  0  0  0  0  0  0  0  0  0  0  0
  150.1110  137.7463  158.6811 H   0  0  0  0  0  0  0  0  0  0  0  0
  1  2  1  0  0  0  0
  1 25  1  0  0  0  0
  1 26  1  0  0  0  0
  1 27  1  0  0  0  0
  2  3  1  0  0  0  0
  2 28  1  0  0  0  0
  2 29  1  0  0  0  0
  3  4  1  0  0  0  0
  3 30  1  0  0  0  0
  3 31  1  0  0  0  0
  4 22  1  0  0  0  0
  4  5  1  0  0  0  0
  5  6  1  0  0  0  0
  5  7  2  0  0  0  0
  6 32  1  0  0  0  0
  6 33  1  0  0  0  0
  7  8  1  0  0  0  0
  7 19  1  0  0  0  0
  8  9  1  0  0  0  0
  8 13  1  0  0  0  0
  9 10  1  0  0  0  0
  9 34  1  0  0  0  0
  9 35  1  0  0  0  0
 10 11  1  0  0  0  0
 10 36  1  0  0  0  0
 10 37  1  0  0  0  0
 11 12  1  0  0  0  0
 12 38  1  0  0  0  0
 12 39  1  0  0  0  0
 12 40  1  0  0  0  0
 13 14  2  0  0  0  0
 13 15  1  0  0  0  0
 15 16  1  0  0  0  0
 15 17  1  0  0  0  0
 15 18  1  0  0  0  0
 16 41  1  0  0  0  0
 16 42  1  0  0  0  0
 16 43  1  0  0  0  0
 17 44  1  0  0  0  0
 17 45  1  0  0  0  0
 17 46  1  0  0  0  0
 18 47  1  0  0  0  0
 18 48  1  0  0  0  0
 18 49  1  0  0  0  0
 19 20  2  0  0  0  0
 19 21  1  0  0  0  0
 21 24  1  0  0  0  0
 21 22  1  0  0  0  0
 22 23  2  0  0  0  0
M  END
> <s_m_source_file>
AV-unprocessed.smi

> <i_m_source_file_index>
586

> <i_lp_mmshare_version>
43012

> <i_f3d_flags>
0

> <s_epik_input>
W0NIM11bQ0gyXVtDSDJdbjFjKFtOSDJdKWMoYyg9TylbbkhdYzE9TylOKEMoPU8pQyhbQ0gzXSkoW0NIM10pW0NIM10pW0NIMl1bQ0gyXU9bQ0gzXQ==

> <s_epik_cmdline>
J2VwaWtfcHl0aG9uJywgJy1waCcsICc3LjAnLCAnLXRuJywgJzgnLCAnLW1hJywgJzIwMCcsICctbWV0YWxfYmluZGluZycsICctaW1hZScsICc8aW5maWxlLm1hZT4nLCAnLW9tYWUnLCAnPG91dGZpbGUubWFlPic=

> <r_lp_tautomer_probability>
1

> <r_epik_Ionization_Penalty>
2.71493e-05

> <r_epik_Ionization_Penalty_Charging>
5.25815e-06

> <r_epik_Ionization_Penalty_Neutral>
2.18912e-05

> <r_epik_State_Penalty>
-0

> <r_epik_Charging_Adjusted_Penalty>
5.25815e-06

> <i_epik_Tot_Q>
0

> <i_epik_Tot_abs_Q>
0

> <r_epik_Metal_State_Penalty>
-0

> <b_epik_Metal_Only>
0

> <s_epik_Chemistry_Notes>
This compound has an imine and may undergo hydrolysis.

> <s_lp_Force_Field>
OPLS_2005

> <r_lp_Energy>
40.2025

> <b_lp_Chiralities_Consistent>
1

> <s_lp_Variant>
AV-unprocessed.smi:586-1

> <Gold.Version>
5.8.1

> <Gold.Id.Protein>
6NUR|6NUR_protein|mol2

> <Gold.PLP.Fitness>
40.7492

> <Gold.PLP.PLP>
-30.9253

> <Gold.PLP.part.hbond>
-3.5565

> <Gold.PLP.part.metal>
0.0000

> <Gold.PLP.part.buried>
-3.1938

> <Gold.PLP.part.nonpolar>
-23.6946

> <Gold.PLP.part.repulsive>
0.0986

> <Gold.PLP.ligand.clash>
0.0000

> <Gold.PLP.ligand.torsion>
2.0962

> <Gold.PLP.Chemscore.Hbond>
3.7200

> <Gold.PLP.Chemscore.CHOScore>
0.0000

> <Gold.PLP.Chemscore.Metal>
0.0000

> <Gold.Chemscore.Hbonds>
donor molecule, donor type, donor heavy atom, donor atom, acceptor molecule, acceptor atom, score
      L1  H     6    32       P1  7948  0.72
      P1  H  6896  6908       L1    20  1.00
      P1  H  6896  6909       L1    11  1.00
      P1  H 10752 10763       L1    14  1.00

> <Gold.PLP.Chemscore.Internal.Correction>
2.8564

> <Gold.Rescore>
     Score         DG    S(hbond)    S(metal)    S(lipo)     H(rot)  DE(clash)    DE(int)     intcor
     15.62     -18.20       3.53        0.00      53.46       2.08       0.39       2.18       ----

> <Gold.Chemscore.Fitness>
15.6235

> <Gold.Chemscore.DG>
-18.1958

> <Gold.Chemscore.ZeroCoef>
-5.4800

> <Gold.Chemscore.Hbond>
3.5320

> <Gold.Chemscore.Metal>
0.0000

> <Gold.Chemscore.Lipo>
53.4593

> <Gold.Chemscore.Internal_Hbond>
0.0000

> <Gold.Chemscore.DEClash>
0.3876

> <Gold.Chemscore.DEInternal>
2.1848

> <Gold.Chemscore.Rot>
2.0843

> <Gold.Chemscore.Internal.Correction>
   9.000000E+99

> <Gold.Chemscore.Hbonds>
donor molecule, donor type, donor heavy atom, donor atom, acceptor molecule, acceptor atom, score
      L1  H     6    32       P1  7948  0.63
      P1  H  6896  6908       L1    20  0.99
      P1  H  6896  6909       L1    11  0.81
      P1  H 10752 10763       L1    14  0.89

> <Gold.Chemscore.Hbond.Weighted>
-11.7970

> <Gold.Chemscore.Metal.Weighted>
-0.0000

> <Gold.Chemscore.Lipo.Weighted>
-6.2547

> <Gold.Chemscore.Internal_Hbond.Weighted>
0.0000

> <Gold.Chemscore.DEClash.Weighted>
0.3876

> <Gold.Chemscore.DEInternal.Weighted>
2.1848

> <Gold.Chemscore.Rot.Weighted>
5.3359

> <Gold.Chemscore.Internal.Correction.Weighted>
   9.000000E+99

> <Gold.Protein.RotatedTorsions>
[ 6907 6896 6895 6894 ] final   79.23 input  -60.11 | X-H torsion
[ 7974 7965 7964 7962 ] final  -97.59 input  175.53 | X-H torsion
[ 8008 7997 7996 7995 ] final  -25.44 input   59.86 | X-H torsion
[ 10167 10162 10161 10158 ] final  -14.64 input  -65.29 | X-H torsion
[ 10718 10713 10712 10709 ] final   21.05 input   66.30 | X-H torsion
[ 10763 10752 10751 10750 ] final  119.02 input  -60.55 | X-H torsion
[ 11005 11000 10999 10996 ] final   96.62 input  -57.11 | X-H torsion

> <Gold.Protein.ActiveResidues>
 VAL166  LYS551  ARG553  GLY616  TRP617  ASP618  TYR619  PRO620  LYS621  CYS622 
 ASP623  PHE694  ASN695  SER759  ASP760  ASP761  ALA762  ILE779  LEU786  VAL792 
 PHE793  MET794  SER795  GLU796  ALA797  LYS798  CYS799  TRP800  GLU811  SER814 

> <Gold.Protein.RotatedAtoms>
  152.5190  134.3543  159.9261 H   0  0  0  0  0  0  0  0  0  0  0  0  # atno 6907 bound_to 6896
  151.3494  133.3925  159.2686 H   0  0  0  0  0  0  0  0  0  0  0  0  # atno 6908 bound_to 6896
  150.9739  134.9126  159.7862 H   0  0  0  0  0  0  0  0  0  0  0  0  # atno 6909 bound_to 6896
  145.3317  140.9443  143.2658 H   0  0  0  0  0  0  0  0  0  0  0  0  # atno 7974 bound_to 7965
  154.4476  140.1926  156.0620 H   0  0  0  0  0  0  0  0  0  0  0  0  # atno 8008 bound_to 7997
  156.0576  140.3301  155.7396 H   0  0  0  0  0  0  0  0  0  0  0  0  # atno 8009 bound_to 7997
  155.5461  140.0591  157.2850 H   0  0  0  0  0  0  0  0  0  0  0  0  # atno 8010 bound_to 7997
  140.7205  143.5301  150.9530 H   0  0  0  0  0  0  0  0  0  0  0  0  # atno 10167 bound_to 10162
  157.1331  130.6599  149.5958 H   0  0  0  0  0  0  0  0  0  0  0  0  # atno 10718 bound_to 10713
  153.5766  135.3492  155.2858 H   0  0  0  0  0  0  0  0  0  0  0  0  # atno 10763 bound_to 10752
  154.8674  135.4172  154.2666 H   0  0  0  0  0  0  0  0  0  0  0  0  # atno 10764 bound_to 10752
  153.3443  135.7051  153.6911 H   0  0  0  0  0  0  0  0  0  0  0  0  # atno 10765 bound_to 10752
  139.8780  134.8960  156.4185 H   0  0  0  0  0  0  0  0  0  0  0  0  # atno 11005 bound_to 11000
  144.8859  139.4840  143.6701 LP  0  0  0  0  0  0  0  0  0  0  0  0  # atno 17320 bound_to 7965
  146.3043  139.7527  142.9068 LP  0  0  0  0  0  0  0  0  0  0  0  0  # atno 17321 bound_to 7965
  139.9021  143.6823  152.3129 LP  0  0  0  0  0  0  0  0  0  0  0  0  # atno 17342 bound_to 10162
  139.7176  144.7609  151.1008 LP  0  0  0  0  0  0  0  0  0  0  0  0  # atno 17343 bound_to 10162
  155.9804  130.4804  150.6769 LP  0  0  0  0  0  0  0  0  0  0  0  0  # atno 17370 bound_to 10713
  157.4375  131.0857  151.0977 LP  0  0  0  0  0  0  0  0  0  0  0  0  # atno 17371 bound_to 10713
  140.9150  133.7685  155.9837 LP  0  0  0  0  0  0  0  0  0  0  0  0  # atno 17394 bound_to 11000
  140.8504  134.2961  157.5278 LP  0  0  0  0  0  0  0  0  0  0  0  0  # atno 17395 bound_to 11000

$$$$
