AV-unprocessed.smi:313|AV-procd|sdf|2309|dock1
  -GOLD-   2262022203D 1   1.00000     0.00000
 Structure written by MMmdl.
 50 51  0  0  0  0  0  0  0  0  1 V2000
  153.6737  141.9762  161.8323 C   0  0  0  0  0  0  0  0  0  0  0  0
  153.1806  141.7091  160.4025 C   0  0  0  0  0  0  0  0  0  0  0  0
  152.7894  142.9854  159.6342 C   0  0  2  0  0  0  0  0  0  0  0  0
  152.0333  143.9773  160.5322 C   0  0  0  0  0  0  0  0  0  0  0  0
  151.9749  142.6430  158.4708 N   0  0  0  0  0  0  0  0  0  0  0  0
  150.9441  141.7839  158.4649 C   0  0  0  0  0  0  0  0  0  0  0  0
  150.5630  141.1774  159.4676 O   0  0  0  0  0  0  0  0  0  0  0  0
  150.2267  141.6016  157.1176 C   0  0  2  0  0  0  0  0  0  0  0  0
  148.7710  142.0668  157.2868 C   0  0  0  0  0  0  0  0  0  0  0  0
  150.2080  140.1935  156.7247 N   0  0  0  0  0  0  0  0  0  0  0  0
  151.2922  139.4112  156.5885 C   0  0  0  0  0  0  0  0  0  0  0  0
  152.4413  139.7998  156.7993 O   0  0  0  0  0  0  0  0  0  0  0  0
  151.0183  137.9825  156.2181 C   0  0  0  0  0  0  0  0  0  0  0  0
  149.7921  137.5860  155.6413 C   0  0  0  0  0  0  0  0  0  0  0  0
  149.6045  136.2357  155.2893 C   0  0  0  0  0  0  0  0  0  0  0  0
  150.6513  135.3105  155.5135 C   0  0  0  0  0  0  0  0  0  0  0  0
  150.4862  133.9528  155.1628 N   0  0  0  0  0  0  0  0  0  0  0  0
  150.8313  132.9868  156.2032 C   0  0  0  0  0  0  0  0  0  0  0  0
  150.9009  131.5667  155.6156 C   0  0  0  0  0  0  0  0  0  0  0  0
  149.6775  131.2566  154.9571 O   0  0  0  0  0  0  0  0  0  0  0  0
  149.4201  132.1436  153.8739 C   0  0  0  0  0  0  0  0  0  0  0  0
  149.2939  133.5824  154.4024 C   0  0  0  0  0  0  0  0  0  0  0  0
  151.8286  135.6942  156.0655 N   0  0  0  0  0  0  0  0  0  0  0  0
  152.0053  136.9903  156.3991 C   0  0  0  0  0  0  0  0  0  0  0  0
  153.8910  141.0403  162.3472 H   0  0  0  0  0  0  0  0  0  0  0  0
  152.9205  142.5078  162.4144 H   0  0  0  0  0  0  0  0  0  0  0  0
  154.5856  142.5738  161.8384 H   0  0  0  0  0  0  0  0  0  0  0  0
  153.9500  141.1664  159.8518 H   0  0  0  0  0  0  0  0  0  0  0  0
  152.3179  141.0434  160.4518 H   0  0  0  0  0  0  0  0  0  0  0  0
  153.7101  143.4658  159.2975 H   0  0  0  0  0  0  0  0  0  0  0  0
  152.6330  144.2583  161.3982 H   0  0  0  0  0  0  0  0  0  0  0  0
  151.0999  143.5492  160.8990 H   0  0  0  0  0  0  0  0  0  0  0  0
  151.7900  144.8933  159.9927 H   0  0  0  0  0  0  0  0  0  0  0  0
  152.2133  143.0979  157.6015 H   0  0  0  0  0  0  0  0  0  0  0  0
  150.7149  142.1981  156.3443 H   0  0  0  0  0  0  0  0  0  0  0  0
  148.7218  143.1184  157.5729 H   0  0  0  0  0  0  0  0  0  0  0  0
  148.2451  141.4894  158.0487 H   0  0  0  0  0  0  0  0  0  0  0  0
  148.2182  141.9595  156.3530 H   0  0  0  0  0  0  0  0  0  0  0  0
  149.3014  139.7795  156.5642 H   0  0  0  0  0  0  0  0  0  0  0  0
  148.9991  138.2980  155.4645 H   0  0  0  0  0  0  0  0  0  0  0  0
  148.6617  135.9262  154.8640 H   0  0  0  0  0  0  0  0  0  0  0  0
  151.7852  133.2216  156.6727 H   0  0  0  0  0  0  0  0  0  0  0  0
  150.0734  133.0292  156.9866 H   0  0  0  0  0  0  0  0  0  0  0  0
  151.7354  131.4751  154.9186 H   0  0  0  0  0  0  0  0  0  0  0  0
  151.0696  130.8403  156.4105 H   0  0  0  0  0  0  0  0  0  0  0  0
  150.2166  132.0699  153.1317 H   0  0  0  0  0  0  0  0  0  0  0  0
  148.4961  131.8427  153.3803 H   0  0  0  0  0  0  0  0  0  0  0  0
  148.4154  133.6679  155.0434 H   0  0  0  0  0  0  0  0  0  0  0  0
  149.1541  134.2644  153.5628 H   0  0  0  0  0  0  0  0  0  0  0  0
  152.9663  137.2350  156.8275 H   0  0  0  0  0  0  0  0  0  0  0  0
  1  2  1  0  0  0  0
  1 25  1  0  0  0  0
  1 26  1  0  0  0  0
  1 27  1  0  0  0  0
  2  3  1  0  0  0  0
  2 28  1  0  0  0  0
  2 29  1  0  0  0  0
  3  4  1  0  0  0  0
  3  5  1  0  0  0  0
  3 30  1  0  0  0  0
  4 31  1  0  0  0  0
  4 32  1  0  0  0  0
  4 33  1  0  0  0  0
  5  6  1  0  0  0  0
  5 34  1  0  0  0  0
  6  7  2  0  0  0  0
  6  8  1  0  0  0  0
  8  9  1  0  0  0  0
  8 10  1  0  0  0  0
  8 35  1  0  0  0  0
  9 36  1  0  0  0  0
  9 37  1  0  0  0  0
  9 38  1  0  0  0  0
 10 11  1  0  0  0  0
 10 39  1  0  0  0  0
 11 12  2  0  0  0  0
 11 13  1  0  0  0  0
 13 24  1  0  0  0  0
 13 14  2  0  0  0  0
 14 15  1  0  0  0  0
 14 40  1  0  0  0  0
 15 16  2  0  0  0  0
 15 41  1  0  0  0  0
 16 17  1  0  0  0  0
 16 23  1  0  0  0  0
 17 22  1  0  0  0  0
 17 18  1  0  0  0  0
 18 19  1  0  0  0  0
 18 42  1  0  0  0  0
 18 43  1  0  0  0  0
 19 20  1  0  0  0  0
 19 44  1  0  0  0  0
 19 45  1  0  0  0  0
 20 21  1  0  0  0  0
 21 22  1  0  0  0  0
 21 46  1  0  0  0  0
 21 47  1  0  0  0  0
 22 48  1  0  0  0  0
 22 49  1  0  0  0  0
 23 24  2  0  0  0  0
 24 50  1  0  0  0  0
M  END
> <s_m_source_file>
AV-unprocessed.smi

> <i_m_source_file_index>
313

> <i_lp_mmshare_version>
43012

> <i_f3d_flags>
0

> <s_epik_input>
W0NIM11bQ0gyXVtDQEhdKFtDSDNdKVtOSF1DKD1PKVtDQEhdKFtDSDNdKVtOSF1DKD1PKWMxW2NIXVtjSF1jKG5bY0hdMSlOMltDSDJdW0NIMl1PW0NIMl1bQ0gyXTI=

> <s_epik_cmdline>
J2VwaWtfcHl0aG9uJywgJy1waCcsICc3LjAnLCAnLXRuJywgJzgnLCAnLW1hJywgJzIwMCcsICctbWV0YWxfYmluZGluZycsICctaW1hZScsICc8aW5maWxlLm1hZT4nLCAnLW9tYWUnLCAnPG91dGZpbGUubWFlPic=

> <r_lp_tautomer_probability>
1

> <r_epik_Ionization_Penalty>
9.96442e-06

> <r_epik_Ionization_Penalty_Charging>
0

> <r_epik_Ionization_Penalty_Neutral>
9.96442e-06

> <r_epik_State_Penalty>
-0

> <r_epik_Charging_Adjusted_Penalty>
0

> <i_epik_Tot_Q>
0

> <i_epik_Tot_abs_Q>
0

> <r_epik_Metal_State_Penalty>
-0

> <b_epik_Metal_Only>
0

> <s_lp_Force_Field>
OPLS_2005

> <r_lp_Energy>
19.8546

> <b_lp_Chiralities_Consistent>
1

> <s_lp_Variant>
AV-unprocessed.smi:313-1

> <Gold.Version>
5.8.1

> <Gold.Id.Protein>
6NUR|6NUR_protein|mol2

> <Gold.PLP.Fitness>
40.6476

> <Gold.PLP.PLP>
-35.6430

> <Gold.PLP.part.hbond>
-3.1064

> <Gold.PLP.part.metal>
0.0000

> <Gold.PLP.part.buried>
-2.4040

> <Gold.PLP.part.nonpolar>
-29.9267

> <Gold.PLP.part.repulsive>
0.1485

> <Gold.PLP.ligand.clash>
0.0000

> <Gold.PLP.ligand.torsion>
0.7000

> <Gold.PLP.Chemscore.Hbond>
2.0000

> <Gold.PLP.Chemscore.CHOScore>
0.0000

> <Gold.PLP.Chemscore.Metal>
0.0000

> <Gold.Chemscore.Hbonds>
donor molecule, donor type, donor heavy atom, donor atom, acceptor molecule, acceptor atom, score
      P1  H  7997  8008       L1    12  1.00
      P1  H 10752 10765       L1    23  1.00

> <Gold.PLP.Chemscore.Internal.Correction>
0.4046

> <Gold.Rescore>
     Score         DG    S(hbond)    S(metal)    S(lipo)     H(rot)  DE(clash)    DE(int)     intcor
     12.22     -15.42       1.18        0.00      90.33       1.79       0.75       2.45       ----

> <Gold.Chemscore.Fitness>
12.2250

> <Gold.Chemscore.DG>
-15.4249

> <Gold.Chemscore.ZeroCoef>
-5.4800

> <Gold.Chemscore.Hbond>
1.1845

> <Gold.Chemscore.Metal>
0.0000

> <Gold.Chemscore.Lipo>
90.3253

> <Gold.Chemscore.Internal_Hbond>
0.0000

> <Gold.Chemscore.DEClash>
0.7531

> <Gold.Chemscore.DEInternal>
2.4469

> <Gold.Chemscore.Rot>
1.7888

> <Gold.Chemscore.Internal.Correction>
   9.000000E+99

> <Gold.Chemscore.Hbonds>
donor molecule, donor type, donor heavy atom, donor atom, acceptor molecule, acceptor atom, score
      P1  H  7997  8008       L1    12  0.98
      P1  H 10752 10765       L1    23  0.15

> <Gold.Chemscore.Hbond.Weighted>
-3.9561

> <Gold.Chemscore.Metal.Weighted>
-0.0000

> <Gold.Chemscore.Lipo.Weighted>
-10.5681

> <Gold.Chemscore.Internal_Hbond.Weighted>
0.0000

> <Gold.Chemscore.DEClash.Weighted>
0.7531

> <Gold.Chemscore.DEInternal.Weighted>
2.4469

> <Gold.Chemscore.Rot.Weighted>
4.5793

> <Gold.Chemscore.Internal.Correction.Weighted>
   9.000000E+99

> <Gold.Protein.RotatedTorsions>
[ 6907 6896 6895 6894 ] final  108.34 input  -60.11 | X-H torsion
[ 7974 7965 7964 7962 ] final    6.38 input  175.53 | X-H torsion
[ 8008 7997 7996 7995 ] final  -62.84 input   59.86 | X-H torsion
[ 10167 10162 10161 10158 ] final  -24.87 input  -65.29 | X-H torsion
[ 10718 10713 10712 10709 ] final   48.23 input   66.30 | X-H torsion
[ 10763 10752 10751 10750 ] final -168.20 input  -60.55 | X-H torsion
[ 11005 11000 10999 10996 ] final    0.50 input  -57.11 | X-H torsion

> <Gold.Protein.ActiveResidues>
 VAL166  LYS551  ARG553  GLY616  TRP617  ASP618  TYR619  PRO620  LYS621  CYS622 
 ASP623  PHE694  ASN695  SER759  ASP760  ASP761  ALA762  ILE779  LEU786  VAL792 
 PHE793  MET794  SER795  GLU796  ALA797  LYS798  CYS799  TRP800  GLU811  SER814 

> <Gold.Protein.RotatedAtoms>
  152.5116  133.9103  159.7484 H   0  0  0  0  0  0  0  0  0  0  0  0  # atno 6907 bound_to 6896
  150.9498  133.6554  159.2781 H   0  0  0  0  0  0  0  0  0  0  0  0  # atno 6908 bound_to 6896
  151.3836  135.0949  159.9557 H   0  0  0  0  0  0  0  0  0  0  0  0  # atno 6909 bound_to 6896
  146.2435  140.0243  142.8395 H   0  0  0  0  0  0  0  0  0  0  0  0  # atno 7974 bound_to 7965
  154.4522  140.0987  156.6650 H   0  0  0  0  0  0  0  0  0  0  0  0  # atno 8008 bound_to 7997
  155.5251  140.3480  155.4396 H   0  0  0  0  0  0  0  0  0  0  0  0  # atno 8009 bound_to 7997
  156.0703  140.1348  156.9825 H   0  0  0  0  0  0  0  0  0  0  0  0  # atno 8010 bound_to 7997
  140.7287  143.4314  151.0795 H   0  0  0  0  0  0  0  0  0  0  0  0  # atno 10167 bound_to 10162
  157.4666  130.8229  149.7942 H   0  0  0  0  0  0  0  0  0  0  0  0  # atno 10718 bound_to 10713
  154.6653  135.2931  154.9813 H   0  0  0  0  0  0  0  0  0  0  0  0  # atno 10763 bound_to 10752
  154.0859  135.6598  153.4849 H   0  0  0  0  0  0  0  0  0  0  0  0  # atno 10764 bound_to 10752
  153.0454  135.5208  154.7623 H   0  0  0  0  0  0  0  0  0  0  0  0  # atno 10765 bound_to 10752
  140.6259  133.9619  155.8249 H   0  0  0  0  0  0  0  0  0  0  0  0  # atno 11005 bound_to 11000
  145.1213  140.9464  143.4599 LP  0  0  0  0  0  0  0  0  0  0  0  0  # atno 17320 bound_to 7965
  145.0478  139.3206  143.5944 LP  0  0  0  0  0  0  0  0  0  0  0  0  # atno 17321 bound_to 7965
  139.7972  143.8135  152.3159 LP  0  0  0  0  0  0  0  0  0  0  0  0  # atno 17342 bound_to 10162
  139.8139  144.7324  150.9661 LP  0  0  0  0  0  0  0  0  0  0  0  0  # atno 17343 bound_to 10162
  156.0053  130.3859  150.2454 LP  0  0  0  0  0  0  0  0  0  0  0  0  # atno 17370 bound_to 10713
  157.0634  131.0096  151.3215 LP  0  0  0  0  0  0  0  0  0  0  0  0  # atno 17371 bound_to 10713
  141.0709  134.0206  157.3527 LP  0  0  0  0  0  0  0  0  0  0  0  0  # atno 17394 bound_to 11000
  139.9135  135.0193  156.7787 LP  0  0  0  0  0  0  0  0  0  0  0  0  # atno 17395 bound_to 11000

$$$$
