AV-unprocessed.smi:2150|AV-procd|sdf|8757|dock5
  -GOLD-   2272011533D 1   1.00000     0.00000
 Structure written by MMmdl.
 35 36  0  0  0  0  0  0  0  0  1 V2000
  151.0034  141.1234  157.6339 O   0  0  0  0  0  0  0  0  0  0  0  0
  150.7723  142.2247  157.1328 C   0  0  0  0  0  0  0  0  0  0  0  0
  151.5263  143.4777  157.6003 C   0  0  0  0  0  0  0  0  0  0  0  0
  151.9329  143.4198  159.0138 N   0  0  0  0  0  0  0  0  0  0  0  0
  152.7405  142.3419  159.4133 C   0  0  0  0  0  0  0  0  0  0  0  0
  153.1471  142.2208  160.6852 C   0  0  0  0  0  0  0  0  0  0  0  0
  152.7028  143.2674  161.6149 C   0  0  0  0  0  0  0  0  0  0  0  0
  151.9632  144.2492  161.2548 N   0  0  0  0  0  0  0  0  0  0  0  0
  151.5336  144.3712  159.9196 C   0  0  0  0  0  0  0  0  0  0  0  0
  150.8166  145.3083  159.5678 O   0  0  0  0  0  0  0  0  0  0  0  0
  149.8798  142.4113  156.1473 N   0  0  0  0  0  0  0  0  0  0  0  0
  149.0643  141.3640  155.5282 C   0  0  1  0  0  0  0  0  0  0  0  0
  148.3197  141.9996  154.3316 C   0  0  0  0  0  0  0  0  0  0  0  0
  147.0537  141.2337  153.9100 C   0  0  0  0  0  0  0  0  0  0  0  0
  147.3016  139.8210  153.3600 C   0  0  0  0  0  0  0  0  0  0  0  0
  147.9397  138.8629  154.3802 C   0  0  0  0  0  0  0  0  0  0  0  0
  149.3690  139.1000  154.5353 N   0  0  0  0  0  0  0  0  0  0  0  0
  149.9549  140.2077  155.0154 C   0  0  0  0  0  0  0  0  0  0  0  0
  151.1822  140.2999  155.0408 O   0  0  0  0  0  0  0  0  0  0  0  0
  152.3986  143.6066  156.9581 H   0  0  0  0  0  0  0  0  0  0  0  0
  150.9090  144.3609  157.4257 H   0  0  0  0  0  0  0  0  0  0  0  0
  152.9937  141.6352  158.6363 H   0  0  0  0  0  0  0  0  0  0  0  0
  153.7642  141.4173  161.0587 H   0  0  0  0  0  0  0  0  0  0  0  0
  153.0470  143.1534  162.6459 H   0  0  0  0  0  0  0  0  0  0  0  0
  149.7653  143.3471  155.7862 H   0  0  0  0  0  0  0  0  0  0  0  0
  148.3475  140.9893  156.2613 H   0  0  0  0  0  0  0  0  0  0  0  0
  148.0041  143.0078  154.6052 H   0  0  0  0  0  0  0  0  0  0  0  0
  148.9871  142.1261  153.4772 H   0  0  0  0  0  0  0  0  0  0  0  0
  146.3667  141.1778  154.7553 H   0  0  0  0  0  0  0  0  0  0  0  0
  146.5356  141.8150  153.1466 H   0  0  0  0  0  0  0  0  0  0  0  0
  146.3416  139.4061  153.0508 H   0  0  0  0  0  0  0  0  0  0  0  0
  147.9105  139.8695  152.4560 H   0  0  0  0  0  0  0  0  0  0  0  0
  147.4349  138.9184  155.3456 H   0  0  0  0  0  0  0  0  0  0  0  0
  147.8219  137.8370  154.0310 H   0  0  0  0  0  0  0  0  0  0  0  0
  149.9796  138.3605  154.2189 H   0  0  0  0  0  0  0  0  0  0  0  0
  1  2  2  0  0  0  0
  2  3  1  0  0  0  0
  2 11  1  0  0  0  0
  3  4  1  0  0  0  0
  3 20  1  0  0  0  0
  3 21  1  0  0  0  0
  4  9  1  0  0  0  0
  4  5  1  0  0  0  0
  5  6  2  0  0  0  0
  5 22  1  0  0  0  0
  6  7  1  0  0  0  0
  6 23  1  0  0  0  0
  7  8  2  0  0  0  0
  7 24  1  0  0  0  0
  8  9  1  0  0  0  0
  9 10  2  0  0  0  0
 11 12  1  0  0  0  0
 11 25  1  0  0  0  0
 12 18  1  0  0  0  0
 12 13  1  0  0  0  0
 12 26  1  0  0  0  0
 13 14  1  0  0  0  0
 13 27  1  0  0  0  0
 13 28  1  0  0  0  0
 14 15  1  0  0  0  0
 14 29  1  0  0  0  0
 14 30  1  0  0  0  0
 15 16  1  0  0  0  0
 15 31  1  0  0  0  0
 15 32  1  0  0  0  0
 16 17  1  0  0  0  0
 16 33  1  0  0  0  0
 16 34  1  0  0  0  0
 17 18  1  0  0  0  0
 17 35  1  0  0  0  0
 18 19  2  0  0  0  0
M  END
> <s_m_source_file>
AV-unprocessed.smi

> <i_m_source_file_index>
2150

> <i_lp_mmshare_version>
43012

> <i_f3d_flags>
0

> <s_epik_input>
Tz1jMW5bY0hdW2NIXVtjSF1uMVtDSDJdQyg9TylbTkhdW0NAQEhdMltDSDJdW0NIMl1bQ0gyXVtDSDJdW05IXUMyPU8=

> <s_epik_cmdline>
J2VwaWtfcHl0aG9uJywgJy1waCcsICc3LjAnLCAnLXRuJywgJzgnLCAnLW1hJywgJzIwMCcsICctbWV0YWxfYmluZGluZycsICctaW1hZScsICc8aW5maWxlLm1hZT4nLCAnLW9tYWUnLCAnPG91dGZpbGUubWFlPic=

> <r_lp_tautomer_probability>
1

> <r_epik_Ionization_Penalty>
6.25431e-06

> <r_epik_Ionization_Penalty_Charging>
1.47848e-08

> <r_epik_Ionization_Penalty_Neutral>
6.23953e-06

> <r_epik_State_Penalty>
-0

> <r_epik_Charging_Adjusted_Penalty>
1.47848e-08

> <i_epik_Tot_Q>
0

> <i_epik_Tot_abs_Q>
0

> <r_epik_Metal_State_Penalty>
-0

> <b_epik_Metal_Only>
0

> <s_lp_Force_Field>
OPLS_2005

> <r_lp_Energy>
14.2725

> <b_lp_Chiralities_Consistent>
1

> <s_lp_Variant>
AV-unprocessed.smi:2150-2

> <Gold.Version>
5.8.1

> <Gold.Id.Protein>
6NUR|6NUR_protein|mol2

> <Gold.PLP.Fitness>
45.7040

> <Gold.PLP.PLP>
-40.5499

> <Gold.PLP.part.hbond>
-2.0000

> <Gold.PLP.part.metal>
0.0000

> <Gold.PLP.part.buried>
-4.5923

> <Gold.PLP.part.nonpolar>
-33.9669

> <Gold.PLP.part.repulsive>
0.5482

> <Gold.PLP.ligand.clash>
0.0000

> <Gold.PLP.ligand.torsion>
0.4238

> <Gold.PLP.Chemscore.Hbond>
2.0000

> <Gold.PLP.Chemscore.CHOScore>
0.0000

> <Gold.PLP.Chemscore.Metal>
0.0000

> <Gold.Chemscore.Hbonds>
donor molecule, donor type, donor heavy atom, donor atom, acceptor molecule, acceptor atom, score
      L1  H    11    25       P1  8028  1.00
      P1  H  7989  7998       L1    19  1.00

> <Gold.PLP.Chemscore.Internal.Correction>
0.0018

> <Gold.Rescore>
     Score         DG    S(hbond)    S(metal)    S(lipo)     H(rot)  DE(clash)    DE(int)     intcor
     13.70     -15.74       1.95        0.00      69.25       1.69       0.04       2.00       ----

> <Gold.Chemscore.Fitness>
13.6982

> <Gold.Chemscore.DG>
-15.7413

> <Gold.Chemscore.ZeroCoef>
-5.4800

> <Gold.Chemscore.Hbond>
1.9454

> <Gold.Chemscore.Metal>
0.0000

> <Gold.Chemscore.Lipo>
69.2491

> <Gold.Chemscore.Internal_Hbond>
0.0000

> <Gold.Chemscore.DEClash>
0.0402

> <Gold.Chemscore.DEInternal>
2.0029

> <Gold.Chemscore.Rot>
1.6947

> <Gold.Chemscore.Internal.Correction>
   9.000000E+99

> <Gold.Chemscore.Hbonds>
donor molecule, donor type, donor heavy atom, donor atom, acceptor molecule, acceptor atom, score
      L1  H    11    25       P1  8028  0.95
      P1  H  7989  7998       L1    19  0.54

> <Gold.Chemscore.Hbond.Weighted>
-6.4976

> <Gold.Chemscore.Metal.Weighted>
-0.0000

> <Gold.Chemscore.Lipo.Weighted>
-8.1021

> <Gold.Chemscore.Internal_Hbond.Weighted>
0.0000

> <Gold.Chemscore.DEClash.Weighted>
0.0402

> <Gold.Chemscore.DEInternal.Weighted>
2.0029

> <Gold.Chemscore.Rot.Weighted>
4.3385

> <Gold.Chemscore.Internal.Correction.Weighted>
   9.000000E+99

> <Gold.Protein.RotatedTorsions>
[ 6907 6896 6895 6894 ] final    0.89 input  -60.11 | X-H torsion
[ 7974 7965 7964 7962 ] final   -8.77 input  175.53 | X-H torsion
[ 8008 7997 7996 7995 ] final -110.52 input   59.86 | X-H torsion
[ 10167 10162 10161 10158 ] final -137.90 input  -65.29 | X-H torsion
[ 10718 10713 10712 10709 ] final   91.01 input   66.30 | X-H torsion
[ 10763 10752 10751 10750 ] final -106.29 input  -60.55 | X-H torsion
[ 11005 11000 10999 10996 ] final   99.05 input  -57.11 | X-H torsion

> <Gold.Protein.ActiveResidues>
 VAL166  LYS551  ARG553  GLY616  TRP617  ASP618  TYR619  PRO620  LYS621  CYS622 
 ASP623  PHE694  ASN695  SER759  ASP760  ASP761  ALA762  ILE779  LEU786  VAL792 
 PHE793  MET794  SER795  GLU796  ALA797  LYS798  CYS799  TRP800  GLU811  SER814 

> <Gold.Protein.RotatedAtoms>
  151.5838  135.1057  160.0023 H   0  0  0  0  0  0  0  0  0  0  0  0  # atno 6907 bound_to 6896
  152.4341  133.7324  159.6606 H   0  0  0  0  0  0  0  0  0  0  0  0  # atno 6908 bound_to 6896
  150.8236  133.8140  159.3151 H   0  0  0  0  0  0  0  0  0  0  0  0  # atno 6909 bound_to 6896
  146.2271  140.2518  142.8347 H   0  0  0  0  0  0  0  0  0  0  0  0  # atno 7974 bound_to 7965
  154.9758  140.0397  157.2255 H   0  0  0  0  0  0  0  0  0  0  0  0  # atno 8008 bound_to 7997
  154.7759  140.2810  155.6079 H   0  0  0  0  0  0  0  0  0  0  0  0  # atno 8009 bound_to 7997
  156.2928  140.2601  156.2573 H   0  0  0  0  0  0  0  0  0  0  0  0  # atno 8010 bound_to 7997
  139.8531  143.7172  152.2656 H   0  0  0  0  0  0  0  0  0  0  0  0  # atno 10167 bound_to 10162
  157.6960  131.0392  150.3665 H   0  0  0  0  0  0  0  0  0  0  0  0  # atno 10718 bound_to 10713
  154.8003  135.4717  154.0259 H   0  0  0  0  0  0  0  0  0  0  0  0  # atno 10763 bound_to 10752
  153.1770  135.6834  153.8537 H   0  0  0  0  0  0  0  0  0  0  0  0  # atno 10764 bound_to 10752
  153.8100  135.3218  155.3377 H   0  0  0  0  0  0  0  0  0  0  0  0  # atno 10765 bound_to 10752
  139.8771  134.9077  156.4547 H   0  0  0  0  0  0  0  0  0  0  0  0  # atno 11005 bound_to 11000
  144.9406  140.8074  143.5633 LP  0  0  0  0  0  0  0  0  0  0  0  0  # atno 17320 bound_to 7965
  145.2469  139.2048  143.4963 LP  0  0  0  0  0  0  0  0  0  0  0  0  # atno 17321 bound_to 7965
  139.7446  144.7550  151.0600 LP  0  0  0  0  0  0  0  0  0  0  0  0  # atno 17342 bound_to 10162
  140.7785  143.4932  150.9866 LP  0  0  0  0  0  0  0  0  0  0  0  0  # atno 17343 bound_to 10162
  156.4095  130.3931  149.6902 LP  0  0  0  0  0  0  0  0  0  0  0  0  # atno 17370 bound_to 10713
  156.4191  130.7760  151.2776 LP  0  0  0  0  0  0  0  0  0  0  0  0  # atno 17371 bound_to 10713
  140.8906  133.7851  155.9568 LP  0  0  0  0  0  0  0  0  0  0  0  0  # atno 17394 bound_to 11000
  140.8757  134.2672  157.5169 LP  0  0  0  0  0  0  0  0  0  0  0  0  # atno 17395 bound_to 11000

$$$$
