AV-unprocessed.smi:15|AV-procd|sdf|83|dock3
  -GOLD-   2262015213D 1   1.00000     0.00000
 Structure written by MMmdl.
 53 56  0  0  0  0  0  0  0  0  1 V2000
  148.5201  140.6502  155.0132 C   0  0  0  0  0  0  0  0  0  0  0  0
  149.6365  141.5591  155.5446 C   0  0  0  0  0  0  0  0  0  0  0  0
  150.6857  140.8246  156.2575 N   0  0  0  0  0  0  0  0  0  0  0  0
  151.8837  141.5377  156.7094 C   0  0  0  0  0  0  0  0  0  0  0  0
  151.5779  142.6777  157.6977 C   0  0  2  0  0  0  0  0  0  0  0  0
  151.7409  144.0656  157.0859 C   0  0  0  0  0  0  0  0  0  0  0  0
  151.9439  144.9529  158.3016 C   0  0  0  0  0  0  0  0  0  0  0  0
  152.4454  143.9874  159.3801 C   0  0  0  0  0  0  0  0  0  0  0  0
  152.5319  142.7165  158.7473 O   0  0  0  0  0  0  0  0  0  0  0  0
  150.9037  139.5393  155.8736 C   0  0  0  0  0  0  0  0  0  0  0  0
  150.8143  139.2046  154.5579 N   0  0  0  0  0  0  0  0  0  0  0  0
  151.0504  137.9510  154.1610 C   0  0  0  0  0  0  0  0  0  0  0  0
  151.3838  136.8913  154.8996 N   0  0  0  0  0  0  0  0  0  0  0  0
  151.4648  137.2163  156.2215 C   0  0  0  0  0  0  0  0  0  0  0  0
  151.2448  138.5032  156.7891 C   0  0  0  0  0  0  0  0  0  0  0  0
  151.4142  138.4444  158.1677 N   0  0  0  0  0  0  0  0  0  0  0  0
  151.7277  137.1992  158.3992 C   0  0  0  0  0  0  0  0  0  0  0  0
  151.7659  136.3873  157.2882 N   0  0  0  0  0  0  0  0  0  0  0  0
  152.0866  134.9689  157.2547 C   0  0  0  0  0  0  0  0  0  0  0  0
  150.8717  134.0254  157.0565 C   0  0  1  0  0  0  0  0  0  0  0  0
  150.1078  134.1141  158.2476 O   0  0  0  0  0  0  0  0  0  0  0  0
  149.9708  134.3703  155.8790 C   0  0  0  0  0  0  0  0  0  0  0  0
  149.1997  133.0723  155.6598 C   0  0  0  0  0  0  0  0  0  0  0  0
  150.1036  132.0289  156.0070 O   0  0  0  0  0  0  0  0  0  0  0  0
  151.2085  132.5502  156.7436 C   0  0  2  0  0  0  0  0  0  0  0  0
  151.5513  131.6559  157.9452 C   0  0  0  0  0  0  0  0  0  0  0  0
  147.8139  141.2235  154.4129 H   0  0  0  0  0  0  0  0  0  0  0  0
  147.9550  140.1886  155.8228 H   0  0  0  0  0  0  0  0  0  0  0  0
  148.9231  139.8565  154.3836 H   0  0  0  0  0  0  0  0  0  0  0  0
  150.0781  142.0801  154.6937 H   0  0  0  0  0  0  0  0  0  0  0  0
  149.2166  142.3264  156.1955 H   0  0  0  0  0  0  0  0  0  0  0  0
  152.5893  140.8361  157.1536 H   0  0  0  0  0  0  0  0  0  0  0  0
  152.4061  141.9540  155.8495 H   0  0  0  0  0  0  0  0  0  0  0  0
  150.5745  142.5810  158.1165 H   0  0  0  0  0  0  0  0  0  0  0  0
  152.6314  144.0965  156.4560 H   0  0  0  0  0  0  0  0  0  0  0  0
  150.8862  144.3645  156.4784 H   0  0  0  0  0  0  0  0  0  0  0  0
  152.6541  145.7553  158.1000 H   0  0  0  0  0  0  0  0  0  0  0  0
  151.0016  145.4068  158.6110 H   0  0  0  0  0  0  0  0  0  0  0  0
  153.4166  144.2797  159.7797 H   0  0  0  0  0  0  0  0  0  0  0  0
  151.7382  143.9347  160.2088 H   0  0  0  0  0  0  0  0  0  0  0  0
  150.9605  137.7719  153.0996 H   0  0  0  0  0  0  0  0  0  0  0  0
  151.9337  136.8345  159.3952 H   0  0  0  0  0  0  0  0  0  0  0  0
  152.8140  134.8097  156.4574 H   0  0  0  0  0  0  0  0  0  0  0  0
  152.6004  134.7204  158.1844 H   0  0  0  0  0  0  0  0  0  0  0  0
  149.2798  134.5208  158.0420 H   0  0  0  0  0  0  0  0  0  0  0  0
  149.3226  135.2287  156.0592 H   0  0  0  0  0  0  0  0  0  0  0  0
  150.5577  134.5777  154.9851 H   0  0  0  0  0  0  0  0  0  0  0  0
  148.3372  133.0229  156.3255 H   0  0  0  0  0  0  0  0  0  0  0  0
  148.8425  132.9661  154.6354 H   0  0  0  0  0  0  0  0  0  0  0  0
  152.0418  132.5127  156.0436 H   0  0  0  0  0  0  0  0  0  0  0  0
  152.3913  132.0621  158.5088 H   0  0  0  0  0  0  0  0  0  0  0  0
  151.8294  130.6558  157.6125 H   0  0  0  0  0  0  0  0  0  0  0  0
  150.7056  131.5505  158.6252 H   0  0  0  0  0  0  0  0  0  0  0  0
  1  2  1  0  0  0  0
  1 27  1  0  0  0  0
  1 28  1  0  0  0  0
  1 29  1  0  0  0  0
  2  3  1  0  0  0  0
  2 30  1  0  0  0  0
  2 31  1  0  0  0  0
  3  4  1  0  0  0  0
  3 10  1  0  0  0  0
  4  5  1  0  0  0  0
  4 32  1  0  0  0  0
  4 33  1  0  0  0  0
  5  9  1  0  0  0  0
  5  6  1  0  0  0  0
  5 34  1  0  0  0  0
  6  7  1  0  0  0  0
  6 35  1  0  0  0  0
  6 36  1  0  0  0  0
  7  8  1  0  0  0  0
  7 37  1  0  0  0  0
  7 38  1  0  0  0  0
  8  9  1  0  0  0  0
  8 39  1  0  0  0  0
  8 40  1  0  0  0  0
 10 15  1  0  0  0  0
 10 11  2  0  0  0  0
 11 12  1  0  0  0  0
 12 13  2  0  0  0  0
 12 41  1  0  0  0  0
 13 14  1  0  0  0  0
 14 18  1  0  0  0  0
 14 15  2  0  0  0  0
 15 16  1  0  0  0  0
 16 17  2  0  0  0  0
 17 18  1  0  0  0  0
 17 42  1  0  0  0  0
 18 19  1  0  0  0  0
 19 20  1  0  0  0  0
 19 43  1  0  0  0  0
 19 44  1  0  0  0  0
 20 25  1  0  0  0  0
 20 21  1  0  0  0  0
 20 22  1  0  0  0  0
 21 45  1  0  0  0  0
 22 23  1  0  0  0  0
 22 46  1  0  0  0  0
 22 47  1  0  0  0  0
 23 24  1  0  0  0  0
 23 48  1  0  0  0  0
 23 49  1  0  0  0  0
 24 25  1  0  0  0  0
 25 26  1  0  0  0  0
 25 50  1  0  0  0  0
 26 51  1  0  0  0  0
 26 52  1  0  0  0  0
 26 53  1  0  0  0  0
M  END
> <s_m_source_file>
AV-unprocessed.smi

> <i_m_source_file_index>
15

> <i_lp_mmshare_version>
43012

> <i_f3d_flags>
0

> <s_epik_input>
TzFbQ0gyXVtDSDJdW0NIMl1bQ0BIXTFbQ0gyXU4oW0NIMl1bQ0gzXSljKG5bY0hdbjIpYyhjMjMpbltjSF1uM1tDSDJdW0NAQF00KFtPSF0pW0NIMl1bQ0gyXU9bQ0BIXTRbQ0gzXQ==

> <s_epik_cmdline>
J2VwaWtfcHl0aG9uJywgJy1waCcsICc3LjAnLCAnLXRuJywgJzgnLCAnLW1hJywgJzIwMCcsICctbWV0YWxfYmluZGluZycsICctaW1hZScsICc8aW5maWxlLm1hZT4nLCAnLW9tYWUnLCAnPG91dGZpbGUubWFlPic=

> <r_lp_tautomer_probability>
1

> <r_epik_Ionization_Penalty>
0.00360814

> <r_epik_Ionization_Penalty_Charging>
0

> <r_epik_Ionization_Penalty_Neutral>
0.00360814

> <r_epik_State_Penalty>
0.00237482

> <r_epik_Charging_Adjusted_Penalty>
0.00237482

> <i_epik_Tot_Q>
0

> <i_epik_Tot_abs_Q>
0

> <r_epik_Metal_State_Penalty>
-0

> <b_epik_Metal_Only>
0

> <s_lp_Force_Field>
OPLS_2005

> <r_lp_Energy>
48.2804

> <b_lp_Chiralities_Consistent>
1

> <s_lp_Variant>
AV-unprocessed.smi:15-5

> <Gold.Version>
5.8.1

> <Gold.Id.Protein>
6NUR|6NUR_protein|mol2

> <Gold.PLP.Fitness>
48.7811

> <Gold.PLP.PLP>
-40.7380

> <Gold.PLP.part.hbond>
-3.0000

> <Gold.PLP.part.metal>
0.0000

> <Gold.PLP.part.buried>
-4.4784

> <Gold.PLP.part.nonpolar>
-34.7348

> <Gold.PLP.part.repulsive>
0.2715

> <Gold.PLP.ligand.clash>
0.0125

> <Gold.PLP.ligand.torsion>
2.2163

> <Gold.PLP.Chemscore.Hbond>
2.8882

> <Gold.PLP.Chemscore.CHOScore>
0.9739

> <Gold.PLP.Chemscore.Metal>
0.0000

> <Gold.Chemscore.Hbonds>
donor molecule, donor type, donor heavy atom, donor atom, acceptor molecule, acceptor atom, score
      P1  H  6896  6909       L1    21  0.36
      P1  H  7989  7998       L1    11  0.75
      P1  H 10752 10765       L1    13  0.84
      L1  C    12    41       P1  7948  0.09
      L1  C    12    41       P1  7949  1.00

> <Gold.PLP.Chemscore.Internal.Correction>
0.9020

> <Gold.Rescore>
     Score         DG    S(hbond)    S(metal)    S(lipo)     H(rot)  DE(clash)    DE(int)     intcor
     14.68     -19.06       2.68        0.00      93.03       2.44       0.40       3.99       ----

> <Gold.Chemscore.Fitness>
14.6756

> <Gold.Chemscore.DG>
-19.0626

> <Gold.Chemscore.ZeroCoef>
-5.4800

> <Gold.Chemscore.Hbond>
2.6805

> <Gold.Chemscore.Metal>
0.0000

> <Gold.Chemscore.Lipo>
93.0274

> <Gold.Chemscore.Internal_Hbond>
0.0000

> <Gold.Chemscore.DEClash>
0.3986

> <Gold.Chemscore.DEInternal>
3.9884

> <Gold.Chemscore.Rot>
2.4431

> <Gold.Chemscore.Internal.Correction>
   9.000000E+99

> <Gold.Chemscore.Hbonds>
donor molecule, donor type, donor heavy atom, donor atom, acceptor molecule, acceptor atom, score
      P1  H  6896  6909       L1    21  0.21
      P1  H  7989  7998       L1    11  0.40
      P1  H 10752 10765       L1    13  0.65

> <Gold.Chemscore.Hbond.Weighted>
-8.9528

> <Gold.Chemscore.Metal.Weighted>
-0.0000

> <Gold.Chemscore.Lipo.Weighted>
-10.8842

> <Gold.Chemscore.Internal_Hbond.Weighted>
0.0000

> <Gold.Chemscore.DEClash.Weighted>
0.3986

> <Gold.Chemscore.DEInternal.Weighted>
3.9884

> <Gold.Chemscore.Rot.Weighted>
6.2544

> <Gold.Chemscore.Internal.Correction.Weighted>
   9.000000E+99

> <Gold.Protein.RotatedTorsions>
[ 6907 6896 6895 6894 ] final   -9.80 input  -60.11 | X-H torsion
[ 7974 7965 7964 7962 ] final  -50.84 input  175.53 | X-H torsion
[ 8008 7997 7996 7995 ] final  151.59 input   59.86 | X-H torsion
[ 10167 10162 10161 10158 ] final    1.91 input  -65.29 | X-H torsion
[ 10718 10713 10712 10709 ] final   56.92 input   66.30 | X-H torsion
[ 10763 10752 10751 10750 ] final  158.04 input  -60.55 | X-H torsion
[ 11005 11000 10999 10996 ] final  -64.16 input  -57.11 | X-H torsion

> <Gold.Protein.ActiveResidues>
 VAL166  LYS551  ARG553  GLY616  TRP617  ASP618  TYR619  PRO620  LYS621  CYS622 
 ASP623  PHE694  ASN695  SER759  ASP760  ASP761  ALA762  ILE779  LEU786  VAL792 
 PHE793  MET794  SER795  GLU796  ALA797  LYS798  CYS799  TRP800  GLU811  SER814 

> <Gold.Protein.RotatedAtoms>
  151.4120  135.0986  159.9587 H   0  0  0  0  0  0  0  0  0  0  0  0  # atno 6907 bound_to 6896
  152.5017  133.8789  159.7346 H   0  0  0  0  0  0  0  0  0  0  0  0  # atno 6908 bound_to 6896
  150.9285  133.6737  159.2844 H   0  0  0  0  0  0  0  0  0  0  0  0  # atno 6909 bound_to 6896
  145.9254  140.7796  142.9626 H   0  0  0  0  0  0  0  0  0  0  0  0  # atno 7974 bound_to 7965
  156.2667  140.2043  156.6200 H   0  0  0  0  0  0  0  0  0  0  0  0  # atno 8008 bound_to 7997
  154.6765  140.0544  157.0245 H   0  0  0  0  0  0  0  0  0  0  0  0  # atno 8009 bound_to 7997
  155.1062  140.3211  155.4536 H   0  0  0  0  0  0  0  0  0  0  0  0  # atno 8010 bound_to 7997
  140.6660  143.7177  150.7829 H   0  0  0  0  0  0  0  0  0  0  0  0  # atno 10167 bound_to 10162
  157.5471  130.8739  149.8907 H   0  0  0  0  0  0  0  0  0  0  0  0  # atno 10718 bound_to 10713
  154.2098  135.2786  155.2962 H   0  0  0  0  0  0  0  0  0  0  0  0  # atno 10763 bound_to 10752
  154.5787  135.5596  153.7168 H   0  0  0  0  0  0  0  0  0  0  0  0  # atno 10764 bound_to 10752
  153.0067  135.6339  154.2237 H   0  0  0  0  0  0  0  0  0  0  0  0  # atno 10765 bound_to 10752
  141.1416  133.6662  156.5790 H   0  0  0  0  0  0  0  0  0  0  0  0  # atno 11005 bound_to 11000
  144.6758  140.2042  143.7384 LP  0  0  0  0  0  0  0  0  0  0  0  0  # atno 17320 bound_to 7965
  145.8495  139.2168  143.1780 LP  0  0  0  0  0  0  0  0  0  0  0  0  # atno 17321 bound_to 7965
  140.0854  143.4928  152.2507 LP  0  0  0  0  0  0  0  0  0  0  0  0  # atno 17342 bound_to 10162
  139.5910  144.7550  151.3401 LP  0  0  0  0  0  0  0  0  0  0  0  0  # atno 17343 bound_to 10162
  156.0545  130.3711  150.1124 LP  0  0  0  0  0  0  0  0  0  0  0  0  # atno 17370 bound_to 10713
  156.9299  130.9710  151.3534 LP  0  0  0  0  0  0  0  0  0  0  0  0  # atno 17371 bound_to 10713
  140.3853  134.7488  157.4687 LP  0  0  0  0  0  0  0  0  0  0  0  0  # atno 17394 bound_to 11000
  140.0607  134.6000  155.8752 LP  0  0  0  0  0  0  0  0  0  0  0  0  # atno 17395 bound_to 11000

$$$$
