AV-unprocessed.smi:37|AV-procd|sdf|328|dock2
  -GOLD-   2262016153D 1   1.00000     0.00000
 Structure written by MMmdl.
 43 44  0  0  0  0  0  0  0  0  2 V2000
  145.3325  132.1075  148.9859 C   0  0  0  0  0  0  0  0  0  0  0  0
  144.0404  132.4330  149.7482 C   0  0  0  0  0  0  0  0  0  0  0  0
  144.3181  132.9402  151.1615 C   0  0  0  0  0  0  0  0  0  0  0  0
  143.4381  133.4710  151.8395 O   0  0  0  0  0  0  0  0  0  0  0  0
  145.5884  132.7393  151.5384 O   0  0  0  0  0  0  0  0  0  0  0  0
  145.9202  132.6775  152.9157 C   0  0  0  0  0  0  0  0  0  0  0  0
  147.2304  131.9005  153.1000 C   0  0  1  0  0  0  0  0  0  0  0  0
  148.2668  132.8060  153.4621 O   0  0  0  0  0  0  0  0  0  0  0  0
  149.1222  132.1614  154.3472 C   0  0  1  0  0  0  0  0  0  0  0  0
  149.8779  133.1800  155.1680 N   0  0  0  0  0  0  0  0  0  0  0  0
  149.8192  134.5318  154.8695 C   0  0  0  0  0  0  0  0  0  0  0  0
  150.4862  135.4392  155.6112 C   0  0  0  0  0  0  0  0  0  0  0  0
  150.4058  136.7449  155.3019 F   0  0  0  0  0  0  0  0  0  0  0  0
  151.2890  134.9942  156.7488 C   0  0  0  0  0  0  0  0  0  0  0  0
  151.8979  135.8266  157.4190 O   0  0  0  0  0  0  0  0  0  0  0  0
  151.3266  133.6572  157.0198 N   0  5  0  0  0  0  0  0  0  0  0  0
  150.6496  132.7351  156.2744 C   0  0  0  0  0  0  0  0  0  0  0  0
  150.6697  131.5272  156.5126 O   0  0  0  0  0  0  0  0  0  0  0  0
  148.2350  131.2491  155.2013 C   0  0  1  0  0  0  0  0  0  0  0  0
  147.3255  132.2344  156.6815 Br  0  0  0  0  0  0  0  0  0  0  0  0
  147.1846  130.8093  154.1883 C   0  0  2  0  0  0  0  0  0  0  0  0
  147.5542  129.5645  153.6061 O   0  0  0  0  0  0  0  0  0  0  0  0
  146.8951  129.0925  152.5316 C   0  0  0  0  0  0  0  0  0  0  0  0
  146.0314  129.6933  151.8924 O   0  0  0  0  0  0  0  0  0  0  0  0
  147.3126  127.6709  152.1623 C   0  0  0  0  0  0  0  0  0  0  0  0
  147.9572  127.5955  150.7714 C   0  0  0  0  0  0  0  0  0  0  0  0
  145.1052  131.7286  147.9894 H   0  0  0  0  0  0  0  0  0  0  0  0
  145.9168  131.3462  149.5035 H   0  0  0  0  0  0  0  0  0  0  0  0
  145.9619  132.9895  148.8649 H   0  0  0  0  0  0  0  0  0  0  0  0
  143.4699  133.1896  149.2093 H   0  0  0  0  0  0  0  0  0  0  0  0
  143.4112  131.5446  149.8081 H   0  0  0  0  0  0  0  0  0  0  0  0
  146.0223  133.6881  153.3128 H   0  0  0  0  0  0  0  0  0  0  0  0
  145.1200  132.1858  153.4707 H   0  0  0  0  0  0  0  0  0  0  0  0
  147.5068  131.4565  152.1423 H   0  0  0  0  0  0  0  0  0  0  0  0
  149.8704  131.6156  153.7687 H   0  0  0  0  0  0  0  0  0  0  0  0
  149.2248  134.8814  154.0387 H   0  0  0  0  0  0  0  0  0  0  0  0
  148.8108  130.4338  155.6406 H   0  0  0  0  0  0  0  0  0  0  0  0
  146.1944  130.7373  154.6412 H   0  0  0  0  0  0  0  0  0  0  0  0
  148.0065  127.3009  152.9172 H   0  0  0  0  0  0  0  0  0  0  0  0
  146.4341  127.0261  152.1975 H   0  0  0  0  0  0  0  0  0  0  0  0
  148.2001  126.5636  150.5172 H   0  0  0  0  0  0  0  0  0  0  0  0
  148.8821  128.1716  150.7270 H   0  0  0  0  0  0  0  0  0  0  0  0
  147.2852  127.9759  150.0015 H   0  0  0  0  0  0  0  0  0  0  0  0
  1  2  1  0  0  0  0
  1 27  1  0  0  0  0
  1 28  1  0  0  0  0
  1 29  1  0  0  0  0
  2  3  1  0  0  0  0
  2 30  1  0  0  0  0
  2 31  1  0  0  0  0
  3  4  2  0  0  0  0
  3  5  1  0  0  0  0
  5  6  1  0  0  0  0
  6  7  1  0  0  0  0
  6 32  1  0  0  0  0
  6 33  1  0  0  0  0
  7 21  1  0  0  0  0
  7  8  1  0  0  0  0
  7 34  1  0  0  0  0
  8  9  1  0  0  0  0
  9 10  1  0  0  0  0
  9 19  1  0  0  0  0
  9 35  1  0  0  0  0
 10 17  1  0  0  0  0
 10 11  1  0  0  0  0
 11 12  2  0  0  0  0
 11 36  1  0  0  0  0
 12 13  1  0  0  0  0
 12 14  1  0  0  0  0
 14 15  2  0  0  0  0
 14 16  1  0  0  0  0
 16 17  1  0  0  0  0
 17 18  2  0  0  0  0
 19 20  1  0  0  0  0
 19 21  1  0  0  0  0
 19 37  1  0  0  0  0
 21 22  1  0  0  0  0
 21 38  1  0  0  0  0
 22 23  1  0  0  0  0
 23 24  2  0  0  0  0
 23 25  1  0  0  0  0
 25 26  1  0  0  0  0
 25 39  1  0  0  0  0
 25 40  1  0  0  0  0
 26 41  1  0  0  0  0
 26 42  1  0  0  0  0
 26 43  1  0  0  0  0
M  CHG  1  16  -1
M  END
> <s_m_source_file>
AV-unprocessed.smi

> <i_m_source_file_index>
37

> <i_lp_mmshare_version>
43012

> <i_f3d_flags>
0

> <s_epik_input>
W0NIM11bQ0gyXUMoPU8pT1tDSDJdW0NAQEhdMU9bQ0BASF0objJbY0hdYyhGKWMoPU8pW25IXWMyPU8pW0NAQEhdKEJyKVtDQEhdMU9DKD1PKVtDSDJdW0NIM10=

> <s_epik_cmdline>
J2VwaWtfcHl0aG9uJywgJy1waCcsICc3LjAnLCAnLXRuJywgJzgnLCAnLW1hJywgJzIwMCcsICctbWV0YWxfYmluZGluZycsICctaW1hZScsICc8aW5maWxlLm1hZT4nLCAnLW9tYWUnLCAnPG91dGZpbGUubWFlPic=

> <r_epik_Ionization_Penalty>
1.08158

> <r_epik_Ionization_Penalty_Charging>
9.05154e-09

> <r_epik_Ionization_Penalty_Neutral>
1.08158

> <r_epik_State_Penalty>
1.13706

> <r_epik_Charging_Adjusted_Penalty>
1.13706

> <i_epik_Tot_Q>
-1

> <i_epik_Tot_abs_Q>
1

> <r_epik_Metal_State_Penalty>
0.00343535

> <b_epik_Metal_Only>
0

> <s_epik_Chemistry_Notes>
This compound has an ester and may undergo hydrolysis at high or low pH. This compound contains an acetal/aminal-like group ( X-CH(R)-Y where X, Y are N, S, or O) that may be acid/base labile, releasing an aldehyde.

> <s_lp_Force_Field>
OPLS_2005

> <r_lp_Energy>
31.9934

> <b_lp_Chiralities_Consistent>
1

> <s_lp_Variant>
AV-unprocessed.smi:37-26

> <Gold.Version>
5.8.1

> <Gold.Id.Protein>
6NUR|6NUR_protein|mol2

> <Gold.PLP.Fitness>
41.9220

> <Gold.PLP.PLP>
-39.5138

> <Gold.PLP.part.hbond>
-1.9660

> <Gold.PLP.part.metal>
0.0000

> <Gold.PLP.part.buried>
-7.3754

> <Gold.PLP.part.nonpolar>
-32.1606

> <Gold.PLP.part.repulsive>
0.6735

> <Gold.PLP.ligand.clash>
0.0000

> <Gold.PLP.ligand.torsion>
1.5092

> <Gold.PLP.Chemscore.Hbond>
0.7280

> <Gold.PLP.Chemscore.CHOScore>
0.9953

> <Gold.PLP.Chemscore.Metal>
0.0000

> <Gold.Chemscore.Hbonds>
donor molecule, donor type, donor heavy atom, donor atom, acceptor molecule, acceptor atom, score
      P1  H  6896  6908       L1    16  0.69
      L1  C    11    36       P1  7948  0.98

> <Gold.PLP.Chemscore.Internal.Correction>
0.2567

> <Gold.Rescore>
     Score         DG    S(hbond)    S(metal)    S(lipo)     H(rot)  DE(clash)    DE(int)     intcor
      2.40      -6.63       0.43        0.00      68.99       3.27       0.05       4.18       ----

> <Gold.Chemscore.Fitness>
2.3997

> <Gold.Chemscore.DG>
-6.6269

> <Gold.Chemscore.ZeroCoef>
-5.4800

> <Gold.Chemscore.Hbond>
0.4308

> <Gold.Chemscore.Metal>
0.0000

> <Gold.Chemscore.Lipo>
68.9859

> <Gold.Chemscore.Internal_Hbond>
0.0000

> <Gold.Chemscore.DEClash>
0.0515

> <Gold.Chemscore.DEInternal>
4.1757

> <Gold.Chemscore.Rot>
3.2669

> <Gold.Chemscore.Internal.Correction>
   9.000000E+99

> <Gold.Chemscore.Hbonds>
donor molecule, donor type, donor heavy atom, donor atom, acceptor molecule, acceptor atom, score
      P1  H  6896  6908       L1    16  0.20

> <Gold.Chemscore.Hbond.Weighted>
-1.4389

> <Gold.Chemscore.Metal.Weighted>
-0.0000

> <Gold.Chemscore.Lipo.Weighted>
-8.0714

> <Gold.Chemscore.Internal_Hbond.Weighted>
0.0000

> <Gold.Chemscore.DEClash.Weighted>
0.0515

> <Gold.Chemscore.DEInternal.Weighted>
4.1757

> <Gold.Chemscore.Rot.Weighted>
8.3634

> <Gold.Chemscore.Internal.Correction.Weighted>
   9.000000E+99

> <Gold.Protein.RotatedTorsions>
[ 6907 6896 6895 6894 ] final   87.26 input  -60.11 | X-H torsion
[ 7974 7965 7964 7962 ] final  -44.06 input  175.53 | X-H torsion
[ 8008 7997 7996 7995 ] final  120.82 input   59.86 | X-H torsion
[ 10167 10162 10161 10158 ] final   48.72 input  -65.29 | X-H torsion
[ 10718 10713 10712 10709 ] final    9.45 input   66.30 | X-H torsion
[ 10763 10752 10751 10750 ] final  -13.76 input  -60.55 | X-H torsion
[ 11005 11000 10999 10996 ] final  160.01 input  -57.11 | X-H torsion

> <Gold.Protein.ActiveResidues>
 VAL166  LYS551  ARG553  GLY616  TRP617  ASP618  TYR619  PRO620  LYS621  CYS622 
 ASP623  PHE694  ASN695  SER759  ASP760  ASP761  ALA762  ILE779  LEU786  VAL792 
 PHE793  MET794  SER795  GLU796  ALA797  LYS798  CYS799  TRP800  GLU811  SER814 

> <Gold.Protein.RotatedAtoms>
  152.5408  134.2304  159.8822 H   0  0  0  0  0  0  0  0  0  0  0  0  # atno 6907 bound_to 6896
  151.2276  133.4461  159.2610 H   0  0  0  0  0  0  0  0  0  0  0  0  # atno 6908 bound_to 6896
  151.0746  134.9833  159.8381 H   0  0  0  0  0  0  0  0  0  0  0  0  # atno 6909 bound_to 6896
  145.9958  140.7130  142.9295 H   0  0  0  0  0  0  0  0  0  0  0  0  # atno 7974 bound_to 7965
  156.2659  140.2822  156.1210 H   0  0  0  0  0  0  0  0  0  0  0  0  # atno 8008 bound_to 7997
  155.1156  140.0391  157.2753 H   0  0  0  0  0  0  0  0  0  0  0  0  # atno 8009 bound_to 7997
  154.6709  140.2587  155.7014 H   0  0  0  0  0  0  0  0  0  0  0  0  # atno 8010 bound_to 7997
  140.2904  144.3053  150.6242 H   0  0  0  0  0  0  0  0  0  0  0  0  # atno 10167 bound_to 10162
  156.9665  130.5953  149.5666 H   0  0  0  0  0  0  0  0  0  0  0  0  # atno 10718 bound_to 10713
  153.5181  135.7016  153.5746 H   0  0  0  0  0  0  0  0  0  0  0  0  # atno 10763 bound_to 10752
  153.3807  135.3921  155.1854 H   0  0  0  0  0  0  0  0  0  0  0  0  # atno 10764 bound_to 10752
  154.8697  135.3834  154.4667 H   0  0  0  0  0  0  0  0  0  0  0  0  # atno 10765 bound_to 10752
  140.2018  134.8332  157.3026 H   0  0  0  0  0  0  0  0  0  0  0  0  # atno 11005 bound_to 11000
  144.6903  140.3147  143.7242 LP  0  0  0  0  0  0  0  0  0  0  0  0  # atno 17320 bound_to 7965
  145.7563  139.1810  143.2293 LP  0  0  0  0  0  0  0  0  0  0  0  0  # atno 17321 bound_to 7965
  140.5737  143.2178  151.7553 LP  0  0  0  0  0  0  0  0  0  0  0  0  # atno 17342 bound_to 10162
  139.4939  144.4180  152.0009 LP  0  0  0  0  0  0  0  0  0  0  0  0  # atno 17343 bound_to 10162
  156.0300  130.5392  150.8509 LP  0  0  0  0  0  0  0  0  0  0  0  0  # atno 17370 bound_to 10713
  157.5622  131.0946  150.9543 LP  0  0  0  0  0  0  0  0  0  0  0  0  # atno 17371 bound_to 10713
  140.2046  134.4213  155.7644 LP  0  0  0  0  0  0  0  0  0  0  0  0  # atno 17394 bound_to 11000
  141.2227  133.7088  156.8239 LP  0  0  0  0  0  0  0  0  0  0  0  0  # atno 17395 bound_to 11000

$$$$
