AV-unprocessed.smi:1843|AV-procd|sdf|7501|dock6
  -GOLD-   22720 9203D 1   1.00000     0.00000
 Structure written by MMmdl.
 37 39  0  0  0  0  0  0  0  0  1 V2000
  147.0020  134.0005  155.2669 O   0  0  0  0  0  0  0  0  0  0  0  0
  147.6000  134.5050  154.3162 C   0  0  0  0  0  0  0  0  0  0  0  0
  148.7150  135.2510  154.4064 N   0  0  0  0  0  0  0  0  0  0  0  0
  149.4417  135.6094  155.5727 C   0  0  0  0  0  0  0  0  0  0  0  0
  149.2928  135.0030  156.7585 N   0  0  0  0  0  0  0  0  0  0  0  0
  150.1216  135.5501  157.7279 N   0  0  0  0  0  0  0  0  0  0  0  0
  150.8726  136.5493  157.2495 C   0  0  0  0  0  0  0  0  0  0  0  0
  151.8413  137.2962  158.1047 C   0  0  0  0  0  0  0  0  0  0  0  0
  151.4054  137.9890  159.3774 C   0  0  0  0  0  0  0  0  0  0  0  0
  151.8064  138.8055  158.1753 C   0  0  0  0  0  0  0  0  0  0  0  0
  150.6221  136.9080  155.5439 S   0  0  0  0  0  0  0  0  0  0  0  0
  147.2066  134.3727  153.0410 N   0  0  0  0  0  0  0  0  0  0  0  0
  146.0406  133.6144  152.5913 C   0  0  1  0  0  0  0  0  0  0  0  0
  145.0461  134.4987  151.8100 C   0  0  0  0  0  0  0  0  0  0  0  0
  143.8212  133.6840  151.3622 C   0  0  0  0  0  0  0  0  0  0  0  0
  144.2333  132.4521  150.5397 C   0  0  0  0  0  0  0  0  0  0  0  0
  145.2444  131.5745  151.3014 C   0  0  0  0  0  0  0  0  0  0  0  0
  146.4730  132.3777  151.7714 C   0  0  1  0  0  0  0  0  0  0  0  0
  147.2334  132.7573  150.6385 O   0  0  0  0  0  0  0  0  0  0  0  0
  149.0897  135.6038  153.5382 H   0  0  0  0  0  0  0  0  0  0  0  0
  152.8146  136.8093  158.0976 H   0  0  0  0  0  0  0  0  0  0  0  0
  150.3487  137.9747  159.6368 H   0  0  0  0  0  0  0  0  0  0  0  0
  152.0920  137.9659  160.2209 H   0  0  0  0  0  0  0  0  0  0  0  0
  152.7600  139.3276  158.2166 H   0  0  0  0  0  0  0  0  0  0  0  0
  151.0160  139.3188  157.6310 H   0  0  0  0  0  0  0  0  0  0  0  0
  147.7562  134.8249  152.3256 H   0  0  0  0  0  0  0  0  0  0  0  0
  145.5248  133.2400  153.4781 H   0  0  0  0  0  0  0  0  0  0  0  0
  144.7171  135.3338  152.4293 H   0  0  0  0  0  0  0  0  0  0  0  0
  145.5354  134.9363  150.9388 H   0  0  0  0  0  0  0  0  0  0  0  0
  143.2580  133.3636  152.2396 H   0  0  0  0  0  0  0  0  0  0  0  0
  143.1492  134.3129  150.7776 H   0  0  0  0  0  0  0  0  0  0  0  0
  143.3506  131.8639  150.2867 H   0  0  0  0  0  0  0  0  0  0  0  0
  144.6668  132.7754  149.5925 H   0  0  0  0  0  0  0  0  0  0  0  0
  144.7503  131.1385  152.1707 H   0  0  0  0  0  0  0  0  0  0  0  0
  145.5563  130.7358  150.6780 H   0  0  0  0  0  0  0  0  0  0  0  0
  147.1032  131.7351  152.3876 H   0  0  0  0  0  0  0  0  0  0  0  0
  147.9557  132.1559  150.5460 H   0  0  0  0  0  0  0  0  0  0  0  0
  1  2  2  0  0  0  0
  2  3  1  0  0  0  0
  2 12  1  0  0  0  0
  3  4  1  0  0  0  0
  3 20  1  0  0  0  0
  4 11  1  0  0  0  0
  4  5  2  0  0  0  0
  5  6  1  0  0  0  0
  6  7  2  0  0  0  0
  7  8  1  0  0  0  0
  7 11  1  0  0  0  0
  8 10  1  0  0  0  0
  8  9  1  0  0  0  0
  8 21  1  0  0  0  0
  9 10  1  0  0  0  0
  9 22  1  0  0  0  0
  9 23  1  0  0  0  0
 10 24  1  0  0  0  0
 10 25  1  0  0  0  0
 12 13  1  0  0  0  0
 12 26  1  0  0  0  0
 13 18  1  0  0  0  0
 13 14  1  0  0  0  0
 13 27  1  0  0  0  0
 14 15  1  0  0  0  0
 14 28  1  0  0  0  0
 14 29  1  0  0  0  0
 15 16  1  0  0  0  0
 15 30  1  0  0  0  0
 15 31  1  0  0  0  0
 16 17  1  0  0  0  0
 16 32  1  0  0  0  0
 16 33  1  0  0  0  0
 17 18  1  0  0  0  0
 17 34  1  0  0  0  0
 17 35  1  0  0  0  0
 18 19  1  0  0  0  0
 18 36  1  0  0  0  0
 19 37  1  0  0  0  0
M  END
> <s_m_source_file>
AV-unprocessed.smi

> <i_m_source_file_index>
1843

> <i_lp_mmshare_version>
43012

> <i_f3d_flags>
0

> <s_epik_input>
W09IXVtDQEBIXTFbQ0gyXVtDSDJdW0NIMl1bQ0gyXVtDQEhdMVtOSF1DKD1PKVtOSF1jMm5uYyhzMilbQ0hdM1tDSDJdW0NIMl0z

> <s_epik_cmdline>
J2VwaWtfcHl0aG9uJywgJy1waCcsICc3LjAnLCAnLXRuJywgJzgnLCAnLW1hJywgJzIwMCcsICctbWV0YWxfYmluZGluZycsICctaW1hZScsICc8aW5maWxlLm1hZT4nLCAnLW9tYWUnLCAnPG91dGZpbGUubWFlPic=

> <r_lp_tautomer_probability>
1

> <r_epik_Ionization_Penalty>
0.000257313

> <r_epik_Ionization_Penalty_Charging>
0

> <r_epik_Ionization_Penalty_Neutral>
0.000257313

> <r_epik_State_Penalty>
-0

> <r_epik_Charging_Adjusted_Penalty>
0

> <i_epik_Tot_Q>
0

> <i_epik_Tot_abs_Q>
0

> <r_epik_Metal_State_Penalty>
0.147479

> <b_epik_Metal_Only>
0

> <s_lp_Force_Field>
OPLS_2005

> <r_lp_Energy>
11.0621

> <b_lp_Chiralities_Consistent>
1

> <s_lp_Variant>
AV-unprocessed.smi:1843-2

> <Gold.Version>
5.8.1

> <Gold.Id.Protein>
6NUR|6NUR_protein|mol2

> <Gold.PLP.Fitness>
36.9972

> <Gold.PLP.PLP>
-26.1931

> <Gold.PLP.part.hbond>
-4.0000

> <Gold.PLP.part.metal>
0.0000

> <Gold.PLP.part.buried>
-4.9171

> <Gold.PLP.part.nonpolar>
-17.6877

> <Gold.PLP.part.repulsive>
0.0256

> <Gold.PLP.ligand.clash>
0.0000

> <Gold.PLP.ligand.torsion>
0.1522

> <Gold.PLP.Chemscore.Hbond>
3.6555

> <Gold.PLP.Chemscore.CHOScore>
0.0000

> <Gold.PLP.Chemscore.Metal>
0.0000

> <Gold.Chemscore.Hbonds>
donor molecule, donor type, donor heavy atom, donor atom, acceptor molecule, acceptor atom, score
      L1  H     3    20       P1  7948  1.00
      L1  H    12    26       P1  7948  0.99
      L1  H    19    37       P1 10747  1.00
      P1  H  6896  6907       L1     6  0.57

> <Gold.PLP.Chemscore.Internal.Correction>
0.1419

> <Gold.Rescore>
     Score         DG    S(hbond)    S(metal)    S(lipo)     H(rot)  DE(clash)    DE(int)     intcor
     18.61     -20.01       3.65        0.00      58.02       1.74       0.00       1.40       ----

> <Gold.Chemscore.Fitness>
18.6125

> <Gold.Chemscore.DG>
-20.0122

> <Gold.Chemscore.ZeroCoef>
-5.4800

> <Gold.Chemscore.Hbond>
3.6524

> <Gold.Chemscore.Metal>
0.0000

> <Gold.Chemscore.Lipo>
58.0214

> <Gold.Chemscore.Internal_Hbond>
0.0000

> <Gold.Chemscore.DEClash>
0.0000

> <Gold.Chemscore.DEInternal>
1.3997

> <Gold.Chemscore.Rot>
1.7404

> <Gold.Chemscore.Internal.Correction>
   9.000000E+99

> <Gold.Chemscore.Hbonds>
donor molecule, donor type, donor heavy atom, donor atom, acceptor molecule, acceptor atom, score
      L1  H     3    20       P1  7948  0.69
      L1  H    12    26       P1  7948  0.77
      L1  H    19    37       P1 10747  1.00
      P1  H  6896  6907       L1     6  0.55

> <Gold.Chemscore.Hbond.Weighted>
-12.1991

> <Gold.Chemscore.Metal.Weighted>
-0.0000

> <Gold.Chemscore.Lipo.Weighted>
-6.7885

> <Gold.Chemscore.Internal_Hbond.Weighted>
0.0000

> <Gold.Chemscore.DEClash.Weighted>
0.0000

> <Gold.Chemscore.DEInternal.Weighted>
1.3997

> <Gold.Chemscore.Rot.Weighted>
4.4555

> <Gold.Chemscore.Internal.Correction.Weighted>
   9.000000E+99

> <Gold.Protein.RotatedTorsions>
[ 6907 6896 6895 6894 ] final  -79.59 input  -60.11 | X-H torsion
[ 7974 7965 7964 7962 ] final  -67.85 input  175.53 | X-H torsion
[ 8008 7997 7996 7995 ] final  153.35 input   59.86 | X-H torsion
[ 10167 10162 10161 10158 ] final  -74.31 input  -65.29 | X-H torsion
[ 10718 10713 10712 10709 ] final   61.73 input   66.30 | X-H torsion
[ 10763 10752 10751 10750 ] final   77.78 input  -60.55 | X-H torsion
[ 11005 11000 10999 10996 ] final  110.90 input  -57.11 | X-H torsion

> <Gold.Protein.ActiveResidues>
 VAL166  LYS551  ARG553  GLY616  TRP617  ASP618  TYR619  PRO620  LYS621  CYS622 
 ASP623  PHE694  ASN695  SER759  ASP760  ASP761  ALA762  ILE779  LEU786  VAL792 
 PHE793  MET794  SER795  GLU796  ALA797  LYS798  CYS799  TRP800  GLU811  SER814 

> <Gold.Protein.RotatedAtoms>
  150.6947  134.4099  159.5156 H   0  0  0  0  0  0  0  0  0  0  0  0  # atno 6907 bound_to 6896
  152.1859  134.8711  160.0531 H   0  0  0  0  0  0  0  0  0  0  0  0  # atno 6908 bound_to 6896
  151.9685  133.3683  159.4099 H   0  0  0  0  0  0  0  0  0  0  0  0  # atno 6909 bound_to 6896
  145.7239  140.9026  143.0615 H   0  0  0  0  0  0  0  0  0  0  0  0  # atno 7974 bound_to 7965
  156.2586  140.1996  156.6476 H   0  0  0  0  0  0  0  0  0  0  0  0  # atno 8008 bound_to 7997
  154.6561  140.0566  157.0035 H   0  0  0  0  0  0  0  0  0  0  0  0  # atno 8009 bound_to 7997
  155.1345  140.3237  155.4469 H   0  0  0  0  0  0  0  0  0  0  0  0  # atno 8010 bound_to 7997
  140.5037  143.2356  151.7709 H   0  0  0  0  0  0  0  0  0  0  0  0  # atno 10167 bound_to 10162
  157.5849  130.9011  149.9498 H   0  0  0  0  0  0  0  0  0  0  0  0  # atno 10718 bound_to 10713
  153.0824  135.4901  154.8529 H   0  0  0  0  0  0  0  0  0  0  0  0  # atno 10763 bound_to 10752
  154.7168  135.3031  154.9114 H   0  0  0  0  0  0  0  0  0  0  0  0  # atno 10764 bound_to 10752
  153.9790  135.6792  153.4802 H   0  0  0  0  0  0  0  0  0  0  0  0  # atno 10765 bound_to 10752
  139.8892  134.9495  156.6350 H   0  0  0  0  0  0  0  0  0  0  0  0  # atno 11005 bound_to 11000
  144.6909  139.9240  143.7469 LP  0  0  0  0  0  0  0  0  0  0  0  0  # atno 17320 bound_to 7965
  146.0600  139.3594  143.0587 LP  0  0  0  0  0  0  0  0  0  0  0  0  # atno 17321 bound_to 7965
  139.4878  144.4486  151.9680 LP  0  0  0  0  0  0  0  0  0  0  0  0  # atno 17342 bound_to 10162
  140.3576  144.3012  150.5938 LP  0  0  0  0  0  0  0  0  0  0  0  0  # atno 17343 bound_to 10162
  156.0898  130.3664  150.0417 LP  0  0  0  0  0  0  0  0  0  0  0  0  # atno 17370 bound_to 10713
  156.8550  130.9472  151.3622 LP  0  0  0  0  0  0  0  0  0  0  0  0  # atno 17371 bound_to 10713
  140.7638  133.8796  155.8438 LP  0  0  0  0  0  0  0  0  0  0  0  0  # atno 17394 bound_to 11000
  140.9900  134.1291  157.4417 LP  0  0  0  0  0  0  0  0  0  0  0  0  # atno 17395 bound_to 11000

$$$$
