AV-unprocessed.smi:3306|AV-procd|sdf|12702|dock4
  -GOLD-   2272019 33D 1   1.00000     0.00000
 Structure written by MMmdl.
 45 46  0  0  0  0  0  0  0  0  3 V2000
  143.9386  136.0228  151.4748 C   0  0  0  0  0  0  0  0  0  0  0  0
  145.4335  135.9983  151.1003 C   0  0  0  0  0  0  0  0  0  0  0  0
  145.9931  134.5661  151.0961 C   0  0  0  0  0  0  0  0  0  0  0  0
  146.2732  136.9053  151.9370 N   0  3  2  0  0  0  0  0  0  0  0  0
  146.0592  136.7949  153.4055 C   0  0  0  0  0  0  0  0  0  0  0  0
  147.1310  137.5866  154.1754 C   0  0  0  0  0  0  0  0  0  0  0  0
  147.1768  139.0699  153.7511 C   0  0  2  0  0  0  0  0  0  0  0  0
  146.0015  139.8415  154.2233 N   0  3  0  0  0  0  0  0  0  0  0  0
  146.2142  141.2971  154.3691 C   0  0  0  0  0  0  0  0  0  0  0  0
  145.3660  141.8628  155.5164 C   0  0  0  0  0  0  0  0  0  0  0  0
  144.7724  143.2170  155.1768 C   0  0  0  0  0  0  0  0  0  0  0  0
  145.1750  143.9124  154.0168 C   0  0  0  0  0  0  0  0  0  0  0  0
  144.5883  145.1647  153.7488 C   0  0  0  0  0  0  0  0  0  0  0  0
  143.6262  145.6691  154.6452 C   0  0  0  0  0  0  0  0  0  0  0  0
  143.2924  144.8961  155.7752 C   0  0  0  0  0  0  0  0  0  0  0  0
  143.8488  143.6940  156.0412 N   0  0  0  0  0  0  0  0  0  0  0  0
  147.3093  139.1596  152.2194 C   0  0  0  0  0  0  0  0  0  0  0  0
  146.2448  138.3215  151.4859 C   0  0  0  0  0  0  0  0  0  0  0  0
  143.3577  135.4300  150.7673 H   0  0  0  0  0  0  0  0  0  0  0  0
  143.5321  137.0338  151.4561 H   0  0  0  0  0  0  0  0  0  0  0  0
  143.7587  135.6042  152.4653 H   0  0  0  0  0  0  0  0  0  0  0  0
  145.5150  136.3499  150.0708 H   0  0  0  0  0  0  0  0  0  0  0  0
  145.4601  133.9454  150.3751 H   0  0  0  0  0  0  0  0  0  0  0  0
  145.8970  134.0838  152.0686 H   0  0  0  0  0  0  0  0  0  0  0  0
  147.0476  134.5549  150.8187 H   0  0  0  0  0  0  0  0  0  0  0  0
  145.0683  137.1661  153.6702 H   0  0  0  0  0  0  0  0  0  0  0  0
  146.0991  135.7515  153.7168 H   0  0  0  0  0  0  0  0  0  0  0  0
  146.9750  137.4855  155.2488 H   0  0  0  0  0  0  0  0  0  0  0  0
  148.1047  137.1355  153.9788 H   0  0  0  0  0  0  0  0  0  0  0  0
  148.0623  139.5344  154.1880 H   0  0  0  0  0  0  0  0  0  0  0  0
  145.2659  139.7199  153.5413 H   0  0  0  0  0  0  0  0  0  0  0  0
  147.2676  141.5025  154.5595 H   0  0  0  0  0  0  0  0  0  0  0  0
  145.9506  141.7944  153.4346 H   0  0  0  0  0  0  0  0  0  0  0  0
  144.5544  141.1743  155.7576 H   0  0  0  0  0  0  0  0  0  0  0  0
  145.9713  141.9524  156.4195 H   0  0  0  0  0  0  0  0  0  0  0  0
  145.9157  143.5015  153.3467 H   0  0  0  0  0  0  0  0  0  0  0  0
  144.8712  145.7283  152.8719 H   0  0  0  0  0  0  0  0  0  0  0  0
  143.1560  146.6256  154.4715 H   0  0  0  0  0  0  0  0  0  0  0  0
  142.5583  145.2518  156.4831 H   0  0  0  0  0  0  0  0  0  0  0  0
  147.2578  140.1996  151.8942 H   0  0  0  0  0  0  0  0  0  0  0  0
  148.2983  138.8032  151.9272 H   0  0  0  0  0  0  0  0  0  0  0  0
  146.4332  138.3729  150.4129 H   0  0  0  0  0  0  0  0  0  0  0  0
  145.2533  138.7449  151.6516 H   0  0  0  0  0  0  0  0  0  0  0  0
  147.2214  136.5970  151.7733 H   0  0  0  0  0  0  0  0  0  0  0  0
  145.6841  139.4635  155.1044 H   0  0  0  0  0  0  0  0  0  0  0  0
  1  2  1  0  0  0  0
  1 19  1  0  0  0  0
  1 20  1  0  0  0  0
  1 21  1  0  0  0  0
  2  3  1  0  0  0  0
  2  4  1  0  0  0  0
  2 22  1  0  0  0  0
  3 23  1  0  0  0  0
  3 24  1  0  0  0  0
  3 25  1  0  0  0  0
  4 18  1  0  0  0  0
  4  5  1  0  0  0  0
  4 44  1  0  0  0  0
  5  6  1  0  0  0  0
  5 26  1  0  0  0  0
  5 27  1  0  0  0  0
  6  7  1  0  0  0  0
  6 28  1  0  0  0  0
  6 29  1  0  0  0  0
  7  8  1  0  0  0  0
  7 17  1  0  0  0  0
  7 30  1  0  0  0  0
  8  9  1  0  0  0  0
  8 31  1  0  0  0  0
  8 45  1  0  0  0  0
  9 10  1  0  0  0  0
  9 32  1  0  0  0  0
  9 33  1  0  0  0  0
 10 11  1  0  0  0  0
 10 34  1  0  0  0  0
 10 35  1  0  0  0  0
 11 16  1  0  0  0  0
 11 12  2  0  0  0  0
 12 13  1  0  0  0  0
 12 36  1  0  0  0  0
 13 14  2  0  0  0  0
 13 37  1  0  0  0  0
 14 15  1  0  0  0  0
 14 38  1  0  0  0  0
 15 16  2  0  0  0  0
 15 39  1  0  0  0  0
 17 18  1  0  0  0  0
 17 40  1  0  0  0  0
 17 41  1  0  0  0  0
 18 42  1  0  0  0  0
 18 43  1  0  0  0  0
M  CHG  1   4   1
M  CHG  1   8   1
M  END
> <s_m_source_file>
AV-unprocessed.smi

> <i_m_source_file_index>
3306

> <i_lp_mmshare_version>
43012

> <i_f3d_flags>
0

> <s_epik_input>
W0NIM11bQ0hdKFtDSDNdKU4xW0NIMl1bQ0gyXVtDSF0oW0NIMl1bQ0gyXTEpW05IXVtDSDJdW0NIMl1jMltjSF1bY0hdW2NIXVtjSF1uMg==

> <s_epik_cmdline>
J2VwaWtfcHl0aG9uJywgJy1waCcsICc3LjAnLCAnLXRuJywgJzgnLCAnLW1hJywgJzIwMCcsICctbWV0YWxfYmluZGluZycsICctaW1hZScsICc8aW5maWxlLm1hZT4nLCAnLW9tYWUnLCAnPG91dGZpbGUubWFlPic=

> <r_epik_Ionization_Penalty>
0.0800465

> <r_epik_Ionization_Penalty_Charging>
0.0790817

> <r_epik_Ionization_Penalty_Neutral>
0.000964829

> <r_epik_State_Penalty>
0.0665964

> <r_epik_Charging_Adjusted_Penalty>
0.145678

> <i_epik_Tot_Q>
2

> <i_epik_Tot_abs_Q>
2

> <r_epik_Metal_State_Penalty>
0.0683331

> <b_epik_Metal_Only>
0

> <s_lp_Force_Field>
OPLS_2005

> <r_lp_Energy>
31.8931

> <b_lp_Chiralities_Consistent>
1

> <s_lp_Variant>
AV-unprocessed.smi:3306-2

> <Gold.Version>
5.8.1

> <Gold.Id.Protein>
6NUR|6NUR_protein|mol2

> <Gold.PLP.Fitness>
42.7041

> <Gold.PLP.PLP>
-33.0231

> <Gold.PLP.part.hbond>
-2.0000

> <Gold.PLP.part.metal>
0.0000

> <Gold.PLP.part.buried>
2.1487

> <Gold.PLP.part.nonpolar>
-34.1034

> <Gold.PLP.part.repulsive>
0.1464

> <Gold.PLP.ligand.clash>
0.0000

> <Gold.PLP.ligand.torsion>
1.2174

> <Gold.PLP.Chemscore.Hbond>
4.0000

> <Gold.PLP.Chemscore.CHOScore>
0.0000

> <Gold.PLP.Chemscore.Metal>
0.0000

> <Gold.Chemscore.Hbonds>
donor molecule, donor type, donor heavy atom, donor atom, acceptor molecule, acceptor atom, score
      L1  H     4    44       P1  7948  2.00
      L1  H     8    31       P1 10175  1.89

> <Gold.PLP.Chemscore.Internal.Correction>
0.1158

> <Gold.Rescore>
     Score         DG    S(hbond)    S(metal)    S(lipo)     H(rot)  DE(clash)    DE(int)     intcor
     15.16     -19.06       1.91        0.00      93.55       1.47       2.36       1.54       ----

> <Gold.Chemscore.Fitness>
15.1598

> <Gold.Chemscore.DG>
-19.0582

> <Gold.Chemscore.ZeroCoef>
-5.4800

> <Gold.Chemscore.Hbond>
1.9135

> <Gold.Chemscore.Metal>
0.0000

> <Gold.Chemscore.Lipo>
93.5466

> <Gold.Chemscore.Internal_Hbond>
0.0000

> <Gold.Chemscore.DEClash>
2.3562

> <Gold.Chemscore.DEInternal>
1.5421

> <Gold.Chemscore.Rot>
1.4679

> <Gold.Chemscore.Internal.Correction>
   9.000000E+99

> <Gold.Chemscore.Hbonds>
donor molecule, donor type, donor heavy atom, donor atom, acceptor molecule, acceptor atom, score
      L1  H     4    44       P1  7948  1.00
      L1  H     8    31       P1 10175  0.85

> <Gold.Chemscore.Hbond.Weighted>
-6.3911

> <Gold.Chemscore.Metal.Weighted>
-0.0000

> <Gold.Chemscore.Lipo.Weighted>
-10.9449

> <Gold.Chemscore.Internal_Hbond.Weighted>
0.0000

> <Gold.Chemscore.DEClash.Weighted>
2.3562

> <Gold.Chemscore.DEInternal.Weighted>
1.5421

> <Gold.Chemscore.Rot.Weighted>
3.7579

> <Gold.Chemscore.Internal.Correction.Weighted>
   9.000000E+99

> <Gold.Protein.RotatedTorsions>
[ 6907 6896 6895 6894 ] final -163.17 input  -60.11 | X-H torsion
[ 7974 7965 7964 7962 ] final  -72.08 input  175.53 | X-H torsion
[ 8008 7997 7996 7995 ] final  159.88 input   59.86 | X-H torsion
[ 10167 10162 10161 10158 ] final -139.99 input  -65.29 | X-H torsion
[ 10718 10713 10712 10709 ] final   66.65 input   66.30 | X-H torsion
[ 10763 10752 10751 10750 ] final  116.89 input  -60.55 | X-H torsion
[ 11005 11000 10999 10996 ] final   25.79 input  -57.11 | X-H torsion

> <Gold.Protein.ActiveResidues>
 VAL166  LYS551  ARG553  GLY616  TRP617  ASP618  TYR619  PRO620  LYS621  CYS622 
 ASP623  PHE694  ASN695  SER759  ASP760  ASP761  ALA762  ILE779  LEU786  VAL792 
 PHE793  MET794  SER795  GLU796  ALA797  LYS798  CYS799  TRP800  GLU811  SER814 

> <Gold.Protein.RotatedAtoms>
  151.3918  133.3786  159.2721 H   0  0  0  0  0  0  0  0  0  0  0  0  # atno 6907 bound_to 6896
  150.9499  134.8901  159.7676 H   0  0  0  0  0  0  0  0  0  0  0  0  # atno 6908 bound_to 6896
  152.5107  134.3873  159.9424 H   0  0  0  0  0  0  0  0  0  0  0  0  # atno 6909 bound_to 6896
  145.6698  140.9225  143.0889 H   0  0  0  0  0  0  0  0  0  0  0  0  # atno 7974 bound_to 7965
  156.2209  140.1819  156.7478 H   0  0  0  0  0  0  0  0  0  0  0  0  # atno 8008 bound_to 7997
  154.5864  140.0658  156.9206 H   0  0  0  0  0  0  0  0  0  0  0  0  # atno 8009 bound_to 7997
  155.2412  140.3322  155.4294 H   0  0  0  0  0  0  0  0  0  0  0  0  # atno 8010 bound_to 7997
  139.8325  143.7428  152.2665 H   0  0  0  0  0  0  0  0  0  0  0  0  # atno 10167 bound_to 10162
  157.6182  130.9279  150.0137 H   0  0  0  0  0  0  0  0  0  0  0  0  # atno 10718 bound_to 10713
  153.5441  135.3553  155.2731 H   0  0  0  0  0  0  0  0  0  0  0  0  # atno 10763 bound_to 10752
  154.8714  135.4098  154.3010 H   0  0  0  0  0  0  0  0  0  0  0  0  # atno 10764 bound_to 10752
  153.3723  135.7065  153.6696 H   0  0  0  0  0  0  0  0  0  0  0  0  # atno 10765 bound_to 10752
  140.3440  134.2301  155.7687 H   0  0  0  0  0  0  0  0  0  0  0  0  # atno 11005 bound_to 11000
  144.7061  139.8557  143.7429 LP  0  0  0  0  0  0  0  0  0  0  0  0  # atno 17320 bound_to 7965
  146.1055  139.4054  143.0320 LP  0  0  0  0  0  0  0  0  0  0  0  0  # atno 17321 bound_to 7965
  139.7640  144.7497  151.0321 LP  0  0  0  0  0  0  0  0  0  0  0  0  # atno 17342 bound_to 10162
  140.7805  143.4719  151.0135 LP  0  0  0  0  0  0  0  0  0  0  0  0  # atno 17343 bound_to 10162
  156.1314  130.3643  149.9725 LP  0  0  0  0  0  0  0  0  0  0  0  0  # atno 17370 bound_to 10713
  156.7785  130.9212  151.3645 LP  0  0  0  0  0  0  0  0  0  0  0  0  # atno 17371 bound_to 10713
  141.2030  133.7922  157.0359 LP  0  0  0  0  0  0  0  0  0  0  0  0  # atno 17394 bound_to 11000
  140.0757  134.9677  157.1542 LP  0  0  0  0  0  0  0  0  0  0  0  0  # atno 17395 bound_to 11000

$$$$
