AV-unprocessed.smi:2122|AV-procd|sdf|8646|dock6
  -GOLD-   2272011393D 1   1.00000     0.00000
 Structure written by MMmdl.
 41 41  0  0  0  0  0  0  0  0  1 V2000
  152.0538  145.0722  158.8270 C   0  0  0  0  0  0  0  0  0  0  0  0
  152.7320  143.9090  159.5589 C   0  0  0  0  0  0  0  0  0  0  0  0
  152.7165  142.6102  158.7420 C   0  0  0  0  0  0  0  0  0  0  0  0
  151.3225  141.9611  158.7020 C   0  0  0  0  0  0  0  0  0  0  0  0
  151.1005  141.1910  157.4946 N   0  0  0  0  0  0  0  0  0  0  0  0
  150.0938  141.4736  156.5670 C   0  0  0  0  0  0  0  0  0  0  0  0
  149.2638  142.5582  156.8054 N   0  0  0  0  0  0  0  0  0  0  0  0
  149.9267  140.7321  155.4341 C   0  0  0  0  0  0  0  0  0  0  0  0
  148.9249  140.9958  154.5013 N   0  0  0  0  0  0  0  0  0  0  0  0
  148.0018  142.1013  154.7148 C   0  0  0  0  0  0  0  0  0  0  0  0
  148.5306  140.0636  153.4449 C   0  0  0  0  0  0  0  0  0  0  0  0
  147.1986  139.3453  153.7186 C   0  0  0  0  0  0  0  0  0  0  0  0
  146.9215  138.4695  152.6392 O   0  0  0  0  0  0  0  0  0  0  0  0
  146.8123  139.1518  151.4023 C   0  0  0  0  0  0  0  0  0  0  0  0
  150.8085  139.5909  155.1565 C   0  0  0  0  0  0  0  0  0  0  0  0
  150.7318  138.8431  154.1823 O   0  0  0  0  0  0  0  0  0  0  0  0
  151.8060  139.3753  156.1042 N   0  0  0  0  0  0  0  0  0  0  0  0
  152.0042  140.1282  157.2562 C   0  0  0  0  0  0  0  0  0  0  0  0
  152.9388  139.8484  158.0079 O   0  0  0  0  0  0  0  0  0  0  0  0
  152.4418  138.6088  155.9383 H   0  0  0  0  0  0  0  0  0  0  0  0
  152.0773  145.9789  159.4318 H   0  0  0  0  0  0  0  0  0  0  0  0
  151.0104  144.8445  158.6083 H   0  0  0  0  0  0  0  0  0  0  0  0
  152.5547  145.2887  157.8830 H   0  0  0  0  0  0  0  0  0  0  0  0
  153.7618  144.1826  159.7916 H   0  0  0  0  0  0  0  0  0  0  0  0
  152.2327  143.7453  160.5144 H   0  0  0  0  0  0  0  0  0  0  0  0
  153.0502  142.8179  157.7244 H   0  0  0  0  0  0  0  0  0  0  0  0
  153.4372  141.9097  159.1655 H   0  0  0  0  0  0  0  0  0  0  0  0
  151.1489  141.3055  159.5572 H   0  0  0  0  0  0  0  0  0  0  0  0
  150.5321  142.7090  158.7547 H   0  0  0  0  0  0  0  0  0  0  0  0
  149.3745  143.1368  157.6257 H   0  0  0  0  0  0  0  0  0  0  0  0
  148.5197  142.8126  156.1720 H   0  0  0  0  0  0  0  0  0  0  0  0
  148.3022  142.7112  155.5679 H   0  0  0  0  0  0  0  0  0  0  0  0
  146.9955  141.7271  154.9066 H   0  0  0  0  0  0  0  0  0  0  0  0
  147.9690  142.7465  153.8365 H   0  0  0  0  0  0  0  0  0  0  0  0
  148.4703  140.6061  152.5006 H   0  0  0  0  0  0  0  0  0  0  0  0
  149.3149  139.3151  153.3222 H   0  0  0  0  0  0  0  0  0  0  0  0
  147.2642  138.7783  154.6488 H   0  0  0  0  0  0  0  0  0  0  0  0
  146.3844  140.0639  153.8238 H   0  0  0  0  0  0  0  0  0  0  0  0
  146.6015  138.4373  150.6067 H   0  0  0  0  0  0  0  0  0  0  0  0
  147.7401  139.6685  151.1529 H   0  0  0  0  0  0  0  0  0  0  0  0
  146.0004  139.8800  151.4243 H   0  0  0  0  0  0  0  0  0  0  0  0
  1  2  1  0  0  0  0
  1 21  1  0  0  0  0
  1 22  1  0  0  0  0
  1 23  1  0  0  0  0
  2  3  1  0  0  0  0
  2 24  1  0  0  0  0
  2 25  1  0  0  0  0
  3  4  1  0  0  0  0
  3 26  1  0  0  0  0
  3 27  1  0  0  0  0
  4  5  1  0  0  0  0
  4 28  1  0  0  0  0
  4 29  1  0  0  0  0
  5 18  1  0  0  0  0
  5  6  1  0  0  0  0
  6  7  1  0  0  0  0
  6  8  2  0  0  0  0
  7 30  1  0  0  0  0
  7 31  1  0  0  0  0
  8  9  1  0  0  0  0
  8 15  1  0  0  0  0
  9 10  1  0  0  0  0
  9 11  1  0  0  0  0
 10 32  1  0  0  0  0
 10 33  1  0  0  0  0
 10 34  1  0  0  0  0
 11 12  1  0  0  0  0
 11 35  1  0  0  0  0
 11 36  1  0  0  0  0
 12 13  1  0  0  0  0
 12 37  1  0  0  0  0
 12 38  1  0  0  0  0
 13 14  1  0  0  0  0
 14 39  1  0  0  0  0
 14 40  1  0  0  0  0
 14 41  1  0  0  0  0
 15 16  2  0  0  0  0
 15 17  1  0  0  0  0
 17 20  1  0  0  0  0
 17 18  1  0  0  0  0
 18 19  2  0  0  0  0
M  END
> <s_m_source_file>
AV-unprocessed.smi

> <i_m_source_file_index>
2122

> <i_lp_mmshare_version>
43012

> <i_f3d_flags>
0

> <s_epik_input>
W0NIM11bQ0gyXVtDSDJdW0NIMl1uMWMoW05IMl0pYyhjKD1PKVtuSF1jMT1PKU4oW0NIM10pW0NIMl1bQ0gyXU9bQ0gzXQ==

> <s_epik_cmdline>
J2VwaWtfcHl0aG9uJywgJy1waCcsICc3LjAnLCAnLXRuJywgJzgnLCAnLW1hJywgJzIwMCcsICctbWV0YWxfYmluZGluZycsICctaW1hZScsICc8aW5maWxlLm1hZT4nLCAnLW9tYWUnLCAnPG91dGZpbGUubWFlPic=

> <r_lp_tautomer_probability>
1

> <r_epik_Ionization_Penalty>
2.26322e-05

> <r_epik_Ionization_Penalty_Charging>
2.75876e-06

> <r_epik_Ionization_Penalty_Neutral>
1.98734e-05

> <r_epik_State_Penalty>
-0

> <r_epik_Charging_Adjusted_Penalty>
2.75876e-06

> <i_epik_Tot_Q>
0

> <i_epik_Tot_abs_Q>
0

> <r_epik_Metal_State_Penalty>
-0

> <b_epik_Metal_Only>
0

> <s_epik_Chemistry_Notes>
This compound has an imine and may undergo hydrolysis.

> <s_lp_Force_Field>
OPLS_2005

> <r_lp_Energy>
20.5532

> <b_lp_Chiralities_Consistent>
1

> <s_lp_Variant>
AV-unprocessed.smi:2122-1

> <Gold.Version>
5.8.1

> <Gold.Id.Protein>
6NUR|6NUR_protein|mol2

> <Gold.PLP.Fitness>
38.7465

> <Gold.PLP.PLP>
-35.7004

> <Gold.PLP.part.hbond>
-2.2062

> <Gold.PLP.part.metal>
0.0000

> <Gold.PLP.part.buried>
4.1400

> <Gold.PLP.part.nonpolar>
-37.3265

> <Gold.PLP.part.repulsive>
0.6247

> <Gold.PLP.ligand.clash>
20.2349

> <Gold.PLP.ligand.torsion>
0.3651

> <Gold.PLP.Chemscore.Hbond>
1.1920

> <Gold.PLP.Chemscore.CHOScore>
0.0000

> <Gold.PLP.Chemscore.Metal>
0.0000

> <Gold.Chemscore.Hbonds>
donor molecule, donor type, donor heavy atom, donor atom, acceptor molecule, acceptor atom, score
      L1  H     7    31       P1  8028  0.13
      P1  H  7997  8010       L1    19  1.00

> <Gold.PLP.Chemscore.Internal.Correction>
20.4353

> <Gold.Rescore>
     Score         DG    S(hbond)    S(metal)    S(lipo)     H(rot)  DE(clash)    DE(int)     intcor
      6.81     -13.34       1.07        0.00      83.82       2.16       2.57       3.96       ----

> <Gold.Chemscore.Fitness>
6.8127

> <Gold.Chemscore.DG>
-13.3438

> <Gold.Chemscore.ZeroCoef>
-5.4800

> <Gold.Chemscore.Hbond>
1.0722

> <Gold.Chemscore.Metal>
0.0000

> <Gold.Chemscore.Lipo>
83.8195

> <Gold.Chemscore.Internal_Hbond>
0.0000

> <Gold.Chemscore.DEClash>
2.5723

> <Gold.Chemscore.DEInternal>
3.9588

> <Gold.Chemscore.Rot>
2.1579

> <Gold.Chemscore.Internal.Correction>
   9.000000E+99

> <Gold.Chemscore.Hbonds>
donor molecule, donor type, donor heavy atom, donor atom, acceptor molecule, acceptor atom, score
      L1  H     7    31       P1  8028  0.13
      P1  H  7997  8010       L1    19  0.60

> <Gold.Chemscore.Hbond.Weighted>
-3.5810

> <Gold.Chemscore.Metal.Weighted>
-0.0000

> <Gold.Chemscore.Lipo.Weighted>
-9.8069

> <Gold.Chemscore.Internal_Hbond.Weighted>
0.0000

> <Gold.Chemscore.DEClash.Weighted>
2.5723

> <Gold.Chemscore.DEInternal.Weighted>
3.9588

> <Gold.Chemscore.Rot.Weighted>
5.5241

> <Gold.Chemscore.Internal.Correction.Weighted>
   9.000000E+99

> <Gold.Protein.RotatedTorsions>
[ 6907 6896 6895 6894 ] final -141.02 input  -60.11 | X-H torsion
[ 7974 7965 7964 7962 ] final  -24.65 input  175.53 | X-H torsion
[ 8008 7997 7996 7995 ] final   36.79 input   59.86 | X-H torsion
[ 10167 10162 10161 10158 ] final  127.89 input  -65.29 | X-H torsion
[ 10718 10713 10712 10709 ] final  152.21 input   66.30 | X-H torsion
[ 10763 10752 10751 10750 ] final -112.42 input  -60.55 | X-H torsion
[ 11005 11000 10999 10996 ] final -105.18 input  -57.11 | X-H torsion

> <Gold.Protein.ActiveResidues>
 VAL166  LYS551  ARG553  GLY616  TRP617  ASP618  TYR619  PRO620  LYS621  CYS622 
 ASP623  PHE694  ASN695  SER759  ASP760  ASP761  ALA762  ILE779  LEU786  VAL792 
 PHE793  MET794  SER795  GLU796  ALA797  LYS798  CYS799  TRP800  GLU811  SER814 

> <Gold.Protein.RotatedAtoms>
  151.0683  133.5487  159.2628 H   0  0  0  0  0  0  0  0  0  0  0  0  # atno 6907 bound_to 6896
  151.2436  135.0597  159.9044 H   0  0  0  0  0  0  0  0  0  0  0  0  # atno 6908 bound_to 6896
  152.5408  134.0454  159.8140 H   0  0  0  0  0  0  0  0  0  0  0  0  # atno 6909 bound_to 6896
  146.1541  140.4781  142.8599 H   0  0  0  0  0  0  0  0  0  0  0  0  # atno 7974 bound_to 7965
  155.1931  140.3309  155.4355 H   0  0  0  0  0  0  0  0  0  0  0  0  # atno 8008 bound_to 7997
  156.2435  140.1907  156.6973 H   0  0  0  0  0  0  0  0  0  0  0  0  # atno 8009 bound_to 7997
  154.6192  140.0598  156.9579 H   0  0  0  0  0  0  0  0  0  0  0  0  # atno 8010 bound_to 7997
  139.5555  144.6845  151.4196 H   0  0  0  0  0  0  0  0  0  0  0  0  # atno 10167 bound_to 10162
  157.2607  131.0797  151.1667 H   0  0  0  0  0  0  0  0  0  0  0  0  # atno 10718 bound_to 10713
  154.8348  135.4491  154.1190 H   0  0  0  0  0  0  0  0  0  0  0  0  # atno 10763 bound_to 10752
  153.2431  135.6918  153.7767 H   0  0  0  0  0  0  0  0  0  0  0  0  # atno 10764 bound_to 10752
  153.7107  135.3357  155.3221 H   0  0  0  0  0  0  0  0  0  0  0  0  # atno 10765 bound_to 10752
  141.1066  133.8786  157.1702 H   0  0  0  0  0  0  0  0  0  0  0  0  # atno 11005 bound_to 11000
  144.7941  140.6088  143.6522 LP  0  0  0  0  0  0  0  0  0  0  0  0  # atno 17320 bound_to 7965
  145.4752  139.1500  143.3792 LP  0  0  0  0  0  0  0  0  0  0  0  0  # atno 17321 bound_to 7965
  140.6826  143.8046  150.7143 LP  0  0  0  0  0  0  0  0  0  0  0  0  # atno 17342 bound_to 10162
  140.1504  143.4362  152.2135 LP  0  0  0  0  0  0  0  0  0  0  0  0  # atno 17343 bound_to 10162
  157.3178  130.6922  149.6252 LP  0  0  0  0  0  0  0  0  0  0  0  0  # atno 17370 bound_to 10713
  155.9664  130.4344  150.5048 LP  0  0  0  0  0  0  0  0  0  0  0  0  # atno 17371 bound_to 10713
  139.9939  135.0054  157.0037 LP  0  0  0  0  0  0  0  0  0  0  0  0  # atno 17394 bound_to 11000
  140.4887  134.1215  155.7229 LP  0  0  0  0  0  0  0  0  0  0  0  0  # atno 17395 bound_to 11000

$$$$
