AV-unprocessed.smi:1120|AV-procd|sdf|4820|dock1
  -GOLD-   22720 3373D 1   1.00000     0.00000
 Structure written by MMmdl.
 49 50  0  0  0  0  0  0  0  0  2 V2000
  152.8127  142.0639  161.2846 C   0  0  0  0  0  0  0  0  0  0  0  0
  151.8409  142.2143  160.1056 C   0  0  2  0  0  0  0  0  0  0  0  0
  151.6732  140.8874  159.3398 C   0  0  0  0  0  0  0  0  0  0  0  0
  150.7010  141.0338  158.1580 C   0  0  0  0  0  0  0  0  0  0  0  0
  151.1446  142.1596  157.2086 C   0  0  1  0  0  0  0  0  0  0  0  0
  150.1613  142.3200  156.1358 N   0  0  0  0  0  0  0  0  0  0  0  0
  149.8289  141.0499  155.0137 S   0  0  0  0  0  0  0  0  0  0  0  0
  149.3104  141.6784  153.7891 O   0  0  0  0  0  0  0  0  0  0  0  0
  151.0261  140.1962  154.9617 O   0  0  0  0  0  0  0  0  0  0  0  0
  148.4503  140.1189  155.8271 C   0  0  0  0  0  0  0  0  0  0  0  0
  147.3068  141.0592  156.2057 C   0  0  0  0  0  0  0  0  0  0  0  0
  146.9830  141.1917  157.3855 O   0  0  0  0  0  0  0  0  0  0  0  0
  146.6995  141.7039  155.1977 N   0  0  0  0  0  0  0  0  0  0  0  0
  145.6047  142.6533  155.3518 C   0  0  0  0  0  0  0  0  0  0  0  0
  145.6453  143.7466  154.2707 C   0  0  0  0  0  0  0  0  0  0  0  0
  144.5315  144.7607  154.4414 C   0  0  0  0  0  0  0  0  0  0  0  0
  144.4057  145.5473  155.6068 C   0  0  0  0  0  0  0  0  0  0  0  0
  143.3393  146.4651  155.7069 C   0  0  0  0  0  0  0  0  0  0  0  0
  142.4217  146.5761  154.6417 C   0  0  0  0  0  0  0  0  0  0  0  0
  142.5939  145.7647  153.5018 C   0  0  0  0  0  0  0  0  0  0  0  0
  143.6283  144.8973  153.4435 N   0  3  0  0  0  0  0  0  0  0  0  0
  151.3202  143.4891  157.9634 C   0  0  0  0  0  0  0  0  0  0  0  0
  152.2878  143.3356  159.1476 C   0  0  0  0  0  0  0  0  0  0  0  0
  153.8119  141.7910  160.9437 H   0  0  0  0  0  0  0  0  0  0  0  0
  152.4750  141.2917  161.9761 H   0  0  0  0  0  0  0  0  0  0  0  0
  152.8955  142.9949  161.8463 H   0  0  0  0  0  0  0  0  0  0  0  0
  150.8683  142.4904  160.5156 H   0  0  0  0  0  0  0  0  0  0  0  0
  152.6426  140.5489  158.9716 H   0  0  0  0  0  0  0  0  0  0  0  0
  151.3115  140.1103  160.0139 H   0  0  0  0  0  0  0  0  0  0  0  0
  150.6375  140.0901  157.6147 H   0  0  0  0  0  0  0  0  0  0  0  0
  149.6991  141.2406  158.5373 H   0  0  0  0  0  0  0  0  0  0  0  0
  152.1023  141.8792  156.7681 H   0  0  0  0  0  0  0  0  0  0  0  0
  150.0379  143.2651  155.7741 H   0  0  0  0  0  0  0  0  0  0  0  0
  148.1109  139.3162  155.1734 H   0  0  0  0  0  0  0  0  0  0  0  0
  148.8496  139.6594  156.7316 H   0  0  0  0  0  0  0  0  0  0  0  0
  147.0250  141.5295  154.2578 H   0  0  0  0  0  0  0  0  0  0  0  0
  144.6677  142.0995  155.2878 H   0  0  0  0  0  0  0  0  0  0  0  0
  145.6368  143.0982  156.3478 H   0  0  0  0  0  0  0  0  0  0  0  0
  146.6024  144.2694  154.2950 H   0  0  0  0  0  0  0  0  0  0  0  0
  145.5677  143.2963  153.2800 H   0  0  0  0  0  0  0  0  0  0  0  0
  145.1149  145.4476  156.4159 H   0  0  0  0  0  0  0  0  0  0  0  0
  143.2266  147.0756  156.5910 H   0  0  0  0  0  0  0  0  0  0  0  0
  141.5979  147.2725  154.6991 H   0  0  0  0  0  0  0  0  0  0  0  0
  141.9408  145.7825  152.6416 H   0  0  0  0  0  0  0  0  0  0  0  0
  151.6926  144.2593  157.2879 H   0  0  0  0  0  0  0  0  0  0  0  0
  150.3537  143.8385  158.3293 H   0  0  0  0  0  0  0  0  0  0  0  0
  152.3565  144.2813  159.6863 H   0  0  0  0  0  0  0  0  0  0  0  0
  153.2894  143.1220  158.7714 H   0  0  0  0  0  0  0  0  0  0  0  0
  143.7328  144.3198  152.6091 H   0  0  0  0  0  0  0  0  0  0  0  0
  1  2  1  0  0  0  0
  1 24  1  0  0  0  0
  1 25  1  0  0  0  0
  1 26  1  0  0  0  0
  2 23  1  0  0  0  0
  2  3  1  0  0  0  0
  2 27  1  0  0  0  0
  3  4  1  0  0  0  0
  3 28  1  0  0  0  0
  3 29  1  0  0  0  0
  4  5  1  0  0  0  0
  4 30  1  0  0  0  0
  4 31  1  0  0  0  0
  5  6  1  0  0  0  0
  5 22  1  0  0  0  0
  5 32  1  0  0  0  0
  6  7  1  0  0  0  0
  6 33  1  0  0  0  0
  7  8  2  0  0  0  0
  7  9  2  0  0  0  0
  7 10  1  0  0  0  0
 10 11  1  0  0  0  0
 10 34  1  0  0  0  0
 10 35  1  0  0  0  0
 11 12  2  0  0  0  0
 11 13  1  0  0  0  0
 13 14  1  0  0  0  0
 13 36  1  0  0  0  0
 14 15  1  0  0  0  0
 14 37  1  0  0  0  0
 14 38  1  0  0  0  0
 15 16  1  0  0  0  0
 15 39  1  0  0  0  0
 15 40  1  0  0  0  0
 16 21  1  0  0  0  0
 16 17  2  0  0  0  0
 17 18  1  0  0  0  0
 17 41  1  0  0  0  0
 18 19  2  0  0  0  0
 18 42  1  0  0  0  0
 19 20  1  0  0  0  0
 19 43  1  0  0  0  0
 20 21  2  0  0  0  0
 20 44  1  0  0  0  0
 21 49  1  0  0  0  0
 22 23  1  0  0  0  0
 22 45  1  0  0  0  0
 22 46  1  0  0  0  0
 23 47  1  0  0  0  0
 23 48  1  0  0  0  0
M  CHG  1  21   1
M  END
> <s_m_source_file>
AV-unprocessed.smi

> <i_m_source_file_index>
1120

> <i_lp_mmshare_version>
43012

> <i_f3d_flags>
0

> <s_epik_input>
W0NIM11bQ0BASF0xW0NIMl1bQ0gyXVtDQEhdKFtDSDJdW0NIMl0xKVtOSF1TKD1PKSg9TylbQ0gyXUMoPU8pW05IXVtDSDJdW0NIMl1jMltjSF1bY0hdW2NIXVtjSF1uMg==

> <s_epik_cmdline>
J2VwaWtfcHl0aG9uJywgJy1waCcsICc3LjAnLCAnLXRuJywgJzgnLCAnLW1hJywgJzIwMCcsICctbWV0YWxfYmluZGluZycsICctaW1hZScsICc8aW5maWxlLm1hZT4nLCAnLW9tYWUnLCAnPG91dGZpbGUubWFlPic=

> <r_epik_Ionization_Penalty>
1.97387

> <r_epik_Ionization_Penalty_Charging>
1.97382

> <r_epik_Ionization_Penalty_Neutral>
4.57635e-05

> <r_epik_State_Penalty>
2.10057

> <r_epik_Charging_Adjusted_Penalty>
4.07439

> <i_epik_Tot_Q>
1

> <i_epik_Tot_abs_Q>
1

> <r_epik_Metal_State_Penalty>
2.15877

> <b_epik_Metal_Only>
0

> <s_lp_Force_Field>
OPLS_2005

> <r_lp_Energy>
9.01473

> <b_lp_Chiralities_Consistent>
1

> <s_lp_Variant>
AV-unprocessed.smi:1120-3

> <Gold.Version>
5.8.1

> <Gold.Id.Protein>
6NUR|6NUR_protein|mol2

> <Gold.PLP.Fitness>
57.1756

> <Gold.PLP.PLP>
-43.4508

> <Gold.PLP.part.hbond>
-4.8336

> <Gold.PLP.part.metal>
0.0000

> <Gold.PLP.part.buried>
-8.2398

> <Gold.PLP.part.nonpolar>
-31.2081

> <Gold.PLP.part.repulsive>
0.4567

> <Gold.PLP.ligand.clash>
0.0000

> <Gold.PLP.ligand.torsion>
0.8182

> <Gold.PLP.Chemscore.Hbond>
4.6880

> <Gold.PLP.Chemscore.CHOScore>
0.0000

> <Gold.PLP.Chemscore.Metal>
0.0000

> <Gold.Chemscore.Hbonds>
donor molecule, donor type, donor heavy atom, donor atom, acceptor molecule, acceptor atom, score
      L1  H     6    33       P1  8028  0.93
      L1  H    21    49       P1 10174  0.82
      P1  H  7989  7998       L1     9  0.75
      P1  H  8011  8017       L1     8  0.66

> <Gold.PLP.Chemscore.Internal.Correction>
1.2972

> <Gold.Rescore>
     Score         DG    S(hbond)    S(metal)    S(lipo)     H(rot)  DE(clash)    DE(int)     intcor
     22.57     -23.45       3.36        0.00     102.39       2.05       0.03       0.85       ----

> <Gold.Chemscore.Fitness>
22.5663

> <Gold.Chemscore.DG>
-23.4469

> <Gold.Chemscore.ZeroCoef>
-5.4800

> <Gold.Chemscore.Hbond>
3.3611

> <Gold.Chemscore.Metal>
0.0000

> <Gold.Chemscore.Lipo>
102.3888

> <Gold.Chemscore.Internal_Hbond>
0.0000

> <Gold.Chemscore.DEClash>
0.0296

> <Gold.Chemscore.DEInternal>
0.8510

> <Gold.Chemscore.Rot>
2.0463

> <Gold.Chemscore.Internal.Correction>
   9.000000E+99

> <Gold.Chemscore.Hbonds>
donor molecule, donor type, donor heavy atom, donor atom, acceptor molecule, acceptor atom, score
      L1  H     6    33       P1  8028  0.90
      L1  H    21    49       P1 10174  0.38
      P1  H  7989  7998       L1     9  0.09
      P1  H  8011  8017       L1     8  0.66

> <Gold.Chemscore.Hbond.Weighted>
-11.2260

> <Gold.Chemscore.Metal.Weighted>
-0.0000

> <Gold.Chemscore.Lipo.Weighted>
-11.9795

> <Gold.Chemscore.Internal_Hbond.Weighted>
0.0000

> <Gold.Chemscore.DEClash.Weighted>
0.0296

> <Gold.Chemscore.DEInternal.Weighted>
0.8510

> <Gold.Chemscore.Rot.Weighted>
5.2386

> <Gold.Chemscore.Internal.Correction.Weighted>
   9.000000E+99

> <Gold.Protein.RotatedTorsions>
[ 6907 6896 6895 6894 ] final  127.18 input  -60.11 | X-H torsion
[ 7974 7965 7964 7962 ] final  109.70 input  175.53 | X-H torsion
[ 8008 7997 7996 7995 ] final   27.16 input   59.86 | X-H torsion
[ 10167 10162 10161 10158 ] final  -64.90 input  -65.29 | X-H torsion
[ 10718 10713 10712 10709 ] final  160.66 input   66.30 | X-H torsion
[ 10763 10752 10751 10750 ] final -109.78 input  -60.55 | X-H torsion
[ 11005 11000 10999 10996 ] final  -45.95 input  -57.11 | X-H torsion

> <Gold.Protein.ActiveResidues>
 VAL166  LYS551  ARG553  GLY616  TRP617  ASP618  TYR619  PRO620  LYS621  CYS622 
 ASP623  PHE694  ASN695  SER759  ASP760  ASP761  ALA762  ILE779  LEU786  VAL792 
 PHE793  MET794  SER795  GLU796  ALA797  LYS798  CYS799  TRP800  GLU811  SER814 

> <Gold.Protein.RotatedAtoms>
  152.3836  133.6580  159.6180 H   0  0  0  0  0  0  0  0  0  0  0  0  # atno 6907 bound_to 6896
  150.7761  133.9072  159.3367 H   0  0  0  0  0  0  0  0  0  0  0  0  # atno 6908 bound_to 6896
  151.6873  135.0953  160.0278 H   0  0  0  0  0  0  0  0  0  0  0  0  # atno 6909 bound_to 6896
  145.2644  139.2690  143.3999 H   0  0  0  0  0  0  0  0  0  0  0  0  # atno 7974 bound_to 7965
  155.0385  140.3166  155.4733 H   0  0  0  0  0  0  0  0  0  0  0  0  # atno 8008 bound_to 7997
  156.2859  140.2167  156.5451 H   0  0  0  0  0  0  0  0  0  0  0  0  # atno 8009 bound_to 7997
  154.7310  140.0481  157.0714 H   0  0  0  0  0  0  0  0  0  0  0  0  # atno 8010 bound_to 7997
  140.5768  143.2323  151.6425 H   0  0  0  0  0  0  0  0  0  0  0  0  # atno 10167 bound_to 10162
  157.1474  131.0555  151.2297 H   0  0  0  0  0  0  0  0  0  0  0  0  # atno 10718 bound_to 10713
  154.8212  135.4588  154.0784 H   0  0  0  0  0  0  0  0  0  0  0  0  # atno 10763 bound_to 10752
  153.2136  135.6885  153.8090 H   0  0  0  0  0  0  0  0  0  0  0  0  # atno 10764 bound_to 10752
  153.7533  135.3295  155.3301 H   0  0  0  0  0  0  0  0  0  0  0  0  # atno 10765 bound_to 10752
  141.0548  133.6730  156.3085 H   0  0  0  0  0  0  0  0  0  0  0  0  # atno 11005 bound_to 11000
  146.3265  140.3070  142.8624 LP  0  0  0  0  0  0  0  0  0  0  0  0  # atno 17320 bound_to 7965
  144.9390  140.8057  143.5642 LP  0  0  0  0  0  0  0  0  0  0  0  0  # atno 17321 bound_to 7965
  139.5147  144.3401  152.0748 LP  0  0  0  0  0  0  0  0  0  0  0  0  # atno 17342 bound_to 10162
  140.2546  144.4132  150.6209 LP  0  0  0  0  0  0  0  0  0  0  0  0  # atno 17343 bound_to 10162
  157.4252  130.7460  149.6945 LP  0  0  0  0  0  0  0  0  0  0  0  0  # atno 17370 bound_to 10713
  155.9777  130.4060  150.3696 LP  0  0  0  0  0  0  0  0  0  0  0  0  # atno 17371 bound_to 10713
  140.5985  134.5578  157.5513 LP  0  0  0  0  0  0  0  0  0  0  0  0  # atno 17394 bound_to 11000
  139.9381  134.7838  156.0750 LP  0  0  0  0  0  0  0  0  0  0  0  0  # atno 17395 bound_to 11000

$$$$
