AV-unprocessed.smi:1121|AV-procd|sdf|4826|dock6
  -GOLD-   22720 3383D 1   1.00000     0.00000
 Structure written by MMmdl.
 46 48  0  0  0  0  0  0  0  0  1 V2000
  150.4238  134.4388  156.0144 O   0  0  0  0  0  0  0  0  0  0  0  0
  149.8952  134.9168  155.0107 C   0  0  0  0  0  0  0  0  0  0  0  0
  149.2208  134.2186  154.0824 N   0  0  0  0  0  0  0  0  0  0  0  0
  148.9262  132.8256  154.0726 C   0  0  0  0  0  0  0  0  0  0  0  0
  149.7908  131.8654  154.6516 C   0  0  0  0  0  0  0  0  0  0  0  0
  149.4596  130.5016  154.5631 C   0  0  0  0  0  0  0  0  0  0  0  0
  148.2800  130.1437  153.8874 C   0  0  0  0  0  0  0  0  0  0  0  0
  147.4534  131.0445  153.3184 N   0  0  0  0  0  0  0  0  0  0  0  0
  147.7622  132.3618  153.4019 C   0  0  0  0  0  0  0  0  0  0  0  0
  146.8655  133.2764  152.8136 N   0  0  0  0  0  0  0  0  0  0  0  0
  146.7622  133.2702  151.3578 C   0  0  0  0  0  0  0  0  0  0  0  0
  145.9253  134.4722  150.8877 C   0  0  0  0  0  0  0  0  0  0  0  0
  144.6503  134.4440  151.5232 O   0  0  0  0  0  0  0  0  0  0  0  0
  144.7561  134.5245  152.9420 C   0  0  0  0  0  0  0  0  0  0  0  0
  145.5645  133.3274  153.4704 C   0  0  0  0  0  0  0  0  0  0  0  0
  149.9045  136.2249  154.7178 N   0  0  0  0  0  0  0  0  0  0  0  0
  150.5278  137.2673  155.5279 C   0  0  0  0  0  0  0  0  0  0  0  0
  149.4618  138.2332  156.0875 C   0  0  0  0  0  0  0  0  0  0  0  0
  150.1037  139.3871  156.8744 C   0  0  0  0  0  0  0  0  0  0  0  0
  151.1364  140.1392  156.0206 C   0  0  0  0  0  0  0  0  0  0  0  0
  152.2038  139.1803  155.4708 C   0  0  0  0  0  0  0  0  0  0  0  0
  151.5631  138.0291  154.6786 C   0  0  0  0  0  0  0  0  0  0  0  0
  148.7682  134.7601  153.3603 H   0  0  0  0  0  0  0  0  0  0  0  0
  150.7085  132.1493  155.1433 H   0  0  0  0  0  0  0  0  0  0  0  0
  150.1001  129.7475  154.9959 H   0  0  0  0  0  0  0  0  0  0  0  0
  147.9947  129.1060  153.7965 H   0  0  0  0  0  0  0  0  0  0  0  0
  147.7577  133.3106  150.9140 H   0  0  0  0  0  0  0  0  0  0  0  0
  146.2933  132.3432  151.0248 H   0  0  0  0  0  0  0  0  0  0  0  0
  146.4335  135.4118  151.1110 H   0  0  0  0  0  0  0  0  0  0  0  0
  145.7853  134.4341  149.8075 H   0  0  0  0  0  0  0  0  0  0  0  0
  145.2263  135.4664  153.2293 H   0  0  0  0  0  0  0  0  0  0  0  0
  143.7557  134.5233  153.3743 H   0  0  0  0  0  0  0  0  0  0  0  0
  145.0286  132.3984  153.2718 H   0  0  0  0  0  0  0  0  0  0  0  0
  145.6747  133.4043  154.5523 H   0  0  0  0  0  0  0  0  0  0  0  0
  149.4417  136.5247  153.8724 H   0  0  0  0  0  0  0  0  0  0  0  0
  151.0533  136.7992  156.3628 H   0  0  0  0  0  0  0  0  0  0  0  0
  148.8670  138.6412  155.2690 H   0  0  0  0  0  0  0  0  0  0  0  0
  148.7672  137.6960  156.7342 H   0  0  0  0  0  0  0  0  0  0  0  0
  149.3325  140.0770  157.2181 H   0  0  0  0  0  0  0  0  0  0  0  0
  150.5873  138.9935  157.7693 H   0  0  0  0  0  0  0  0  0  0  0  0
  150.6323  140.6394  155.1926 H   0  0  0  0  0  0  0  0  0  0  0  0
  151.6095  140.9222  156.6138 H   0  0  0  0  0  0  0  0  0  0  0  0
  152.9014  139.7258  154.8347 H   0  0  0  0  0  0  0  0  0  0  0  0
  152.7902  138.7739  156.2958 H   0  0  0  0  0  0  0  0  0  0  0  0
  152.3397  137.3459  154.3326 H   0  0  0  0  0  0  0  0  0  0  0  0
  151.0847  138.4310  153.7842 H   0  0  0  0  0  0  0  0  0  0  0  0
  1  2  2  0  0  0  0
  2  3  1  0  0  0  0
  2 16  1  0  0  0  0
  3  4  1  0  0  0  0
  3 23  1  0  0  0  0
  4  9  1  0  0  0  0
  4  5  2  0  0  0  0
  5  6  1  0  0  0  0
  5 24  1  0  0  0  0
  6  7  2  0  0  0  0
  6 25  1  0  0  0  0
  7  8  1  0  0  0  0
  7 26  1  0  0  0  0
  8  9  2  0  0  0  0
  9 10  1  0  0  0  0
 10 15  1  0  0  0  0
 10 11  1  0  0  0  0
 11 12  1  0  0  0  0
 11 27  1  0  0  0  0
 11 28  1  0  0  0  0
 12 13  1  0  0  0  0
 12 29  1  0  0  0  0
 12 30  1  0  0  0  0
 13 14  1  0  0  0  0
 14 15  1  0  0  0  0
 14 31  1  0  0  0  0
 14 32  1  0  0  0  0
 15 33  1  0  0  0  0
 15 34  1  0  0  0  0
 16 17  1  0  0  0  0
 16 35  1  0  0  0  0
 17 22  1  0  0  0  0
 17 18  1  0  0  0  0
 17 36  1  0  0  0  0
 18 19  1  0  0  0  0
 18 37  1  0  0  0  0
 18 38  1  0  0  0  0
 19 20  1  0  0  0  0
 19 39  1  0  0  0  0
 19 40  1  0  0  0  0
 20 21  1  0  0  0  0
 20 41  1  0  0  0  0
 20 42  1  0  0  0  0
 21 22  1  0  0  0  0
 21 43  1  0  0  0  0
 21 44  1  0  0  0  0
 22 45  1  0  0  0  0
 22 46  1  0  0  0  0
M  END
> <s_m_source_file>
AV-unprocessed.smi

> <i_m_source_file_index>
1121

> <i_lp_mmshare_version>
43012

> <i_f3d_flags>
0

> <s_epik_input>
W0NIMl0xW0NIMl1bQ0gyXVtDSDJdW0NIMl1bQ0hdMVtOSF1DKD1PKVtOSF1jMltjSF1bY0hdW2NIXW5jMk4zW0NIMl1bQ0gyXU9bQ0gyXVtDSDJdMw==

> <s_epik_cmdline>
J2VwaWtfcHl0aG9uJywgJy1waCcsICc3LjAnLCAnLXRuJywgJzgnLCAnLW1hJywgJzIwMCcsICctbWV0YWxfYmluZGluZycsICctaW1hZScsICc8aW5maWxlLm1hZT4nLCAnLW9tYWUnLCAnPG91dGZpbGUubWFlPic=

> <r_lp_tautomer_probability>
1

> <r_epik_Ionization_Penalty>
0.00218153

> <r_epik_Ionization_Penalty_Charging>
0

> <r_epik_Ionization_Penalty_Neutral>
0.00218153

> <r_epik_State_Penalty>
0.00146907

> <r_epik_Charging_Adjusted_Penalty>
0.00146907

> <i_epik_Tot_Q>
0

> <i_epik_Tot_abs_Q>
0

> <r_epik_Metal_State_Penalty>
-0

> <b_epik_Metal_Only>
0

> <s_lp_Force_Field>
OPLS_2005

> <r_lp_Energy>
26.2081

> <b_lp_Chiralities_Consistent>
1

> <s_lp_Variant>
AV-unprocessed.smi:1121-1

> <Gold.Version>
5.8.1

> <Gold.Id.Protein>
6NUR|6NUR_protein|mol2

> <Gold.PLP.Fitness>
39.9743

> <Gold.PLP.PLP>
-34.5927

> <Gold.PLP.part.hbond>
-2.3565

> <Gold.PLP.part.metal>
0.0000

> <Gold.PLP.part.buried>
-4.4710

> <Gold.PLP.part.nonpolar>
-28.4975

> <Gold.PLP.part.repulsive>
0.4751

> <Gold.PLP.ligand.clash>
0.0000

> <Gold.PLP.ligand.torsion>
0.3067

> <Gold.PLP.Chemscore.Hbond>
1.9272

> <Gold.PLP.Chemscore.CHOScore>
0.0000

> <Gold.PLP.Chemscore.Metal>
0.0000

> <Gold.Chemscore.Hbonds>
donor molecule, donor type, donor heavy atom, donor atom, acceptor molecule, acceptor atom, score
      L1  H     3    23       P1  7948  0.83
      L1  H    16    35       P1  7948  0.90

> <Gold.PLP.Chemscore.Internal.Correction>
0.2134

> <Gold.Rescore>
     Score         DG    S(hbond)    S(metal)    S(lipo)     H(rot)  DE(clash)    DE(int)     intcor
     13.37     -14.97       1.29        0.00      70.34       1.18       0.04       1.57       ----

> <Gold.Chemscore.Fitness>
13.3683

> <Gold.Chemscore.DG>
-14.9750

> <Gold.Chemscore.ZeroCoef>
-5.4800

> <Gold.Chemscore.Hbond>
1.2865

> <Gold.Chemscore.Metal>
0.0000

> <Gold.Chemscore.Lipo>
70.3441

> <Gold.Chemscore.Internal_Hbond>
0.0000

> <Gold.Chemscore.DEClash>
0.0376

> <Gold.Chemscore.DEInternal>
1.5690

> <Gold.Chemscore.Rot>
1.1844

> <Gold.Chemscore.Internal.Correction>
   9.000000E+99

> <Gold.Chemscore.Hbonds>
donor molecule, donor type, donor heavy atom, donor atom, acceptor molecule, acceptor atom, score
      L1  H     3    23       P1  7948  0.27
      L1  H    16    35       P1  7948  0.71

> <Gold.Chemscore.Hbond.Weighted>
-4.2968

> <Gold.Chemscore.Metal.Weighted>
-0.0000

> <Gold.Chemscore.Lipo.Weighted>
-8.2303

> <Gold.Chemscore.Internal_Hbond.Weighted>
0.0000

> <Gold.Chemscore.DEClash.Weighted>
0.0376

> <Gold.Chemscore.DEInternal.Weighted>
1.5690

> <Gold.Chemscore.Rot.Weighted>
3.0321

> <Gold.Chemscore.Internal.Correction.Weighted>
   9.000000E+99

> <Gold.Protein.RotatedTorsions>
[ 6907 6896 6895 6894 ] final  100.37 input  -60.11 | X-H torsion
[ 7974 7965 7964 7962 ] final  -12.73 input  175.53 | X-H torsion
[ 8008 7997 7996 7995 ] final -176.83 input   59.86 | X-H torsion
[ 10167 10162 10161 10158 ] final  164.56 input  -65.29 | X-H torsion
[ 10718 10713 10712 10709 ] final  120.66 input   66.30 | X-H torsion
[ 10763 10752 10751 10750 ] final    9.03 input  -60.55 | X-H torsion
[ 11005 11000 10999 10996 ] final -146.61 input  -57.11 | X-H torsion

> <Gold.Protein.ActiveResidues>
 VAL166  LYS551  ARG553  GLY616  TRP617  ASP618  TYR619  PRO620  LYS621  CYS622 
 ASP623  PHE694  ASN695  SER759  ASP760  ASP761  ALA762  ILE779  LEU786  VAL792 
 PHE793  MET794  SER795  GLU796  ALA797  LYS798  CYS799  TRP800  GLU811  SER814 

> <Gold.Protein.RotatedAtoms>
  152.5373  134.0287  159.8014 H   0  0  0  0  0  0  0  0  0  0  0  0  # atno 6907 bound_to 6896
  151.0461  133.5656  159.2654 H   0  0  0  0  0  0  0  0  0  0  0  0  # atno 6908 bound_to 6896
  151.2608  135.0661  159.9151 H   0  0  0  0  0  0  0  0  0  0  0  0  # atno 6909 bound_to 6896
  146.2141  140.3101  142.8382 H   0  0  0  0  0  0  0  0  0  0  0  0  # atno 7974 bound_to 7965
  155.9996  140.1218  157.0560 H   0  0  0  0  0  0  0  0  0  0  0  0  # atno 8008 bound_to 7997
  154.4238  140.1109  156.5747 H   0  0  0  0  0  0  0  0  0  0  0  0  # atno 8009 bound_to 7997
  155.6231  140.3472  155.4660 H   0  0  0  0  0  0  0  0  0  0  0  0  # atno 8010 bound_to 7997
  139.4891  144.4223  151.9171 H   0  0  0  0  0  0  0  0  0  0  0  0  # atno 10167 bound_to 10162
  157.5874  131.1068  150.8066 H   0  0  0  0  0  0  0  0  0  0  0  0  # atno 10718 bound_to 10713
  153.2185  135.6878  153.8029 H   0  0  0  0  0  0  0  0  0  0  0  0  # atno 10763 bound_to 10752
  153.7236  135.3263  155.3272 H   0  0  0  0  0  0  0  0  0  0  0  0  # atno 10764 bound_to 10752
  154.8258  135.4619  154.1022 H   0  0  0  0  0  0  0  0  0  0  0  0  # atno 10765 bound_to 10752
  140.7802  134.3088  157.5048 H   0  0  0  0  0  0  0  0  0  0  0  0  # atno 11005 bound_to 11000
  144.8995  140.7624  143.5876 LP  0  0  0  0  0  0  0  0  0  0  0  0  # atno 17320 bound_to 7965
  145.3026  139.1845  143.4681 LP  0  0  0  0  0  0  0  0  0  0  0  0  # atno 17321 bound_to 7965
  140.3668  144.2905  150.5925 LP  0  0  0  0  0  0  0  0  0  0  0  0  # atno 17342 bound_to 10162
  140.5355  143.2234  151.8170 LP  0  0  0  0  0  0  0  0  0  0  0  0  # atno 17343 bound_to 10162
  156.8497  130.5076  149.5313 LP  0  0  0  0  0  0  0  0  0  0  0  0  # atno 17370 bound_to 10713
  156.0925  130.5907  150.9757 LP  0  0  0  0  0  0  0  0  0  0  0  0  # atno 17371 bound_to 10713
  139.8743  134.9313  156.3526 LP  0  0  0  0  0  0  0  0  0  0  0  0  # atno 17394 bound_to 11000
  140.9490  133.7463  156.0247 LP  0  0  0  0  0  0  0  0  0  0  0  0  # atno 17395 bound_to 11000

$$$$
