AV-unprocessed.smi:1870|AV-procd|sdf|7596|dock2
  -GOLD-   22720 9313D 1   1.00000     0.00000
 Structure written by MMmdl.
 48 50  0  0  0  0  0  0  0  0  2 V2000
  146.1826  133.4903  151.0966 C   0  0  0  0  0  0  0  0  0  0  0  0
  147.1507  132.8771  152.0722 C   0  0  0  0  0  0  0  0  0  0  0  0
  147.9346  133.6899  152.7014 N   0  0  0  0  0  0  0  0  0  0  0  0
  148.8483  133.2337  153.6320 N   0  0  0  0  0  0  0  0  0  0  0  0
  149.5956  134.3011  154.3128 C   0  0  0  0  0  0  0  0  0  0  0  0
  148.6671  135.3860  154.9052 C   0  0  1  0  0  0  0  0  0  0  0  0
  147.9736  134.8260  156.0016 O   0  0  0  0  0  0  0  0  0  0  0  0
  149.4310  136.6391  155.3900 C   0  0  0  0  0  0  0  0  0  0  0  0
  149.9028  137.5248  154.2891 N   0  3  2  0  0  0  0  0  0  0  0  0
  151.3362  137.9169  154.3514 C   0  0  0  0  0  0  0  0  0  0  0  0
  151.6440  138.7447  155.6119 C   0  0  0  0  0  0  0  0  0  0  0  0
  150.6050  139.8258  155.8672 C   0  0  0  0  0  0  0  0  0  0  0  0
  150.8657  140.8288  156.8230 C   0  0  0  0  0  0  0  0  0  0  0  0
  149.8938  141.8075  157.1054 C   0  0  0  0  0  0  0  0  0  0  0  0
  148.6558  141.7844  156.4356 C   0  0  0  0  0  0  0  0  0  0  0  0
  148.3894  140.7842  155.4811 C   0  0  0  0  0  0  0  0  0  0  0  0
  149.3585  139.8013  155.1917 C   0  0  0  0  0  0  0  0  0  0  0  0
  149.0567  138.7363  154.1409 C   0  0  0  0  0  0  0  0  0  0  0  0
  149.0457  131.9211  153.9455 C   0  0  0  0  0  0  0  0  0  0  0  0
  149.8876  131.5563  154.7670 O   0  0  0  0  0  0  0  0  0  0  0  0
  148.1531  131.0061  153.2312 C   0  0  0  0  0  0  0  0  0  0  0  0
  148.3047  129.6239  153.5540 C   0  0  0  0  0  0  0  0  0  0  0  0
  148.4456  128.5023  153.8025 N   0  0  0  0  0  0  0  0  0  0  0  0
  147.2364  131.4441  152.3326 C   0  0  0  0  0  0  0  0  0  0  0  0
  146.2826  130.5350  151.5702 C   0  0  0  0  0  0  0  0  0  0  0  0
  146.4045  133.1690  150.0789 H   0  0  0  0  0  0  0  0  0  0  0  0
  146.2219  134.5804  151.1147 H   0  0  0  0  0  0  0  0  0  0  0  0
  145.1590  133.1965  151.3296 H   0  0  0  0  0  0  0  0  0  0  0  0
  150.2108  133.8643  155.1016 H   0  0  0  0  0  0  0  0  0  0  0  0
  150.3010  134.7635  153.6192 H   0  0  0  0  0  0  0  0  0  0  0  0
  147.9285  135.6478  154.1506 H   0  0  0  0  0  0  0  0  0  0  0  0
  148.5667  134.7596  156.7347 H   0  0  0  0  0  0  0  0  0  0  0  0
  148.7794  137.2064  156.0565 H   0  0  0  0  0  0  0  0  0  0  0  0
  150.2888  136.3575  155.9982 H   0  0  0  0  0  0  0  0  0  0  0  0
  151.9977  137.0549  154.2836 H   0  0  0  0  0  0  0  0  0  0  0  0
  151.5565  138.5175  153.4673 H   0  0  0  0  0  0  0  0  0  0  0  0
  151.6895  138.0968  156.4884 H   0  0  0  0  0  0  0  0  0  0  0  0
  152.6288  139.2035  155.5195 H   0  0  0  0  0  0  0  0  0  0  0  0
  151.8095  140.8455  157.3485 H   0  0  0  0  0  0  0  0  0  0  0  0
  150.0965  142.5735  157.8395 H   0  0  0  0  0  0  0  0  0  0  0  0
  147.9104  142.5352  156.6537 H   0  0  0  0  0  0  0  0  0  0  0  0
  147.4389  140.7769  154.9678 H   0  0  0  0  0  0  0  0  0  0  0  0
  149.2359  139.1721  153.1572 H   0  0  0  0  0  0  0  0  0  0  0  0
  147.9997  138.4676  154.1686 H   0  0  0  0  0  0  0  0  0  0  0  0
  146.4891  129.4798  151.7466 H   0  0  0  0  0  0  0  0  0  0  0  0
  146.3615  130.7046  150.4960 H   0  0  0  0  0  0  0  0  0  0  0  0
  145.2528  130.7255  151.8744 H   0  0  0  0  0  0  0  0  0  0  0  0
  149.7842  136.9913  153.4395 H   0  0  0  0  0  0  0  0  0  0  0  0
  1  2  1  0  0  0  0
  1 26  1  0  0  0  0
  1 27  1  0  0  0  0
  1 28  1  0  0  0  0
  2 24  1  0  0  0  0
  2  3  2  0  0  0  0
  3  4  1  0  0  0  0
  4  5  1  0  0  0  0
  4 19  1  0  0  0  0
  5  6  1  0  0  0  0
  5 29  1  0  0  0  0
  5 30  1  0  0  0  0
  6  7  1  0  0  0  0
  6  8  1  0  0  0  0
  6 31  1  0  0  0  0
  7 32  1  0  0  0  0
  8  9  1  0  0  0  0
  8 33  1  0  0  0  0
  8 34  1  0  0  0  0
  9 18  1  0  0  0  0
  9 10  1  0  0  0  0
  9 48  1  0  0  0  0
 10 11  1  0  0  0  0
 10 35  1  0  0  0  0
 10 36  1  0  0  0  0
 11 12  1  0  0  0  0
 11 37  1  0  0  0  0
 11 38  1  0  0  0  0
 12 17  2  0  0  0  0
 12 13  1  0  0  0  0
 13 14  2  0  0  0  0
 13 39  1  0  0  0  0
 14 15  1  0  0  0  0
 14 40  1  0  0  0  0
 15 16  2  0  0  0  0
 15 41  1  0  0  0  0
 16 17  1  0  0  0  0
 16 42  1  0  0  0  0
 17 18  1  0  0  0  0
 18 43  1  0  0  0  0
 18 44  1  0  0  0  0
 19 20  2  0  0  0  0
 19 21  1  0  0  0  0
 21 22  1  0  0  0  0
 21 24  2  0  0  0  0
 22 23  3  0  0  0  0
 24 25  1  0  0  0  0
 25 45  1  0  0  0  0
 25 46  1  0  0  0  0
 25 47  1  0  0  0  0
M  CHG  1   9   1
M  END
> <s_m_source_file>
AV-unprocessed.smi

> <i_m_source_file_index>
1870

> <i_lp_mmshare_version>
43012

> <i_f3d_flags>
0

> <s_epik_input>
TiNDYyhjMVtDSDNdKWMoPU8pbihuYzFbQ0gzXSlbQ0gyXVtDQEhdKFtPSF0pW0NIMl1OKFtDSDJdW0NIMl0yKVtDSDJdYyhjMjMpW2NIXVtjSF1bY0hdW2NIXTM=

> <s_epik_cmdline>
J2VwaWtfcHl0aG9uJywgJy1waCcsICc3LjAnLCAnLXRuJywgJzgnLCAnLW1hJywgJzIwMCcsICctbWV0YWxfYmluZGluZycsICctaW1hZScsICc8aW5maWxlLm1hZT4nLCAnLW9tYWUnLCAnPG91dGZpbGUubWFlPic=

> <r_epik_Ionization_Penalty>
0.0122865

> <r_epik_Ionization_Penalty_Charging>
0.0122864

> <r_epik_Ionization_Penalty_Neutral>
1.48087e-07

> <r_epik_State_Penalty>
0.00950248

> <r_epik_Charging_Adjusted_Penalty>
0.0217889

> <i_epik_Tot_Q>
1

> <i_epik_Tot_abs_Q>
1

> <r_epik_Metal_State_Penalty>
0.00950248

> <b_epik_Metal_Only>
0

> <s_lp_Force_Field>
OPLS_2005

> <r_lp_Energy>
37.2352

> <b_lp_Chiralities_Consistent>
1

> <s_lp_Variant>
AV-unprocessed.smi:1870-4

> <Gold.Version>
5.8.1

> <Gold.Id.Protein>
6NUR|6NUR_protein|mol2

> <Gold.PLP.Fitness>
45.8204

> <Gold.PLP.PLP>
-41.4829

> <Gold.PLP.part.hbond>
-1.2643

> <Gold.PLP.part.metal>
0.0000

> <Gold.PLP.part.buried>
-4.0002

> <Gold.PLP.part.nonpolar>
-36.9704

> <Gold.PLP.part.repulsive>
1.0885

> <Gold.PLP.ligand.clash>
0.0000

> <Gold.PLP.ligand.torsion>
0.8854

> <Gold.PLP.Chemscore.Hbond>
2.0000

> <Gold.PLP.Chemscore.CHOScore>
0.0000

> <Gold.PLP.Chemscore.Metal>
0.0000

> <Gold.Chemscore.Hbonds>
donor molecule, donor type, donor heavy atom, donor atom, acceptor molecule, acceptor atom, score
      L1  H     9    48       P1  7948  2.00

> <Gold.PLP.Chemscore.Internal.Correction>
0.1083

> <Gold.Rescore>
     Score         DG    S(hbond)    S(metal)    S(lipo)     H(rot)  DE(clash)    DE(int)     intcor
     12.53     -13.64       0.82        0.00      93.66       2.16       0.03       1.08       ----

> <Gold.Chemscore.Fitness>
12.5283

> <Gold.Chemscore.DG>
-13.6404

> <Gold.Chemscore.ZeroCoef>
-5.4800

> <Gold.Chemscore.Hbond>
0.8202

> <Gold.Chemscore.Metal>
0.0000

> <Gold.Chemscore.Lipo>
93.6553

> <Gold.Chemscore.Internal_Hbond>
0.0000

> <Gold.Chemscore.DEClash>
0.0344

> <Gold.Chemscore.DEInternal>
1.0777

> <Gold.Chemscore.Rot>
2.1628

> <Gold.Chemscore.Internal.Correction>
   9.000000E+99

> <Gold.Chemscore.Hbonds>
donor molecule, donor type, donor heavy atom, donor atom, acceptor molecule, acceptor atom, score
      L1  H     9    48       P1  7948  0.50

> <Gold.Chemscore.Hbond.Weighted>
-2.7394

> <Gold.Chemscore.Metal.Weighted>
-0.0000

> <Gold.Chemscore.Lipo.Weighted>
-10.9577

> <Gold.Chemscore.Internal_Hbond.Weighted>
0.0000

> <Gold.Chemscore.DEClash.Weighted>
0.0344

> <Gold.Chemscore.DEInternal.Weighted>
1.0777

> <Gold.Chemscore.Rot.Weighted>
5.5367

> <Gold.Chemscore.Internal.Correction.Weighted>
   9.000000E+99

> <Gold.Protein.RotatedTorsions>
[ 6907 6896 6895 6894 ] final  -78.70 input  -60.11 | X-H torsion
[ 7974 7965 7964 7962 ] final   24.12 input  175.53 | X-H torsion
[ 8008 7997 7996 7995 ] final -176.84 input   59.86 | X-H torsion
[ 10167 10162 10161 10158 ] final   46.07 input  -65.29 | X-H torsion
[ 10718 10713 10712 10709 ] final -139.02 input   66.30 | X-H torsion
[ 10763 10752 10751 10750 ] final   65.05 input  -60.55 | X-H torsion
[ 11005 11000 10999 10996 ] final  -66.82 input  -57.11 | X-H torsion

> <Gold.Protein.ActiveResidues>
 VAL166  LYS551  ARG553  GLY616  TRP617  ASP618  TYR619  PRO620  LYS621  CYS622 
 ASP623  PHE694  ASN695  SER759  ASP760  ASP761  ALA762  ILE779  LEU786  VAL792 
 PHE793  MET794  SER795  GLU796  ALA797  LYS798  CYS799  TRP800  GLU811  SER814 

> <Gold.Protein.RotatedAtoms>
  150.6967  134.4233  159.5214 H   0  0  0  0  0  0  0  0  0  0  0  0  # atno 6907 bound_to 6896
  152.1972  134.8617  160.0521 H   0  0  0  0  0  0  0  0  0  0  0  0  # atno 6908 bound_to 6896
  151.9551  133.3643  159.4051 H   0  0  0  0  0  0  0  0  0  0  0  0  # atno 6909 bound_to 6896
  146.1952  139.7649  142.8802 H   0  0  0  0  0  0  0  0  0  0  0  0  # atno 7974 bound_to 7965
  155.9997  140.1218  157.0559 H   0  0  0  0  0  0  0  0  0  0  0  0  # atno 8008 bound_to 7997
  154.4238  140.1109  156.5748 H   0  0  0  0  0  0  0  0  0  0  0  0  # atno 8009 bound_to 7997
  155.6230  140.3472  155.4660 H   0  0  0  0  0  0  0  0  0  0  0  0  # atno 8010 bound_to 7997
  140.3176  144.2744  150.6188 H   0  0  0  0  0  0  0  0  0  0  0  0  # atno 10167 bound_to 10162
  156.3060  130.7455  151.1519 H   0  0  0  0  0  0  0  0  0  0  0  0  # atno 10718 bound_to 10713
  153.0080  135.5371  154.6607 H   0  0  0  0  0  0  0  0  0  0  0  0  # atno 10763 bound_to 10752
  154.5816  135.2850  155.0729 H   0  0  0  0  0  0  0  0  0  0  0  0  # atno 10764 bound_to 10752
  154.1856  135.6509  153.5098 H   0  0  0  0  0  0  0  0  0  0  0  0  # atno 10765 bound_to 10752
  141.1492  133.6707  156.6198 H   0  0  0  0  0  0  0  0  0  0  0  0  # atno 11005 bound_to 11000
  145.3665  141.0335  143.3255 LP  0  0  0  0  0  0  0  0  0  0  0  0  # atno 17320 bound_to 7965
  144.8567  139.5239  143.6831 LP  0  0  0  0  0  0  0  0  0  0  0  0  # atno 17321 bound_to 7965
  140.5512  143.2206  151.7924 LP  0  0  0  0  0  0  0  0  0  0  0  0  # atno 17342 bound_to 10162
  139.4880  144.4474  151.9694 LP  0  0  0  0  0  0  0  0  0  0  0  0  # atno 17343 bound_to 10162
  157.7380  131.0546  150.5324 LP  0  0  0  0  0  0  0  0  0  0  0  0  # atno 17370 bound_to 10713
  156.5457  130.4219  149.6132 LP  0  0  0  0  0  0  0  0  0  0  0  0  # atno 17371 bound_to 10713
  140.3549  134.7737  157.4493 LP  0  0  0  0  0  0  0  0  0  0  0  0  # atno 17394 bound_to 11000
  140.0831  134.5704  155.8520 LP  0  0  0  0  0  0  0  0  0  0  0  0  # atno 17395 bound_to 11000

$$$$
