#       Name:                AV-unprocessed.smi:2802
#       Creating user name   scv26
#       Creation time:       Fri Mar 27 15:24:12 2020


#       File generated by GOLD software.
#

@<TRIPOS>MOLECULE
AV-unprocessed.smi:2802
    52    53     1
SMALL
NO_CHARGES


@<TRIPOS>ATOM
      1 ****        -0.2148  -0.4962  -3.5875 C.3            1 S1                 0.0000
      2 ****        -0.4077  -0.2186  -2.0896 C.3            1 S1                 0.0000
      3 ****        -1.0857   1.1450  -1.8613 C.3            1 S1                 0.0000
      4 ****        -1.3075   1.4801  -0.3683 C.3            1 S1                 0.0000
      5 ****         0.0272   1.8582   0.3100 C.3            1 S1                 0.0000
      6 ****        -2.2254   2.7161  -0.2737 C.3            1 S1                 0.0000
      7 ****        -2.0165   0.2936   0.3454 C.3            1 S1                 0.0000
      8 ****        -1.4312  -1.1342   0.1055 C.3            1 S1                 0.0000
      9 ****        -2.3989  -2.2543   0.5927 C.3            1 S1                 0.0000
     10 ****        -3.0995  -1.9271   1.7764 O.3            1 S1                 0.0000
     11 ****        -0.1136  -1.3392   0.7245 N.am           1 S1                 0.0000
     12 ****         0.2418  -1.2368   2.0183 C.2            1 S1                 0.0000
     13 ****        -0.5279  -0.9270   2.9259 O.2            1 S1                 0.0000
     14 ****         1.7094  -1.5280   2.3369 C.3            1 S1                 0.0000
     15 ****         2.6033  -0.4499   1.7507 C.ar           1 S1                 0.0000
     16 ****         3.2349  -0.6295   0.5022 C.ar           1 S1                 0.0000
     17 ****         4.0311   0.4120  -0.0110 C.ar           1 S1                 0.0000
     18 ****         4.1647   1.5909   0.7493 C.ar           1 S1                 0.0000
     19 ****         3.5683   1.7727   1.9471 N.ar           1 S1                 0.0000
     20 ****         2.8068   0.7690   2.4330 C.ar           1 S1                 0.0000
     21 ****        -1.2316  -1.3340  -1.4185 C.3            1 S1                 0.0000
     22 ****        -1.1705  -0.5332  -4.1115 H              1 S1                 0.0000
     23 ****         0.2902  -1.4490  -3.7483 H              1 S1                 0.0000
     24 ****         0.3916   0.2799  -4.0553 H              1 S1                 0.0000
     25 ****         0.5871  -0.2002  -1.6451 H              1 S1                 0.0000
     26 ****        -0.4992   1.9341  -2.3341 H              1 S1                 0.0000
     27 ****        -2.0479   1.1415  -2.3760 H              1 S1                 0.0000
     28 ****        -0.1037   2.0249   1.3797 H              1 S1                 0.0000
     29 ****         0.4405   2.7738  -0.1139 H              1 S1                 0.0000
     30 ****         0.7893   1.0934   0.1896 H              1 S1                 0.0000
     31 ****        -2.4112   2.9934   0.7646 H              1 S1                 0.0000
     32 ****        -3.1942   2.5353  -0.7411 H              1 S1                 0.0000
     33 ****        -1.7834   3.5808  -0.7700 H              1 S1                 0.0000
     34 ****        -2.0909   0.5094   1.4113 H              1 S1                 0.0000
     35 ****        -3.0498   0.2712  -0.0052 H              1 S1                 0.0000
     36 ****        -3.1676  -2.4430  -0.1574 H              1 S1                 0.0000
     37 ****        -1.8733  -3.2004   0.7302 H              1 S1                 0.0000
     38 ****        -3.6591  -2.6528   2.0063 H              1 S1                 0.0000
     39 ****         0.6233  -1.5925   0.0829 H              1 S1                 0.0000
     40 ****         1.8534  -1.5747   3.4173 H              1 S1                 0.0000
     41 ****         1.9850  -2.5050   1.9377 H              1 S1                 0.0000
     42 ****         3.1032  -1.5431  -0.0589 H              1 S1                 0.0000
     43 ****         4.5251   0.3118  -0.9660 H              1 S1                 0.0000
     44 ****         4.7661   2.4105   0.3846 H              1 S1                 0.0000
     45 ****         2.3357   0.9491   3.3881 H              1 S1                 0.0000
     46 ****        -2.2043  -1.3774  -1.9114 H              1 S1                 0.0000
     47 ****        -0.7617  -2.3011  -1.6056 H              1 S1                 0.0000
     48 ****        -3.6542  -1.1091   1.6242 LP             1 S1                 0.0000
     49 ****        -2.4490  -1.7558   2.5163 LP             1 S1                 0.0000
     50 ****        -1.4875  -0.7320   2.7230 LP             1 S1                 0.0000
     51 ****        -0.1943  -0.8701   3.8669 LP             1 S1                 0.0000
     52 ****         3.6868   2.6240   2.4583 LP             1 S1                 0.0000
@<TRIPOS>BOND
    1    1    2 1     
    2    1   22 1     
    3    1   23 1     
    4    1   24 1     
    5    2   21 1     
    6    2    3 1     
    7    2   25 1     
    8    3    4 1     
    9    3   26 1     
   10    3   27 1     
   11    4    5 1     
   12    4    6 1     
   13    4    7 1     
   14    5   28 1     
   15    5   29 1     
   16    5   30 1     
   17    6   31 1     
   18    6   32 1     
   19    6   33 1     
   20    7    8 1     
   21    7   34 1     
   22    7   35 1     
   23    8    9 1     
   24    8   11 1     
   25    8   21 1     
   26    9   10 1     
   27    9   36 1     
   28    9   37 1     
   29   10   38 1     
   30   11   12 am    
   31   11   39 1     
   32   12   13 2     
   33   12   14 1     
   34   14   15 1     
   35   14   40 1     
   36   14   41 1     
   37   15   20 ar    
   38   15   16 ar    
   39   16   17 ar    
   40   16   42 1     
   41   17   18 ar    
   42   17   43 1     
   43   18   19 ar    
   44   18   44 1     
   45   19   20 ar    
   46   20   45 1     
   47   21   46 1     
   48   21   47 1     
   49   10   48 1     
   50   10   49 1     
   51   13   50 1     
   52   13   51 1     
   53   19   52 1     
@<TRIPOS>SUBSTRUCTURE
      1 S1             1
@<TRIPOS>SET
LONE_PAIRS      STATIC     ATOMS    <user>   **** ""
5 48 49 50 51 52
DONOR_HYDROGENS      STATIC     ATOMS    <user>   **** ""
2 38 39
ATOM$BLUE        STATIC     ATOMS    COLORGROUP SYSTEM
5 48 49 50 51 52
ATOM$RED        STATIC     ATOMS    COLORGROUP SYSTEM
2 38 39
