AV-unprocessed.smi:2996|AV-procd|sdf|11410|dock2
  -GOLD-   2272016333D 1   1.00000     0.00000
 Structure written by MMmdl.
 46 47  0  0  0  0  0  0  0  0  1 V2000
  145.5452  132.4386  151.0347 C   0  0  0  0  0  0  0  0  0  0  0  0
  146.4424  133.2817  151.9476 C   0  0  0  0  0  0  0  0  0  0  0  0
  147.1170  132.4478  153.0019 C   0  0  0  0  0  0  0  0  0  0  0  0
  146.8460  131.1564  153.1025 N   0  0  0  0  0  0  0  0  0  0  0  0
  147.6084  130.6770  154.1784 O   0  0  0  0  0  0  0  0  0  0  0  0
  148.3262  131.7021  154.7126 C   0  0  0  0  0  0  0  0  0  0  0  0
  149.1491  131.3715  155.9140 C   0  0  0  0  0  0  0  0  0  0  0  0
  148.0646  132.8332  153.9861 C   0  0  0  0  0  0  0  0  0  0  0  0
  148.5372  134.1579  154.1688 N   0  0  0  0  0  0  0  0  0  0  0  0
  148.9720  134.7182  155.3075 C   0  0  0  0  0  0  0  0  0  0  0  0
  149.0466  134.1450  156.3934 O   0  0  0  0  0  0  0  0  0  0  0  0
  149.3481  135.9885  155.1099 N   0  0  0  0  0  0  0  0  0  0  0  0
  149.9069  136.8701  156.1328 C   0  0  2  0  0  0  0  0  0  0  0  0
  148.8545  137.2931  157.1385 C   0  0  0  0  0  0  0  0  0  0  0  0
  149.4191  138.6017  157.7053 C   0  0  0  0  0  0  0  0  0  0  0  0
  148.3180  139.6313  158.0023 C   0  0  0  0  0  0  0  0  0  0  0  0
  150.2952  138.3592  158.9460 C   0  0  0  0  0  0  0  0  0  0  0  0
  150.2664  139.1262  156.6837 O   0  0  0  0  0  0  0  0  0  0  0  0
  150.4072  138.2249  155.5866 C   0  0  0  0  0  0  0  0  0  0  0  0
  151.8935  138.1867  155.1976 C   0  0  0  0  0  0  0  0  0  0  0  0
  149.5567  138.7989  154.4339 C   0  0  0  0  0  0  0  0  0  0  0  0
  145.0665  133.0607  150.2783 H   0  0  0  0  0  0  0  0  0  0  0  0
  144.7593  131.9435  151.6058 H   0  0  0  0  0  0  0  0  0  0  0  0
  146.1197  131.6693  150.5179 H   0  0  0  0  0  0  0  0  0  0  0  0
  147.1909  133.7959  151.3439 H   0  0  0  0  0  0  0  0  0  0  0  0
  145.8465  134.0654  152.4160 H   0  0  0  0  0  0  0  0  0  0  0  0
  149.1518  132.1983  156.6243 H   0  0  0  0  0  0  0  0  0  0  0  0
  150.1799  131.1592  155.6305 H   0  0  0  0  0  0  0  0  0  0  0  0
  148.7549  130.4943  156.4276 H   0  0  0  0  0  0  0  0  0  0  0  0
  148.6371  134.7084  153.3288 H   0  0  0  0  0  0  0  0  0  0  0  0
  149.2567  136.3730  154.1811 H   0  0  0  0  0  0  0  0  0  0  0  0
  150.7081  136.3638  156.6751 H   0  0  0  0  0  0  0  0  0  0  0  0
  147.9065  137.4782  156.6304 H   0  0  0  0  0  0  0  0  0  0  0  0
  148.6711  136.5374  157.9032 H   0  0  0  0  0  0  0  0  0  0  0  0
  147.6312  139.2645  158.7655 H   0  0  0  0  0  0  0  0  0  0  0  0
  147.7341  139.8559  157.1092 H   0  0  0  0  0  0  0  0  0  0  0  0
  148.7429  140.5697  158.3594 H   0  0  0  0  0  0  0  0  0  0  0  0
  149.7097  137.9439  159.7668 H   0  0  0  0  0  0  0  0  0  0  0  0
  150.7448  139.2886  159.2970 H   0  0  0  0  0  0  0  0  0  0  0  0
  151.1076  137.6639  158.7329 H   0  0  0  0  0  0  0  0  0  0  0  0
  152.0656  137.5182  154.3539 H   0  0  0  0  0  0  0  0  0  0  0  0
  152.5106  137.8416  156.0274 H   0  0  0  0  0  0  0  0  0  0  0  0
  152.2513  139.1765  154.9131 H   0  0  0  0  0  0  0  0  0  0  0  0
  149.6408  138.1926  153.5316 H   0  0  0  0  0  0  0  0  0  0  0  0
  149.8807  139.8080  154.1772 H   0  0  0  0  0  0  0  0  0  0  0  0
  148.5012  138.8554  154.7003 H   0  0  0  0  0  0  0  0  0  0  0  0
  1  2  1  0  0  0  0
  1 22  1  0  0  0  0
  1 23  1  0  0  0  0
  1 24  1  0  0  0  0
  2  3  1  0  0  0  0
  2 25  1  0  0  0  0
  2 26  1  0  0  0  0
  3  8  1  0  0  0  0
  3  4  2  0  0  0  0
  4  5  1  0  0  0  0
  5  6  1  0  0  0  0
  6  7  1  0  0  0  0
  6  8  2  0  0  0  0
  7 27  1  0  0  0  0
  7 28  1  0  0  0  0
  7 29  1  0  0  0  0
  8  9  1  0  0  0  0
  9 10  1  0  0  0  0
  9 30  1  0  0  0  0
 10 11  2  0  0  0  0
 10 12  1  0  0  0  0
 12 13  1  0  0  0  0
 12 31  1  0  0  0  0
 13 19  1  0  0  0  0
 13 14  1  0  0  0  0
 13 32  1  0  0  0  0
 14 15  1  0  0  0  0
 14 33  1  0  0  0  0
 14 34  1  0  0  0  0
 15 16  1  0  0  0  0
 15 17  1  0  0  0  0
 15 18  1  0  0  0  0
 16 35  1  0  0  0  0
 16 36  1  0  0  0  0
 16 37  1  0  0  0  0
 17 38  1  0  0  0  0
 17 39  1  0  0  0  0
 17 40  1  0  0  0  0
 18 19  1  0  0  0  0
 19 20  1  0  0  0  0
 19 21  1  0  0  0  0
 20 41  1  0  0  0  0
 20 42  1  0  0  0  0
 20 43  1  0  0  0  0
 21 44  1  0  0  0  0
 21 45  1  0  0  0  0
 21 46  1  0  0  0  0
M  END
> <s_m_source_file>
AV-unprocessed.smi

> <i_m_source_file_index>
2996

> <i_lp_mmshare_version>
43012

> <i_f3d_flags>
0

> <s_epik_input>
W0NIM11bQ0gyXWMxbm9jKFtDSDNdKWMxW05IXUMoPU8pW05IXVtDQEBIXShDKE8yKShbQ0gzXSlbQ0gzXSlbQ0gyXUMyKFtDSDNdKVtDSDNd

> <s_epik_cmdline>
J2VwaWtfcHl0aG9uJywgJy1waCcsICc3LjAnLCAnLXRuJywgJzgnLCAnLW1hJywgJzIwMCcsICctbWV0YWxfYmluZGluZycsICctaW1hZScsICc8aW5maWxlLm1hZT4nLCAnLW9tYWUnLCAnPG91dGZpbGUubWFlPic=

> <r_lp_tautomer_probability>
1

> <r_epik_Ionization_Penalty>
3.17207e-05

> <r_epik_Ionization_Penalty_Charging>
0

> <r_epik_Ionization_Penalty_Neutral>
3.17207e-05

> <r_epik_State_Penalty>
-0

> <r_epik_Charging_Adjusted_Penalty>
0

> <i_epik_Tot_Q>
0

> <i_epik_Tot_abs_Q>
0

> <r_epik_Metal_State_Penalty>
-0

> <b_epik_Metal_Only>
0

> <s_lp_Force_Field>
OPLS_2005

> <r_lp_Energy>
17.7476

> <b_lp_Chiralities_Consistent>
1

> <s_lp_Variant>
AV-unprocessed.smi:2996-1

> <Gold.Version>
5.8.1

> <Gold.Id.Protein>
6NUR|6NUR_protein|mol2

> <Gold.PLP.Fitness>
36.5475

> <Gold.PLP.PLP>
-31.9331

> <Gold.PLP.part.hbond>
-2.0000

> <Gold.PLP.part.metal>
0.0000

> <Gold.PLP.part.buried>
-5.1881

> <Gold.PLP.part.nonpolar>
-24.9748

> <Gold.PLP.part.repulsive>
0.5998

> <Gold.PLP.ligand.clash>
0.0000

> <Gold.PLP.ligand.torsion>
0.2481

> <Gold.PLP.Chemscore.Hbond>
1.6511

> <Gold.PLP.Chemscore.CHOScore>
0.0000

> <Gold.PLP.Chemscore.Metal>
0.0000

> <Gold.Chemscore.Hbonds>
donor molecule, donor type, donor heavy atom, donor atom, acceptor molecule, acceptor atom, score
      L1  H     9    30       P1  7948  0.83
      L1  H    12    31       P1  7948  0.28

> <Gold.PLP.Chemscore.Internal.Correction>
0.1574

> <Gold.Rescore>
     Score         DG    S(hbond)    S(metal)    S(lipo)     H(rot)  DE(clash)    DE(int)     intcor
     12.60     -14.58       1.11        0.00      71.35       1.16       0.53       1.45       ----

> <Gold.Chemscore.Fitness>
12.5980

> <Gold.Chemscore.DG>
-14.5822

> <Gold.Chemscore.ZeroCoef>
-5.4800

> <Gold.Chemscore.Hbond>
1.1143

> <Gold.Chemscore.Metal>
0.0000

> <Gold.Chemscore.Lipo>
71.3455

> <Gold.Chemscore.Internal_Hbond>
0.0000

> <Gold.Chemscore.DEClash>
0.5333

> <Gold.Chemscore.DEInternal>
1.4508

> <Gold.Chemscore.Rot>
1.1590

> <Gold.Chemscore.Internal.Correction>
   9.000000E+99

> <Gold.Chemscore.Hbonds>
donor molecule, donor type, donor heavy atom, donor atom, acceptor molecule, acceptor atom, score
      L1  H     9    30       P1  7948  0.36
      L1  H    12    31       P1  7948  0.25

> <Gold.Chemscore.Hbond.Weighted>
-3.7218

> <Gold.Chemscore.Metal.Weighted>
-0.0000

> <Gold.Chemscore.Lipo.Weighted>
-8.3474

> <Gold.Chemscore.Internal_Hbond.Weighted>
0.0000

> <Gold.Chemscore.DEClash.Weighted>
0.5333

> <Gold.Chemscore.DEInternal.Weighted>
1.4508

> <Gold.Chemscore.Rot.Weighted>
2.9671

> <Gold.Chemscore.Internal.Correction.Weighted>
   9.000000E+99

> <Gold.Protein.RotatedTorsions>
[ 6907 6896 6895 6894 ] final -104.83 input  -60.11 | X-H torsion
[ 7974 7965 7964 7962 ] final   92.85 input  175.53 | X-H torsion
[ 8008 7997 7996 7995 ] final -153.89 input   59.86 | X-H torsion
[ 10167 10162 10161 10158 ] final  -21.90 input  -65.29 | X-H torsion
[ 10718 10713 10712 10709 ] final  174.55 input   66.30 | X-H torsion
[ 10763 10752 10751 10750 ] final  176.50 input  -60.55 | X-H torsion
[ 11005 11000 10999 10996 ] final   90.21 input  -57.11 | X-H torsion

> <Gold.Protein.ActiveResidues>
 VAL166  LYS551  ARG553  GLY616  TRP617  ASP618  TYR619  PRO620  LYS621  CYS622 
 ASP623  PHE694  ASN695  SER759  ASP760  ASP761  ALA762  ILE779  LEU786  VAL792 
 PHE793  MET794  SER795  GLU796  ALA797  LYS798  CYS799  TRP800  GLU811  SER814 

> <Gold.Protein.RotatedAtoms>
  150.7306  134.0219  159.3703 H   0  0  0  0  0  0  0  0  0  0  0  0  # atno 6907 bound_to 6896
  151.8184  135.0657  160.0431 H   0  0  0  0  0  0  0  0  0  0  0  0  # atno 6908 bound_to 6896
  152.3022  133.5630  159.5662 H   0  0  0  0  0  0  0  0  0  0  0  0  # atno 6909 bound_to 6896
  145.4868  139.2277  143.2852 H   0  0  0  0  0  0  0  0  0  0  0  0  # atno 7974 bound_to 7965
  155.6779  140.0741  157.2496 H   0  0  0  0  0  0  0  0  0  0  0  0  # atno 8008 bound_to 7997
  154.4111  140.1687  156.2002 H   0  0  0  0  0  0  0  0  0  0  0  0  # atno 8009 bound_to 7997
  155.9560  140.3373  155.6452 H   0  0  0  0  0  0  0  0  0  0  0  0  # atno 8010 bound_to 7997
  140.7284  143.4585  151.0414 H   0  0  0  0  0  0  0  0  0  0  0  0  # atno 10167 bound_to 10162
  156.9480  131.0022  151.2955 H   0  0  0  0  0  0  0  0  0  0  0  0  # atno 10718 bound_to 10713
  154.4820  135.2775  155.1563 H   0  0  0  0  0  0  0  0  0  0  0  0  # atno 10763 bound_to 10752
  154.3269  135.6198  153.5537 H   0  0  0  0  0  0  0  0  0  0  0  0  # atno 10764 bound_to 10752
  152.9876  135.5756  154.5223 H   0  0  0  0  0  0  0  0  0  0  0  0  # atno 10765 bound_to 10752
  139.8860  134.8599  156.3252 H   0  0  0  0  0  0  0  0  0  0  0  0  # atno 11005 bound_to 11000
  146.2308  140.5659  142.8976 LP  0  0  0  0  0  0  0  0  0  0  0  0  # atno 17320 bound_to 7965
  144.7857  140.5931  143.6575 LP  0  0  0  0  0  0  0  0  0  0  0  0  # atno 17321 bound_to 7965
  139.8267  143.7746  152.3179 LP  0  0  0  0  0  0  0  0  0  0  0  0  # atno 17342 bound_to 10162
  139.7847  144.7432  151.0038 LP  0  0  0  0  0  0  0  0  0  0  0  0  # atno 17343 bound_to 10162
  157.5741  130.8331  149.8431 LP  0  0  0  0  0  0  0  0  0  0  0  0  # atno 17370 bound_to 10713
  156.0375  130.3747  150.1521 LP  0  0  0  0  0  0  0  0  0  0  0  0  # atno 17371 bound_to 10713
  140.9760  133.7297  156.0603 LP  0  0  0  0  0  0  0  0  0  0  0  0  # atno 17394 bound_to 11000
  140.7810  134.3725  157.5487 LP  0  0  0  0  0  0  0  0  0  0  0  0  # atno 17395 bound_to 11000

$$$$
