AV-unprocessed.smi:1007|AV-procd|sdf|4403|dock1
  -GOLD-   22720 2343D 1   1.00000     0.00000
 Structure written by MMmdl.
 57 59  0  0  0  0  0  0  0  0  3 V2000
  147.6650  135.4420  160.4535 C   0  0  0  0  0  0  0  0  0  0  0  0
  148.4548  134.7870  159.4733 O   0  0  0  0  0  0  0  0  0  0  0  0
  147.9354  134.8817  158.1548 C   0  0  0  0  0  0  0  0  0  0  0  0
  148.8805  134.2244  157.1312 C   0  0  0  0  0  0  0  0  0  0  0  0
  148.4775  134.3856  155.7307 N   0  0  0  0  0  0  0  0  0  0  0  0
  147.8254  135.6686  155.4714 C   0  0  0  0  0  0  0  0  0  0  0  0
  148.7979  136.8661  155.5029 C   0  0  0  0  0  0  0  0  0  0  0  0
  149.9057  136.6643  154.5330 N   0  3  0  0  0  0  0  0  0  0  0  0
  150.8290  137.8276  154.4819 C   0  0  0  0  0  0  0  0  0  0  0  0
  150.9839  138.5341  155.8436 C   0  0  1  0  0  0  0  0  0  0  0  0
  151.4510  137.6009  156.7992 O   0  0  0  0  0  0  0  0  0  0  0  0
  151.9702  139.7167  155.7705 C   0  0  0  0  0  0  0  0  0  0  0  0
  151.4314  140.9420  156.3757 N   0  0  0  0  0  0  0  0  0  0  0  0
  150.5316  141.8397  155.8887 C   0  0  0  0  0  0  0  0  0  0  0  0
  150.3701  142.8108  156.8301 N   0  3  0  0  0  0  0  0  0  0  0  0
  151.1754  142.5273  157.9354 C   0  0  0  0  0  0  0  0  0  0  0  0
  151.3568  143.2124  159.1310 C   0  0  0  0  0  0  0  0  0  0  0  0
  152.2576  142.6526  160.0652 C   0  0  0  0  0  0  0  0  0  0  0  0
  152.4813  143.3779  161.3814 C   0  0  0  0  0  0  0  0  0  0  0  0
  152.9417  141.4412  159.7846 C   0  0  0  0  0  0  0  0  0  0  0  0
  153.9057  140.8471  160.7977 C   0  0  0  0  0  0  0  0  0  0  0  0
  152.7456  140.7609  158.5615 C   0  0  0  0  0  0  0  0  0  0  0  0
  151.8556  141.3272  157.6521 C   0  0  0  0  0  0  0  0  0  0  0  0
  150.5873  135.3650  154.7805 C   0  0  0  0  0  0  0  0  0  0  0  0
  149.5631  134.2122  154.7630 C   0  0  0  0  0  0  0  0  0  0  0  0
  148.1469  135.3525  161.4270 H   0  0  0  0  0  0  0  0  0  0  0  0
  146.6712  135.0024  160.5352 H   0  0  0  0  0  0  0  0  0  0  0  0
  147.5608  136.5047  160.2303 H   0  0  0  0  0  0  0  0  0  0  0  0
  146.9307  134.4600  158.1151 H   0  0  0  0  0  0  0  0  0  0  0  0
  147.8376  135.9419  157.9198 H   0  0  0  0  0  0  0  0  0  0  0  0
  149.8637  134.6780  157.2616 H   0  0  0  0  0  0  0  0  0  0  0  0
  149.0086  133.1699  157.3695 H   0  0  0  0  0  0  0  0  0  0  0  0
  147.3456  135.6305  154.4923 H   0  0  0  0  0  0  0  0  0  0  0  0
  147.0194  135.8265  156.1890 H   0  0  0  0  0  0  0  0  0  0  0  0
  148.2519  137.7750  155.2474 H   0  0  0  0  0  0  0  0  0  0  0  0
  149.2021  137.0147  156.5051 H   0  0  0  0  0  0  0  0  0  0  0  0
  151.8140  137.4964  154.1491 H   0  0  0  0  0  0  0  0  0  0  0  0
  150.4738  138.5307  153.7267 H   0  0  0  0  0  0  0  0  0  0  0  0
  150.0207  138.9109  156.1842 H   0  0  0  0  0  0  0  0  0  0  0  0
  152.1150  137.0608  156.3976 H   0  0  0  0  0  0  0  0  0  0  0  0
  152.8984  139.4736  156.2897 H   0  0  0  0  0  0  0  0  0  0  0  0
  152.2425  139.9364  154.7374 H   0  0  0  0  0  0  0  0  0  0  0  0
  150.0387  141.7949  154.9282 H   0  0  0  0  0  0  0  0  0  0  0  0
  150.8325  144.1339  159.3383 H   0  0  0  0  0  0  0  0  0  0  0  0
  153.5270  143.6683  161.4848 H   0  0  0  0  0  0  0  0  0  0  0  0
  152.2136  142.7382  162.2225 H   0  0  0  0  0  0  0  0  0  0  0  0
  151.8763  144.2828  161.4464 H   0  0  0  0  0  0  0  0  0  0  0  0
  154.3346  139.9106  160.4395 H   0  0  0  0  0  0  0  0  0  0  0  0
  153.3944  140.6394  161.7382 H   0  0  0  0  0  0  0  0  0  0  0  0
  154.7273  141.5362  160.9941 H   0  0  0  0  0  0  0  0  0  0  0  0
  153.2668  139.8399  158.3478 H   0  0  0  0  0  0  0  0  0  0  0  0
  151.3328  135.1748  154.0100 H   0  0  0  0  0  0  0  0  0  0  0  0
  151.1229  135.3966  155.7300 H   0  0  0  0  0  0  0  0  0  0  0  0
  150.0693  133.2609  154.9220 H   0  0  0  0  0  0  0  0  0  0  0  0
  149.1336  134.1445  153.7625 H   0  0  0  0  0  0  0  0  0  0  0  0
  149.4730  136.6000  153.6222 H   0  0  0  0  0  0  0  0  0  0  0  0
  149.7553  143.6076  156.7230 H   0  0  0  0  0  0  0  0  0  0  0  0
  1  2  1  0  0  0  0
  1 26  1  0  0  0  0
  1 27  1  0  0  0  0
  1 28  1  0  0  0  0
  2  3  1  0  0  0  0
  3  4  1  0  0  0  0
  3 29  1  0  0  0  0
  3 30  1  0  0  0  0
  4  5  1  0  0  0  0
  4 31  1  0  0  0  0
  4 32  1  0  0  0  0
  5 25  1  0  0  0  0
  5  6  1  0  0  0  0
  6  7  1  0  0  0  0
  6 33  1  0  0  0  0
  6 34  1  0  0  0  0
  7  8  1  0  0  0  0
  7 35  1  0  0  0  0
  7 36  1  0  0  0  0
  8  9  1  0  0  0  0
  8 24  1  0  0  0  0
  8 56  1  0  0  0  0
  9 10  1  0  0  0  0
  9 37  1  0  0  0  0
  9 38  1  0  0  0  0
 10 11  1  0  0  0  0
 10 12  1  0  0  0  0
 10 39  1  0  0  0  0
 11 40  1  0  0  0  0
 12 13  1  0  0  0  0
 12 41  1  0  0  0  0
 12 42  1  0  0  0  0
 13 23  1  0  0  0  0
 13 14  1  0  0  0  0
 14 15  2  0  0  0  0
 14 43  1  0  0  0  0
 15 16  1  0  0  0  0
 15 57  1  0  0  0  0
 16 23  2  0  0  0  0
 16 17  1  0  0  0  0
 17 18  2  0  0  0  0
 17 44  1  0  0  0  0
 18 19  1  0  0  0  0
 18 20  1  0  0  0  0
 19 45  1  0  0  0  0
 19 46  1  0  0  0  0
 19 47  1  0  0  0  0
 20 21  1  0  0  0  0
 20 22  2  0  0  0  0
 21 48  1  0  0  0  0
 21 49  1  0  0  0  0
 21 50  1  0  0  0  0
 22 23  1  0  0  0  0
 22 51  1  0  0  0  0
 24 25  1  0  0  0  0
 24 52  1  0  0  0  0
 24 53  1  0  0  0  0
 25 54  1  0  0  0  0
 25 55  1  0  0  0  0
M  CHG  1   8   1
M  CHG  1  15   1
M  END
> <s_m_source_file>
AV-unprocessed.smi

> <i_m_source_file_index>
1007

> <i_lp_mmshare_version>
43012

> <i_f3d_flags>
0

> <s_epik_input>
W0NIM11PW0NIMl1bQ0gyXU4xW0NIMl1bQ0gyXU4oW0NIMl1bQ0gyXTEpW0NIMl1bQ0BIXShbT0hdKVtDSDJdbihbY0hdbjIpYyhjMjMpW2NIXWMoW0NIM10pYyhbY0hdMylbQ0gzXQ==

> <s_epik_cmdline>
J2VwaWtfcHl0aG9uJywgJy1waCcsICc3LjAnLCAnLXRuJywgJzgnLCAnLW1hJywgJzIwMCcsICctbWV0YWxfYmluZGluZycsICctaW1hZScsICc8aW5maWxlLm1hZT4nLCAnLW9tYWUnLCAnPG91dGZpbGUubWFlPic=

> <r_epik_Ionization_Penalty>
1.19231

> <r_epik_Ionization_Penalty_Charging>
1.17974

> <r_epik_Ionization_Penalty_Neutral>
0.0125676

> <r_epik_State_Penalty>
1.24499

> <r_epik_Charging_Adjusted_Penalty>
2.42472

> <i_epik_Tot_Q>
2

> <i_epik_Tot_abs_Q>
2

> <r_epik_Metal_State_Penalty>
5.24866

> <b_epik_Metal_Only>
0

> <s_lp_Force_Field>
OPLS_2005

> <r_lp_Energy>
41.9182

> <b_lp_Chiralities_Consistent>
1

> <s_lp_Variant>
AV-unprocessed.smi:1007-6

> <Gold.Version>
5.8.1

> <Gold.Id.Protein>
6NUR|6NUR_protein|mol2

> <Gold.PLP.Fitness>
55.9539

> <Gold.PLP.PLP>
-43.8475

> <Gold.PLP.part.hbond>
-3.0000

> <Gold.PLP.part.metal>
0.0000

> <Gold.PLP.part.buried>
-5.0031

> <Gold.PLP.part.nonpolar>
-35.1049

> <Gold.PLP.part.repulsive>
0.1161

> <Gold.PLP.ligand.clash>
0.0000

> <Gold.PLP.ligand.torsion>
1.5606

> <Gold.PLP.Chemscore.Hbond>
4.9753

> <Gold.PLP.Chemscore.CHOScore>
0.0000

> <Gold.PLP.Chemscore.Metal>
0.0000

> <Gold.Chemscore.Hbonds>
donor molecule, donor type, donor heavy atom, donor atom, acceptor molecule, acceptor atom, score
      L1  H     8    56       P1  7948  2.00
      L1  H    15    57       P1  8028  1.98
      P1  H  6896  6907       L1     2  0.57

> <Gold.PLP.Chemscore.Internal.Correction>
0.3019

> <Gold.Rescore>
     Score         DG    S(hbond)    S(metal)    S(lipo)     H(rot)  DE(clash)    DE(int)     intcor
     19.79     -21.58       2.64        0.00     119.94       2.64       0.01       1.77       ----

> <Gold.Chemscore.Fitness>
19.7928

> <Gold.Chemscore.DG>
-21.5762

> <Gold.Chemscore.ZeroCoef>
-5.4800

> <Gold.Chemscore.Hbond>
2.6436

> <Gold.Chemscore.Metal>
0.0000

> <Gold.Chemscore.Lipo>
119.9417

> <Gold.Chemscore.Internal_Hbond>
0.0000

> <Gold.Chemscore.DEClash>
0.0150

> <Gold.Chemscore.DEInternal>
1.7684

> <Gold.Chemscore.Rot>
2.6432

> <Gold.Chemscore.Internal.Correction>
   9.000000E+99

> <Gold.Chemscore.Hbonds>
donor molecule, donor type, donor heavy atom, donor atom, acceptor molecule, acceptor atom, score
      L1  H     8    56       P1  7948  0.82
      L1  H    15    57       P1  8028  0.94
      P1  H  6896  6907       L1     2  0.47

> <Gold.Chemscore.Hbond.Weighted>
-8.8295

> <Gold.Chemscore.Metal.Weighted>
-0.0000

> <Gold.Chemscore.Lipo.Weighted>
-14.0332

> <Gold.Chemscore.Internal_Hbond.Weighted>
0.0000

> <Gold.Chemscore.DEClash.Weighted>
0.0150

> <Gold.Chemscore.DEInternal.Weighted>
1.7684

> <Gold.Chemscore.Rot.Weighted>
6.7665

> <Gold.Chemscore.Internal.Correction.Weighted>
   9.000000E+99

> <Gold.Protein.RotatedTorsions>
[ 6907 6896 6895 6894 ] final  -79.04 input  -60.11 | X-H torsion
[ 7974 7965 7964 7962 ] final -157.47 input  175.53 | X-H torsion
[ 8008 7997 7996 7995 ] final    4.79 input   59.86 | X-H torsion
[ 10167 10162 10161 10158 ] final   56.42 input  -65.29 | X-H torsion
[ 10718 10713 10712 10709 ] final  -58.48 input   66.30 | X-H torsion
[ 10763 10752 10751 10750 ] final -138.48 input  -60.55 | X-H torsion
[ 11005 11000 10999 10996 ] final  -64.12 input  -57.11 | X-H torsion

> <Gold.Protein.ActiveResidues>
 VAL166  LYS551  ARG553  GLY616  TRP617  ASP618  TYR619  PRO620  LYS621  CYS622 
 ASP623  PHE694  ASN695  SER759  ASP760  ASP761  ALA762  ILE779  LEU786  VAL792 
 PHE793  MET794  SER795  GLU796  ALA797  LYS798  CYS799  TRP800  GLU811  SER814 

> <Gold.Protein.RotatedAtoms>
  150.6958  134.4180  159.5191 H   0  0  0  0  0  0  0  0  0  0  0  0  # atno 6907 bound_to 6896
  152.1928  134.8654  160.0525 H   0  0  0  0  0  0  0  0  0  0  0  0  # atno 6908 bound_to 6896
  151.9603  133.3658  159.4070 H   0  0  0  0  0  0  0  0  0  0  0  0  # atno 6909 bound_to 6896
  144.7547  140.3964  143.6021 H   0  0  0  0  0  0  0  0  0  0  0  0  # atno 7974 bound_to 7965
  154.7203  140.2710  155.6548 H   0  0  0  0  0  0  0  0  0  0  0  0  # atno 8008 bound_to 7997
  156.2821  140.2736  156.1797 H   0  0  0  0  0  0  0  0  0  0  0  0  # atno 8009 bound_to 7997
  155.0516  140.0371  157.2535 H   0  0  0  0  0  0  0  0  0  0  0  0  # atno 8010 bound_to 7997
  140.2089  144.3909  150.6497 H   0  0  0  0  0  0  0  0  0  0  0  0  # atno 10167 bound_to 10162
  156.1132  130.4173  150.0584 H   0  0  0  0  0  0  0  0  0  0  0  0  # atno 10718 bound_to 10713
  154.8635  135.3611  154.5392 H   0  0  0  0  0  0  0  0  0  0  0  0  # atno 10763 bound_to 10752
  153.6014  135.7012  153.5387 H   0  0  0  0  0  0  0  0  0  0  0  0  # atno 10764 bound_to 10752
  153.3287  135.4130  155.1439 H   0  0  0  0  0  0  0  0  0  0  0  0  # atno 10765 bound_to 10752
  141.1415  133.6661  156.5784 H   0  0  0  0  0  0  0  0  0  0  0  0  # atno 11005 bound_to 11000
  145.6821  139.1621  143.2695 LP  0  0  0  0  0  0  0  0  0  0  0  0  # atno 17320 bound_to 7965
  146.1542  140.6882  142.9308 LP  0  0  0  0  0  0  0  0  0  0  0  0  # atno 17321 bound_to 7965
  140.6337  143.2191  151.6440 LP  0  0  0  0  0  0  0  0  0  0  0  0  # atno 17342 bound_to 10162
  139.5187  144.3275  152.0856 LP  0  0  0  0  0  0  0  0  0  0  0  0  # atno 17343 bound_to 10162
  156.8542  130.9469  151.3623 LP  0  0  0  0  0  0  0  0  0  0  0  0  # atno 17370 bound_to 10713
  157.6314  130.8732  149.9280 LP  0  0  0  0  0  0  0  0  0  0  0  0  # atno 17371 bound_to 10713
  140.3857  134.7484  157.4690 LP  0  0  0  0  0  0  0  0  0  0  0  0  # atno 17394 bound_to 11000
  140.0604  134.6004  155.8756 LP  0  0  0  0  0  0  0  0  0  0  0  0  # atno 17395 bound_to 11000

$$$$
