AV-unprocessed.smi:3158|AV-procd|sdf|12044|dock3
  -GOLD-   2272017463D 1   1.00000     0.00000
 Structure written by MMmdl.
 40 40  0  0  0  0  0  0  0  0  2 V2000
  146.2543  142.7865  154.0208 C   0  0  0  0  0  0  0  0  0  0  0  0
  147.4363  141.9814  154.5805 C   0  0  0  0  0  0  0  0  0  0  0  0
  148.2053  141.1887  153.5074 C   0  0  1  0  0  0  0  0  0  0  0  0
  149.4450  140.4942  154.0899 C   0  0  0  0  0  0  0  0  0  0  0  0
  147.3302  140.1928  152.8926 N   0  0  0  0  0  0  0  0  0  0  0  0
  147.0542  138.9777  153.3915 C   0  0  0  0  0  0  0  0  0  0  0  0
  147.5264  138.5538  154.4472 O   0  0  0  0  0  0  0  0  0  0  0  0
  146.1047  138.1029  152.5602 C   0  0  1  0  0  0  0  0  0  0  0  0
  146.2522  138.4392  151.0682 C   0  0  0  0  0  0  0  0  0  0  0  0
  146.3515  136.6579  152.7743 N   0  3  0  0  0  0  0  0  0  0  0  0
  145.5269  135.7503  151.9483 C   0  0  0  0  0  0  0  0  0  0  0  0
  145.8673  134.2824  152.2403 C   0  0  0  0  0  0  0  0  0  0  0  0
  145.0410  133.3765  151.4669 N   0  0  0  0  0  0  0  0  0  0  0  0
  145.4379  132.3632  150.6197 C   0  0  0  0  0  0  0  0  0  0  0  0
  144.3061  131.7882  150.1172 C   0  0  0  0  0  0  0  0  0  0  0  0
  143.2526  132.5293  150.7220 C   0  0  0  0  0  0  0  0  0  0  0  0
  143.6960  133.4794  151.5299 N   0  0  0  0  0  0  0  0  0  0  0  0
  145.7727  143.3651  154.8095 H   0  0  0  0  0  0  0  0  0  0  0  0
  145.4970  142.1372  153.5808 H   0  0  0  0  0  0  0  0  0  0  0  0
  146.5846  143.4855  153.2519 H   0  0  0  0  0  0  0  0  0  0  0  0
  148.1215  142.6707  155.0753 H   0  0  0  0  0  0  0  0  0  0  0  0
  147.0766  141.3040  155.3562 H   0  0  0  0  0  0  0  0  0  0  0  0
  148.5441  141.9006  152.7525 H   0  0  0  0  0  0  0  0  0  0  0  0
  150.1258  141.2187  154.5377 H   0  0  0  0  0  0  0  0  0  0  0  0
  149.9979  139.9604  153.3162 H   0  0  0  0  0  0  0  0  0  0  0  0
  149.1718  139.7738  154.8618 H   0  0  0  0  0  0  0  0  0  0  0  0
  146.9025  140.4517  152.0153 H   0  0  0  0  0  0  0  0  0  0  0  0
  145.0766  138.3189  152.8559 H   0  0  0  0  0  0  0  0  0  0  0  0
  146.0453  139.4927  150.8751 H   0  0  0  0  0  0  0  0  0  0  0  0
  145.5549  137.8567  150.4655 H   0  0  0  0  0  0  0  0  0  0  0  0
  147.2596  138.2267  150.7070 H   0  0  0  0  0  0  0  0  0  0  0  0
  147.3200  136.4716  152.5574 H   0  0  0  0  0  0  0  0  0  0  0  0
  144.4691  135.9266  152.1471 H   0  0  0  0  0  0  0  0  0  0  0  0
  145.6975  135.9734  150.8942 H   0  0  0  0  0  0  0  0  0  0  0  0
  146.9144  134.0771  152.0126 H   0  0  0  0  0  0  0  0  0  0  0  0
  145.7234  134.0631  153.2991 H   0  0  0  0  0  0  0  0  0  0  0  0
  146.4799  132.1368  150.4467 H   0  0  0  0  0  0  0  0  0  0  0  0
  144.2404  130.9641  149.4223 H   0  0  0  0  0  0  0  0  0  0  0  0
  142.1870  132.4054  150.5987 H   0  0  0  0  0  0  0  0  0  0  0  0
  146.1933  136.4502  153.7504 H   0  0  0  0  0  0  0  0  0  0  0  0
  1  2  1  0  0  0  0
  1 18  1  0  0  0  0
  1 19  1  0  0  0  0
  1 20  1  0  0  0  0
  2  3  1  0  0  0  0
  2 21  1  0  0  0  0
  2 22  1  0  0  0  0
  3  4  1  0  0  0  0
  3  5  1  0  0  0  0
  3 23  1  0  0  0  0
  4 24  1  0  0  0  0
  4 25  1  0  0  0  0
  4 26  1  0  0  0  0
  5  6  1  0  0  0  0
  5 27  1  0  0  0  0
  6  7  2  0  0  0  0
  6  8  1  0  0  0  0
  8  9  1  0  0  0  0
  8 10  1  0  0  0  0
  8 28  1  0  0  0  0
  9 29  1  0  0  0  0
  9 30  1  0  0  0  0
  9 31  1  0  0  0  0
 10 11  1  0  0  0  0
 10 32  1  0  0  0  0
 10 40  1  0  0  0  0
 11 12  1  0  0  0  0
 11 33  1  0  0  0  0
 11 34  1  0  0  0  0
 12 13  1  0  0  0  0
 12 35  1  0  0  0  0
 12 36  1  0  0  0  0
 13 17  1  0  0  0  0
 13 14  1  0  0  0  0
 14 15  2  0  0  0  0
 14 37  1  0  0  0  0
 15 16  1  0  0  0  0
 15 38  1  0  0  0  0
 16 17  2  0  0  0  0
 16 39  1  0  0  0  0
M  CHG  1  10   1
M  END
> <s_m_source_file>
AV-unprocessed.smi

> <i_m_source_file_index>
3158

> <i_lp_mmshare_version>
43012

> <i_f3d_flags>
0

> <s_epik_input>
W0NIM11bQ0gyXVtDQEhdKFtDSDNdKVtOSF1DKD1PKVtDQEhdKFtDSDNdKVtOSF1bQ0gyXVtDSDJdbjFbY0hdW2NIXVtjSF1uMQ==

> <s_epik_cmdline>
J2VwaWtfcHl0aG9uJywgJy1waCcsICc3LjAnLCAnLXRuJywgJzgnLCAnLW1hJywgJzIwMCcsICctbWV0YWxfYmluZGluZycsICctaW1hZScsICc8aW5maWxlLm1hZT4nLCAnLW9tYWUnLCAnPG91dGZpbGUubWFlPic=

> <r_lp_tautomer_probability>
1

> <r_epik_Ionization_Penalty>
0.20724

> <r_epik_Ionization_Penalty_Charging>
0.207237

> <r_epik_Ionization_Penalty_Neutral>
3.33806e-06

> <r_epik_State_Penalty>
0.197234

> <r_epik_Charging_Adjusted_Penalty>
0.404471

> <i_epik_Tot_Q>
1

> <i_epik_Tot_abs_Q>
1

> <r_epik_Metal_State_Penalty>
0.197524

> <b_epik_Metal_Only>
0

> <s_lp_Force_Field>
OPLS_2005

> <r_lp_Energy>
5.19885

> <b_lp_Chiralities_Consistent>
1

> <s_lp_Variant>
AV-unprocessed.smi:3158-4

> <Gold.Version>
5.8.1

> <Gold.Id.Protein>
6NUR|6NUR_protein|mol2

> <Gold.PLP.Fitness>
45.3219

> <Gold.PLP.PLP>
-34.2520

> <Gold.PLP.part.hbond>
-2.0000

> <Gold.PLP.part.metal>
0.0000

> <Gold.PLP.part.buried>
1.0311

> <Gold.PLP.part.nonpolar>
-34.7154

> <Gold.PLP.part.repulsive>
0.3610

> <Gold.PLP.ligand.clash>
0.0000

> <Gold.PLP.ligand.torsion>
1.0848

> <Gold.PLP.Chemscore.Hbond>
2.0000

> <Gold.PLP.Chemscore.CHOScore>
2.3616

> <Gold.PLP.Chemscore.Metal>
0.0000

> <Gold.Chemscore.Hbonds>
donor molecule, donor type, donor heavy atom, donor atom, acceptor molecule, acceptor atom, score
      L1  H    10    32       P1  7948  2.00
      L1  C    14    37       P1 10747  0.31
      L1  C    16    39       P1 10186  0.67
      L1  C    16    39       P1 10952  0.67

> <Gold.PLP.Chemscore.Internal.Correction>
0.1548

> <Gold.Rescore>
     Score         DG    S(hbond)    S(metal)    S(lipo)     H(rot)  DE(clash)    DE(int)     intcor
     10.76     -13.14       1.00        0.00      85.19       2.21       0.82       1.56       ----

> <Gold.Chemscore.Fitness>
10.7606

> <Gold.Chemscore.DG>
-13.1367

> <Gold.Chemscore.ZeroCoef>
-5.4800

> <Gold.Chemscore.Hbond>
1.0047

> <Gold.Chemscore.Metal>
0.0000

> <Gold.Chemscore.Lipo>
85.1852

> <Gold.Chemscore.Internal_Hbond>
0.0000

> <Gold.Chemscore.DEClash>
0.8210

> <Gold.Chemscore.DEInternal>
1.5551

> <Gold.Chemscore.Rot>
2.2132

> <Gold.Chemscore.Internal.Correction>
   9.000000E+99

> <Gold.Chemscore.Hbonds>
donor molecule, donor type, donor heavy atom, donor atom, acceptor molecule, acceptor atom, score
      L1  H    10    32       P1  7948  1.00

> <Gold.Chemscore.Hbond.Weighted>
-3.3558

> <Gold.Chemscore.Metal.Weighted>
-0.0000

> <Gold.Chemscore.Lipo.Weighted>
-9.9667

> <Gold.Chemscore.Internal_Hbond.Weighted>
0.0000

> <Gold.Chemscore.DEClash.Weighted>
0.8210

> <Gold.Chemscore.DEInternal.Weighted>
1.5551

> <Gold.Chemscore.Rot.Weighted>
5.6658

> <Gold.Chemscore.Internal.Correction.Weighted>
   9.000000E+99

> <Gold.Protein.RotatedTorsions>
[ 6907 6896 6895 6894 ] final  -49.53 input  -60.11 | X-H torsion
[ 7974 7965 7964 7962 ] final  101.68 input  175.53 | X-H torsion
[ 8008 7997 7996 7995 ] final  -47.78 input   59.86 | X-H torsion
[ 10167 10162 10161 10158 ] final -137.91 input  -65.29 | X-H torsion
[ 10718 10713 10712 10709 ] final  141.37 input   66.30 | X-H torsion
[ 10763 10752 10751 10750 ] final  -88.04 input  -60.55 | X-H torsion
[ 11005 11000 10999 10996 ] final  134.36 input  -57.11 | X-H torsion

> <Gold.Protein.ActiveResidues>
 VAL166  LYS551  ARG553  GLY616  TRP617  ASP618  TYR619  PRO620  LYS621  CYS622 
 ASP623  PHE694  ASN695  SER759  ASP760  ASP761  ALA762  ILE779  LEU786  VAL792 
 PHE793  MET794  SER795  GLU796  ALA797  LYS798  CYS799  TRP800  GLU811  SER814 

> <Gold.Protein.RotatedAtoms>
  150.8796  134.8184  159.7214 H   0  0  0  0  0  0  0  0  0  0  0  0  # atno 6907 bound_to 6896
  152.4769  134.4817  159.9677 H   0  0  0  0  0  0  0  0  0  0  0  0  # atno 6908 bound_to 6896
  151.4894  133.3489  159.2886 H   0  0  0  0  0  0  0  0  0  0  0  0  # atno 6909 bound_to 6896
  145.3692  139.2401  143.3464 H   0  0  0  0  0  0  0  0  0  0  0  0  # atno 7974 bound_to 7965
  154.4021  140.1338  156.4232 H   0  0  0  0  0  0  0  0  0  0  0  0  # atno 8008 bound_to 7997
  155.7623  140.3486  155.5184 H   0  0  0  0  0  0  0  0  0  0  0  0  # atno 8009 bound_to 7997
  155.8847  140.0993  157.1451 H   0  0  0  0  0  0  0  0  0  0  0  0  # atno 8010 bound_to 7997
  139.8530  143.7174  152.2656 H   0  0  0  0  0  0  0  0  0  0  0  0  # atno 10167 bound_to 10162
  157.3927  131.1007  151.0630 H   0  0  0  0  0  0  0  0  0  0  0  0  # atno 10718 bound_to 10713
  154.6403  135.5391  153.7781 H   0  0  0  0  0  0  0  0  0  0  0  0  # atno 10763 bound_to 10752
  153.0330  135.6457  154.1170 H   0  0  0  0  0  0  0  0  0  0  0  0  # atno 10764 bound_to 10752
  154.1095  135.2927  155.3214 H   0  0  0  0  0  0  0  0  0  0  0  0  # atno 10765 bound_to 10752
  139.9910  134.9515  156.9856 H   0  0  0  0  0  0  0  0  0  0  0  0  # atno 11005 bound_to 11000
  146.2893  140.4340  142.8745 LP  0  0  0  0  0  0  0  0  0  0  0  0  # atno 17320 bound_to 7965
  144.8589  140.7111  143.6120 LP  0  0  0  0  0  0  0  0  0  0  0  0  # atno 17321 bound_to 7965
  139.7446  144.7550  151.0599 LP  0  0  0  0  0  0  0  0  0  0  0  0  # atno 17342 bound_to 10162
  140.7785  143.4931  150.9867 LP  0  0  0  0  0  0  0  0  0  0  0  0  # atno 17343 bound_to 10162
  157.1658  130.6245  149.5625 LP  0  0  0  0  0  0  0  0  0  0  0  0  # atno 17370 bound_to 10713
  155.9802  130.4802  150.6761 LP  0  0  0  0  0  0  0  0  0  0  0  0  # atno 17371 bound_to 10713
  140.4908  134.1195  155.7232 LP  0  0  0  0  0  0  0  0  0  0  0  0  # atno 17394 bound_to 11000
  141.1566  133.8872  157.1961 LP  0  0  0  0  0  0  0  0  0  0  0  0  # atno 17395 bound_to 11000

$$$$
