AV-unprocessed.smi:2124|AV-procd|sdf|8669|dock1
  -GOLD-   2272011423D 1   1.00000     0.00000
 Structure written by MMmdl.
 46 48  0  0  0  0  0  0  0  0  2 V2000
  156.7098  134.4279  157.3059 C   0  0  0  0  0  0  0  0  0  0  0  0
  155.6411  135.4145  157.7247 C   0  0  0  0  0  0  0  0  0  0  0  0
  155.6901  135.9284  158.8942 N   0  0  0  0  0  0  0  0  0  0  0  0
  154.7021  136.8469  159.2877 C   0  0  0  0  0  0  0  0  0  0  0  0
  154.8404  137.4088  160.6919 C   0  0  0  0  0  0  0  0  0  0  0  0
  153.6905  137.2000  158.4439 C   0  0  0  0  0  0  0  0  0  0  0  0
  152.5944  138.1966  158.8213 C   0  0  0  0  0  0  0  0  0  0  0  0
  152.4915  139.4566  157.9576 C   0  0  0  0  0  0  0  0  0  0  0  0
  153.1739  139.5791  156.9402 O   0  0  0  0  0  0  0  0  0  0  0  0
  151.6160  140.3826  158.3840 N   0  0  0  0  0  0  0  0  0  0  0  0
  151.2895  141.6632  157.7493 C   0  0  1  0  0  0  0  0  0  0  0  0
  150.0309  141.5266  156.8696 C   0  0  0  0  0  0  0  0  0  0  0  0
  151.1976  142.8231  158.7791 C   0  0  1  0  0  0  0  0  0  0  0  0
  152.5248  143.1125  159.5255 C   0  0  0  0  0  0  0  0  0  0  0  0
  152.7356  144.6204  159.3049 C   0  0  2  0  0  0  0  0  0  0  0  0
  151.6749  145.4123  160.0907 C   0  0  0  0  0  0  0  0  0  0  0  0
  150.3910  145.1529  159.2809 C   0  0  0  0  0  0  0  0  0  0  0  0
  150.8781  144.2096  158.1641 C   0  0  1  0  0  0  0  0  0  0  0  0
  152.2600  144.7847  157.8682 C   0  0  0  0  0  0  0  0  0  0  0  0
  153.6667  136.5802  157.1072 C   0  0  0  0  0  0  0  0  0  0  0  0
  152.7674  136.8523  156.3126 O   0  0  0  0  0  0  0  0  0  0  0  0
  154.6656  135.7049  156.7975 N   0  5  0  0  0  0  0  0  0  0  0  0
  157.2814  134.0801  158.1676 H   0  0  0  0  0  0  0  0  0  0  0  0
  157.3983  134.8968  156.6028 H   0  0  0  0  0  0  0  0  0  0  0  0
  156.2608  133.5588  156.8239 H   0  0  0  0  0  0  0  0  0  0  0  0
  155.0366  138.4802  160.6557 H   0  0  0  0  0  0  0  0  0  0  0  0
  155.6642  136.9351  161.2268 H   0  0  0  0  0  0  0  0  0  0  0  0
  153.9297  137.2407  161.2667 H   0  0  0  0  0  0  0  0  0  0  0  0
  151.6336  137.6837  158.7747 H   0  0  0  0  0  0  0  0  0  0  0  0
  152.6957  138.4981  159.8644 H   0  0  0  0  0  0  0  0  0  0  0  0
  151.1142  140.1742  159.2348 H   0  0  0  0  0  0  0  0  0  0  0  0
  152.1275  141.8679  157.0827 H   0  0  0  0  0  0  0  0  0  0  0  0
  149.8886  142.3988  156.2330 H   0  0  0  0  0  0  0  0  0  0  0  0
  149.1286  141.4086  157.4701 H   0  0  0  0  0  0  0  0  0  0  0  0
  150.1061  140.6607  156.2111 H   0  0  0  0  0  0  0  0  0  0  0  0
  150.4237  142.5727  159.5058 H   0  0  0  0  0  0  0  0  0  0  0  0
  152.4708  142.8483  160.5822 H   0  0  0  0  0  0  0  0  0  0  0  0
  153.3589  142.5599  159.0916 H   0  0  0  0  0  0  0  0  0  0  0  0
  153.7576  144.9507  159.4930 H   0  0  0  0  0  0  0  0  0  0  0  0
  151.5907  145.0747  161.1242 H   0  0  0  0  0  0  0  0  0  0  0  0
  151.9118  146.4768  160.1033 H   0  0  0  0  0  0  0  0  0  0  0  0
  149.5965  144.7137  159.8854 H   0  0  0  0  0  0  0  0  0  0  0  0
  150.0105  146.0846  158.8601 H   0  0  0  0  0  0  0  0  0  0  0  0
  150.2033  144.1867  157.3094 H   0  0  0  0  0  0  0  0  0  0  0  0
  152.2346  145.8245  157.5374 H   0  0  0  0  0  0  0  0  0  0  0  0
  152.8347  144.1968  157.1509 H   0  0  0  0  0  0  0  0  0  0  0  0
  1  2  1  0  0  0  0
  1 23  1  0  0  0  0
  1 24  1  0  0  0  0
  1 25  1  0  0  0  0
  2 22  1  0  0  0  0
  2  3  2  0  0  0  0
  3  4  1  0  0  0  0
  4  5  1  0  0  0  0
  4  6  2  0  0  0  0
  5 26  1  0  0  0  0
  5 27  1  0  0  0  0
  5 28  1  0  0  0  0
  6  7  1  0  0  0  0
  6 20  1  0  0  0  0
  7  8  1  0  0  0  0
  7 29  1  0  0  0  0
  7 30  1  0  0  0  0
  8  9  2  0  0  0  0
  8 10  1  0  0  0  0
 10 11  1  0  0  0  0
 10 31  1  0  0  0  0
 11 12  1  0  0  0  0
 11 13  1  0  0  0  0
 11 32  1  0  0  0  0
 12 33  1  0  0  0  0
 12 34  1  0  0  0  0
 12 35  1  0  0  0  0
 13 18  1  0  0  0  0
 13 14  1  0  0  0  0
 13 36  1  0  0  0  0
 14 15  1  0  0  0  0
 14 37  1  0  0  0  0
 14 38  1  0  0  0  0
 15 19  1  0  0  0  0
 15 16  1  0  0  0  0
 15 39  1  0  0  0  0
 16 17  1  0  0  0  0
 16 40  1  0  0  0  0
 16 41  1  0  0  0  0
 17 18  1  0  0  0  0
 17 42  1  0  0  0  0
 17 43  1  0  0  0  0
 18 19  1  0  0  0  0
 18 44  1  0  0  0  0
 19 45  1  0  0  0  0
 19 46  1  0  0  0  0
 20 21  2  0  0  0  0
 20 22  1  0  0  0  0
M  CHG  1  22  -1
M  END
> <s_m_source_file>
AV-unprocessed.smi

> <i_m_source_file_index>
2124

> <i_lp_mmshare_version>
43012

> <i_f3d_flags>
0

> <s_epik_input>
W0NIM11jMW5jKFtDSDNdKWMoYyg9TylbbkhdMSlbQ0gyXUMoPU8pW05IXVtDQEhdKFtDSDNdKVtDQEhdKFtDSDJdW0NASF0yMylbQ0BIXShbQ0gyXTMpW0NIMl1bQ0gyXTI=

> <s_epik_cmdline>
J2VwaWtfcHl0aG9uJywgJy1waCcsICc3LjAnLCAnLXRuJywgJzgnLCAnLW1hJywgJzIwMCcsICctbWV0YWxfYmluZGluZycsICctaW1hZScsICc8aW5maWxlLm1hZT4nLCAnLW9tYWUnLCAnPG91dGZpbGUubWFlPic=

> <r_lp_tautomer_probability>
0.839158

> <r_epik_Ionization_Penalty>
6.63797

> <r_epik_Ionization_Penalty_Charging>
7.48558e-08

> <r_epik_Ionization_Penalty_Neutral>
6.63797

> <r_epik_State_Penalty>
4.49496

> <r_epik_Charging_Adjusted_Penalty>
4.49496

> <i_epik_Tot_Q>
-1

> <i_epik_Tot_abs_Q>
1

> <r_epik_Metal_State_Penalty>
0.841241

> <b_epik_Metal_Only>
1

> <s_lp_Force_Field>
OPLS_2005

> <r_lp_Energy>
56.2785

> <b_lp_Chiralities_Consistent>
1

> <s_lp_Variant>
AV-unprocessed.smi:2124-20

> <Gold.Version>
5.8.1

> <Gold.Id.Protein>
6NUR|6NUR_protein|mol2

> <Gold.PLP.Fitness>
47.7042

> <Gold.PLP.PLP>
-39.2919

> <Gold.PLP.part.hbond>
-3.0000

> <Gold.PLP.part.metal>
0.0000

> <Gold.PLP.part.buried>
-5.8843

> <Gold.PLP.part.nonpolar>
-30.7069

> <Gold.PLP.part.repulsive>
0.1354

> <Gold.PLP.ligand.clash>
0.0000

> <Gold.PLP.ligand.torsion>
0.3525

> <Gold.PLP.Chemscore.Hbond>
3.0000

> <Gold.PLP.Chemscore.CHOScore>
0.0000

> <Gold.PLP.Chemscore.Metal>
0.0000

> <Gold.Chemscore.Hbonds>
donor molecule, donor type, donor heavy atom, donor atom, acceptor molecule, acceptor atom, score
      P1  H  7997  8010       L1     9  0.54
      P1  H 10752 10763       L1    22  2.00
      P1  H 10752 10765       L1    21  0.01

> <Gold.PLP.Chemscore.Internal.Correction>
0.1173

> <Gold.Rescore>
     Score         DG    S(hbond)    S(metal)    S(lipo)     H(rot)  DE(clash)    DE(int)     intcor
     19.65     -20.13       1.71        0.00     111.45       1.61       0.11       0.36       ----

> <Gold.Chemscore.Fitness>
19.6541

> <Gold.Chemscore.DG>
-20.1260

> <Gold.Chemscore.ZeroCoef>
-5.4800

> <Gold.Chemscore.Hbond>
1.7112

> <Gold.Chemscore.Metal>
0.0000

> <Gold.Chemscore.Lipo>
111.4482

> <Gold.Chemscore.Internal_Hbond>
0.0000

> <Gold.Chemscore.DEClash>
0.1112

> <Gold.Chemscore.DEInternal>
0.3606

> <Gold.Chemscore.Rot>
1.6051

> <Gold.Chemscore.Internal.Correction>
   9.000000E+99

> <Gold.Chemscore.Hbonds>
donor molecule, donor type, donor heavy atom, donor atom, acceptor molecule, acceptor atom, score
      P1  H  7997  8010       L1     9  0.52
      P1  H 10752 10763       L1    22  0.25
      P1  H 10752 10765       L1    21  0.01

> <Gold.Chemscore.Hbond.Weighted>
-5.7155

> <Gold.Chemscore.Metal.Weighted>
-0.0000

> <Gold.Chemscore.Lipo.Weighted>
-13.0394

> <Gold.Chemscore.Internal_Hbond.Weighted>
0.0000

> <Gold.Chemscore.DEClash.Weighted>
0.1112

> <Gold.Chemscore.DEInternal.Weighted>
0.3606

> <Gold.Chemscore.Rot.Weighted>
4.1090

> <Gold.Chemscore.Internal.Correction.Weighted>
   9.000000E+99

> <Gold.Protein.RotatedTorsions>
[ 6907 6896 6895 6894 ] final  153.01 input  -60.11 | X-H torsion
[ 7974 7965 7964 7962 ] final   39.53 input  175.53 | X-H torsion
[ 8008 7997 7996 7995 ] final   64.85 input   59.86 | X-H torsion
[ 10167 10162 10161 10158 ] final  174.25 input  -65.29 | X-H torsion
[ 10718 10713 10712 10709 ] final  -25.02 input   66.30 | X-H torsion
[ 10763 10752 10751 10750 ] final  158.52 input  -60.55 | X-H torsion
[ 11005 11000 10999 10996 ] final   43.93 input  -57.11 | X-H torsion

> <Gold.Protein.ActiveResidues>
 VAL166  LYS551  ARG553  GLY616  TRP617  ASP618  TYR619  PRO620  LYS621  CYS622 
 ASP623  PHE694  ASN695  SER759  ASP760  ASP761  ALA762  ILE779  LEU786  VAL792 
 PHE793  MET794  SER795  GLU796  ALA797  LYS798  CYS799  TRP800  GLU811  SER814 

> <Gold.Protein.RotatedAtoms>
  152.0786  133.4142  159.4490 H   0  0  0  0  0  0  0  0  0  0  0  0  # atno 6907 bound_to 6896
  150.6862  134.3008  159.4715 H   0  0  0  0  0  0  0  0  0  0  0  0  # atno 6908 bound_to 6896
  152.0847  134.9447  160.0623 H   0  0  0  0  0  0  0  0  0  0  0  0  # atno 6909 bound_to 6896
  146.0977  139.5641  142.9434 H   0  0  0  0  0  0  0  0  0  0  0  0  # atno 7974 bound_to 7965
  155.6525  140.3497  155.4753 H   0  0  0  0  0  0  0  0  0  0  0  0  # atno 8008 bound_to 7997
  155.9836  140.1179  157.0727 H   0  0  0  0  0  0  0  0  0  0  0  0  # atno 8009 bound_to 7997
  154.4198  140.1133  156.5455 H   0  0  0  0  0  0  0  0  0  0  0  0  # atno 8010 bound_to 7997
  139.5135  144.3168  152.0240 H   0  0  0  0  0  0  0  0  0  0  0  0  # atno 10167 bound_to 10162
  156.4699  130.4522  149.6875 H   0  0  0  0  0  0  0  0  0  0  0  0  # atno 10718 bound_to 10713
  154.2173  135.2783  155.2937 H   0  0  0  0  0  0  0  0  0  0  0  0  # atno 10763 bound_to 10752
  154.5730  135.5613  153.7116 H   0  0  0  0  0  0  0  0  0  0  0  0  # atno 10764 bound_to 10752
  153.0050  135.6326  154.2313 H   0  0  0  0  0  0  0  0  0  0  0  0  # atno 10765 bound_to 10752
  140.1599  134.4355  155.8325 H   0  0  0  0  0  0  0  0  0  0  0  0  # atno 11005 bound_to 11000
  145.5916  141.0369  143.2067 LP  0  0  0  0  0  0  0  0  0  0  0  0  # atno 17320 bound_to 7965
  144.7408  139.7454  143.7311 LP  0  0  0  0  0  0  0  0  0  0  0  0  # atno 17321 bound_to 7965
  140.2611  144.4066  150.6185 LP  0  0  0  0  0  0  0  0  0  0  0  0  # atno 17342 bound_to 10162
  140.6156  143.2172  151.6798 LP  0  0  0  0  0  0  0  0  0  0  0  0  # atno 17343 bound_to 10162
  156.3629  130.7490  151.2465 LP  0  0  0  0  0  0  0  0  0  0  0  0  # atno 17370 bound_to 10713
  157.7492  131.0345  150.4321 LP  0  0  0  0  0  0  0  0  0  0  0  0  # atno 17371 bound_to 10713
  141.2208  133.6908  156.7574 LP  0  0  0  0  0  0  0  0  0  0  0  0  # atno 17394 bound_to 11000
  140.2503  134.8546  157.3660 LP  0  0  0  0  0  0  0  0  0  0  0  0  # atno 17395 bound_to 11000

$$$$
