#       Name:                AV-unprocessed.smi:976
#       Creating user name   scv26
#       Creation time:       Fri Mar 27 02:21:04 2020


#       File generated by GOLD software.
#

@<TRIPOS>MOLECULE
AV-unprocessed.smi:976
    49    50     1
SMALL
NO_CHARGES


@<TRIPOS>ATOM
      1 ****         1.0357  -2.3638  -2.7959 C.3            1 S1                 0.0000
      2 ****         1.5212  -1.5471  -1.5890 C.3            1 S1                 0.0000
      3 ****         2.9463  -1.5432  -1.6183 O.3            1 S1                 0.0000
      4 ****         3.5843  -1.0691  -0.4364 C.3            1 S1                 0.0000
      5 ****         5.1028  -1.2236  -0.5829 C.3            1 S1                 0.0000
      6 ****         5.6993  -0.7649   0.5167 F              1 S1                 0.0000
      7 ****         5.4225  -2.5079  -0.7388 F              1 S1                 0.0000
      8 ****         5.5383  -0.5228  -1.6295 F              1 S1                 0.0000
      9 ****         0.9805  -0.1087  -1.6330 C.2            1 S1                 0.0000
     10 ****         1.1306   0.5709  -2.6483 O.2            1 S1                 0.0000
     11 ****         0.3576   0.3146  -0.5186 N.am           1 S1                 0.0000
     12 ****        -0.2388   1.5831  -0.2685 C.ar           1 S1                 0.0000
     13 ****         0.2574   2.7788  -0.8423 C.ar           1 S1                 0.0000
     14 ****        -0.3502   4.0032  -0.5113 C.ar           1 S1                 0.0000
     15 ****        -1.4266   3.9910   0.3928 C.ar           1 S1                 0.0000
     16 ****        -1.9015   2.8631   0.9592 N.ar           1 S1                 0.0000
     17 ****        -1.3249   1.6777   0.6432 C.ar           1 S1                 0.0000
     18 ****        -1.8594   0.5174   1.2387 N.3            1 S1                 0.0000
     19 ****        -2.4278   0.6537   2.5763 C.3            1 S1                 0.0000
     20 ****        -2.7520  -0.7358   3.1512 C.3            1 S1                 0.0000
     21 ****        -3.6184  -1.4325   2.2598 O.3            1 S1                 0.0000
     22 ****        -3.0274  -1.6258   0.9777 C.3            1 S1                 0.0000
     23 ****        -2.7080  -0.2612   0.3437 C.3            1 S1                 0.0000
     24 ****        -0.0535  -2.3976  -2.8399 H              1 S1                 0.0000
     25 ****         1.3943  -3.3916  -2.7359 H              1 S1                 0.0000
     26 ****         1.3969  -1.9455  -3.7364 H              1 S1                 0.0000
     27 ****         1.1796  -2.0455  -0.6796 H              1 S1                 0.0000
     28 ****         3.3433  -0.0211  -0.2549 H              1 S1                 0.0000
     29 ****         3.2370  -1.6378   0.4275 H              1 S1                 0.0000
     30 ****         0.2153  -0.3794   0.2012 H              1 S1                 0.0000
     31 ****         1.1031   2.7798  -1.5127 H              1 S1                 0.0000
     32 ****         0.0066   4.9305  -0.9342 H              1 S1                 0.0000
     33 ****        -1.9162   4.9116   0.6741 H              1 S1                 0.0000
     34 ****        -1.7245   1.1736   3.2279 H              1 S1                 0.0000
     35 ****        -3.3373   1.2546   2.5321 H              1 S1                 0.0000
     36 ****        -1.8398  -1.3124   3.3128 H              1 S1                 0.0000
     37 ****        -3.2429  -0.6365   4.1194 H              1 S1                 0.0000
     38 ****        -2.1250  -2.2327   1.0686 H              1 S1                 0.0000
     39 ****        -3.7218  -2.1801   0.3462 H              1 S1                 0.0000
     40 ****        -3.6310   0.2905   0.1596 H              1 S1                 0.0000
     41 ****        -2.2263  -0.4062  -0.6233 H              1 S1                 0.0000
     42 ****         3.2369  -0.9627  -2.3789 LP             1 S1                 0.0000
     43 ****         3.2534  -2.4813  -1.7787 LP             1 S1                 0.0000
     44 ****         1.6032   0.1870  -3.4416 LP             1 S1                 0.0000
     45 ****         0.7800   1.5068  -2.6798 LP             1 S1                 0.0000
     46 ****        -2.6666   2.9005   1.6020 LP             1 S1                 0.0000
     47 ****        -1.0315  -0.0179   1.4063 LP             1 S1                 0.0000
     48 ****        -4.4604  -0.9043   2.1502 LP             1 S1                 0.0000
     49 ****        -3.8344  -2.3262   2.6531 LP             1 S1                 0.0000
@<TRIPOS>BOND
    1    1    2 1     
    2    1   24 1     
    3    1   25 1     
    4    1   26 1     
    5    2    3 1     
    6    2    9 1     
    7    2   27 1     
    8    3    4 1     
    9    4    5 1     
   10    4   28 1     
   11    4   29 1     
   12    5    6 1     
   13    5    7 1     
   14    5    8 1     
   15    9   10 2     
   16    9   11 am    
   17   11   12 1     
   18   11   30 1     
   19   12   17 ar    
   20   12   13 ar    
   21   13   14 ar    
   22   13   31 1     
   23   14   15 ar    
   24   14   32 1     
   25   15   16 ar    
   26   15   33 1     
   27   16   17 ar    
   28   17   18 1     
   29   18   23 1     
   30   18   19 1     
   31   19   20 1     
   32   19   34 1     
   33   19   35 1     
   34   20   21 1     
   35   20   36 1     
   36   20   37 1     
   37   21   22 1     
   38   22   23 1     
   39   22   38 1     
   40   22   39 1     
   41   23   40 1     
   42   23   41 1     
   43    3   42 1     
   44    3   43 1     
   45   10   44 1     
   46   10   45 1     
   47   16   46 1     
   48   18   47 1     
   49   21   48 1     
   50   21   49 1     
@<TRIPOS>SUBSTRUCTURE
      1 S1             1
@<TRIPOS>SET
LONE_PAIRS      STATIC     ATOMS    <user>   **** ""
8 42 43 44 45 46 47 48 49
DONOR_HYDROGENS      STATIC     ATOMS    <user>   **** ""
1 30
ATOM$BLUE        STATIC     ATOMS    COLORGROUP SYSTEM
8 42 43 44 45 46 47 48 49
ATOM$RED        STATIC     ATOMS    COLORGROUP SYSTEM
1 30
