AV-unprocessed.smi:94|AV-procd|sdf|854|dock3
  -GOLD-   2262017303D 1   1.00000     0.00000
 Structure written by MMmdl.
 53 55  0  0  0  0  0  0  0  0  1 V2000
  147.7012  136.9319  154.5524 C   0  0  0  0  0  0  0  0  0  0  0  0
  148.8513  136.3475  155.1461 O   0  0  0  0  0  0  0  0  0  0  0  0
  149.1393  135.0269  154.8652 C   0  0  0  0  0  0  0  0  0  0  0  0
  148.3866  134.2466  153.9502 C   0  0  0  0  0  0  0  0  0  0  0  0
  148.7151  132.8996  153.7125 C   0  0  0  0  0  0  0  0  0  0  0  0
  149.7964  132.3068  154.3889 C   0  0  0  0  0  0  0  0  0  0  0  0
  150.1491  130.8540  154.1444 C   0  0  0  0  0  0  0  0  0  0  0  0
  150.5531  133.0729  155.2952 C   0  0  0  0  0  0  0  0  0  0  0  0
  150.2403  134.4323  155.5333 C   0  0  0  0  0  0  0  0  0  0  0  0
  151.0644  135.2473  156.5319 C   0  0  1  0  0  0  0  0  0  0  0  0
  152.2556  134.4271  157.0545 C   0  0  0  0  0  0  0  0  0  0  0  0
  151.5295  136.5150  155.9689 N   0  0  0  0  0  0  0  0  0  0  0  0
  152.4263  137.3416  156.5288 C   0  0  0  0  0  0  0  0  0  0  0  0
  152.9814  137.1087  157.6036 O   0  0  0  0  0  0  0  0  0  0  0  0
  152.7220  138.6318  155.7491 C   0  0  0  0  0  0  0  0  0  0  0  0
  151.7917  139.7376  156.0651 N   0  0  0  0  0  0  0  0  0  0  0  0
  150.8229  140.1018  155.0970 C   0  0  0  0  0  0  0  0  0  0  0  0
  150.7451  139.5119  154.0183 O   0  0  0  0  0  0  0  0  0  0  0  0
  149.9494  141.2104  155.4653 C   0  0  0  0  0  0  0  0  0  0  0  0
  149.0047  141.6277  154.6055 F   0  0  0  0  0  0  0  0  0  0  0  0
  150.0772  141.8285  156.6570 C   0  0  0  0  0  0  0  0  0  0  0  0
  151.0255  141.4607  157.5934 N   0  0  0  0  0  0  0  0  0  0  0  0
  151.1467  142.1952  158.9091 C   0  0  1  0  0  0  0  0  0  0  0  0
  152.5122  142.8859  159.0072 C   0  0  0  0  0  0  0  0  0  0  0  0
  152.1817  144.3017  158.5846 C   0  0  0  0  0  0  0  0  0  0  0  0
  150.7697  144.4630  159.1340 C   0  0  0  0  0  0  0  0  0  0  0  0
  150.1610  143.1863  158.9664 O   0  0  0  0  0  0  0  0  0  0  0  0
  151.9209  140.4076  157.3055 C   0  0  0  0  0  0  0  0  0  0  0  0
  152.7994  140.0891  158.1099 O   0  0  0  0  0  0  0  0  0  0  0  0
  147.6174  137.9689  154.8770 H   0  0  0  0  0  0  0  0  0  0  0  0
  146.7889  136.4175  154.8572 H   0  0  0  0  0  0  0  0  0  0  0  0
  147.7712  136.9331  153.4639 H   0  0  0  0  0  0  0  0  0  0  0  0
  147.5443  134.6577  153.4152 H   0  0  0  0  0  0  0  0  0  0  0  0
  148.1288  132.3224  153.0122 H   0  0  0  0  0  0  0  0  0  0  0  0
  150.4360  130.3664  155.0765 H   0  0  0  0  0  0  0  0  0  0  0  0
  150.9841  130.7823  153.4473 H   0  0  0  0  0  0  0  0  0  0  0  0
  149.3031  130.3084  153.7253 H   0  0  0  0  0  0  0  0  0  0  0  0
  151.3754  132.6024  155.8138 H   0  0  0  0  0  0  0  0  0  0  0  0
  150.4178  135.4914  157.3763 H   0  0  0  0  0  0  0  0  0  0  0  0
  151.9174  133.5042  157.5268 H   0  0  0  0  0  0  0  0  0  0  0  0
  152.8277  134.9826  157.7980 H   0  0  0  0  0  0  0  0  0  0  0  0
  152.9350  134.1567  156.2456 H   0  0  0  0  0  0  0  0  0  0  0  0
  151.1242  136.7908  155.0863 H   0  0  0  0  0  0  0  0  0  0  0  0
  153.7539  138.9335  155.9384 H   0  0  0  0  0  0  0  0  0  0  0  0
  152.7088  138.3947  154.6843 H   0  0  0  0  0  0  0  0  0  0  0  0
  149.4080  142.6474  156.8754 H   0  0  0  0  0  0  0  0  0  0  0  0
  150.9670  141.4608  159.6956 H   0  0  0  0  0  0  0  0  0  0  0  0
  152.8381  142.8647  160.0478 H   0  0  0  0  0  0  0  0  0  0  0  0
  153.2693  142.4012  158.3892 H   0  0  0  0  0  0  0  0  0  0  0  0
  152.8794  145.0411  158.9784 H   0  0  0  0  0  0  0  0  0  0  0  0
  152.1771  144.3808  157.4967 H   0  0  0  0  0  0  0  0  0  0  0  0
  150.8010  144.7005  160.1983 H   0  0  0  0  0  0  0  0  0  0  0  0
  150.2060  145.2457  158.6262 H   0  0  0  0  0  0  0  0  0  0  0  0
  1  2  1  0  0  0  0
  1 30  1  0  0  0  0
  1 31  1  0  0  0  0
  1 32  1  0  0  0  0
  2  3  1  0  0  0  0
  3  9  1  0  0  0  0
  3  4  2  0  0  0  0
  4  5  1  0  0  0  0
  4 33  1  0  0  0  0
  5  6  2  0  0  0  0
  5 34  1  0  0  0  0
  6  7  1  0  0  0  0
  6  8  1  0  0  0  0
  7 35  1  0  0  0  0
  7 36  1  0  0  0  0
  7 37  1  0  0  0  0
  8  9  2  0  0  0  0
  8 38  1  0  0  0  0
  9 10  1  0  0  0  0
 10 11  1  0  0  0  0
 10 12  1  0  0  0  0
 10 39  1  0  0  0  0
 11 40  1  0  0  0  0
 11 41  1  0  0  0  0
 11 42  1  0  0  0  0
 12 13  1  0  0  0  0
 12 43  1  0  0  0  0
 13 14  2  0  0  0  0
 13 15  1  0  0  0  0
 15 16  1  0  0  0  0
 15 44  1  0  0  0  0
 15 45  1  0  0  0  0
 16 28  1  0  0  0  0
 16 17  1  0  0  0  0
 17 18  2  0  0  0  0
 17 19  1  0  0  0  0
 19 20  1  0  0  0  0
 19 21  2  0  0  0  0
 21 22  1  0  0  0  0
 21 46  1  0  0  0  0
 22 23  1  0  0  0  0
 22 28  1  0  0  0  0
 23 27  1  0  0  0  0
 23 24  1  0  0  0  0
 23 47  1  0  0  0  0
 24 25  1  0  0  0  0
 24 48  1  0  0  0  0
 24 49  1  0  0  0  0
 25 26  1  0  0  0  0
 25 50  1  0  0  0  0
 25 51  1  0  0  0  0
 26 27  1  0  0  0  0
 26 52  1  0  0  0  0
 26 53  1  0  0  0  0
 28 29  2  0  0  0  0
M  END
> <s_m_source_file>
AV-unprocessed.smi

> <i_m_source_file_index>
94

> <i_lp_mmshare_version>
43012

> <i_f3d_flags>
0

> <s_epik_input>
W0NIM11PYzFbY0hdW2NIXWMoW0NIM10pW2NIXWMxW0NASF0oW0NIM10pW05IXUMoPU8pW0NIMl1uMmMoPU8pYyhGKVtjSF1uKGMyPU8pW0NAQEhdM1tDSDJdW0NIMl1bQ0gyXU8z

> <s_epik_cmdline>
J2VwaWtfcHl0aG9uJywgJy1waCcsICc3LjAnLCAnLXRuJywgJzgnLCAnLW1hJywgJzIwMCcsICctbWV0YWxfYmluZGluZycsICctaW1hZScsICc8aW5maWxlLm1hZT4nLCAnLW9tYWUnLCAnPG91dGZpbGUubWFlPic=

> <r_lp_tautomer_probability>
1

> <r_epik_Ionization_Penalty>
3.37009e-08

> <r_epik_Ionization_Penalty_Charging>
3.59856e-09

> <r_epik_Ionization_Penalty_Neutral>
3.01024e-08

> <r_epik_State_Penalty>
-0

> <r_epik_Charging_Adjusted_Penalty>
3.59856e-09

> <i_epik_Tot_Q>
0

> <i_epik_Tot_abs_Q>
0

> <r_epik_Metal_State_Penalty>
-0

> <b_epik_Metal_Only>
0

> <s_epik_Chemistry_Notes>
This compound contains an acetal/aminal-like group ( X-CH(R)-Y where X, Y are N, S, or O) that may be acid/base labile, releasing an aldehyde.

> <s_lp_Force_Field>
OPLS_2005

> <r_lp_Energy>
32.8189

> <b_lp_Chiralities_Consistent>
1

> <s_lp_Variant>
AV-unprocessed.smi:94-4

> <Gold.Version>
5.8.1

> <Gold.Id.Protein>
6NUR|6NUR_protein|mol2

> <Gold.PLP.Fitness>
52.0669

> <Gold.PLP.PLP>
-46.8438

> <Gold.PLP.part.hbond>
-2.0000

> <Gold.PLP.part.metal>
0.0000

> <Gold.PLP.part.buried>
2.5665

> <Gold.PLP.part.nonpolar>
-47.5882

> <Gold.PLP.part.repulsive>
0.4890

> <Gold.PLP.ligand.clash>
0.0000

> <Gold.PLP.ligand.torsion>
0.7780

> <Gold.PLP.Chemscore.Hbond>
1.2420

> <Gold.PLP.Chemscore.CHOScore>
0.9962

> <Gold.PLP.Chemscore.Metal>
0.0000

> <Gold.Chemscore.Hbonds>
donor molecule, donor type, donor heavy atom, donor atom, acceptor molecule, acceptor atom, score
      P1  H  7989  7998       L1    18  0.15
      P1  H  7997  8010       L1    29  0.78
      L1  C    21    46       P1  8028  1.00

> <Gold.PLP.Chemscore.Internal.Correction>
0.0646

> <Gold.Rescore>
     Score         DG    S(hbond)    S(metal)    S(lipo)     H(rot)  DE(clash)    DE(int)     intcor
     11.29     -13.95       0.89        0.00      98.05       2.34       0.18       2.48       ----

> <Gold.Chemscore.Fitness>
11.2898

> <Gold.Chemscore.DG>
-13.9460

> <Gold.Chemscore.ZeroCoef>
-5.4800

> <Gold.Chemscore.Hbond>
0.8912

> <Gold.Chemscore.Metal>
0.0000

> <Gold.Chemscore.Lipo>
98.0507

> <Gold.Chemscore.Internal_Hbond>
0.0000

> <Gold.Chemscore.DEClash>
0.1812

> <Gold.Chemscore.DEInternal>
2.4750

> <Gold.Chemscore.Rot>
2.3370

> <Gold.Chemscore.Internal.Correction>
   9.000000E+99

> <Gold.Chemscore.Hbonds>
donor molecule, donor type, donor heavy atom, donor atom, acceptor molecule, acceptor atom, score
      P1  H  7997  8010       L1    29  0.45

> <Gold.Chemscore.Hbond.Weighted>
-2.9768

> <Gold.Chemscore.Metal.Weighted>
-0.0000

> <Gold.Chemscore.Lipo.Weighted>
-11.4719

> <Gold.Chemscore.Internal_Hbond.Weighted>
0.0000

> <Gold.Chemscore.DEClash.Weighted>
0.1812

> <Gold.Chemscore.DEInternal.Weighted>
2.4750

> <Gold.Chemscore.Rot.Weighted>
5.9827

> <Gold.Chemscore.Internal.Correction.Weighted>
   9.000000E+99

> <Gold.Protein.RotatedTorsions>
[ 6907 6896 6895 6894 ] final   83.98 input  -60.11 | X-H torsion
[ 7974 7965 7964 7962 ] final -156.18 input  175.53 | X-H torsion
[ 8008 7997 7996 7995 ] final   31.04 input   59.86 | X-H torsion
[ 10167 10162 10161 10158 ] final    1.72 input  -65.29 | X-H torsion
[ 10718 10713 10712 10709 ] final -140.91 input   66.30 | X-H torsion
[ 10763 10752 10751 10750 ] final -118.96 input  -60.55 | X-H torsion
[ 11005 11000 10999 10996 ] final   97.77 input  -57.11 | X-H torsion

> <Gold.Protein.ActiveResidues>
 VAL166  LYS551  ARG553  GLY616  TRP617  ASP618  TYR619  PRO620  LYS621  CYS622 
 ASP623  PHE694  ASN695  SER759  ASP760  ASP761  ALA762  ILE779  LEU786  VAL792 
 PHE793  MET794  SER795  GLU796  ALA797  LYS798  CYS799  TRP800  GLU811  SER814 

> <Gold.Protein.RotatedAtoms>
  152.5341  134.2812  159.9007 H   0  0  0  0  0  0  0  0  0  0  0  0  # atno 6907 bound_to 6896
  151.2766  133.4223  159.2632 H   0  0  0  0  0  0  0  0  0  0  0  0  # atno 6908 bound_to 6896
  151.0320  134.9561  159.8173 H   0  0  0  0  0  0  0  0  0  0  0  0  # atno 6909 bound_to 6896
  144.7605  140.4145  143.5980 H   0  0  0  0  0  0  0  0  0  0  0  0  # atno 7974 bound_to 7965
  155.1001  140.3228  155.4549 H   0  0  0  0  0  0  0  0  0  0  0  0  # atno 8008 bound_to 7997
  156.2719  140.2062  156.6074 H   0  0  0  0  0  0  0  0  0  0  0  0  # atno 8009 bound_to 7997
  154.6836  140.0523  157.0278 H   0  0  0  0  0  0  0  0  0  0  0  0  # atno 8010 bound_to 7997
  140.6669  143.7154  150.7845 H   0  0  0  0  0  0  0  0  0  0  0  0  # atno 10167 bound_to 10162
  156.3279  130.7570  151.1681 H   0  0  0  0  0  0  0  0  0  0  0  0  # atno 10718 bound_to 10713
  154.8603  135.4255  154.2222 H   0  0  0  0  0  0  0  0  0  0  0  0  # atno 10763 bound_to 10752
  153.3225  135.6983  153.7024 H   0  0  0  0  0  0  0  0  0  0  0  0  # atno 10764 bound_to 10752
  153.6073  135.3526  155.2940 H   0  0  0  0  0  0  0  0  0  0  0  0  # atno 10765 bound_to 10752
  139.8774  134.9017  156.4356 H   0  0  0  0  0  0  0  0  0  0  0  0  # atno 11005 bound_to 11000
  145.6636  139.1586  143.2794 LP  0  0  0  0  0  0  0  0  0  0  0  0  # atno 17320 bound_to 7965
  146.1662  140.6714  142.9254 LP  0  0  0  0  0  0  0  0  0  0  0  0  # atno 17321 bound_to 7965
  140.0833  143.4948  152.2518 LP  0  0  0  0  0  0  0  0  0  0  0  0  # atno 17342 bound_to 10162
  139.5922  144.7554  151.3374 LP  0  0  0  0  0  0  0  0  0  0  0  0  # atno 17343 bound_to 10162
  157.7425  131.0489  150.5022 LP  0  0  0  0  0  0  0  0  0  0  0  0  # atno 17370 bound_to 10713
  156.5183  130.4156  149.6264 LP  0  0  0  0  0  0  0  0  0  0  0  0  # atno 17371 bound_to 10713
  140.9036  133.7762  155.9708 LP  0  0  0  0  0  0  0  0  0  0  0  0  # atno 17394 bound_to 11000
  140.8624  134.2825  157.5228 LP  0  0  0  0  0  0  0  0  0  0  0  0  # atno 17395 bound_to 11000

$$$$
