AV-unprocessed.smi:1994|AV-procd|sdf|8073|dock10
  -GOLD-   2272010283D 1   1.00000     0.00000
 Structure written by MMmdl.
 39 41  0  0  0  0  0  0  0  0  1 V2000
  153.4671  138.8779  160.2766 C   0  0  0  0  0  0  0  0  0  0  0  0
  153.0397  140.2386  159.8257 C   0  0  0  0  0  0  0  0  0  0  0  0
  153.3904  141.3462  160.4802 N   0  0  0  0  0  0  0  0  0  0  0  0
  152.7869  142.3418  159.7362 C   0  0  0  0  0  0  0  0  0  0  0  0
  152.7793  143.7443  159.9117 C   0  0  0  0  0  0  0  0  0  0  0  0
  152.0803  144.5730  159.0096 C   0  0  0  0  0  0  0  0  0  0  0  0
  151.3803  144.0130  157.9212 C   0  0  0  0  0  0  0  0  0  0  0  0
  151.3749  142.6181  157.7279 C   0  0  0  0  0  0  0  0  0  0  0  0
  152.0742  141.7955  158.6313 C   0  0  0  0  0  0  0  0  0  0  0  0
  152.2667  140.4212  158.7264 N   0  0  0  0  0  0  0  0  0  0  0  0
  151.7319  139.4146  157.8200 C   0  0  0  0  0  0  0  0  0  0  0  0
  152.2195  139.6091  156.3698 C   0  0  1  0  0  0  0  0  0  0  0  0
  153.4141  138.8948  156.1212 O   0  0  0  0  0  0  0  0  0  0  0  0
  151.1698  139.2335  155.3110 C   0  0  0  0  0  0  0  0  0  0  0  0
  150.5263  140.4056  154.8260 O   0  0  0  0  0  0  0  0  0  0  0  0
  149.2605  140.2869  154.2926 C   0  0  0  0  0  0  0  0  0  0  0  0
  148.7382  139.0888  153.7415 C   0  0  0  0  0  0  0  0  0  0  0  0
  147.4326  139.0562  153.2136 C   0  0  0  0  0  0  0  0  0  0  0  0
  146.6342  140.2146  153.2298 C   0  0  0  0  0  0  0  0  0  0  0  0
  147.1434  141.4073  153.7756 C   0  0  0  0  0  0  0  0  0  0  0  0
  148.4486  141.4415  154.3034 C   0  0  0  0  0  0  0  0  0  0  0  0
  148.9271  142.5965  154.8248 F   0  0  0  0  0  0  0  0  0  0  0  0
  154.1596  138.9527  161.1158 H   0  0  0  0  0  0  0  0  0  0  0  0
  153.9678  138.3478  159.4666 H   0  0  0  0  0  0  0  0  0  0  0  0
  152.6006  138.2988  160.5962 H   0  0  0  0  0  0  0  0  0  0  0  0
  153.3119  144.1828  160.7427 H   0  0  0  0  0  0  0  0  0  0  0  0
  152.0809  145.6436  159.1534 H   0  0  0  0  0  0  0  0  0  0  0  0
  150.8472  144.6549  157.2352 H   0  0  0  0  0  0  0  0  0  0  0  0
  150.8400  142.1849  156.8959 H   0  0  0  0  0  0  0  0  0  0  0  0
  151.9910  138.4214  158.1867 H   0  0  0  0  0  0  0  0  0  0  0  0
  150.6435  139.4743  157.8548 H   0  0  0  0  0  0  0  0  0  0  0  0
  152.4657  140.6619  156.2263 H   0  0  0  0  0  0  0  0  0  0  0  0
  153.6588  138.4341  156.9090 H   0  0  0  0  0  0  0  0  0  0  0  0
  151.6762  138.7373  154.4816 H   0  0  0  0  0  0  0  0  0  0  0  0
  150.4451  138.5308  155.7258 H   0  0  0  0  0  0  0  0  0  0  0  0
  149.3193  138.1799  153.7105 H   0  0  0  0  0  0  0  0  0  0  0  0
  147.0438  138.1396  152.7949 H   0  0  0  0  0  0  0  0  0  0  0  0
  145.6336  140.1887  152.8241 H   0  0  0  0  0  0  0  0  0  0  0  0
  146.5328  142.2982  153.7888 H   0  0  0  0  0  0  0  0  0  0  0  0
  1  2  1  0  0  0  0
  1 23  1  0  0  0  0
  1 24  1  0  0  0  0
  1 25  1  0  0  0  0
  2 10  1  0  0  0  0
  2  3  2  0  0  0  0
  3  4  1  0  0  0  0
  4  9  2  0  0  0  0
  4  5  1  0  0  0  0
  5  6  2  0  0  0  0
  5 26  1  0  0  0  0
  6  7  1  0  0  0  0
  6 27  1  0  0  0  0
  7  8  2  0  0  0  0
  7 28  1  0  0  0  0
  8  9  1  0  0  0  0
  8 29  1  0  0  0  0
  9 10  1  0  0  0  0
 10 11  1  0  0  0  0
 11 12  1  0  0  0  0
 11 30  1  0  0  0  0
 11 31  1  0  0  0  0
 12 13  1  0  0  0  0
 12 14  1  0  0  0  0
 12 32  1  0  0  0  0
 13 33  1  0  0  0  0
 14 15  1  0  0  0  0
 14 34  1  0  0  0  0
 14 35  1  0  0  0  0
 15 16  1  0  0  0  0
 16 21  1  0  0  0  0
 16 17  2  0  0  0  0
 17 18  1  0  0  0  0
 17 36  1  0  0  0  0
 18 19  2  0  0  0  0
 18 37  1  0  0  0  0
 19 20  1  0  0  0  0
 19 38  1  0  0  0  0
 20 21  2  0  0  0  0
 20 39  1  0  0  0  0
 21 22  1  0  0  0  0
M  END
> <s_m_source_file>
AV-unprocessed.smi

> <i_m_source_file_index>
1994

> <i_lp_mmshare_version>
43012

> <i_f3d_flags>
0

> <s_epik_input>
W2NIXTFbY0hdW2NIXVtjSF1jKGMxMiluKGMobjIpW0NIM10pW0NIMl1bQ0BIXShbT0hdKVtDSDJdT2MzW2NIXVtjSF1bY0hdW2NIXWMzRg==

> <s_epik_cmdline>
J2VwaWtfcHl0aG9uJywgJy1waCcsICc3LjAnLCAnLXRuJywgJzgnLCAnLW1hJywgJzIwMCcsICctbWV0YWxfYmluZGluZycsICctaW1hZScsICc8aW5maWxlLm1hZT4nLCAnLW9tYWUnLCAnPG91dGZpbGUubWFlPic=

> <r_lp_tautomer_probability>
1

> <r_epik_Ionization_Penalty>
0.112614

> <r_epik_Ionization_Penalty_Charging>
0

> <r_epik_Ionization_Penalty_Neutral>
0.112614

> <r_epik_State_Penalty>
0.10231

> <r_epik_Charging_Adjusted_Penalty>
0.10231

> <i_epik_Tot_Q>
0

> <i_epik_Tot_abs_Q>
0

> <r_epik_Metal_State_Penalty>
0.000111664

> <b_epik_Metal_Only>
0

> <s_lp_Force_Field>
OPLS_2005

> <r_lp_Energy>
17.3721

> <b_lp_Chiralities_Consistent>
1

> <s_lp_Variant>
AV-unprocessed.smi:1994-2

> <Gold.Version>
5.8.1

> <Gold.Id.Protein>
6NUR|6NUR_protein|mol2

> <Gold.PLP.Fitness>
46.4911

> <Gold.PLP.PLP>
-44.0230

> <Gold.PLP.part.hbond>
-1.8228

> <Gold.PLP.part.metal>
0.0000

> <Gold.PLP.part.buried>
5.5689

> <Gold.PLP.part.nonpolar>
-47.5793

> <Gold.PLP.part.repulsive>
0.0770

> <Gold.PLP.ligand.clash>
0.0000

> <Gold.PLP.ligand.torsion>
1.5014

> <Gold.PLP.Chemscore.Hbond>
1.8160

> <Gold.PLP.Chemscore.CHOScore>
0.0000

> <Gold.PLP.Chemscore.Metal>
0.0000

> <Gold.Chemscore.Hbonds>
donor molecule, donor type, donor heavy atom, donor atom, acceptor molecule, acceptor atom, score
      P1  H  7989  7998       L1    15  1.00
      P1  H  7997  8010       L1    13  0.80

> <Gold.PLP.Chemscore.Internal.Correction>
0.0229

> <Gold.Rescore>
     Score         DG    S(hbond)    S(metal)    S(lipo)     H(rot)  DE(clash)    DE(int)     intcor
     14.78     -17.19       0.66        0.00     129.30       2.19       0.93       1.49       ----

> <Gold.Chemscore.Fitness>
14.7752

> <Gold.Chemscore.DG>
-17.1934

> <Gold.Chemscore.ZeroCoef>
-5.4800

> <Gold.Chemscore.Hbond>
0.6551

> <Gold.Chemscore.Metal>
0.0000

> <Gold.Chemscore.Lipo>
129.3003

> <Gold.Chemscore.Internal_Hbond>
0.0000

> <Gold.Chemscore.DEClash>
0.9262

> <Gold.Chemscore.DEInternal>
1.4921

> <Gold.Chemscore.Rot>
2.1886

> <Gold.Chemscore.Internal.Correction>
   9.000000E+99

> <Gold.Chemscore.Hbonds>
donor molecule, donor type, donor heavy atom, donor atom, acceptor molecule, acceptor atom, score
      P1  H  7989  7998       L1    15  0.18
      P1  H  7997  8010       L1    13  0.04

> <Gold.Chemscore.Hbond.Weighted>
-2.1882

> <Gold.Chemscore.Metal.Weighted>
-0.0000

> <Gold.Chemscore.Lipo.Weighted>
-15.1281

> <Gold.Chemscore.Internal_Hbond.Weighted>
0.0000

> <Gold.Chemscore.DEClash.Weighted>
0.9262

> <Gold.Chemscore.DEInternal.Weighted>
1.4921

> <Gold.Chemscore.Rot.Weighted>
5.6028

> <Gold.Chemscore.Internal.Correction.Weighted>
   9.000000E+99

> <Gold.Protein.RotatedTorsions>
[ 6907 6896 6895 6894 ] final  133.64 input  -60.11 | X-H torsion
[ 7974 7965 7964 7962 ] final  109.18 input  175.53 | X-H torsion
[ 8008 7997 7996 7995 ] final   87.63 input   59.86 | X-H torsion
[ 10167 10162 10161 10158 ] final -173.41 input  -65.29 | X-H torsion
[ 10718 10713 10712 10709 ] final  157.58 input   66.30 | X-H torsion
[ 10763 10752 10751 10750 ] final  125.15 input  -60.55 | X-H torsion
[ 11005 11000 10999 10996 ] final -133.33 input  -57.11 | X-H torsion

> <Gold.Protein.ActiveResidues>
 VAL166  LYS551  ARG553  GLY616  TRP617  ASP618  TYR619  PRO620  LYS621  CYS622 
 ASP623  PHE694  ASN695  SER759  ASP760  ASP761  ALA762  ILE779  LEU786  VAL792 
 PHE793  MET794  SER795  GLU796  ALA797  LYS798  CYS799  TRP800  GLU811  SER814 

> <Gold.Protein.RotatedAtoms>
  152.3198  133.5841  159.5736 H   0  0  0  0  0  0  0  0  0  0  0  0  # atno 6907 bound_to 6896
  150.7365  134.0028  159.3653 H   0  0  0  0  0  0  0  0  0  0  0  0  # atno 6908 bound_to 6896
  151.7914  135.0735  160.0438 H   0  0  0  0  0  0  0  0  0  0  0  0  # atno 6909 bound_to 6896
  145.2712  139.2666  143.3965 H   0  0  0  0  0  0  0  0  0  0  0  0  # atno 7974 bound_to 7965
  155.9777  140.3380  155.6634 H   0  0  0  0  0  0  0  0  0  0  0  0  # atno 8008 bound_to 7997
  155.6590  140.0714  157.2579 H   0  0  0  0  0  0  0  0  0  0  0  0  # atno 8009 bound_to 7997
  154.4183  140.1712  156.1744 H   0  0  0  0  0  0  0  0  0  0  0  0  # atno 8010 bound_to 7997
  139.5690  144.1687  152.1356 H   0  0  0  0  0  0  0  0  0  0  0  0  # atno 10167 bound_to 10162
  157.1896  131.0651  151.2087 H   0  0  0  0  0  0  0  0  0  0  0  0  # atno 10718 bound_to 10713
  153.6728  135.3327  155.3158 H   0  0  0  0  0  0  0  0  0  0  0  0  # atno 10763 bound_to 10752
  154.8486  135.4390  154.1688 H   0  0  0  0  0  0  0  0  0  0  0  0  # atno 10764 bound_to 10752
  153.2683  135.6998  153.7583 H   0  0  0  0  0  0  0  0  0  0  0  0  # atno 10765 bound_to 10752
  140.9090  134.1592  157.4403 H   0  0  0  0  0  0  0  0  0  0  0  0  # atno 11005 bound_to 11000
  146.3246  140.3154  142.8629 LP  0  0  0  0  0  0  0  0  0  0  0  0  # atno 17320 bound_to 7965
  144.9334  140.8000  143.5675 LP  0  0  0  0  0  0  0  0  0  0  0  0  # atno 17321 bound_to 7965
  140.1215  144.5369  150.6859 LP  0  0  0  0  0  0  0  0  0  0  0  0  # atno 17342 bound_to 10162
  140.6974  143.2412  151.4961 LP  0  0  0  0  0  0  0  0  0  0  0  0  # atno 17343 bound_to 10162
  157.3874  130.7263  149.6673 LP  0  0  0  0  0  0  0  0  0  0  0  0  # atno 17370 bound_to 10713
  155.9713  130.4156  150.4188 LP  0  0  0  0  0  0  0  0  0  0  0  0  # atno 17371 bound_to 10713
  139.8754  134.9928  156.5615 LP  0  0  0  0  0  0  0  0  0  0  0  0  # atno 17394 bound_to 11000
  140.8134  133.8411  155.8830 LP  0  0  0  0  0  0  0  0  0  0  0  0  # atno 17395 bound_to 11000

$$$$
