#       Name:                AV-unprocessed.smi:934
#       Creating user name   scv26
#       Creation time:       Fri Mar 27 02:11:28 2020


#       File generated by GOLD software.
#

@<TRIPOS>MOLECULE
AV-unprocessed.smi:934
    48    49     1
SMALL
NO_CHARGES


@<TRIPOS>ATOM
      1 ****        -2.4368   1.8986   1.7616 C.3            1 S1                 0.0000
      2 ****        -1.7234   0.6201   1.7384 N.3            1 S1                 0.0000
      3 ****        -2.3762  -0.2572   2.7117 C.3            1 S1                 0.0000
      4 ****        -0.2379   0.7249   1.8172 C.3            1 S1                 0.0000
      5 ****         0.2629   1.4516   0.5262 C.3            1 S1                 0.0000
      6 ****        -0.2178   0.8229  -0.7042 N.am           1 S1                 0.0000
      7 ****         0.5236   0.1201  -1.5719 C.2            1 S1                 0.0000
      8 ****         1.7334  -0.0623  -1.4411 O.2            1 S1                 0.0000
      9 ****        -0.2325  -0.3411  -2.5829 N.am           1 S1                 0.0000
     10 ****         0.1463  -1.1191  -3.7116 C.ar           1 S1                 0.0000
     11 ****         1.3915  -1.7783  -3.8607 C.ar           1 S1                 0.0000
     12 ****         1.6296  -2.5248  -5.0311 C.ar           1 S1                 0.0000
     13 ****         0.6156  -2.5909  -6.0059 C.ar           1 S1                 0.0000
     14 ****        -0.5782  -1.9763  -5.8737 N.ar           1 S1                 0.0000
     15 ****        -0.7990  -1.2622  -4.7496 C.ar           1 S1                 0.0000
     16 ****         0.2104   1.5123   3.0807 C.3            1 S1                 0.0000
     17 ****         1.7321   1.4400   3.3159 C.3            1 S1                 0.0000
     18 ****         2.1635   0.0873   3.3873 O.3            1 S1                 0.0000
     19 ****         1.9232  -0.6357   2.1867 C.3            1 S1                 0.0000
     20 ****         0.4092  -0.6905   1.9150 C.3            1 S1                 0.0000
     21 ****        -2.1057   2.5771   0.9781 H              1 S1                 0.0000
     22 ****        -2.3314   2.4019   2.7229 H              1 S1                 0.0000
     23 ****        -3.5024   1.7397   1.5920 H              1 S1                 0.0000
     24 ****        -2.0863  -1.2982   2.5785 H              1 S1                 0.0000
     25 ****        -3.4586  -0.2361   2.5797 H              1 S1                 0.0000
     26 ****        -2.1663   0.0393   3.7387 H              1 S1                 0.0000
     27 ****        -0.0556   2.4928   0.5116 H              1 S1                 0.0000
     28 ****         1.3493   1.5200   0.5072 H              1 S1                 0.0000
     29 ****        -1.2054   0.9126  -0.8932 H              1 S1                 0.0000
     30 ****        -1.2044  -0.0684  -2.5606 H              1 S1                 0.0000
     31 ****         2.1633  -1.7399  -3.1091 H              1 S1                 0.0000
     32 ****         2.5686  -3.0379  -5.1767 H              1 S1                 0.0000
     33 ****         0.7664  -3.1553  -6.9142 H              1 S1                 0.0000
     34 ****        -1.7661  -0.7859  -4.6783 H              1 S1                 0.0000
     35 ****        -0.0830   2.5601   3.0124 H              1 S1                 0.0000
     36 ****        -0.2789   1.1166   3.9701 H              1 S1                 0.0000
     37 ****         2.2832   1.9681   2.5373 H              1 S1                 0.0000
     38 ****         1.9822   1.9311   4.2564 H              1 S1                 0.0000
     39 ****         2.4766  -0.1965   1.3569 H              1 S1                 0.0000
     40 ****         2.3108  -1.6468   2.3116 H              1 S1                 0.0000
     41 ****        -0.0033  -1.2539   2.7502 H              1 S1                 0.0000
     42 ****         0.2065  -1.2814   1.0217 H              1 S1                 0.0000
     43 ****        -1.8009   0.1967   0.8358 LP             1 S1                 0.0000
     44 ****         2.2150   0.3234  -0.6541 LP             1 S1                 0.0000
     45 ****         2.2351  -0.5961  -2.1218 LP             1 S1                 0.0000
     46 ****        -1.2769  -2.0474  -6.5855 LP             1 S1                 0.0000
     47 ****         1.6754  -0.3640   4.1343 LP             1 S1                 0.0000
     48 ****         3.1456   0.0754   3.5755 LP             1 S1                 0.0000
@<TRIPOS>BOND
    1    1    2 1     
    2    1   21 1     
    3    1   22 1     
    4    1   23 1     
    5    2    3 1     
    6    2    4 1     
    7    3   24 1     
    8    3   25 1     
    9    3   26 1     
   10    4   20 1     
   11    4    5 1     
   12    4   16 1     
   13    5    6 1     
   14    5   27 1     
   15    5   28 1     
   16    6    7 am    
   17    6   29 1     
   18    7    8 2     
   19    7    9 am    
   20    9   10 1     
   21    9   30 1     
   22   10   15 ar    
   23   10   11 ar    
   24   11   12 ar    
   25   11   31 1     
   26   12   13 ar    
   27   12   32 1     
   28   13   14 ar    
   29   13   33 1     
   30   14   15 ar    
   31   15   34 1     
   32   16   17 1     
   33   16   35 1     
   34   16   36 1     
   35   17   18 1     
   36   17   37 1     
   37   17   38 1     
   38   18   19 1     
   39   19   20 1     
   40   19   39 1     
   41   19   40 1     
   42   20   41 1     
   43   20   42 1     
   44    2   43 1     
   45    8   44 1     
   46    8   45 1     
   47   14   46 1     
   48   18   47 1     
   49   18   48 1     
@<TRIPOS>SUBSTRUCTURE
      1 S1             1
@<TRIPOS>SET
LONE_PAIRS      STATIC     ATOMS    <user>   **** ""
6 43 44 45 46 47 48
DONOR_HYDROGENS      STATIC     ATOMS    <user>   **** ""
2 29 30
ATOM$BLUE        STATIC     ATOMS    COLORGROUP SYSTEM
6 43 44 45 46 47 48
ATOM$RED        STATIC     ATOMS    COLORGROUP SYSTEM
2 29 30
