AV-unprocessed.smi:1627|AV-procd|sdf|6516|dock7
  -GOLD-   22720 7183D 1   1.00000     0.00000
 Structure written by MMmdl.
 43 44  0  0  0  0  0  0  0  0  1 V2000
  140.8834  140.8817  156.0881 C   0  0  0  0  0  0  0  0  0  0  0  0
  140.6343  140.4114  154.6475 C   0  0  2  0  0  0  0  0  0  0  0  0
  139.2592  140.6454  154.3537 O   0  0  0  0  0  0  0  0  0  0  0  0
  138.8687  142.0136  154.2915 C   0  0  0  0  0  0  0  0  0  0  0  0
  137.3436  142.0990  154.1553 C   0  0  0  0  0  0  0  0  0  0  0  0
  136.9924  143.3643  153.9285 F   0  0  0  0  0  0  0  0  0  0  0  0
  136.9305  141.3503  153.1331 F   0  0  0  0  0  0  0  0  0  0  0  0
  136.7564  141.6871  155.2786 F   0  0  0  0  0  0  0  0  0  0  0  0
  140.9699  138.9202  154.4821 C   0  0  0  0  0  0  0  0  0  0  0  0
  140.3539  138.0814  155.1391 O   0  0  0  0  0  0  0  0  0  0  0  0
  141.9494  138.6343  153.6044 N   0  0  0  0  0  0  0  0  0  0  0  0
  142.4417  137.3599  153.2145 C   0  0  0  0  0  0  0  0  0  0  0  0
  141.8030  136.2146  153.7310 C   0  0  0  0  0  0  0  0  0  0  0  0
  142.2897  134.9405  153.3825 C   0  0  0  0  0  0  0  0  0  0  0  0
  143.4102  134.8528  152.5314 C   0  0  0  0  0  0  0  0  0  0  0  0
  143.9037  133.5880  152.1815 N   0  0  0  0  0  0  0  0  0  0  0  0
  145.2396  133.3263  152.7119 C   0  0  0  0  0  0  0  0  0  0  0  0
  145.6426  131.8599  152.4788 C   0  0  0  0  0  0  0  0  0  0  0  0
  145.5194  131.4863  150.9927 C   0  0  0  0  0  0  0  0  0  0  0  0
  144.1078  131.8114  150.4780 C   0  0  0  0  0  0  0  0  0  0  0  0
  143.7440  133.2792  150.7625 C   0  0  0  0  0  0  0  0  0  0  0  0
  144.0398  135.9463  152.0409 N   0  0  0  0  0  0  0  0  0  0  0  0
  143.5680  137.1655  152.3783 C   0  0  0  0  0  0  0  0  0  0  0  0
  141.9189  140.7136  156.3865 H   0  0  0  0  0  0  0  0  0  0  0  0
  140.2403  140.3606  156.7984 H   0  0  0  0  0  0  0  0  0  0  0  0
  140.6822  141.9487  156.1855 H   0  0  0  0  0  0  0  0  0  0  0  0
  141.2544  141.0111  153.9783 H   0  0  0  0  0  0  0  0  0  0  0  0
  139.1883  142.5317  155.1967 H   0  0  0  0  0  0  0  0  0  0  0  0
  139.3370  142.5180  153.4454 H   0  0  0  0  0  0  0  0  0  0  0  0
  142.4340  139.4267  153.2084 H   0  0  0  0  0  0  0  0  0  0  0  0
  140.9484  136.3074  154.3852 H   0  0  0  0  0  0  0  0  0  0  0  0
  141.8128  134.0494  153.7641 H   0  0  0  0  0  0  0  0  0  0  0  0
  145.9596  133.9887  152.2289 H   0  0  0  0  0  0  0  0  0  0  0  0
  145.2628  133.5524  153.7788 H   0  0  0  0  0  0  0  0  0  0  0  0
  146.6631  131.6936  152.8246 H   0  0  0  0  0  0  0  0  0  0  0  0
  145.0025  131.2069  153.0735 H   0  0  0  0  0  0  0  0  0  0  0  0
  146.2576  132.0416  150.4128 H   0  0  0  0  0  0  0  0  0  0  0  0
  145.7395  130.4282  150.8496 H   0  0  0  0  0  0  0  0  0  0  0  0
  144.0425  131.6110  149.4083 H   0  0  0  0  0  0  0  0  0  0  0  0
  143.3830  131.1557  150.9622 H   0  0  0  0  0  0  0  0  0  0  0  0
  142.7150  133.4723  150.4567 H   0  0  0  0  0  0  0  0  0  0  0  0
  144.3819  133.9385  150.1719 H   0  0  0  0  0  0  0  0  0  0  0  0
  144.1328  137.9936  151.9798 H   0  0  0  0  0  0  0  0  0  0  0  0
  1  2  1  0  0  0  0
  1 24  1  0  0  0  0
  1 25  1  0  0  0  0
  1 26  1  0  0  0  0
  2  3  1  0  0  0  0
  2  9  1  0  0  0  0
  2 27  1  0  0  0  0
  3  4  1  0  0  0  0
  4  5  1  0  0  0  0
  4 28  1  0  0  0  0
  4 29  1  0  0  0  0
  5  6  1  0  0  0  0
  5  7  1  0  0  0  0
  5  8  1  0  0  0  0
  9 10  2  0  0  0  0
  9 11  1  0  0  0  0
 11 12  1  0  0  0  0
 11 30  1  0  0  0  0
 12 23  1  0  0  0  0
 12 13  2  0  0  0  0
 13 14  1  0  0  0  0
 13 31  1  0  0  0  0
 14 15  2  0  0  0  0
 14 32  1  0  0  0  0
 15 16  1  0  0  0  0
 15 22  1  0  0  0  0
 16 21  1  0  0  0  0
 16 17  1  0  0  0  0
 17 18  1  0  0  0  0
 17 33  1  0  0  0  0
 17 34  1  0  0  0  0
 18 19  1  0  0  0  0
 18 35  1  0  0  0  0
 18 36  1  0  0  0  0
 19 20  1  0  0  0  0
 19 37  1  0  0  0  0
 19 38  1  0  0  0  0
 20 21  1  0  0  0  0
 20 39  1  0  0  0  0
 20 40  1  0  0  0  0
 21 41  1  0  0  0  0
 21 42  1  0  0  0  0
 22 23  2  0  0  0  0
 23 43  1  0  0  0  0
M  END
> <s_m_source_file>
AV-unprocessed.smi

> <i_m_source_file_index>
1627

> <i_lp_mmshare_version>
43012

> <i_f3d_flags>
0

> <s_epik_input>
RkMoRikoRilbQ0gyXU9bQ0BASF0oW0NIM10pQyg9TylbTkhdYzFbY0hdW2NIXWMobltjSF0xKU4yW0NIMl1bQ0gyXVtDSDJdW0NIMl1bQ0gyXTI=

> <s_epik_cmdline>
J2VwaWtfcHl0aG9uJywgJy1waCcsICc3LjAnLCAnLXRuJywgJzgnLCAnLW1hJywgJzIwMCcsICctbWV0YWxfYmluZGluZycsICctaW1hZScsICc8aW5maWxlLm1hZT4nLCAnLW9tYWUnLCAnPG91dGZpbGUubWFlPic=

> <r_lp_tautomer_probability>
1

> <r_epik_Ionization_Penalty>
0.0254771

> <r_epik_Ionization_Penalty_Charging>
0

> <r_epik_Ionization_Penalty_Neutral>
0.0254771

> <r_epik_State_Penalty>
0.0187406

> <r_epik_Charging_Adjusted_Penalty>
0.0187406

> <i_epik_Tot_Q>
0

> <i_epik_Tot_abs_Q>
0

> <r_epik_Metal_State_Penalty>
0.017939

> <b_epik_Metal_Only>
0

> <s_lp_Force_Field>
OPLS_2005

> <r_lp_Energy>
26.2479

> <b_lp_Chiralities_Consistent>
1

> <s_lp_Variant>
AV-unprocessed.smi:1627-1

> <Gold.Version>
5.8.1

> <Gold.Id.Protein>
6NUR|6NUR_protein|mol2

> <Gold.PLP.Fitness>
41.2795

> <Gold.PLP.PLP>
-33.4382

> <Gold.PLP.part.hbond>
-1.0000

> <Gold.PLP.part.metal>
0.0000

> <Gold.PLP.part.buried>
-4.8799

> <Gold.PLP.part.nonpolar>
-27.2322

> <Gold.PLP.part.repulsive>
0.4387

> <Gold.PLP.ligand.clash>
0.0000

> <Gold.PLP.ligand.torsion>
0.1790

> <Gold.PLP.Chemscore.Hbond>
1.0000

> <Gold.PLP.Chemscore.CHOScore>
1.6701

> <Gold.PLP.Chemscore.Metal>
0.0000

> <Gold.Chemscore.Hbonds>
donor molecule, donor type, donor heavy atom, donor atom, acceptor molecule, acceptor atom, score
      L1  H    11    30       P1 10175  1.00
      L1  C    23    43       P1 10171  0.79
      L1  C    23    43       P1 10175  0.90

> <Gold.PLP.Chemscore.Internal.Correction>
0.1889

> <Gold.Rescore>
     Score         DG    S(hbond)    S(metal)    S(lipo)     H(rot)  DE(clash)    DE(int)     intcor
     10.46     -12.12       1.00        0.00      69.04       1.87       0.00       1.65       ----

> <Gold.Chemscore.Fitness>
10.4609

> <Gold.Chemscore.DG>
-12.1153

> <Gold.Chemscore.ZeroCoef>
-5.4800

> <Gold.Chemscore.Hbond>
0.9989

> <Gold.Chemscore.Metal>
0.0000

> <Gold.Chemscore.Lipo>
69.0366

> <Gold.Chemscore.Internal_Hbond>
0.0000

> <Gold.Chemscore.DEClash>
0.0031

> <Gold.Chemscore.DEInternal>
1.6513

> <Gold.Chemscore.Rot>
1.8665

> <Gold.Chemscore.Internal.Correction>
   9.000000E+99

> <Gold.Chemscore.Hbonds>
donor molecule, donor type, donor heavy atom, donor atom, acceptor molecule, acceptor atom, score
      L1  H    11    30       P1 10175  0.99

> <Gold.Chemscore.Hbond.Weighted>
-3.3363

> <Gold.Chemscore.Metal.Weighted>
-0.0000

> <Gold.Chemscore.Lipo.Weighted>
-8.0773

> <Gold.Chemscore.Internal_Hbond.Weighted>
0.0000

> <Gold.Chemscore.DEClash.Weighted>
0.0031

> <Gold.Chemscore.DEInternal.Weighted>
1.6513

> <Gold.Chemscore.Rot.Weighted>
4.7783

> <Gold.Chemscore.Internal.Correction.Weighted>
   9.000000E+99

> <Gold.Protein.RotatedTorsions>
[ 6907 6896 6895 6894 ] final  -21.25 input  -60.11 | X-H torsion
[ 7974 7965 7964 7962 ] final -104.19 input  175.53 | X-H torsion
[ 8008 7997 7996 7995 ] final    8.29 input   59.86 | X-H torsion
[ 10167 10162 10161 10158 ] final  -59.45 input  -65.29 | X-H torsion
[ 10718 10713 10712 10709 ] final -108.34 input   66.30 | X-H torsion
[ 10763 10752 10751 10750 ] final  -60.08 input  -60.55 | X-H torsion
[ 11005 11000 10999 10996 ] final   95.33 input  -57.11 | X-H torsion

> <Gold.Protein.ActiveResidues>
 VAL166  LYS551  ARG553  GLY616  TRP617  ASP618  TYR619  PRO620  LYS621  CYS622 
 ASP623  PHE694  ASN695  SER759  ASP760  ASP761  ALA762  ILE779  LEU786  VAL792 
 PHE793  MET794  SER795  GLU796  ALA797  LYS798  CYS799  TRP800  GLU811  SER814 

> <Gold.Protein.RotatedAtoms>
  151.2361  135.0572  159.9006 H   0  0  0  0  0  0  0  0  0  0  0  0  # atno 6907 bound_to 6896
  152.5399  134.0484  159.8109 H   0  0  0  0  0  0  0  0  0  0  0  0  # atno 6908 bound_to 6896
  151.0671  133.5447  159.2661 H   0  0  0  0  0  0  0  0  0  0  0  0  # atno 6909 bound_to 6896
  145.2463  140.9223  143.3121 H   0  0  0  0  0  0  0  0  0  0  0  0  # atno 7974 bound_to 7965
  154.7650  140.2791  155.6184 H   0  0  0  0  0  0  0  0  0  0  0  0  # atno 8008 bound_to 7997
  156.2923  140.2652  156.2365 H   0  0  0  0  0  0  0  0  0  0  0  0  # atno 8009 bound_to 7997
  154.9971  140.0373  157.2334 H   0  0  0  0  0  0  0  0  0  0  0  0  # atno 8010 bound_to 7997
  140.6134  143.2394  151.5654 H   0  0  0  0  0  0  0  0  0  0  0  0  # atno 10167 bound_to 10162
  156.0481  130.5708  150.7948 H   0  0  0  0  0  0  0  0  0  0  0  0  # atno 10718 bound_to 10713
  154.2637  135.6303  153.5284 H   0  0  0  0  0  0  0  0  0  0  0  0  # atno 10763 bound_to 10752
  152.9891  135.5593  154.5676 H   0  0  0  0  0  0  0  0  0  0  0  0  # atno 10764 bound_to 10752
  154.5231  135.2883  155.1220 H   0  0  0  0  0  0  0  0  0  0  0  0  # atno 10765 bound_to 10752
  139.8790  134.8893  156.3995 H   0  0  0  0  0  0  0  0  0  0  0  0  # atno 11005 bound_to 11000
  144.9543  139.4049  143.6387 LP  0  0  0  0  0  0  0  0  0  0  0  0  # atno 17320 bound_to 7965
  146.3315  139.8565  142.8864 LP  0  0  0  0  0  0  0  0  0  0  0  0  # atno 17321 bound_to 7965
  139.5379  144.2728  152.1291 LP  0  0  0  0  0  0  0  0  0  0  0  0  # atno 17342 bound_to 10162
  140.1933  144.4731  150.6468 LP  0  0  0  0  0  0  0  0  0  0  0  0  # atno 17343 bound_to 10162
  157.5378  131.0939  150.9868 LP  0  0  0  0  0  0  0  0  0  0  0  0  # atno 17370 bound_to 10713
  157.0159  130.5655  149.5326 LP  0  0  0  0  0  0  0  0  0  0  0  0  # atno 17371 bound_to 10713
  140.9277  133.7601  155.9985 LP  0  0  0  0  0  0  0  0  0  0  0  0  # atno 17394 bound_to 11000
  140.8367  134.3114  157.5329 LP  0  0  0  0  0  0  0  0  0  0  0  0  # atno 17395 bound_to 11000

$$$$
