#       Name:                AV-unprocessed.smi:617
#       Creating user name   scv26
#       Creation time:       Thu Mar 26 23:59:55 2020


#       File generated by GOLD software.
#

@<TRIPOS>MOLECULE
AV-unprocessed.smi:617
    35    36     1
SMALL
NO_CHARGES


@<TRIPOS>ATOM
      1 ****        -0.3312  -6.5419  -2.4367 C.3            1 S1                 0.0000
      2 ****         0.2413  -5.2821  -1.8834 C.2            1 S1                 0.0000
      3 ****        -0.3241  -4.1269  -1.4221 C.2            1 S1                 0.0000
      4 ****         0.7998  -3.3411  -1.0514 C.2            1 S1                 0.0000
      5 ****         0.6168  -2.0349  -0.5142 N.am           1 S1                 0.0000
      6 ****         1.5139  -1.0939  -0.1508 C.2            1 S1                 0.0000
      7 ****         2.7227  -1.2945  -0.2566 O.2            1 S1                 0.0000
      8 ****         1.0072   0.0539   0.3292 N.am           1 S1                 0.0000
      9 ****         1.7863   1.1937   0.8042 C.3            1 S1                 0.0000
     10 ****         0.9190   2.1145   1.6850 C.3            1 S1                 0.0000
     11 ****         1.1268   3.5334   1.1517 C.3            1 S1                 0.0000
     12 ****         1.4406   3.3392  -0.3282 C.3            1 S1                 0.0000
     13 ****         2.2866   2.0665  -0.3641 C.3            1 S1                 0.0000
     14 ****         1.9484  -3.9677  -1.2635 N.2            1 S1                 0.0000
     15 ****         1.5969  -5.2127  -1.7975 O.3            1 S1                 0.0000
     16 ****        -1.3986  -6.4329  -2.6301 H              1 S1                 0.0000
     17 ****        -0.1965  -7.3671  -1.7372 H              1 S1                 0.0000
     18 ****         0.1559  -6.8097  -3.3746 H              1 S1                 0.0000
     19 ****        -1.3749  -3.8839  -1.3638 H              1 S1                 0.0000
     20 ****        -0.3482  -1.7639  -0.3933 H              1 S1                 0.0000
     21 ****         0.0017   0.1384   0.3790 H              1 S1                 0.0000
     22 ****         2.6394   0.8343   1.3829 H              1 S1                 0.0000
     23 ****        -0.1368   1.8530   1.5939 H              1 S1                 0.0000
     24 ****         1.1777   2.0363   2.7414 H              1 S1                 0.0000
     25 ****         0.2614   4.1757   1.3182 H              1 S1                 0.0000
     26 ****         1.9825   3.9916   1.6493 H              1 S1                 0.0000
     27 ****         0.5149   3.1813  -0.8833 H              1 S1                 0.0000
     28 ****         1.9520   4.1966  -0.7664 H              1 S1                 0.0000
     29 ****         3.3320   2.3264  -0.1922 H              1 S1                 0.0000
     30 ****         2.2377   1.5697  -1.3340 H              1 S1                 0.0000
     31 ****         3.0553  -2.1661  -0.6167 LP             1 S1                 0.0000
     32 ****         3.3730  -0.5860   0.0176 LP             1 S1                 0.0000
     33 ****         2.8696  -3.6242  -1.0808 LP             1 S1                 0.0000
     34 ****         1.9976  -5.3137  -2.7082 LP             1 S1                 0.0000
     35 ****         1.9344  -5.9419  -1.2022 LP             1 S1                 0.0000
@<TRIPOS>BOND
    1    1    2 1     
    2    1   16 1     
    3    1   17 1     
    4    1   18 1     
    5    2   15 1     
    6    2    3 2     
    7    3    4 1     
    8    3   19 1     
    9    4    5 1     
   10    4   14 2     
   11    5    6 am    
   12    5   20 1     
   13    6    7 2     
   14    6    8 am    
   15    8    9 1     
   16    8   21 1     
   17    9   13 1     
   18    9   10 1     
   19    9   22 1     
   20   10   11 1     
   21   10   23 1     
   22   10   24 1     
   23   11   12 1     
   24   11   25 1     
   25   11   26 1     
   26   12   13 1     
   27   12   27 1     
   28   12   28 1     
   29   13   29 1     
   30   13   30 1     
   31   14   15 1     
   32    7   31 1     
   33    7   32 1     
   34   14   33 1     
   35   15   34 1     
   36   15   35 1     
@<TRIPOS>SUBSTRUCTURE
      1 S1             1
@<TRIPOS>SET
LONE_PAIRS      STATIC     ATOMS    <user>   **** ""
5 31 32 33 34 35
DONOR_HYDROGENS      STATIC     ATOMS    <user>   **** ""
2 20 21
ATOM$BLUE        STATIC     ATOMS    COLORGROUP SYSTEM
5 31 32 33 34 35
ATOM$RED        STATIC     ATOMS    COLORGROUP SYSTEM
2 20 21
