#       Name:                AV-unprocessed.smi:1190
#       Creating user name   scv26
#       Creation time:       Fri Mar 27 03:58:11 2020


#       File generated by GOLD software.
#

@<TRIPOS>MOLECULE
AV-unprocessed.smi:1190
    51    52     1
SMALL
NO_CHARGES


@<TRIPOS>ATOM
      1 ****        -6.1980   5.1786   1.0496 C.3            1 S1                 0.0000
      2 ****        -6.4759   3.8307   0.6859 O.3            1 S1                 0.0000
      3 ****        -5.4378   2.9217   0.6989 C.ar           1 S1                 0.0000
      4 ****        -5.7055   1.5868   0.3371 C.ar           1 S1                 0.0000
      5 ****        -4.6489   0.6571   0.3467 C.ar           1 S1                 0.0000
      6 ****        -3.3562   1.0862   0.7090 C.ar           1 S1                 0.0000
      7 ****        -2.3151   0.1182   0.7202 N.am           1 S1                 0.0000
      8 ****        -0.9851   0.3129   0.7158 C.2            1 S1                 0.0000
      9 ****        -0.4230   1.4071   0.6890 O.2            1 S1                 0.0000
     10 ****        -0.3250  -0.8547   0.7189 N.am           1 S1                 0.0000
     11 ****         1.1286  -1.0058   0.7367 C.3            1 S1                 0.0000
     12 ****         1.7216  -1.3971  -0.6464 C.3            1 S1                 0.0000
     13 ****         1.3171  -0.3691  -1.7280 C.3            1 S1                 0.0000
     14 ****         3.2128  -1.5667  -0.6325 N.4            1 S1                 1.0000
     15 ****         3.7906  -2.1135   0.6271 C.3            1 S1                 0.0000
     16 ****         5.3239  -2.2099   0.5399 C.3            1 S1                 0.0000
     17 ****         5.6974  -3.0026  -0.5770 O.3            1 S1                 0.0000
     18 ****         5.2459  -2.4294  -1.7947 C.3            1 S1                 0.0000
     19 ****         3.7105  -2.3613  -1.7892 C.3            1 S1                 0.0000
     20 ****        -3.1919   2.4464   1.0697 C.ar           1 S1                 0.0000
     21 ****        -4.2014   3.3427   1.0627 N.ar           1 S1                 0.0000
     22 ****        -7.1142   5.7656   0.9880 H              1 S1                 0.0000
     23 ****        -5.4695   5.6315   0.3757 H              1 S1                 0.0000
     24 ****        -5.8297   5.2475   2.0743 H              1 S1                 0.0000
     25 ****        -6.7032   1.2815   0.0579 H              1 S1                 0.0000
     26 ****        -4.8319  -0.3724   0.0752 H              1 S1                 0.0000
     27 ****        -2.6222  -0.8424   0.6749 H              1 S1                 0.0000
     28 ****        -0.8694  -1.7049   0.7308 H              1 S1                 0.0000
     29 ****         1.6076  -0.1007   1.1145 H              1 S1                 0.0000
     30 ****         1.3226  -1.7881   1.4702 H              1 S1                 0.0000
     31 ****         1.2851  -2.3608  -0.9145 H              1 S1                 0.0000
     32 ****         0.2350  -0.2902  -1.8261 H              1 S1                 0.0000
     33 ****         1.6816  -0.6297  -2.7193 H              1 S1                 0.0000
     34 ****         1.6989   0.6233  -1.4869 H              1 S1                 0.0000
     35 ****         3.5559  -1.4713   1.4752 H              1 S1                 0.0000
     36 ****         3.3643  -3.0972   0.8300 H              1 S1                 0.0000
     37 ****         5.7728  -1.2180   0.4643 H              1 S1                 0.0000
     38 ****         5.7220  -2.6689   1.4450 H              1 S1                 0.0000
     39 ****         5.6814  -1.4385  -1.9341 H              1 S1                 0.0000
     40 ****         5.5911  -3.0481  -2.6233 H              1 S1                 0.0000
     41 ****         3.2981  -3.3704  -1.7426 H              1 S1                 0.0000
     42 ****         3.3846  -1.9324  -2.7346 H              1 S1                 0.0000
     43 ****        -2.2440   2.8454   1.3934 H              1 S1                 0.0000
     44 ****         3.5992  -0.6382  -0.7273 H              1 S1                 0.0000
     45 ****        -6.8451   3.8450  -0.2433 LP             1 S1                 0.0000
     46 ****        -7.1739   3.4918   1.3167 LP             1 S1                 0.0000
     47 ****        -0.9650   2.2472   0.6681 LP             1 S1                 0.0000
     48 ****         0.5758   1.4562   0.6881 LP             1 S1                 0.0000
     49 ****         5.2964  -3.9133  -0.4780 LP             1 S1                 0.0000
     50 ****         6.6942  -3.0783  -0.6032 LP             1 S1                 0.0000
     51 ****        -4.0409   4.2956   1.3200 LP             1 S1                 0.0000
@<TRIPOS>BOND
    1    1    2 1     
    2    1   22 1     
    3    1   23 1     
    4    1   24 1     
    5    2    3 1     
    6    3   21 ar    
    7    3    4 ar    
    8    4    5 ar    
    9    4   25 1     
   10    5    6 ar    
   11    5   26 1     
   12    6    7 1     
   13    6   20 ar    
   14    7    8 am    
   15    7   27 1     
   16    8    9 2     
   17    8   10 am    
   18   10   11 1     
   19   10   28 1     
   20   11   12 1     
   21   11   29 1     
   22   11   30 1     
   23   12   13 1     
   24   12   14 1     
   25   12   31 1     
   26   13   32 1     
   27   13   33 1     
   28   13   34 1     
   29   14   19 1     
   30   14   15 1     
   31   14   44 1     
   32   15   16 1     
   33   15   35 1     
   34   15   36 1     
   35   16   17 1     
   36   16   37 1     
   37   16   38 1     
   38   17   18 1     
   39   18   19 1     
   40   18   39 1     
   41   18   40 1     
   42   19   41 1     
   43   19   42 1     
   44   20   21 ar    
   45   20   43 1     
   46    2   45 1     
   47    2   46 1     
   48    9   47 1     
   49    9   48 1     
   50   17   49 1     
   51   17   50 1     
   52   21   51 1     
@<TRIPOS>SUBSTRUCTURE
      1 S1             1
@<TRIPOS>SET
LONE_PAIRS      STATIC     ATOMS    <user>   **** ""
7 45 46 47 48 49 50 51
DONOR_HYDROGENS      STATIC     ATOMS    <user>   **** ""
3 27 28 44
ATOM$BLUE        STATIC     ATOMS    COLORGROUP SYSTEM
7 45 46 47 48 49 50 51
ATOM$RED        STATIC     ATOMS    COLORGROUP SYSTEM
3 27 28 44
