#       Name:                AV-unprocessed.smi:3148
#       Creating user name   scv26
#       Creation time:       Fri Mar 27 17:40:14 2020


#       File generated by GOLD software.
#

@<TRIPOS>MOLECULE
AV-unprocessed.smi:3148
    40    42     1
SMALL
NO_CHARGES


@<TRIPOS>ATOM
      1 ****        -3.8910  -0.8509   0.1587 C.3            1 S1                 0.0000
      2 ****        -3.1968  -2.0923   0.0919 O.3            1 S1                 0.0000
      3 ****        -1.8266  -2.0848   0.2519 C.ar           1 S1                 0.0000
      4 ****        -1.1152  -3.2946   0.1980 C.ar           1 S1                 0.0000
      5 ****         0.2808  -3.2248   0.3695 C.ar           1 S1                 0.0000
      6 ****         1.1591  -4.4570   0.3286 C.3            1 S1                 0.0000
      7 ****         0.8817  -2.0263   0.5749 N.pl3          1 S1                 1.0000
      8 ****         0.1455  -0.9058   0.6123 C.ar           1 S1                 0.0000
      9 ****         0.8104   0.2899   0.8156 N.pl3          1 S1                 0.0000
     10 ****         2.2538   0.4029   0.9903 C.3            1 S1                 0.0000
     11 ****         2.7388   1.8518   1.0803 C.3            1 S1                 0.0000
     12 ****         3.5339   1.8358   2.3935 C.3            1 S1                 0.0000
     13 ****         2.6047   1.8014   3.6139 C.3            1 S1                 0.0000
     14 ****         2.0816   0.3672   3.5654 C.3            1 S1                 0.0000
     15 ****         2.7836  -0.1858   2.3130 C.3            1 S1                 0.0000
     16 ****         4.0190   0.5034   2.3997 O.3            1 S1                 0.0000
     17 ****        -1.1857  -0.9108   0.4576 N.ar           1 S1                 0.0000
     18 ****        -4.9586  -1.0272   0.0275 H              1 S1                 0.0000
     19 ****        -3.5681  -0.1701  -0.6302 H              1 S1                 0.0000
     20 ****        -3.7534  -0.3676   1.1270 H              1 S1                 0.0000
     21 ****        -1.6214  -4.2346   0.0321 H              1 S1                 0.0000
     22 ****         0.5591  -5.3672   0.3137 H              1 S1                 0.0000
     23 ****         1.8084  -4.4927   1.2038 H              1 S1                 0.0000
     24 ****         1.7846  -4.4452  -0.5644 H              1 S1                 0.0000
     25 ****         0.2481   1.1072   1.0027 H              1 S1                 0.0000
     26 ****         2.7532  -0.0833   0.1509 H              1 S1                 0.0000
     27 ****         3.3882   2.0855   0.2359 H              1 S1                 0.0000
     28 ****         1.9331   2.5873   1.1005 H              1 S1                 0.0000
     29 ****         4.3103   2.5990   2.4509 H              1 S1                 0.0000
     30 ****         3.1639   1.9738   4.5344 H              1 S1                 0.0000
     31 ****         1.8099   2.5456   3.5527 H              1 S1                 0.0000
     32 ****         2.3990  -0.1803   4.4535 H              1 S1                 0.0000
     33 ****         0.9942   0.3113   3.5095 H              1 S1                 0.0000
     34 ****         2.8821  -1.2716   2.3071 H              1 S1                 0.0000
     35 ****         1.8940  -1.9898   0.6965 H              1 S1                 0.0000
     36 ****        -3.3880  -2.4905  -0.8053 LP             1 S1                 0.0000
     37 ****        -3.5751  -2.6818   0.8056 LP             1 S1                 0.0000
     38 ****         4.5099   0.2874   3.2438 LP             1 S1                 0.0000
     39 ****         4.6085   0.3158   1.6140 LP             1 S1                 0.0000
     40 ****        -1.7010  -0.0545   0.4938 LP             1 S1                 0.0000
@<TRIPOS>BOND
    1    1    2 1     
    2    1   18 1     
    3    1   19 1     
    4    1   20 1     
    5    2    3 1     
    6    3   17 ar    
    7    3    4 ar    
    8    4    5 ar    
    9    4   21 1     
   10    5    6 1     
   11    5    7 ar    
   12    6   22 1     
   13    6   23 1     
   14    6   24 1     
   15    7    8 ar    
   16    7   35 1     
   17    8    9 1     
   18    8   17 ar    
   19    9   10 1     
   20    9   25 1     
   21   10   15 1     
   22   10   11 1     
   23   10   26 1     
   24   11   12 1     
   25   11   27 1     
   26   11   28 1     
   27   12   16 1     
   28   12   13 1     
   29   12   29 1     
   30   13   14 1     
   31   13   30 1     
   32   13   31 1     
   33   14   15 1     
   34   14   32 1     
   35   14   33 1     
   36   15   16 1     
   37   15   34 1     
   38    2   36 1     
   39    2   37 1     
   40   16   38 1     
   41   16   39 1     
   42   17   40 1     
@<TRIPOS>SUBSTRUCTURE
      1 S1             1
@<TRIPOS>SET
LONE_PAIRS      STATIC     ATOMS    <user>   **** ""
5 36 37 38 39 40
DONOR_HYDROGENS      STATIC     ATOMS    <user>   **** ""
2 35 25
ATOM$BLUE        STATIC     ATOMS    COLORGROUP SYSTEM
5 36 37 38 39 40
ATOM$RED        STATIC     ATOMS    COLORGROUP SYSTEM
2 35 25
