#       Name:                AV-unprocessed.smi:1254
#       Creating user name   scv26
#       Creation time:       Fri Mar 27 04:39:56 2020


#       File generated by GOLD software.
#

@<TRIPOS>MOLECULE
AV-unprocessed.smi:1254
    53    54     1
SMALL
NO_CHARGES


@<TRIPOS>ATOM
      1 ****        -4.4881   5.8850   3.2550 C.3            1 S1                 0.0000
      2 ****        -4.3761   4.8930   2.1482 C.2            1 S1                 0.0000
      3 ****        -3.3080   4.3769   1.4711 C.2            1 S1                 0.0000
      4 ****        -3.9109   3.4788   0.5485 C.2            1 S1                 0.0000
      5 ****        -3.2645   2.7327  -0.3605 N.pl3          1 S1                -1.0000
      6 ****        -2.7507   1.5295  -0.0147 C.2            1 S1                 0.0000
      7 ****        -2.8256   0.9936   1.0934 O.2            1 S1                 0.0000
      8 ****        -2.1072   0.9130  -1.0163 N.am           1 S1                 0.0000
      9 ****        -1.4310  -0.3784  -0.9421 C.3            1 S1                 0.0000
     10 ****         0.0425  -0.2255  -0.5265 C.3            1 S1                 0.0000
     11 ****         0.8240  -1.5447  -0.6894 C.3            1 S1                 0.0000
     12 ****         2.2086  -1.4246  -0.2382 N.3            1 S1                 0.0000
     13 ****         2.9622  -2.6714  -0.3746 C.3            1 S1                 0.0000
     14 ****         3.2053  -3.1462  -1.8265 C.3            1 S1                 0.0000
     15 ****         2.2664  -4.3013  -2.2136 C.3            1 S1                 0.0000
     16 ****         4.6679  -3.5700  -2.0318 C.3            1 S1                 0.0000
     17 ****         2.2163  -0.9583   1.1439 C.3            1 S1                 0.0000
     18 ****         1.4328   0.3532   1.3120 C.3            1 S1                 0.0000
     19 ****         0.1031   0.1688   0.8423 O.3            1 S1                 0.0000
     20 ****        -5.2300   3.4648   0.6452 N.2            1 S1                 0.0000
     21 ****        -5.5361   4.3639   1.6737 O.3            1 S1                 0.0000
     22 ****        -4.1364   6.8644   2.9308 H              1 S1                 0.0000
     23 ****        -3.8878   5.5763   4.1108 H              1 S1                 0.0000
     24 ****        -5.5212   5.9900   3.5872 H              1 S1                 0.0000
     25 ****        -2.2616   4.6017   1.6135 H              1 S1                 0.0000
     26 ****        -2.0736   1.3923  -1.9038 H              1 S1                 0.0000
     27 ****        -1.9562  -1.0608  -0.2717 H              1 S1                 0.0000
     28 ****        -1.4853  -0.8241  -1.9356 H              1 S1                 0.0000
     29 ****         0.5093   0.5452  -1.1431 H              1 S1                 0.0000
     30 ****         0.3214  -2.3383  -0.1340 H              1 S1                 0.0000
     31 ****         0.7988  -1.8310  -1.7401 H              1 S1                 0.0000
     32 ****         3.9344  -2.5238   0.0977 H              1 S1                 0.0000
     33 ****         2.4841  -3.4627   0.2049 H              1 S1                 0.0000
     34 ****         3.0219  -2.3131  -2.5067 H              1 S1                 0.0000
     35 ****         2.4413  -5.1785  -1.5901 H              1 S1                 0.0000
     36 ****         2.4193  -4.5981  -3.2516 H              1 S1                 0.0000
     37 ****         1.2181  -4.0254  -2.1056 H              1 S1                 0.0000
     38 ****         4.9357  -4.4029  -1.3808 H              1 S1                 0.0000
     39 ****         5.3494  -2.7462  -1.8172 H              1 S1                 0.0000
     40 ****         4.8464  -3.8809  -3.0613 H              1 S1                 0.0000
     41 ****         1.7830  -1.7204   1.7934 H              1 S1                 0.0000
     42 ****         3.2430  -0.8091   1.4798 H              1 S1                 0.0000
     43 ****         1.4021   0.6459   2.3615 H              1 S1                 0.0000
     44 ****         1.9120   1.1664   0.7650 H              1 S1                 0.0000
     45 ****        -3.1620   3.0672  -1.2974 LP             1 S1                 0.0000
     46 ****        -3.3030   1.4554   1.8409 LP             1 S1                 0.0000
     47 ****        -2.4089   0.0972   1.2444 LP             1 S1                 0.0000
     48 ****         2.6699  -0.7610  -0.8272 LP             1 S1                 0.0000
     49 ****        -0.3350  -0.5387   1.3968 LP             1 S1                 0.0000
     50 ****        -0.3938   1.0302   0.9475 LP             1 S1                 0.0000
     51 ****        -5.8722   2.9264   0.0995 LP             1 S1                 0.0000
     52 ****        -6.1195   5.0948   1.3195 LP             1 S1                 0.0000
     53 ****        -6.0131   3.8838   2.4098 LP             1 S1                 0.0000
@<TRIPOS>BOND
    1    1    2 1     
    2    1   22 1     
    3    1   23 1     
    4    1   24 1     
    5    2   21 1     
    6    2    3 2     
    7    3    4 1     
    8    3   25 1     
    9    4    5 1     
   10    4   20 2     
   11    5    6 1     
   12    6    7 2     
   13    6    8 am    
   14    8    9 1     
   15    8   26 1     
   16    9   10 1     
   17    9   27 1     
   18    9   28 1     
   19   10   19 1     
   20   10   11 1     
   21   10   29 1     
   22   11   12 1     
   23   11   30 1     
   24   11   31 1     
   25   12   13 1     
   26   12   17 1     
   27   13   14 1     
   28   13   32 1     
   29   13   33 1     
   30   14   15 1     
   31   14   16 1     
   32   14   34 1     
   33   15   35 1     
   34   15   36 1     
   35   15   37 1     
   36   16   38 1     
   37   16   39 1     
   38   16   40 1     
   39   17   18 1     
   40   17   41 1     
   41   17   42 1     
   42   18   19 1     
   43   18   43 1     
   44   18   44 1     
   45   20   21 1     
   46    5   45 1     
   47    7   46 1     
   48    7   47 1     
   49   12   48 1     
   50   19   49 1     
   51   19   50 1     
   52   20   51 1     
   53   21   52 1     
   54   21   53 1     
@<TRIPOS>SUBSTRUCTURE
      1 S1             1
@<TRIPOS>SET
LONE_PAIRS      STATIC     ATOMS    <user>   **** ""
9 45 46 47 48 49 50 51 52 53
DONOR_HYDROGENS      STATIC     ATOMS    <user>   **** ""
1 26
ATOM$BLUE        STATIC     ATOMS    COLORGROUP SYSTEM
9 45 46 47 48 49 50 51 52 53
ATOM$RED        STATIC     ATOMS    COLORGROUP SYSTEM
1 26
