AV-unprocessed.smi:1999|AV-procd|sdf|8099|dock4
  -GOLD-   2272010323D 1   1.00000     0.00000
 Structure written by MMmdl.
 38 39  0  0  0  0  0  0  0  0  3 V2000
  146.6076  136.1453  163.3614 C   0  0  0  0  0  0  0  0  0  0  0  0
  147.2937  136.0677  162.0406 C   0  0  0  0  0  0  0  0  0  0  0  0
  147.6286  137.1492  161.3321 N   0  0  0  0  0  0  0  0  0  0  0  0
  148.2573  136.8189  160.1407 N   0  0  0  0  0  0  0  0  0  0  0  0
  148.3996  135.4964  159.9704 C   0  0  0  0  0  0  0  0  0  0  0  0
  148.9881  134.9700  158.8839 N   0  5  0  0  0  0  0  0  0  0  0  0
  148.8326  135.5654  157.6815 C   0  0  0  0  0  0  0  0  0  0  0  0
  148.2338  136.6207  157.4630 O   0  0  0  0  0  0  0  0  0  0  0  0
  149.3738  134.8762  156.6653 N   0  0  0  0  0  0  0  0  0  0  0  0
  149.2717  135.1953  155.2397 C   0  0  1  0  0  0  0  0  0  0  0  0
  150.5197  135.9742  154.8033 C   0  0  0  0  0  0  0  0  0  0  0  0
  149.0864  133.9074  154.4054 C   0  0  0  0  0  0  0  0  0  0  0  0
  148.1127  134.0813  153.2984 N   0  3  0  0  0  0  0  0  0  0  0  0
  147.9770  132.8869  152.4318 C   0  0  0  0  0  0  0  0  0  0  0  0
  147.0449  133.2013  151.2505 C   0  0  0  0  0  0  0  0  0  0  0  0
  145.7796  133.6254  151.7448 O   0  0  0  0  0  0  0  0  0  0  0  0
  145.8813  134.8110  152.5255 C   0  0  0  0  0  0  0  0  0  0  0  0
  146.7825  134.5527  153.7452 C   0  0  0  0  0  0  0  0  0  0  0  0
  147.7334  134.5409  161.2935 S   0  0  0  0  0  0  0  0  0  0  0  0
  147.3333  136.0178  164.1648 H   0  0  0  0  0  0  0  0  0  0  0  0
  145.8555  135.3602  163.4399 H   0  0  0  0  0  0  0  0  0  0  0  0
  146.1163  137.1114  163.4819 H   0  0  0  0  0  0  0  0  0  0  0  0
  149.8654  134.0266  156.9027 H   0  0  0  0  0  0  0  0  0  0  0  0
  148.4162  135.8515  155.0742 H   0  0  0  0  0  0  0  0  0  0  0  0
  150.4613  136.2496  153.7500 H   0  0  0  0  0  0  0  0  0  0  0  0
  151.4268  135.3850  154.9433 H   0  0  0  0  0  0  0  0  0  0  0  0
  150.6286  136.8946  155.3782 H   0  0  0  0  0  0  0  0  0  0  0  0
  150.0408  133.5553  154.0112 H   0  0  0  0  0  0  0  0  0  0  0  0
  148.7263  133.1233  155.0733 H   0  0  0  0  0  0  0  0  0  0  0  0
  148.9522  132.5779  152.0560 H   0  0  0  0  0  0  0  0  0  0  0  0
  147.5792  132.0533  153.0122 H   0  0  0  0  0  0  0  0  0  0  0  0
  147.4769  133.9704  150.6078 H   0  0  0  0  0  0  0  0  0  0  0  0
  146.9051  132.3125  150.6352 H   0  0  0  0  0  0  0  0  0  0  0  0
  146.2751  135.6274  151.9177 H   0  0  0  0  0  0  0  0  0  0  0  0
  144.8841  135.1077  152.8502 H   0  0  0  0  0  0  0  0  0  0  0  0
  146.3289  133.8090  154.4021 H   0  0  0  0  0  0  0  0  0  0  0  0
  146.8884  135.4728  154.3211 H   0  0  0  0  0  0  0  0  0  0  0  0
  148.4876  134.8197  152.7183 H   0  0  0  0  0  0  0  0  0  0  0  0
  1  2  1  0  0  0  0
  1 20  1  0  0  0  0
  1 21  1  0  0  0  0
  1 22  1  0  0  0  0
  2 19  1  0  0  0  0
  2  3  2  0  0  0  0
  3  4  1  0  0  0  0
  4  5  2  0  0  0  0
  5  6  1  0  0  0  0
  5 19  1  0  0  0  0
  6  7  1  0  0  0  0
  7  8  2  0  0  0  0
  7  9  1  0  0  0  0
  9 10  1  0  0  0  0
  9 23  1  0  0  0  0
 10 11  1  0  0  0  0
 10 12  1  0  0  0  0
 10 24  1  0  0  0  0
 11 25  1  0  0  0  0
 11 26  1  0  0  0  0
 11 27  1  0  0  0  0
 12 13  1  0  0  0  0
 12 28  1  0  0  0  0
 12 29  1  0  0  0  0
 13 18  1  0  0  0  0
 13 14  1  0  0  0  0
 13 38  1  0  0  0  0
 14 15  1  0  0  0  0
 14 30  1  0  0  0  0
 14 31  1  0  0  0  0
 15 16  1  0  0  0  0
 15 32  1  0  0  0  0
 15 33  1  0  0  0  0
 16 17  1  0  0  0  0
 17 18  1  0  0  0  0
 17 34  1  0  0  0  0
 17 35  1  0  0  0  0
 18 36  1  0  0  0  0
 18 37  1  0  0  0  0
M  CHG  1   6  -1
M  CHG  1  13   1
M  END
> <s_m_source_file>
AV-unprocessed.smi

> <i_m_source_file_index>
1999

> <i_lp_mmshare_version>
43012

> <i_f3d_flags>
0

> <s_epik_input>
W0NIM11jMW5uYyhzMSlbTkhdQyg9TylbTkhdW0NASF0oW0NIM10pW0NIMl1OMltDSDJdW0NIMl1PW0NIMl1bQ0gyXTI=

> <s_epik_cmdline>
J2VwaWtfcHl0aG9uJywgJy1waCcsICc3LjAnLCAnLXRuJywgJzgnLCAnLW1hJywgJzIwMCcsICctbWV0YWxfYmluZGluZycsICctaW1hZScsICc8aW5maWxlLm1hZT4nLCAnLW9tYWUnLCAnPG91dGZpbGUubWFlPic=

> <r_lp_tautomer_probability>
1

> <r_epik_Ionization_Penalty>
3.39984

> <r_epik_Ionization_Penalty_Charging>
3.28696

> <r_epik_Ionization_Penalty_Neutral>
0.11288

> <r_epik_State_Penalty>
3.47917

> <r_epik_Charging_Adjusted_Penalty>
6.76613

> <i_epik_Tot_Q>
0

> <i_epik_Tot_abs_Q>
2

> <r_epik_Metal_State_Penalty>
1.13142

> <b_epik_Metal_Only>
1

> <s_lp_Force_Field>
OPLS_2005

> <r_lp_Energy>
12.2925

> <b_lp_Chiralities_Consistent>
1

> <s_lp_Variant>
AV-unprocessed.smi:1999-8

> <Gold.Version>
5.8.1

> <Gold.Id.Protein>
6NUR|6NUR_protein|mol2

> <Gold.PLP.Fitness>
41.2297

> <Gold.PLP.PLP>
-26.1586

> <Gold.PLP.part.hbond>
-4.6379

> <Gold.PLP.part.metal>
0.0000

> <Gold.PLP.part.buried>
-2.3061

> <Gold.PLP.part.nonpolar>
-19.4047

> <Gold.PLP.part.repulsive>
0.1600

> <Gold.PLP.ligand.clash>
0.0000

> <Gold.PLP.ligand.torsion>
1.1179

> <Gold.PLP.Chemscore.Hbond>
5.7200

> <Gold.PLP.Chemscore.CHOScore>
0.0000

> <Gold.PLP.Chemscore.Metal>
0.0000

> <Gold.Chemscore.Hbonds>
donor molecule, donor type, donor heavy atom, donor atom, acceptor molecule, acceptor atom, score
      L1  H    13    38       P1  7948  2.00
      P1  H  6896  6907       L1     6  2.00
      P1  H  6931  6943       L1     3  0.68
      P1  H  6934  6947       L1     3  0.82

> <Gold.PLP.Chemscore.Internal.Correction>
0.1469

> <Gold.Rescore>
     Score         DG    S(hbond)    S(metal)    S(lipo)     H(rot)  DE(clash)    DE(int)     intcor
     12.27     -15.34       2.05        0.00      60.83       1.60       0.28       2.79       ----

> <Gold.Chemscore.Fitness>
12.2702

> <Gold.Chemscore.DG>
-15.3434

> <Gold.Chemscore.ZeroCoef>
-5.4800

> <Gold.Chemscore.Hbond>
2.0513

> <Gold.Chemscore.Metal>
0.0000

> <Gold.Chemscore.Lipo>
60.8320

> <Gold.Chemscore.Internal_Hbond>
0.0000

> <Gold.Chemscore.DEClash>
0.2849

> <Gold.Chemscore.DEInternal>
2.7883

> <Gold.Chemscore.Rot>
1.6036

> <Gold.Chemscore.Internal.Correction>
   9.000000E+99

> <Gold.Chemscore.Hbonds>
donor molecule, donor type, donor heavy atom, donor atom, acceptor molecule, acceptor atom, score
      L1  H    13    38       P1  7948  0.35
      P1  H  6896  6907       L1     6  0.70
      P1  H  6931  6943       L1     3  0.07
      P1  H  6934  6947       L1     3  0.18

> <Gold.Chemscore.Hbond.Weighted>
-6.8513

> <Gold.Chemscore.Metal.Weighted>
-0.0000

> <Gold.Chemscore.Lipo.Weighted>
-7.1173

> <Gold.Chemscore.Internal_Hbond.Weighted>
0.0000

> <Gold.Chemscore.DEClash.Weighted>
0.2849

> <Gold.Chemscore.DEInternal.Weighted>
2.7883

> <Gold.Chemscore.Rot.Weighted>
4.1053

> <Gold.Chemscore.Internal.Correction.Weighted>
   9.000000E+99

> <Gold.Protein.RotatedTorsions>
[ 6907 6896 6895 6894 ] final  -98.54 input  -60.11 | X-H torsion
[ 7974 7965 7964 7962 ] final   36.46 input  175.53 | X-H torsion
[ 8008 7997 7996 7995 ] final  -57.26 input   59.86 | X-H torsion
[ 10167 10162 10161 10158 ] final  -79.86 input  -65.29 | X-H torsion
[ 10718 10713 10712 10709 ] final  -96.97 input   66.30 | X-H torsion
[ 10763 10752 10751 10750 ] final  -71.27 input  -60.55 | X-H torsion
[ 11005 11000 10999 10996 ] final  -94.95 input  -57.11 | X-H torsion

> <Gold.Protein.ActiveResidues>
 VAL166  LYS551  ARG553  GLY616  TRP617  ASP618  TYR619  PRO620  LYS621  CYS622 
 ASP623  PHE694  ASN695  SER759  ASP760  ASP761  ALA762  ILE779  LEU786  VAL792 
 PHE793  MET794  SER795  GLU796  ALA797  LYS798  CYS799  TRP800  GLU811  SER814 

> <Gold.Protein.RotatedAtoms>
  150.7050  134.1178  159.4023 H   0  0  0  0  0  0  0  0  0  0  0  0  # atno 6907 bound_to 6896
  151.9164  135.0314  160.0528 H   0  0  0  0  0  0  0  0  0  0  0  0  # atno 6908 bound_to 6896
  152.2292  133.5010  159.5243 H   0  0  0  0  0  0  0  0  0  0  0  0  # atno 6909 bound_to 6896
  146.1210  139.6015  142.9290 H   0  0  0  0  0  0  0  0  0  0  0  0  # atno 7974 bound_to 7965
  154.4261  140.1111  156.5769 H   0  0  0  0  0  0  0  0  0  0  0  0  # atno 8008 bound_to 7997
  155.6153  140.3494  155.4616 H   0  0  0  0  0  0  0  0  0  0  0  0  # atno 8009 bound_to 7997
  156.0067  140.1210  157.0484 H   0  0  0  0  0  0  0  0  0  0  0  0  # atno 8010 bound_to 7997
  140.4555  143.2469  151.8425 H   0  0  0  0  0  0  0  0  0  0  0  0  # atno 10167 bound_to 10162
  156.0073  130.5174  150.6304 H   0  0  0  0  0  0  0  0  0  0  0  0  # atno 10718 bound_to 10713
  154.4294  135.5967  153.6059 H   0  0  0  0  0  0  0  0  0  0  0  0  # atno 10763 bound_to 10752
  152.9798  135.5971  154.3858 H   0  0  0  0  0  0  0  0  0  0  0  0  # atno 10764 bound_to 10752
  154.3694  135.2841  155.2254 H   0  0  0  0  0  0  0  0  0  0  0  0  # atno 10765 bound_to 10752
  141.1456  133.7992  157.0368 H   0  0  0  0  0  0  0  0  0  0  0  0  # atno 11005 bound_to 11000
  145.5467  141.0416  143.2301 LP  0  0  0  0  0  0  0  0  0  0  0  0  # atno 17320 bound_to 7965
  144.7597  139.6987  143.7239 LP  0  0  0  0  0  0  0  0  0  0  0  0  # atno 17321 bound_to 7965
  139.4801  144.5069  151.8985 LP  0  0  0  0  0  0  0  0  0  0  0  0  # atno 17342 bound_to 10162
  140.4156  144.2312  150.5888 LP  0  0  0  0  0  0  0  0  0  0  0  0  # atno 17343 bound_to 10162
  157.4103  131.0822  151.1227 LP  0  0  0  0  0  0  0  0  0  0  0  0  # atno 17370 bound_to 10713
  157.1860  130.6330  149.5688 LP  0  0  0  0  0  0  0  0  0  0  0  0  # atno 17371 bound_to 10713
  140.0718  134.9698  157.1480 LP  0  0  0  0  0  0  0  0  0  0  0  0  # atno 17394 bound_to 11000
  140.3700  134.2401  155.7179 LP  0  0  0  0  0  0  0  0  0  0  0  0  # atno 17395 bound_to 11000

$$$$
