AV-unprocessed.smi:1672|AV-procd|sdf|6702|dock5
  -GOLD-   22720 7443D 1   1.00000     0.00000
 Structure written by MMmdl.
 48 50  0  0  0  0  0  0  0  0  2 V2000
  144.3120  133.5297  151.3203 C   0  0  0  0  0  0  0  0  0  0  0  0
  144.5324  135.0489  151.3236 C   0  0  2  0  0  0  0  0  0  0  0  0
  145.5754  135.4761  150.2770 C   0  0  0  0  0  0  0  0  0  0  0  0
  145.8193  136.9945  150.3156 C   0  0  0  0  0  0  0  0  0  0  0  0
  146.2345  137.4363  151.6714 N   0  3  1  0  0  0  0  0  0  0  0  0
  146.6209  138.8705  151.7078 C   0  0  0  0  0  0  0  0  0  0  0  0
  147.1326  139.3036  153.0952 C   0  0  1  0  0  0  0  0  0  0  0  0
  148.4150  138.7432  153.3028 O   0  0  0  0  0  0  0  0  0  0  0  0
  147.2149  140.8369  153.2285 C   0  0  0  0  0  0  0  0  0  0  0  0
  147.4827  141.2609  154.5966 N   0  0  0  0  0  0  0  0  0  0  0  0
  146.6219  141.7755  155.5119 C   0  0  0  0  0  0  0  0  0  0  0  0
  145.1691  141.9890  155.2167 C   0  0  0  0  0  0  0  0  0  0  0  0
  144.4430  140.7800  155.1615 O   0  0  0  0  0  0  0  0  0  0  0  0
  147.1501  142.0787  156.6980 N   0  0  0  0  0  0  0  0  0  0  0  0
  148.4765  141.7277  156.5403 C   0  0  0  0  0  0  0  0  0  0  0  0
  149.5625  141.8079  157.4411 C   0  0  0  0  0  0  0  0  0  0  0  0
  150.8485  141.3822  157.0485 C   0  0  0  0  0  0  0  0  0  0  0  0
  151.0668  140.8706  155.7529 C   0  0  0  0  0  0  0  0  0  0  0  0
  149.9984  140.7817  154.8400 C   0  0  0  0  0  0  0  0  0  0  0  0
  148.7172  141.2096  155.2365 C   0  0  0  0  0  0  0  0  0  0  0  0
  145.2193  137.0730  152.6959 C   0  0  0  0  0  0  0  0  0  0  0  0
  144.9659  135.5563  152.7091 C   0  0  0  0  0  0  0  0  0  0  0  0
  145.2274  132.9945  151.5755 H   0  0  0  0  0  0  0  0  0  0  0  0
  143.9860  133.1818  150.3399 H   0  0  0  0  0  0  0  0  0  0  0  0
  143.5471  133.2430  152.0425 H   0  0  0  0  0  0  0  0  0  0  0  0
  143.5829  135.5225  151.0697 H   0  0  0  0  0  0  0  0  0  0  0  0
  146.5156  134.9521  150.4551 H   0  0  0  0  0  0  0  0  0  0  0  0
  145.2443  135.1843  149.2795 H   0  0  0  0  0  0  0  0  0  0  0  0
  146.5948  137.2478  149.5918 H   0  0  0  0  0  0  0  0  0  0  0  0
  144.9173  137.5307  150.0161 H   0  0  0  0  0  0  0  0  0  0  0  0
  147.4053  139.0657  150.9747 H   0  0  0  0  0  0  0  0  0  0  0  0
  145.7672  139.4785  151.4047 H   0  0  0  0  0  0  0  0  0  0  0  0
  146.4721  138.9245  153.8739 H   0  0  0  0  0  0  0  0  0  0  0  0
  148.4916  137.9582  152.7818 H   0  0  0  0  0  0  0  0  0  0  0  0
  147.9715  141.2441  152.5582 H   0  0  0  0  0  0  0  0  0  0  0  0
  146.2692  141.2856  152.9219 H   0  0  0  0  0  0  0  0  0  0  0  0
  144.7333  142.6200  155.9921 H   0  0  0  0  0  0  0  0  0  0  0  0
  145.0541  142.5283  154.2769 H   0  0  0  0  0  0  0  0  0  0  0  0
  144.1464  140.6462  154.2747 H   0  0  0  0  0  0  0  0  0  0  0  0
  149.4061  142.1979  158.4361 H   0  0  0  0  0  0  0  0  0  0  0  0
  151.6715  141.4482  157.7450 H   0  0  0  0  0  0  0  0  0  0  0  0
  152.0550  140.5466  155.4608 H   0  0  0  0  0  0  0  0  0  0  0  0
  150.1630  140.3900  153.8475 H   0  0  0  0  0  0  0  0  0  0  0  0
  145.5482  137.3829  153.6869 H   0  0  0  0  0  0  0  0  0  0  0  0
  144.2886  137.6059  152.4943 H   0  0  0  0  0  0  0  0  0  0  0  0
  144.2003  135.3197  153.4489 H   0  0  0  0  0  0  0  0  0  0  0  0
  145.8721  135.0389  153.0273 H   0  0  0  0  0  0  0  0  0  0  0  0
  147.0730  136.9162  151.8900 H   0  0  0  0  0  0  0  0  0  0  0  0
  1  2  1  0  0  0  0
  1 23  1  0  0  0  0
  1 24  1  0  0  0  0
  1 25  1  0  0  0  0
  2 22  1  0  0  0  0
  2  3  1  0  0  0  0
  2 26  1  0  0  0  0
  3  4  1  0  0  0  0
  3 27  1  0  0  0  0
  3 28  1  0  0  0  0
  4  5  1  0  0  0  0
  4 29  1  0  0  0  0
  4 30  1  0  0  0  0
  5  6  1  0  0  0  0
  5 21  1  0  0  0  0
  5 48  1  0  0  0  0
  6  7  1  0  0  0  0
  6 31  1  0  0  0  0
  6 32  1  0  0  0  0
  7  8  1  0  0  0  0
  7  9  1  0  0  0  0
  7 33  1  0  0  0  0
  8 34  1  0  0  0  0
  9 10  1  0  0  0  0
  9 35  1  0  0  0  0
  9 36  1  0  0  0  0
 10 20  1  0  0  0  0
 10 11  1  0  0  0  0
 11 12  1  0  0  0  0
 11 14  2  0  0  0  0
 12 13  1  0  0  0  0
 12 37  1  0  0  0  0
 12 38  1  0  0  0  0
 13 39  1  0  0  0  0
 14 15  1  0  0  0  0
 15 20  2  0  0  0  0
 15 16  1  0  0  0  0
 16 17  2  0  0  0  0
 16 40  1  0  0  0  0
 17 18  1  0  0  0  0
 17 41  1  0  0  0  0
 18 19  2  0  0  0  0
 18 42  1  0  0  0  0
 19 20  1  0  0  0  0
 19 43  1  0  0  0  0
 21 22  1  0  0  0  0
 21 44  1  0  0  0  0
 21 45  1  0  0  0  0
 22 46  1  0  0  0  0
 22 47  1  0  0  0  0
M  CHG  1   5   1
M  END
> <s_m_source_file>
AV-unprocessed.smi

> <i_m_source_file_index>
1672

> <i_lp_mmshare_version>
43012

> <i_f3d_flags>
0

> <s_epik_input>
W0NIM11bQ0hdMVtDSDJdW0NIMl1OKFtDSDJdW0NIMl0xKVtDSDJdW0NASF0oW09IXSlbQ0gyXW4oYyhuMilbQ0gyXVtPSF0pYyhjMjMpW2NIXVtjSF1bY0hdW2NIXTM=

> <s_epik_cmdline>
J2VwaWtfcHl0aG9uJywgJy1waCcsICc3LjAnLCAnLXRuJywgJzgnLCAnLW1hJywgJzIwMCcsICctbWV0YWxfYmluZGluZycsICctaW1hZScsICc8aW5maWxlLm1hZT4nLCAnLW9tYWUnLCAnPG91dGZpbGUubWFlPic=

> <r_epik_Ionization_Penalty>
0.0498263

> <r_epik_Ionization_Penalty_Charging>
0.00181365

> <r_epik_Ionization_Penalty_Neutral>
0.0480127

> <r_epik_State_Penalty>
0.0408546

> <r_epik_Charging_Adjusted_Penalty>
0.0426682

> <i_epik_Tot_Q>
1

> <i_epik_Tot_abs_Q>
1

> <r_epik_Metal_State_Penalty>
4.22946e-05

> <b_epik_Metal_Only>
0

> <s_lp_Force_Field>
OPLS_2005

> <r_lp_Energy>
23.0912

> <b_lp_Chiralities_Consistent>
1

> <s_lp_Variant>
AV-unprocessed.smi:1672-2

> <Gold.Version>
5.8.1

> <Gold.Id.Protein>
6NUR|6NUR_protein|mol2

> <Gold.PLP.Fitness>
49.8182

> <Gold.PLP.PLP>
-38.7554

> <Gold.PLP.part.hbond>
-4.4616

> <Gold.PLP.part.metal>
0.0000

> <Gold.PLP.part.buried>
5.3699

> <Gold.PLP.part.nonpolar>
-39.1376

> <Gold.PLP.part.repulsive>
0.2291

> <Gold.PLP.ligand.clash>
0.0000

> <Gold.PLP.ligand.torsion>
0.5014

> <Gold.PLP.Chemscore.Hbond>
4.0000

> <Gold.PLP.Chemscore.CHOScore>
0.0000

> <Gold.PLP.Chemscore.Metal>
0.0000

> <Gold.Chemscore.Hbonds>
donor molecule, donor type, donor heavy atom, donor atom, acceptor molecule, acceptor atom, score
      L1  H     5    48       P1  7948  2.00
      L1  H     8    34       P1  7948  1.00
      L1  H    13    39       P1 10175  1.00

> <Gold.PLP.Chemscore.Internal.Correction>
0.0657

> <Gold.Rescore>
     Score         DG    S(hbond)    S(metal)    S(lipo)     H(rot)  DE(clash)    DE(int)     intcor
     15.98     -19.79       2.98        0.00     100.12       2.88       3.21       0.60       ----

> <Gold.Chemscore.Fitness>
15.9768

> <Gold.Chemscore.DG>
-19.7850

> <Gold.Chemscore.ZeroCoef>
-5.4800

> <Gold.Chemscore.Hbond>
2.9815

> <Gold.Chemscore.Metal>
0.0000

> <Gold.Chemscore.Lipo>
100.1185

> <Gold.Chemscore.Internal_Hbond>
0.0000

> <Gold.Chemscore.DEClash>
3.2059

> <Gold.Chemscore.DEInternal>
0.6023

> <Gold.Chemscore.Rot>
2.8778

> <Gold.Chemscore.Internal.Correction>
   9.000000E+99

> <Gold.Chemscore.Hbonds>
donor molecule, donor type, donor heavy atom, donor atom, acceptor molecule, acceptor atom, score
      L1  H     5    48       P1  7948  0.98
      L1  H     8    34       P1  7948  0.97
      L1  H    13    39       P1 10175  1.00

> <Gold.Chemscore.Hbond.Weighted>
-9.9582

> <Gold.Chemscore.Metal.Weighted>
-0.0000

> <Gold.Chemscore.Lipo.Weighted>
-11.7139

> <Gold.Chemscore.Internal_Hbond.Weighted>
0.0000

> <Gold.Chemscore.DEClash.Weighted>
3.2059

> <Gold.Chemscore.DEInternal.Weighted>
0.6023

> <Gold.Chemscore.Rot.Weighted>
7.3671

> <Gold.Chemscore.Internal.Correction.Weighted>
   9.000000E+99

> <Gold.Protein.RotatedTorsions>
[ 6907 6896 6895 6894 ] final  -82.90 input  -60.11 | X-H torsion
[ 7974 7965 7964 7962 ] final   59.78 input  175.53 | X-H torsion
[ 8008 7997 7996 7995 ] final -111.96 input   59.86 | X-H torsion
[ 10167 10162 10161 10158 ] final   37.74 input  -65.29 | X-H torsion
[ 10718 10713 10712 10709 ] final  173.78 input   66.30 | X-H torsion
[ 10763 10752 10751 10750 ] final -150.10 input  -60.55 | X-H torsion
[ 11005 11000 10999 10996 ] final -128.06 input  -57.11 | X-H torsion

> <Gold.Protein.ActiveResidues>
 VAL166  LYS551  ARG553  GLY616  TRP617  ASP618  TYR619  PRO620  LYS621  CYS622 
 ASP623  PHE694  ASN695  SER759  ASP760  ASP761  ALA762  ILE779  LEU786  VAL792 
 PHE793  MET794  SER795  GLU796  ALA797  LYS798  CYS799  TRP800  GLU811  SER814 

> <Gold.Protein.RotatedAtoms>
  150.6891  134.3594  159.4943 H   0  0  0  0  0  0  0  0  0  0  0  0  # atno 6907 bound_to 6896
  152.1425  134.9049  160.0562 H   0  0  0  0  0  0  0  0  0  0  0  0  # atno 6908 bound_to 6896
  152.0177  133.3851  159.4282 H   0  0  0  0  0  0  0  0  0  0  0  0  # atno 6909 bound_to 6896
  145.9033  139.3598  143.0579 H   0  0  0  0  0  0  0  0  0  0  0  0  # atno 7974 bound_to 7965
  154.9978  140.0394  157.2347 H   0  0  0  0  0  0  0  0  0  0  0  0  # atno 8008 bound_to 7997
  154.7571  140.2777  155.6222 H   0  0  0  0  0  0  0  0  0  0  0  0  # atno 8009 bound_to 7997
  156.2897  140.2635  156.2339 H   0  0  0  0  0  0  0  0  0  0  0  0  # atno 8010 bound_to 7997
  140.4004  144.1731  150.6133 H   0  0  0  0  0  0  0  0  0  0  0  0  # atno 10167 bound_to 10162
  156.9592  131.0055  151.2931 H   0  0  0  0  0  0  0  0  0  0  0  0  # atno 10718 bound_to 10713
  154.8139  135.3293  154.7230 H   0  0  0  0  0  0  0  0  0  0  0  0  # atno 10763 bound_to 10752
  153.7874  135.6913  153.4882 H   0  0  0  0  0  0  0  0  0  0  0  0  # atno 10764 bound_to 10752
  153.1939  135.4541  155.0131 H   0  0  0  0  0  0  0  0  0  0  0  0  # atno 10765 bound_to 10752
  140.9548  134.1017  157.4027 H   0  0  0  0  0  0  0  0  0  0  0  0  # atno 11005 bound_to 11000
  145.8763  140.9389  143.0624 LP  0  0  0  0  0  0  0  0  0  0  0  0  # atno 17320 bound_to 7965
  144.6737  140.0721  143.7472 LP  0  0  0  0  0  0  0  0  0  0  0  0  # atno 17321 bound_to 7965
  140.4746  143.2400  151.9041 LP  0  0  0  0  0  0  0  0  0  0  0  0  # atno 17342 bound_to 10162
  139.4785  144.5334  151.8634 LP  0  0  0  0  0  0  0  0  0  0  0  0  # atno 17343 bound_to 10162
  157.5669  130.8284  149.8340 LP  0  0  0  0  0  0  0  0  0  0  0  0  # atno 17370 bound_to 10713
  156.0329  130.3759  150.1638 LP  0  0  0  0  0  0  0  0  0  0  0  0  # atno 17371 bound_to 10713
  139.8858  135.0076  156.6462 LP  0  0  0  0  0  0  0  0  0  0  0  0  # atno 17394 bound_to 11000
  140.7552  133.8864  155.8376 LP  0  0  0  0  0  0  0  0  0  0  0  0  # atno 17395 bound_to 11000

$$$$
