#       Name:                AV-unprocessed.smi:1145
#       Creating user name   scv26
#       Creation time:       Fri Mar 27 03:45:32 2020


#       File generated by GOLD software.
#

@<TRIPOS>MOLECULE
AV-unprocessed.smi:1145
    41    42     1
SMALL
NO_CHARGES


@<TRIPOS>ATOM
      1 ****         0.1343  -3.0219   1.9447 C.3            1 S1                 0.0000
      2 ****         0.6091  -2.2277   0.7194 C.3            1 S1                 0.0000
      3 ****         2.1443  -2.2357   0.5904 C.3            1 S1                 0.0000
      4 ****         2.5951  -1.6025  -0.6372 N.pl3          1 S1                 0.0000
      5 ****         2.6151  -2.1269  -1.9123 C.2            1 S1                 0.0000
      6 ****         3.1121  -1.1622  -2.7409 C.2            1 S1                 0.0000
      7 ****         3.3692  -0.0675  -1.8689 C.2            1 S1                 0.0000
      8 ****         3.0587  -0.3337  -0.6105 N.2            1 S1                 0.0000
      9 ****         0.1228  -0.8524   0.8074 N.am           1 S1                 0.0000
     10 ****        -0.9510  -0.3605   0.1711 C.2            1 S1                 0.0000
     11 ****        -1.6907  -1.0439  -0.5379 O.2            1 S1                 0.0000
     12 ****        -1.2263   1.1368   0.3608 C.3            1 S1                 0.0000
     13 ****        -2.6498   1.3792   0.8889 C.3            1 S1                 0.0000
     14 ****        -2.9008   2.8765   1.1277 C.3            1 S1                 0.0000
     15 ****        -2.4374   3.7656  -0.0359 C.2            1 S1                 0.0000
     16 ****        -2.8630   4.9150  -0.1250 O.2            1 S1                 0.0000
     17 ****        -1.5447   3.2764  -0.9147 N.am           1 S1                 0.0000
     18 ****        -1.0346   1.9059  -0.9635 C.3            1 S1                 0.0000
     19 ****         0.4632  -4.0599   1.8901 H              1 S1                 0.0000
     20 ****        -0.9543  -3.0265   2.0120 H              1 S1                 0.0000
     21 ****         0.5238  -2.5966   2.8702 H              1 S1                 0.0000
     22 ****         0.1991  -2.7109  -0.1695 H              1 S1                 0.0000
     23 ****         2.6071  -1.7376   1.4442 H              1 S1                 0.0000
     24 ****         2.5145  -3.2615   0.5910 H              1 S1                 0.0000
     25 ****         2.2747  -3.1305  -2.1210 H              1 S1                 0.0000
     26 ****         3.2672  -1.2277  -3.8078 H              1 S1                 0.0000
     27 ****         3.7700   0.9057  -2.1116 H              1 S1                 0.0000
     28 ****         0.6711  -0.2146   1.3663 H              1 S1                 0.0000
     29 ****        -0.5208   1.5314   1.0949 H              1 S1                 0.0000
     30 ****        -3.3868   0.9983   0.1793 H              1 S1                 0.0000
     31 ****        -2.8071   0.8314   1.8191 H              1 S1                 0.0000
     32 ****        -3.9598   3.0514   1.3202 H              1 S1                 0.0000
     33 ****        -2.3641   3.1974   2.0211 H              1 S1                 0.0000
     34 ****        -1.2358   3.8952  -1.6506 H              1 S1                 0.0000
     35 ****         0.0230   1.9367  -1.2286 H              1 S1                 0.0000
     36 ****        -1.5465   1.3982  -1.7825 H              1 S1                 0.0000
     37 ****         3.1473   0.2690   0.1825 LP             1 S1                 0.0000
     38 ****        -1.5037  -2.0184  -0.6624 LP             1 S1                 0.0000
     39 ****        -2.4784  -0.6244  -0.9891 LP             1 S1                 0.0000
     40 ****        -3.5057   5.2645   0.5568 LP             1 S1                 0.0000
     41 ****        -2.5667   5.5009  -0.8793 LP             1 S1                 0.0000
@<TRIPOS>BOND
    1    1    2 1     
    2    1   19 1     
    3    1   20 1     
    4    1   21 1     
    5    2    3 1     
    6    2    9 1     
    7    2   22 1     
    8    3    4 1     
    9    3   23 1     
   10    3   24 1     
   11    4    8 1     
   12    4    5 1     
   13    5    6 2     
   14    5   25 1     
   15    6    7 1     
   16    6   26 1     
   17    7    8 2     
   18    7   27 1     
   19    9   10 am    
   20    9   28 1     
   21   10   11 2     
   22   10   12 1     
   23   12   18 1     
   24   12   13 1     
   25   12   29 1     
   26   13   14 1     
   27   13   30 1     
   28   13   31 1     
   29   14   15 1     
   30   14   32 1     
   31   14   33 1     
   32   15   16 2     
   33   15   17 am    
   34   17   18 1     
   35   17   34 1     
   36   18   35 1     
   37   18   36 1     
   38    8   37 1     
   39   11   38 1     
   40   11   39 1     
   41   16   40 1     
   42   16   41 1     
@<TRIPOS>SUBSTRUCTURE
      1 S1             1
@<TRIPOS>SET
LONE_PAIRS      STATIC     ATOMS    <user>   **** ""
5 37 38 39 40 41
DONOR_HYDROGENS      STATIC     ATOMS    <user>   **** ""
2 28 34
ATOM$BLUE        STATIC     ATOMS    COLORGROUP SYSTEM
5 37 38 39 40 41
ATOM$RED        STATIC     ATOMS    COLORGROUP SYSTEM
2 28 34
