#       Name:                AV-unprocessed.smi:255
#       Creating user name   scv26
#       Creation time:       Thu Mar 26 21:08:59 2020


#       File generated by GOLD software.
#

@<TRIPOS>MOLECULE
AV-unprocessed.smi:255
    54    57     1
SMALL
NO_CHARGES


@<TRIPOS>ATOM
      1 ****        -1.7730  -1.1285   1.8751 O.3            1 S1                 0.0000
      2 ****        -3.0063  -0.5493   1.5041 C.3            1 S1                 0.0000
      3 ****        -2.9866   0.9729   1.7460 C.3            1 S1                 0.0000
      4 ****        -4.3759   1.5488   2.0237 C.3            1 S1                 0.0000
      5 ****        -4.1784   3.0338   1.7370 C.3            1 S1                 0.0000
      6 ****        -3.6586   3.6307   2.8108 F              1 S1                 0.0000
      7 ****        -3.1489   3.0497   0.6014 C.3            1 S1                 0.0000
      8 ****        -2.5154   1.7310   0.5893 N.3            1 S1                 0.0000
      9 ****        -1.1739   1.7111   0.4181 C.ar           1 S1                 0.0000
     10 ****        -0.3731   2.4943   1.1887 N.ar           1 S1                 0.0000
     11 ****         0.9532   2.4536   1.0289 C.ar           1 S1                 0.0000
     12 ****         1.6701   1.7128   0.1807 N.ar           1 S1                 0.0000
     13 ****         0.8676   0.9185  -0.5848 C.ar           1 S1                 0.0000
     14 ****        -0.5528   0.8600  -0.5332 C.ar           1 S1                 0.0000
     15 ****        -1.0279  -0.0572  -1.4620 N.2            1 S1                 0.0000
     16 ****         0.0531  -0.5183  -2.0298 C.2            1 S1                 0.0000
     17 ****         1.2360   0.0070  -1.5589 N.pl3          1 S1                 0.0000
     18 ****         2.5783  -0.3291  -2.0075 C.3            1 S1                 0.0000
     19 ****         3.2285  -1.4777  -1.2008 C.3            1 S1                 0.0000
     20 ****         3.3995  -1.0622   0.1428 O.3            1 S1                 0.0000
     21 ****         2.4257  -2.7766  -1.2054 C.3            1 S1                 0.0000
     22 ****         3.5069  -3.8472  -1.1635 C.3            1 S1                 0.0000
     23 ****         4.5025  -3.3073  -2.0147 O.3            1 S1                 0.0000
     24 ****         4.6007  -1.9109  -1.7554 C.3            1 S1                 0.0000
     25 ****        -2.3562   1.1969   2.6092 H              1 S1                 0.0000
     26 ****        -5.1032   3.5542   1.4878 H              1 S1                 0.0000
     27 ****        -1.8186  -2.0589   1.7168 H              1 S1                 0.0000
     28 ****        -3.2477  -0.7896   0.4682 H              1 S1                 0.0000
     29 ****        -3.7720  -1.0149   2.1252 H              1 S1                 0.0000
     30 ****        -5.1044   1.1331   1.3256 H              1 S1                 0.0000
     31 ****        -4.7259   1.3503   3.0372 H              1 S1                 0.0000
     32 ****        -3.6572   3.1760  -0.3549 H              1 S1                 0.0000
     33 ****        -2.4507   3.8815   0.7037 H              1 S1                 0.0000
     34 ****         1.5215   3.1060   1.6751 H              1 S1                 0.0000
     35 ****         0.0164  -1.2627  -2.8117 H              1 S1                 0.0000
     36 ****         2.5217  -0.5999  -3.0628 H              1 S1                 0.0000
     37 ****         3.1961   0.5685  -1.9562 H              1 S1                 0.0000
     38 ****         3.8160  -1.7612   0.6232 H              1 S1                 0.0000
     39 ****         1.7077  -2.8554  -0.3876 H              1 S1                 0.0000
     40 ****         1.8743  -2.8766  -2.1410 H              1 S1                 0.0000
     41 ****         3.9062  -3.9662  -0.1550 H              1 S1                 0.0000
     42 ****         3.1566  -4.8175  -1.5157 H              1 S1                 0.0000
     43 ****         4.8632  -1.3900  -2.6767 H              1 S1                 0.0000
     44 ****         5.4064  -1.7332  -1.0410 H              1 S1                 0.0000
     45 ****        -1.5995  -0.9596   2.8453 LP             1 S1                 0.0000
     46 ****        -1.0356  -0.7295   1.3302 LP             1 S1                 0.0000
     47 ****        -2.8098   1.2729  -0.2494 LP             1 S1                 0.0000
     48 ****        -0.7762   3.1003   1.8745 LP             1 S1                 0.0000
     49 ****         2.6676   1.7370   0.1149 LP             1 S1                 0.0000
     50 ****        -1.9777  -0.3064  -1.6516 LP             1 S1                 0.0000
     51 ****         2.5085  -0.8586   0.5486 LP             1 S1                 0.0000
     52 ****         3.9739  -0.2442   0.1721 LP             1 S1                 0.0000
     53 ****         4.2485  -3.4570  -2.9702 LP             1 S1                 0.0000
     54 ****         5.3809  -3.7483  -1.8303 LP             1 S1                 0.0000
@<TRIPOS>BOND
    1    1    2 1     
    2    1   27 1     
    3    2    3 1     
    4    2   28 1     
    5    2   29 1     
    6    3   25 1     
    7    3    8 1     
    8    3    4 1     
    9    4    5 1     
   10    4   30 1     
   11    4   31 1     
   12    5   26 1     
   13    5    6 1     
   14    5    7 1     
   15    7    8 1     
   16    7   32 1     
   17    7   33 1     
   18    8    9 1     
   19    9   14 ar    
   20    9   10 ar    
   21   10   11 ar    
   22   11   12 ar    
   23   11   34 1     
   24   12   13 ar    
   25   13   17 1     
   26   13   14 ar    
   27   14   15 1     
   28   15   16 2     
   29   16   17 1     
   30   16   35 1     
   31   17   18 1     
   32   18   19 1     
   33   18   36 1     
   34   18   37 1     
   35   19   24 1     
   36   19   20 1     
   37   19   21 1     
   38   20   38 1     
   39   21   22 1     
   40   21   39 1     
   41   21   40 1     
   42   22   23 1     
   43   22   41 1     
   44   22   42 1     
   45   23   24 1     
   46   24   43 1     
   47   24   44 1     
   48    1   45 1     
   49    1   46 1     
   50    8   47 1     
   51   10   48 1     
   52   12   49 1     
   53   15   50 1     
   54   20   51 1     
   55   20   52 1     
   56   23   53 1     
   57   23   54 1     
@<TRIPOS>SUBSTRUCTURE
      1 S1             1
@<TRIPOS>SET
LONE_PAIRS      STATIC     ATOMS    <user>   **** ""
10 45 46 47 48 49 50 51 52 53 54
DONOR_HYDROGENS      STATIC     ATOMS    <user>   **** ""
2 27 38
ATOM$BLUE        STATIC     ATOMS    COLORGROUP SYSTEM
10 45 46 47 48 49 50 51 52 53 54
ATOM$RED        STATIC     ATOMS    COLORGROUP SYSTEM
2 27 38
