#       Name:                AV-unprocessed.smi:2502
#       Creating user name   scv26
#       Creation time:       Fri Mar 27 13:47:18 2020


#       File generated by GOLD software.
#

@<TRIPOS>MOLECULE
AV-unprocessed.smi:2502
    47    49     1
SMALL
NO_CHARGES


@<TRIPOS>ATOM
      1 ****        -1.0475  -0.2688  -0.8449 O.3            1 S1                 0.0000
      2 ****        -0.5187   0.1058   0.4130 C.3            1 S1                 0.0000
      3 ****         1.0122  -0.0152   0.3546 C.3            1 S1                 0.0000
      4 ****         1.3728  -1.3745   0.5546 O.3            1 S1                 0.0000
      5 ****         2.7732  -1.6196   0.5715 C.3            1 S1                 0.0000
      6 ****         3.3637  -1.6292  -0.8493 C.3            1 S1                 0.0000
      7 ****         4.8295  -2.0925  -0.8190 C.3            1 S1                 0.0000
      8 ****         4.9253  -3.3761  -0.2098 O.3            1 S1                 0.0000
      9 ****         4.4869  -3.3832   1.1450 C.3            1 S1                 0.0000
     10 ****         3.0020  -2.9926   1.2166 C.3            1 S1                 0.0000
     11 ****        -0.9697   1.5438   0.7369 C.3            1 S1                 0.0000
     12 ****        -2.4143   1.6705   0.8220 N.pl3          1 S1                 0.0000
     13 ****        -3.0539   1.2689   1.9568 N.2            1 S1                 0.0000
     14 ****        -4.3291   1.4709   1.8095 N.2            1 S1                 0.0000
     15 ****        -4.5344   2.0159   0.5530 C.ar           1 S1                 0.0000
     16 ****        -5.7097   2.4233  -0.1165 C.ar           1 S1                 0.0000
     17 ****        -5.6395   2.9558  -1.4225 C.ar           1 S1                 0.0000
     18 ****        -7.0994   3.4419  -2.2084 Cl             1 S1                 0.0000
     19 ****        -4.3894   3.0865  -2.0746 C.ar           1 S1                 0.0000
     20 ****        -4.2861   3.7340  -3.6730 Cl             1 S1                 0.0000
     21 ****        -3.2087   2.6852  -1.4183 C.ar           1 S1                 0.0000
     22 ****        -3.3007   2.1586  -0.1185 C.ar           1 S1                 0.0000
     23 ****        -1.9909  -0.2562  -0.7908 H              1 S1                 0.0000
     24 ****        -0.9073  -0.5696   1.1765 H              1 S1                 0.0000
     25 ****         1.3983   0.3798  -0.5856 H              1 S1                 0.0000
     26 ****         1.4551   0.5755   1.1580 H              1 S1                 0.0000
     27 ****         3.2778  -0.8655   1.1784 H              1 S1                 0.0000
     28 ****         2.7844  -2.3005  -1.4842 H              1 S1                 0.0000
     29 ****         3.3047  -0.6402  -1.3029 H              1 S1                 0.0000
     30 ****         5.2234  -2.1550  -1.8335 H              1 S1                 0.0000
     31 ****         5.4520  -1.3763  -0.2804 H              1 S1                 0.0000
     32 ****         4.6317  -4.3823   1.5564 H              1 S1                 0.0000
     33 ****         5.0979  -2.7025   1.7397 H              1 S1                 0.0000
     34 ****         2.6654  -2.9822   2.2537 H              1 S1                 0.0000
     35 ****         2.4050  -3.7464   0.7015 H              1 S1                 0.0000
     36 ****        -0.5421   1.8685   1.6867 H              1 S1                 0.0000
     37 ****        -0.6030   2.2384  -0.0203 H              1 S1                 0.0000
     38 ****        -6.6665   2.3251   0.3751 H              1 S1                 0.0000
     39 ****        -2.2492   2.7784  -1.9053 H              1 S1                 0.0000
     40 ****        -0.7358  -1.1891  -1.0810 LP             1 S1                 0.0000
     41 ****        -0.7415   0.3766  -1.5449 LP             1 S1                 0.0000
     42 ****         0.9704  -1.9157  -0.1838 LP             1 S1                 0.0000
     43 ****         0.9936  -1.6720   1.4307 LP             1 S1                 0.0000
     44 ****         5.8803  -3.6713  -0.2373 LP             1 S1                 0.0000
     45 ****         4.3627  -4.0185  -0.7302 LP             1 S1                 0.0000
     46 ****        -2.6147   0.8829   2.7680 LP             1 S1                 0.0000
     47 ****        -5.0380   1.2683   2.4850 LP             1 S1                 0.0000
@<TRIPOS>BOND
    1    1    2 1     
    2    1   23 1     
    3    2    3 1     
    4    2   11 1     
    5    2   24 1     
    6    3    4 1     
    7    3   25 1     
    8    3   26 1     
    9    4    5 1     
   10    5   10 1     
   11    5    6 1     
   12    5   27 1     
   13    6    7 1     
   14    6   28 1     
   15    6   29 1     
   16    7    8 1     
   17    7   30 1     
   18    7   31 1     
   19    8    9 1     
   20    9   10 1     
   21    9   32 1     
   22    9   33 1     
   23   10   34 1     
   24   10   35 1     
   25   11   12 1     
   26   11   36 1     
   27   11   37 1     
   28   12   22 1     
   29   12   13 1     
   30   13   14 2     
   31   14   15 1     
   32   15   22 ar    
   33   15   16 ar    
   34   16   17 ar    
   35   16   38 1     
   36   17   18 1     
   37   17   19 ar    
   38   19   20 1     
   39   19   21 ar    
   40   21   22 ar    
   41   21   39 1     
   42    1   40 1     
   43    1   41 1     
   44    4   42 1     
   45    4   43 1     
   46    8   44 1     
   47    8   45 1     
   48   13   46 1     
   49   14   47 1     
@<TRIPOS>SUBSTRUCTURE
      1 S1             1
@<TRIPOS>SET
LONE_PAIRS      STATIC     ATOMS    <user>   **** ""
8 40 41 42 43 44 45 46 47
DONOR_HYDROGENS      STATIC     ATOMS    <user>   **** ""
1 23
ATOM$BLUE        STATIC     ATOMS    COLORGROUP SYSTEM
8 40 41 42 43 44 45 46 47
ATOM$RED        STATIC     ATOMS    COLORGROUP SYSTEM
1 23
