AV-unprocessed.smi:797|AV-procd|sdf|3768|dock8
  -GOLD-   22720 1203D 1   1.00000     0.00000
 Structure written by MMmdl.
 34 35  0  0  0  0  0  0  0  0  2 V2000
  147.6104  138.9709  153.5135 C   0  0  0  0  0  0  0  0  0  0  0  0
  148.9171  139.3392  154.1516 C   0  0  0  0  0  0  0  0  0  0  0  0
  149.8813  138.4820  154.7480 C   0  0  0  0  0  0  0  0  0  0  0  0
  150.8590  139.3384  155.1689 C   0  0  0  0  0  0  0  0  0  0  0  0
  152.1572  139.1318  155.8774 C   0  0  0  0  0  0  0  0  0  0  0  0
  152.0397  139.7295  157.6193 S   0  0  0  0  0  0  0  0  0  0  0  0
  150.9330  138.9735  158.2277 O   0  0  0  0  0  0  0  0  0  0  0  0
  153.3769  139.5550  158.2104 O   0  0  0  0  0  0  0  0  0  0  0  0
  151.6535  141.2876  157.3782 N   0  5  0  0  0  0  0  0  0  0  0  0
  151.3998  142.1573  158.5170 C   0  0  0  0  0  0  0  0  0  0  0  0
  151.0857  143.5911  158.0234 C   0  0  0  0  0  0  0  0  0  0  0  0
  150.9340  144.6165  159.1760 C   0  0  0  0  0  0  0  0  0  0  0  0
  152.1701  144.6592  160.0989 C   0  0  0  0  0  0  0  0  0  0  0  0
  152.4882  143.2361  160.6033 C   0  0  0  0  0  0  0  0  0  0  0  0
  152.6366  142.2120  159.4497 C   0  0  0  0  0  0  0  0  0  0  0  0
  150.5297  140.6167  154.8491 O   0  0  0  0  0  0  0  0  0  0  0  0
  149.2905  140.6069  154.1993 N   0  0  0  0  0  0  0  0  0  0  0  0
  147.2647  137.9975  153.8619 H   0  0  0  0  0  0  0  0  0  0  0  0
  147.7062  138.9211  152.4289 H   0  0  0  0  0  0  0  0  0  0  0  0
  146.8341  139.6999  153.7476 H   0  0  0  0  0  0  0  0  0  0  0  0
  149.8582  137.4084  154.8609 H   0  0  0  0  0  0  0  0  0  0  0  0
  152.4504  138.0823  155.8803 H   0  0  0  0  0  0  0  0  0  0  0  0
  152.9471  139.6975  155.3840 H   0  0  0  0  0  0  0  0  0  0  0  0
  150.5443  141.8134  159.0998 H   0  0  0  0  0  0  0  0  0  0  0  0
  151.8816  143.9309  157.3587 H   0  0  0  0  0  0  0  0  0  0  0  0
  150.1739  143.5834  157.4252 H   0  0  0  0  0  0  0  0  0  0  0  0
  150.7613  145.6084  158.7577 H   0  0  0  0  0  0  0  0  0  0  0  0
  150.0463  144.3862  159.7688 H   0  0  0  0  0  0  0  0  0  0  0  0
  153.0254  145.0538  159.5492 H   0  0  0  0  0  0  0  0  0  0  0  0
  151.9969  145.3320  160.9392 H   0  0  0  0  0  0  0  0  0  0  0  0
  153.4081  143.2570  161.1883 H   0  0  0  0  0  0  0  0  0  0  0  0
  151.7060  142.9119  161.2929 H   0  0  0  0  0  0  0  0  0  0  0  0
  152.8299  141.2266  159.8737 H   0  0  0  0  0  0  0  0  0  0  0  0
  153.5220  142.4686  158.8658 H   0  0  0  0  0  0  0  0  0  0  0  0
  1  2  1  0  0  0  0
  1 18  1  0  0  0  0
  1 19  1  0  0  0  0
  1 20  1  0  0  0  0
  2 17  2  0  0  0  0
  2  3  1  0  0  0  0
  3  4  2  0  0  0  0
  3 21  1  0  0  0  0
  4  5  1  0  0  0  0
  4 16  1  0  0  0  0
  5  6  1  0  0  0  0
  5 22  1  0  0  0  0
  5 23  1  0  0  0  0
  6  7  2  0  0  0  0
  6  8  2  0  0  0  0
  6  9  1  0  0  0  0
  9 10  1  0  0  0  0
 10 15  1  0  0  0  0
 10 11  1  0  0  0  0
 10 24  1  0  0  0  0
 11 12  1  0  0  0  0
 11 25  1  0  0  0  0
 11 26  1  0  0  0  0
 12 13  1  0  0  0  0
 12 27  1  0  0  0  0
 12 28  1  0  0  0  0
 13 14  1  0  0  0  0
 13 29  1  0  0  0  0
 13 30  1  0  0  0  0
 14 15  1  0  0  0  0
 14 31  1  0  0  0  0
 14 32  1  0  0  0  0
 15 33  1  0  0  0  0
 15 34  1  0  0  0  0
 16 17  1  0  0  0  0
M  CHG  1   9  -1
M  END
> <s_m_source_file>
AV-unprocessed.smi

> <i_m_source_file_index>
797

> <i_lp_mmshare_version>
43012

> <i_f3d_flags>
0

> <s_epik_input>
W0NIM11jMVtjSF1jKG9uMSlbQ0gyXVMoPU8pKD1PKVtOSF1bQ0hdMltDSDJdW0NIMl1bQ0gyXVtDSDJdW0NIMl0y

> <s_epik_cmdline>
J2VwaWtfcHl0aG9uJywgJy1waCcsICc3LjAnLCAnLXRuJywgJzgnLCAnLW1hJywgJzIwMCcsICctbWV0YWxfYmluZGluZycsICctaW1hZScsICc8aW5maWxlLm1hZT4nLCAnLW9tYWUnLCAnPG91dGZpbGUubWFlPic=

> <r_lp_tautomer_probability>
1

> <r_epik_Ionization_Penalty>
5.48284

> <r_epik_Ionization_Penalty_Charging>
5.48284

> <r_epik_Ionization_Penalty_Neutral>
9.17401e-10

> <r_epik_State_Penalty>
5.48278

> <r_epik_Charging_Adjusted_Penalty>
10.9656

> <i_epik_Tot_Q>
-1

> <i_epik_Tot_abs_Q>
1

> <r_epik_Metal_State_Penalty>
1.49378

> <b_epik_Metal_Only>
1

> <s_lp_Force_Field>
OPLS_2005

> <r_lp_Energy>
6.0802

> <b_lp_Chiralities_Consistent>
1

> <s_lp_Variant>
AV-unprocessed.smi:797-2

> <Gold.Version>
5.8.1

> <Gold.Id.Protein>
6NUR|6NUR_protein|mol2

> <Gold.PLP.Fitness>
39.6205

> <Gold.PLP.PLP>
-34.3615

> <Gold.PLP.part.hbond>
-2.6563

> <Gold.PLP.part.metal>
0.0000

> <Gold.PLP.part.buried>
-2.3065

> <Gold.PLP.part.nonpolar>
-29.3187

> <Gold.PLP.part.repulsive>
0.6506

> <Gold.PLP.ligand.clash>
0.0000

> <Gold.PLP.ligand.torsion>
0.7826

> <Gold.PLP.Chemscore.Hbond>
1.9440

> <Gold.PLP.Chemscore.CHOScore>
0.0000

> <Gold.PLP.Chemscore.Metal>
0.0000

> <Gold.Chemscore.Hbonds>
donor molecule, donor type, donor heavy atom, donor atom, acceptor molecule, acceptor atom, score
      P1  H  7989  7998       L1    16  0.94
      P1  H  7997  8009       L1     8  1.00

> <Gold.PLP.Chemscore.Internal.Correction>
0.9922

> <Gold.Rescore>
     Score         DG    S(hbond)    S(metal)    S(lipo)     H(rot)  DE(clash)    DE(int)     intcor
     17.00     -18.08       1.82        0.00      85.24       1.35       0.05       1.03       ----

> <Gold.Chemscore.Fitness>
17.0005

> <Gold.Chemscore.DG>
-18.0764

> <Gold.Chemscore.ZeroCoef>
-5.4800

> <Gold.Chemscore.Hbond>
1.8238

> <Gold.Chemscore.Metal>
0.0000

> <Gold.Chemscore.Lipo>
85.2381

> <Gold.Chemscore.Internal_Hbond>
0.0000

> <Gold.Chemscore.DEClash>
0.0491

> <Gold.Chemscore.DEInternal>
1.0267

> <Gold.Chemscore.Rot>
1.3546

> <Gold.Chemscore.Internal.Correction>
   9.000000E+99

> <Gold.Chemscore.Hbonds>
donor molecule, donor type, donor heavy atom, donor atom, acceptor molecule, acceptor atom, score
      P1  H  7989  7998       L1    16  0.07
      P1  H  7997  8009       L1     8  0.60

> <Gold.Chemscore.Hbond.Weighted>
-6.0914

> <Gold.Chemscore.Metal.Weighted>
-0.0000

> <Gold.Chemscore.Lipo.Weighted>
-9.9729

> <Gold.Chemscore.Internal_Hbond.Weighted>
0.0000

> <Gold.Chemscore.DEClash.Weighted>
0.0491

> <Gold.Chemscore.DEInternal.Weighted>
1.0267

> <Gold.Chemscore.Rot.Weighted>
3.4679

> <Gold.Chemscore.Internal.Correction.Weighted>
   9.000000E+99

> <Gold.Protein.RotatedTorsions>
[ 6907 6896 6895 6894 ] final   66.88 input  -60.11 | X-H torsion
[ 7974 7965 7964 7962 ] final -157.64 input  175.53 | X-H torsion
[ 8008 7997 7996 7995 ] final  159.09 input   59.86 | X-H torsion
[ 10167 10162 10161 10158 ] final  -10.05 input  -65.29 | X-H torsion
[ 10718 10713 10712 10709 ] final   75.81 input   66.30 | X-H torsion
[ 10763 10752 10751 10750 ] final    1.41 input  -60.55 | X-H torsion
[ 11005 11000 10999 10996 ] final  -69.31 input  -57.11 | X-H torsion

> <Gold.Protein.ActiveResidues>
 VAL166  LYS551  ARG553  GLY616  TRP617  ASP618  TYR619  PRO620  LYS621  CYS622 
 ASP623  PHE694  ASN695  SER759  ASP760  ASP761  ALA762  ILE779  LEU786  VAL792 
 PHE793  MET794  SER795  GLU796  ALA797  LYS798  CYS799  TRP800  GLU811  SER814 

> <Gold.Protein.RotatedAtoms>
  152.4512  134.5388  159.9832 H   0  0  0  0  0  0  0  0  0  0  0  0  # atno 6907 bound_to 6896
  151.5460  133.3419  159.2952 H   0  0  0  0  0  0  0  0  0  0  0  0  # atno 6908 bound_to 6896
  150.8442  134.7777  159.7020 H   0  0  0  0  0  0  0  0  0  0  0  0  # atno 6909 bound_to 6896
  144.7539  140.3940  143.6027 H   0  0  0  0  0  0  0  0  0  0  0  0  # atno 7974 bound_to 7965
  156.2261  140.1840  156.7359 H   0  0  0  0  0  0  0  0  0  0  0  0  # atno 8008 bound_to 7997
  154.5944  140.0645  156.9311 H   0  0  0  0  0  0  0  0  0  0  0  0  # atno 8009 bound_to 7997
  155.2281  140.3312  155.4309 H   0  0  0  0  0  0  0  0  0  0  0  0  # atno 8010 bound_to 7997
  140.7103  143.5791  150.9011 H   0  0  0  0  0  0  0  0  0  0  0  0  # atno 10167 bound_to 10162
  157.6649  130.9744  150.1407 H   0  0  0  0  0  0  0  0  0  0  0  0  # atno 10718 bound_to 10713
  153.3083  135.6961  153.7139 H   0  0  0  0  0  0  0  0  0  0  0  0  # atno 10763 bound_to 10752
  153.6026  135.3459  155.2951 H   0  0  0  0  0  0  0  0  0  0  0  0  # atno 10764 bound_to 10752
  154.8569  135.4344  154.2214 H   0  0  0  0  0  0  0  0  0  0  0  0  # atno 10765 bound_to 10752
  141.1551  133.6761  156.6580 H   0  0  0  0  0  0  0  0  0  0  0  0  # atno 11005 bound_to 11000
  145.6846  139.1626  143.2681 LP  0  0  0  0  0  0  0  0  0  0  0  0  # atno 17320 bound_to 7965
  146.1526  140.6904  142.9315 LP  0  0  0  0  0  0  0  0  0  0  0  0  # atno 17321 bound_to 7965
  139.9517  143.6265  152.3027 LP  0  0  0  0  0  0  0  0  0  0  0  0  # atno 17342 bound_to 10162
  139.6786  144.7657  151.1651 LP  0  0  0  0  0  0  0  0  0  0  0  0  # atno 17343 bound_to 10162
  156.2230  130.3675  149.8533 LP  0  0  0  0  0  0  0  0  0  0  0  0  # atno 17370 bound_to 10713
  156.6381  130.8693  151.3508 LP  0  0  0  0  0  0  0  0  0  0  0  0  # atno 17371 bound_to 10713
  140.3269  134.7961  157.4296 LP  0  0  0  0  0  0  0  0  0  0  0  0  # atno 17394 bound_to 11000
  140.1049  134.5423  155.8318 LP  0  0  0  0  0  0  0  0  0  0  0  0  # atno 17395 bound_to 11000

$$$$
