AV-unprocessed.smi:1975|AV-procd|sdf|7982|dock4
  -GOLD-   2272010163D 1   1.00000     0.00000
 Structure written by MMmdl.
 33 34  0  0  0  0  0  0  0  0  1 V2000
  151.5685  145.4066  160.0706 C   0  0  0  0  0  0  0  0  0  0  0  0
  151.7054  144.6968  158.7153 C   0  0  0  0  0  0  0  0  0  0  0  0
  152.0300  143.2998  158.8427 N   0  0  0  0  0  0  0  0  0  0  0  0
  153.1276  142.8718  159.5600 C   0  0  0  0  0  0  0  0  0  0  0  0
  153.4573  141.5688  159.6744 C   0  0  0  0  0  0  0  0  0  0  0  0
  154.5971  141.1454  160.4184 C   0  0  0  0  0  0  0  0  0  0  0  0
  155.5324  140.7920  161.0013 N   0  0  0  0  0  0  0  0  0  0  0  0
  152.6563  140.5293  159.0324 C   0  0  0  0  0  0  0  0  0  0  0  0
  152.9234  139.3282  159.0985 O   0  0  0  0  0  0  0  0  0  0  0  0
  151.5309  140.9889  158.3018 N   0  0  0  0  0  0  0  0  0  0  0  0
  150.6861  139.9978  157.5992 C   0  0  0  0  0  0  0  0  0  0  0  0
  150.5042  140.2984  156.1030 C   0  0  0  0  0  0  0  0  0  0  0  0
  151.4769  140.4067  155.3546 O   0  0  0  0  0  0  0  0  0  0  0  0
  149.2364  140.4240  155.6855 N   0  0  0  0  0  0  0  0  0  0  0  0
  148.8271  140.6988  154.3462 C   0  0  0  0  0  0  0  0  0  0  0  0
  147.9187  141.8879  154.1187 C   0  0  0  0  0  0  0  0  0  0  0  0
  147.3677  140.4936  154.0028 C   0  0  0  0  0  0  0  0  0  0  0  0
  151.2027  142.3612  158.1835 C   0  0  0  0  0  0  0  0  0  0  0  0
  150.2284  142.7232  157.5184 O   0  0  0  0  0  0  0  0  0  0  0  0
  151.2890  146.4511  159.9317 H   0  0  0  0  0  0  0  0  0  0  0  0
  152.5030  145.3877  160.6318 H   0  0  0  0  0  0  0  0  0  0  0  0
  150.7999  144.9360  160.6844 H   0  0  0  0  0  0  0  0  0  0  0  0
  150.7653  144.7365  158.1637 H   0  0  0  0  0  0  0  0  0  0  0  0
  152.4626  145.1542  158.0757 H   0  0  0  0  0  0  0  0  0  0  0  0
  153.7502  143.6084  160.0474 H   0  0  0  0  0  0  0  0  0  0  0  0
  151.0917  138.9898  157.6986 H   0  0  0  0  0  0  0  0  0  0  0  0
  149.7016  139.9312  158.0659 H   0  0  0  0  0  0  0  0  0  0  0  0
  148.5021  140.3165  156.3703 H   0  0  0  0  0  0  0  0  0  0  0  0
  149.5384  140.4808  153.5506 H   0  0  0  0  0  0  0  0  0  0  0  0
  147.6215  142.4751  154.9856 H   0  0  0  0  0  0  0  0  0  0  0  0
  148.0534  142.4530  153.1987 H   0  0  0  0  0  0  0  0  0  0  0  0
  147.1338  140.1282  153.0049 H   0  0  0  0  0  0  0  0  0  0  0  0
  146.7018  140.1500  154.7921 H   0  0  0  0  0  0  0  0  0  0  0  0
  1  2  1  0  0  0  0
  1 20  1  0  0  0  0
  1 21  1  0  0  0  0
  1 22  1  0  0  0  0
  2  3  1  0  0  0  0
  2 23  1  0  0  0  0
  2 24  1  0  0  0  0
  3 18  1  0  0  0  0
  3  4  1  0  0  0  0
  4  5  2  0  0  0  0
  4 25  1  0  0  0  0
  5  6  1  0  0  0  0
  5  8  1  0  0  0  0
  6  7  3  0  0  0  0
  8  9  2  0  0  0  0
  8 10  1  0  0  0  0
 10 11  1  0  0  0  0
 10 18  1  0  0  0  0
 11 12  1  0  0  0  0
 11 26  1  0  0  0  0
 11 27  1  0  0  0  0
 12 13  2  0  0  0  0
 12 14  1  0  0  0  0
 14 15  1  0  0  0  0
 14 28  1  0  0  0  0
 15 17  1  0  0  0  0
 15 16  1  0  0  0  0
 15 29  1  0  0  0  0
 16 17  1  0  0  0  0
 16 30  1  0  0  0  0
 16 31  1  0  0  0  0
 17 32  1  0  0  0  0
 17 33  1  0  0  0  0
 18 19  2  0  0  0  0
M  END
> <s_m_source_file>
AV-unprocessed.smi

> <i_m_source_file_index>
1975

> <i_lp_mmshare_version>
43012

> <i_f3d_flags>
0

> <s_epik_input>
W0NIM11bQ0gyXW4xW2NIXWMoQyNOKWMoPU8pbihjMT1PKVtDSDJdQyg9TylbTkhdW0NIXTJbQ0gyXVtDSDJdMg==

> <s_epik_cmdline>
J2VwaWtfcHl0aG9uJywgJy1waCcsICc3LjAnLCAnLXRuJywgJzgnLCAnLW1hJywgJzIwMCcsICctbWV0YWxfYmluZGluZycsICctaW1hZScsICc8aW5maWxlLm1hZT4nLCAnLW9tYWUnLCAnPG91dGZpbGUubWFlPic=

> <r_lp_tautomer_probability>
1

> <r_epik_Ionization_Penalty>
2.07081e-08

> <r_epik_Ionization_Penalty_Charging>
3.77987e-11

> <r_epik_Ionization_Penalty_Neutral>
2.06703e-08

> <r_epik_State_Penalty>
-0

> <r_epik_Charging_Adjusted_Penalty>
3.77987e-11

> <i_epik_Tot_Q>
0

> <i_epik_Tot_abs_Q>
0

> <r_epik_Metal_State_Penalty>
-0

> <b_epik_Metal_Only>
0

> <s_lp_Force_Field>
OPLS_2005

> <r_lp_Energy>
17.9293

> <b_lp_Chiralities_Consistent>
1

> <s_lp_Variant>
AV-unprocessed.smi:1975-1

> <Gold.Version>
5.8.1

> <Gold.Id.Protein>
6NUR|6NUR_protein|mol2

> <Gold.PLP.Fitness>
45.6846

> <Gold.PLP.PLP>
-43.4038

> <Gold.PLP.part.hbond>
-2.0000

> <Gold.PLP.part.metal>
0.0000

> <Gold.PLP.part.buried>
-5.4934

> <Gold.PLP.part.nonpolar>
-36.8353

> <Gold.PLP.part.repulsive>
0.9455

> <Gold.PLP.ligand.clash>
0.0000

> <Gold.PLP.ligand.torsion>
0.1813

> <Gold.PLP.Chemscore.Hbond>
0.8640

> <Gold.PLP.Chemscore.CHOScore>
0.0000

> <Gold.PLP.Chemscore.Metal>
0.0000

> <Gold.Chemscore.Hbonds>
donor molecule, donor type, donor heavy atom, donor atom, acceptor molecule, acceptor atom, score
      P1  H  7989  7998       L1    13  0.90

> <Gold.PLP.Chemscore.Internal.Correction>
0.0515

> <Gold.Rescore>
     Score         DG    S(hbond)    S(metal)    S(lipo)     H(rot)  DE(clash)    DE(int)     intcor
     10.93     -12.32       0.94        0.00      72.80       1.89       0.00       1.39       ----

> <Gold.Chemscore.Fitness>
10.9252

> <Gold.Chemscore.DG>
-12.3196

> <Gold.Chemscore.ZeroCoef>
-5.4800

> <Gold.Chemscore.Hbond>
0.9443

> <Gold.Chemscore.Metal>
0.0000

> <Gold.Chemscore.Lipo>
72.8023

> <Gold.Chemscore.Internal_Hbond>
0.0000

> <Gold.Chemscore.DEClash>
0.0040

> <Gold.Chemscore.DEInternal>
1.3904

> <Gold.Chemscore.Rot>
1.8876

> <Gold.Chemscore.Internal.Correction>
   9.000000E+99

> <Gold.Chemscore.Hbonds>
donor molecule, donor type, donor heavy atom, donor atom, acceptor molecule, acceptor atom, score
      P1  H  7989  7998       L1    13  0.86

> <Gold.Chemscore.Hbond.Weighted>
-3.1540

> <Gold.Chemscore.Metal.Weighted>
-0.0000

> <Gold.Chemscore.Lipo.Weighted>
-8.5179

> <Gold.Chemscore.Internal_Hbond.Weighted>
0.0000

> <Gold.Chemscore.DEClash.Weighted>
0.0040

> <Gold.Chemscore.DEInternal.Weighted>
1.3904

> <Gold.Chemscore.Rot.Weighted>
4.8323

> <Gold.Chemscore.Internal.Correction.Weighted>
   9.000000E+99

> <Gold.Protein.RotatedTorsions>
[ 6907 6896 6895 6894 ] final   29.39 input  -60.11 | X-H torsion
[ 7974 7965 7964 7962 ] final  179.73 input  175.53 | X-H torsion
[ 8008 7997 7996 7995 ] final   55.90 input   59.86 | X-H torsion
[ 10167 10162 10161 10158 ] final  -12.67 input  -65.29 | X-H torsion
[ 10718 10713 10712 10709 ] final  120.46 input   66.30 | X-H torsion
[ 10763 10752 10751 10750 ] final   45.01 input  -60.55 | X-H torsion
[ 11005 11000 10999 10996 ] final   30.31 input  -57.11 | X-H torsion

> <Gold.Protein.ActiveResidues>
 VAL166  LYS551  ARG553  GLY616  TRP617  ASP618  TYR619  PRO620  LYS621  CYS622 
 ASP623  PHE694  ASN695  SER759  ASP760  ASP761  ALA762  ILE779  LEU786  VAL792 
 PHE793  MET794  SER795  GLU796  ALA797  LYS798  CYS799  TRP800  GLU811  SER814 

> <Gold.Protein.RotatedAtoms>
  152.0308  134.9769  160.0572 H   0  0  0  0  0  0  0  0  0  0  0  0  # atno 6907 bound_to 6896
  152.1246  133.4368  159.4700 H   0  0  0  0  0  0  0  0  0  0  0  0  # atno 6908 bound_to 6896
  150.6851  134.2413  159.4516 H   0  0  0  0  0  0  0  0  0  0  0  0  # atno 6909 bound_to 6896
  144.7143  140.0593  143.6433 H   0  0  0  0  0  0  0  0  0  0  0  0  # atno 7974 bound_to 7965
  155.5087  140.3476  155.4384 H   0  0  0  0  0  0  0  0  0  0  0  0  # atno 8008 bound_to 7997
  156.0864  140.1399  156.9675 H   0  0  0  0  0  0  0  0  0  0  0  0  # atno 8009 bound_to 7997
  154.4609  140.0935  156.6867 H   0  0  0  0  0  0  0  0  0  0  0  0  # atno 8010 bound_to 7997
  140.7166  143.5507  150.9304 H   0  0  0  0  0  0  0  0  0  0  0  0  # atno 10167 bound_to 10162
  157.5889  131.1066  150.8038 H   0  0  0  0  0  0  0  0  0  0  0  0  # atno 10718 bound_to 10713
  152.9831  135.6053  154.3368 H   0  0  0  0  0  0  0  0  0  0  0  0  # atno 10763 bound_to 10752
  154.3067  135.2772  155.2587 H   0  0  0  0  0  0  0  0  0  0  0  0  # atno 10764 bound_to 10752
  154.4815  135.5916  153.6449 H   0  0  0  0  0  0  0  0  0  0  0  0  # atno 10765 bound_to 10752
  140.2958  134.2813  155.7765 H   0  0  0  0  0  0  0  0  0  0  0  0  # atno 11005 bound_to 11000
  145.9878  139.2991  143.1003 LP  0  0  0  0  0  0  0  0  0  0  0  0  # atno 17320 bound_to 7965
  145.8938  140.9287  143.0538 LP  0  0  0  0  0  0  0  0  0  0  0  0  # atno 17321 bound_to 7965
  139.9232  143.6581  152.3092 LP  0  0  0  0  0  0  0  0  0  0  0  0  # atno 17342 bound_to 10162
  139.7006  144.7635  151.1281 LP  0  0  0  0  0  0  0  0  0  0  0  0  # atno 17343 bound_to 10162
  156.8465  130.5066  149.5316 LP  0  0  0  0  0  0  0  0  0  0  0  0  # atno 17370 bound_to 10713
  156.0941  130.5919  150.9784 LP  0  0  0  0  0  0  0  0  0  0  0  0  # atno 17371 bound_to 10713
  141.2138  133.7614  156.9693 LP  0  0  0  0  0  0  0  0  0  0  0  0  # atno 17394 bound_to 11000
  140.1154  134.9450  157.2126 LP  0  0  0  0  0  0  0  0  0  0  0  0  # atno 17395 bound_to 11000

$$$$
