AV-unprocessed.smi:1248|AV-procd|sdf|5252|dock2
  -GOLD-   22720 4363D 1   1.00000     0.00000
 Structure written by MMmdl.
 43 45  0  0  0  0  0  0  0  0  1 V2000
  151.3139  139.0169  154.6758 C   0  0  0  0  0  0  0  0  0  0  0  0
  150.5688  140.2882  155.1002 C   0  0  0  0  0  0  0  0  0  0  0  0
  149.2814  140.4056  154.4426 N   0  0  0  0  0  0  0  0  0  0  0  0
  148.3623  139.4092  154.1794 C   0  0  0  0  0  0  0  0  0  0  0  0
  147.3219  140.0207  153.5469 C   0  0  0  0  0  0  0  0  0  0  0  0
  146.1508  139.3637  153.0935 N   0  0  0  0  0  0  0  0  0  0  0  0
  146.0059  138.0562  152.8236 C   0  0  0  0  0  0  0  0  0  0  0  0
  146.8908  137.2081  152.9352 O   0  0  0  0  0  0  0  0  0  0  0  0
  144.7618  137.7794  152.4074 N   0  0  0  0  0  0  0  0  0  0  0  0
  144.2770  136.4558  152.0270 C   0  0  0  0  0  0  0  0  0  0  0  0
  144.5724  135.4229  153.1295 C   0  0  0  0  0  0  0  0  0  0  0  0
  144.2079  134.0011  152.6678 C   0  0  0  0  0  0  0  0  0  0  0  0
  144.9481  133.6575  151.4535 N   0  0  0  0  0  0  0  0  0  0  0  0
  144.6179  132.2942  151.0716 C   0  0  0  0  0  0  0  0  0  0  0  0
  145.4855  131.1848  151.6212 C   0  0  0  0  0  0  0  0  0  0  0  0
  145.5855  131.5687  150.1647 C   0  0  0  0  0  0  0  0  0  0  0  0
  144.5655  134.5600  150.3676 C   0  0  0  0  0  0  0  0  0  0  0  0
  144.9513  136.0072  150.7210 C   0  0  0  0  0  0  0  0  0  0  0  0
  147.6771  141.3962  153.4553 C   0  0  0  0  0  0  0  0  0  0  0  0
  148.8647  141.6172  153.9987 N   0  0  0  0  0  0  0  0  0  0  0  0
  152.2853  138.9554  155.1663 H   0  0  0  0  0  0  0  0  0  0  0  0
  151.4826  139.0005  153.5989 H   0  0  0  0  0  0  0  0  0  0  0  0
  150.7515  138.1214  154.9410 H   0  0  0  0  0  0  0  0  0  0  0  0
  150.4123  140.2942  156.1795 H   0  0  0  0  0  0  0  0  0  0  0  0
  151.1649  141.1696  154.8615 H   0  0  0  0  0  0  0  0  0  0  0  0
  148.5261  138.3790  154.4596 H   0  0  0  0  0  0  0  0  0  0  0  0
  145.3411  139.9502  152.9559 H   0  0  0  0  0  0  0  0  0  0  0  0
  144.1008  138.5396  152.3460 H   0  0  0  0  0  0  0  0  0  0  0  0
  143.1991  136.4998  151.8587 H   0  0  0  0  0  0  0  0  0  0  0  0
  145.6292  135.4555  153.3995 H   0  0  0  0  0  0  0  0  0  0  0  0
  144.0149  135.6671  154.0343 H   0  0  0  0  0  0  0  0  0  0  0  0
  144.4534  133.2900  153.4573 H   0  0  0  0  0  0  0  0  0  0  0  0
  143.1340  133.9240  152.4898 H   0  0  0  0  0  0  0  0  0  0  0  0
  143.5698  132.0343  150.9326 H   0  0  0  0  0  0  0  0  0  0  0  0
  146.3157  131.4590  152.2694 H   0  0  0  0  0  0  0  0  0  0  0  0
  144.9995  130.2413  151.8611 H   0  0  0  0  0  0  0  0  0  0  0  0
  145.1673  130.8801  149.4336 H   0  0  0  0  0  0  0  0  0  0  0  0
  146.4819  132.0981  149.8466 H   0  0  0  0  0  0  0  0  0  0  0  0
  145.0742  134.2621  149.4501 H   0  0  0  0  0  0  0  0  0  0  0  0
  143.4932  134.4883  150.1769 H   0  0  0  0  0  0  0  0  0  0  0  0
  144.6675  136.6736  149.9057 H   0  0  0  0  0  0  0  0  0  0  0  0
  146.0362  136.0779  150.8157 H   0  0  0  0  0  0  0  0  0  0  0  0
  147.1367  142.2265  153.0258 H   0  0  0  0  0  0  0  0  0  0  0  0
  1  2  1  0  0  0  0
  1 21  1  0  0  0  0
  1 22  1  0  0  0  0
  1 23  1  0  0  0  0
  2  3  1  0  0  0  0
  2 24  1  0  0  0  0
  2 25  1  0  0  0  0
  3 20  1  0  0  0  0
  3  4  1  0  0  0  0
  4  5  2  0  0  0  0
  4 26  1  0  0  0  0
  5  6  1  0  0  0  0
  5 19  1  0  0  0  0
  6  7  1  0  0  0  0
  6 27  1  0  0  0  0
  7  8  2  0  0  0  0
  7  9  1  0  0  0  0
  9 10  1  0  0  0  0
  9 28  1  0  0  0  0
 10 18  1  0  0  0  0
 10 11  1  0  0  0  0
 10 29  1  0  0  0  0
 11 12  1  0  0  0  0
 11 30  1  0  0  0  0
 11 31  1  0  0  0  0
 12 13  1  0  0  0  0
 12 32  1  0  0  0  0
 12 33  1  0  0  0  0
 13 14  1  0  0  0  0
 13 17  1  0  0  0  0
 14 16  1  0  0  0  0
 14 15  1  0  0  0  0
 14 34  1  0  0  0  0
 15 16  1  0  0  0  0
 15 35  1  0  0  0  0
 15 36  1  0  0  0  0
 16 37  1  0  0  0  0
 16 38  1  0  0  0  0
 17 18  1  0  0  0  0
 17 39  1  0  0  0  0
 17 40  1  0  0  0  0
 18 41  1  0  0  0  0
 18 42  1  0  0  0  0
 19 20  2  0  0  0  0
 19 43  1  0  0  0  0
M  END
> <s_m_source_file>
AV-unprocessed.smi

> <i_m_source_file_index>
1248

> <i_lp_mmshare_version>
43012

> <i_f3d_flags>
0

> <s_epik_input>
W0NIM11bQ0gyXW4xW2NIXWMoW2NIXW4xKVtOSF1DKD1PKVtOSF1bQ0hdMltDSDJdW0NIMl1OKFtDSDJdW0NIMl0yKVtDSF0zW0NIMl1bQ0gyXTM=

> <s_epik_cmdline>
J2VwaWtfcHl0aG9uJywgJy1waCcsICc3LjAnLCAnLXRuJywgJzgnLCAnLW1hJywgJzIwMCcsICctbWV0YWxfYmluZGluZycsICctaW1hZScsICc8aW5maWxlLm1hZT4nLCAnLW9tYWUnLCAnPG91dGZpbGUubWFlPic=

> <r_lp_tautomer_probability>
1

> <r_epik_Ionization_Penalty>
1.02552

> <r_epik_Ionization_Penalty_Charging>
0

> <r_epik_Ionization_Penalty_Neutral>
1.02552

> <r_epik_State_Penalty>
1.07599

> <r_epik_Charging_Adjusted_Penalty>
1.07599

> <i_epik_Tot_Q>
0

> <i_epik_Tot_abs_Q>
0

> <r_epik_Metal_State_Penalty>
1.07597

> <b_epik_Metal_Only>
0

> <s_lp_Force_Field>
OPLS_2005

> <r_lp_Energy>
25.1211

> <b_lp_Chiralities_Consistent>
1

> <s_lp_Variant>
AV-unprocessed.smi:1248-3

> <Gold.Version>
5.8.1

> <Gold.Id.Protein>
6NUR|6NUR_protein|mol2

> <Gold.PLP.Fitness>
39.7063

> <Gold.PLP.PLP>
-33.0844

> <Gold.PLP.part.hbond>
-4.0000

> <Gold.PLP.part.metal>
0.0000

> <Gold.PLP.part.buried>
-0.9753

> <Gold.PLP.part.nonpolar>
-31.2495

> <Gold.PLP.part.repulsive>
4.2801

> <Gold.PLP.ligand.clash>
0.0000

> <Gold.PLP.ligand.torsion>
1.0374

> <Gold.PLP.Chemscore.Hbond>
2.5019

> <Gold.PLP.Chemscore.CHOScore>
0.0000

> <Gold.PLP.Chemscore.Metal>
0.0000

> <Gold.Chemscore.Hbonds>
donor molecule, donor type, donor heavy atom, donor atom, acceptor molecule, acceptor atom, score
      L1  H     6    27       P1 10175  1.00
      L1  H     9    28       P1 10175  1.00
      P1  H  8011  8017       L1    20  0.51

> <Gold.PLP.Chemscore.Internal.Correction>
1.1910

> <Gold.Rescore>
     Score         DG    S(hbond)    S(metal)    S(lipo)     H(rot)  DE(clash)    DE(int)     intcor
     13.04     -19.27       2.01        0.00      89.33       1.32       2.76       3.47       ----

> <Gold.Chemscore.Fitness>
13.0386

> <Gold.Chemscore.DG>
-19.2688

> <Gold.Chemscore.ZeroCoef>
-5.4800

> <Gold.Chemscore.Hbond>
2.0086

> <Gold.Chemscore.Metal>
0.0000

> <Gold.Chemscore.Lipo>
89.3260

> <Gold.Chemscore.Internal_Hbond>
0.0000

> <Gold.Chemscore.DEClash>
2.7603

> <Gold.Chemscore.DEInternal>
3.4699

> <Gold.Chemscore.Rot>
1.3169

> <Gold.Chemscore.Internal.Correction>
   9.000000E+99

> <Gold.Chemscore.Hbonds>
donor molecule, donor type, donor heavy atom, donor atom, acceptor molecule, acceptor atom, score
      L1  H     6    27       P1 10175  1.00
      L1  H     9    28       P1 10175  0.95
      P1  H  8011  8017       L1    20  0.10

> <Gold.Chemscore.Hbond.Weighted>
-6.7088

> <Gold.Chemscore.Metal.Weighted>
-0.0000

> <Gold.Chemscore.Lipo.Weighted>
-10.4511

> <Gold.Chemscore.Internal_Hbond.Weighted>
0.0000

> <Gold.Chemscore.DEClash.Weighted>
2.7603

> <Gold.Chemscore.DEInternal.Weighted>
3.4699

> <Gold.Chemscore.Rot.Weighted>
3.3712

> <Gold.Chemscore.Internal.Correction.Weighted>
   9.000000E+99

> <Gold.Protein.RotatedTorsions>
[ 6907 6896 6895 6894 ] final -154.52 input  -60.11 | X-H torsion
[ 7974 7965 7964 7962 ] final   54.93 input  175.53 | X-H torsion
[ 8008 7997 7996 7995 ] final   -2.40 input   59.86 | X-H torsion
[ 10167 10162 10161 10158 ] final  -60.71 input  -65.29 | X-H torsion
[ 10718 10713 10712 10709 ] final  114.78 input   66.30 | X-H torsion
[ 10763 10752 10751 10750 ] final   60.23 input  -60.55 | X-H torsion
[ 11005 11000 10999 10996 ] final -108.16 input  -57.11 | X-H torsion

> <Gold.Protein.ActiveResidues>
 VAL166  LYS551  ARG553  GLY616  TRP617  ASP618  TYR619  PRO620  LYS621  CYS622 
 ASP623  PHE694  ASN695  SER759  ASP760  ASP761  ALA762  ILE779  LEU786  VAL792 
 PHE793  MET794  SER795  GLU796  ALA797  LYS798  CYS799  TRP800  GLU811  SER814 

> <Gold.Protein.RotatedAtoms>
  151.2588  133.4312  159.2614 H   0  0  0  0  0  0  0  0  0  0  0  0  # atno 6907 bound_to 6896
  151.0550  134.9699  159.8241 H   0  0  0  0  0  0  0  0  0  0  0  0  # atno 6908 bound_to 6896
  152.5389  134.2541  159.8962 H   0  0  0  0  0  0  0  0  0  0  0  0  # atno 6909 bound_to 6896
  145.9558  139.4013  143.0278 H   0  0  0  0  0  0  0  0  0  0  0  0  # atno 7974 bound_to 7965
  154.6361  140.2535  155.7376 H   0  0  0  0  0  0  0  0  0  0  0  0  # atno 8008 bound_to 7997
  156.2505  140.2897  156.0655 H   0  0  0  0  0  0  0  0  0  0  0  0  # atno 8009 bound_to 7997
  155.1668  140.0385  157.2845 H   0  0  0  0  0  0  0  0  0  0  0  0  # atno 8010 bound_to 7997
  140.6053  143.2372  151.5834 H   0  0  0  0  0  0  0  0  0  0  0  0  # atno 10167 bound_to 10162
  157.6261  131.1003  150.7235 H   0  0  0  0  0  0  0  0  0  0  0  0  # atno 10718 bound_to 10713
  152.9915  135.5543  154.5840 H   0  0  0  0  0  0  0  0  0  0  0  0  # atno 10763 bound_to 10752
  154.5216  135.2808  155.1260 H   0  0  0  0  0  0  0  0  0  0  0  0  # atno 10764 bound_to 10752
  154.2611  135.6381  153.5328 H   0  0  0  0  0  0  0  0  0  0  0  0  # atno 10765 bound_to 10752
  141.0916  133.9045  157.2062 H   0  0  0  0  0  0  0  0  0  0  0  0  # atno 11005 bound_to 11000
  145.8109  140.9726  143.0949 LP  0  0  0  0  0  0  0  0  0  0  0  0  # atno 17320 bound_to 7965
  144.6804  139.9920  143.7484 LP  0  0  0  0  0  0  0  0  0  0  0  0  # atno 17321 bound_to 7965
  139.5321  144.2887  152.1170 LP  0  0  0  0  0  0  0  0  0  0  0  0  # atno 17342 bound_to 10162
  140.2075  144.4596  150.6401 LP  0  0  0  0  0  0  0  0  0  0  0  0  # atno 17343 bound_to 10162
  156.7583  130.4790  149.5442 LP  0  0  0  0  0  0  0  0  0  0  0  0  # atno 17370 bound_to 10713
  156.1434  130.6260  151.0498 LP  0  0  0  0  0  0  0  0  0  0  0  0  # atno 17371 bound_to 10713
  139.9743  135.0118  156.9592 LP  0  0  0  0  0  0  0  0  0  0  0  0  # atno 17394 bound_to 11000
  140.5238  134.0881  155.7298 LP  0  0  0  0  0  0  0  0  0  0  0  0  # atno 17395 bound_to 11000

$$$$
