AV-unprocessed.smi:2269|AV-procd|sdf|9152|dock8
  -GOLD-   2272012363D 1   1.00000     0.00000
 Structure written by MMmdl.
 41 42  0  0  0  0  0  0  0  0  1 V2000
  147.3989  134.1442  154.0504 C   0  0  0  0  0  0  0  0  0  0  0  0
  148.4813  135.0562  154.6002 C   0  0  0  0  0  0  0  0  0  0  0  0
  148.1631  136.4168  154.6368 N   0  0  0  0  0  0  0  0  0  0  0  0
  149.0224  137.2680  155.0937 C   0  0  0  0  0  0  0  0  0  0  0  0
  150.2851  136.8650  155.5584 N   0  0  0  0  0  0  0  0  0  0  0  0
  151.1658  137.9322  156.0633 C   0  0  0  0  0  0  0  0  0  0  0  0
  151.3808  139.0504  155.0180 C   0  0  2  0  0  0  0  0  0  0  0  0
  152.6703  139.5943  155.2224 O   0  0  0  0  0  0  0  0  0  0  0  0
  150.3769  140.2018  155.1922 C   0  0  0  0  0  0  0  0  0  0  0  0
  150.4854  140.7094  156.5142 O   0  0  0  0  0  0  0  0  0  0  0  0
  150.4803  142.1273  156.5847 C   0  0  0  0  0  0  0  0  0  0  0  0
  151.1802  142.6542  157.8309 C   0  0  0  0  0  0  0  0  0  0  0  0
  151.2867  144.0517  157.9983 C   0  0  0  0  0  0  0  0  0  0  0  0
  151.9215  144.5911  159.1329 C   0  0  0  0  0  0  0  0  0  0  0  0
  152.4546  143.7339  160.1126 C   0  0  0  0  0  0  0  0  0  0  0  0
  152.3539  142.3390  159.9539 C   0  0  0  0  0  0  0  0  0  0  0  0
  151.7208  141.7930  158.8188 C   0  0  0  0  0  0  0  0  0  0  0  0
  151.6399  140.0724  158.6701 Cl  0  0  0  0  0  0  0  0  0  0  0  0
  150.6742  135.5571  155.5627 C   0  0  0  0  0  0  0  0  0  0  0  0
  151.7798  135.2125  155.9849 O   0  0  0  0  0  0  0  0  0  0  0  0
  149.6871  134.6001  155.0368 C   0  0  0  0  0  0  0  0  0  0  0  0
  150.0886  133.1303  155.0222 C   0  0  0  0  0  0  0  0  0  0  0  0
  147.7537  133.6225  153.1614 H   0  0  0  0  0  0  0  0  0  0  0  0
  146.5069  134.7078  153.7738 H   0  0  0  0  0  0  0  0  0  0  0  0
  147.1075  133.4047  154.7967 H   0  0  0  0  0  0  0  0  0  0  0  0
  148.8208  138.3391  155.1494 H   0  0  0  0  0  0  0  0  0  0  0  0
  150.7085  138.3534  156.9603 H   0  0  0  0  0  0  0  0  0  0  0  0
  152.1244  137.5435  156.4135 H   0  0  0  0  0  0  0  0  0  0  0  0
  151.3012  138.6488  154.0068 H   0  0  0  0  0  0  0  0  0  0  0  0
  153.0648  139.7577  154.3794 H   0  0  0  0  0  0  0  0  0  0  0  0
  150.6157  141.0137  154.5037 H   0  0  0  0  0  0  0  0  0  0  0  0
  149.3625  139.8730  154.9601 H   0  0  0  0  0  0  0  0  0  0  0  0
  151.0292  142.4993  155.7193 H   0  0  0  0  0  0  0  0  0  0  0  0
  149.4654  142.5069  156.4728 H   0  0  0  0  0  0  0  0  0  0  0  0
  150.8809  144.7162  157.2494 H   0  0  0  0  0  0  0  0  0  0  0  0
  151.9986  145.6620  159.2511 H   0  0  0  0  0  0  0  0  0  0  0  0
  152.9413  144.1456  160.9846 H   0  0  0  0  0  0  0  0  0  0  0  0
  152.7671  141.6849  160.7078 H   0  0  0  0  0  0  0  0  0  0  0  0
  150.2792  132.7833  156.0382 H   0  0  0  0  0  0  0  0  0  0  0  0
  151.0016  132.9951  154.4413 H   0  0  0  0  0  0  0  0  0  0  0  0
  149.3286  132.4816  154.5900 H   0  0  0  0  0  0  0  0  0  0  0  0
  1  2  1  0  0  0  0
  1 23  1  0  0  0  0
  1 24  1  0  0  0  0
  1 25  1  0  0  0  0
  2 21  2  0  0  0  0
  2  3  1  0  0  0  0
  3  4  2  0  0  0  0
  4  5  1  0  0  0  0
  4 26  1  0  0  0  0
  5  6  1  0  0  0  0
  5 19  1  0  0  0  0
  6  7  1  0  0  0  0
  6 27  1  0  0  0  0
  6 28  1  0  0  0  0
  7  8  1  0  0  0  0
  7  9  1  0  0  0  0
  7 29  1  0  0  0  0
  8 30  1  0  0  0  0
  9 10  1  0  0  0  0
  9 31  1  0  0  0  0
  9 32  1  0  0  0  0
 10 11  1  0  0  0  0
 11 12  1  0  0  0  0
 11 33  1  0  0  0  0
 11 34  1  0  0  0  0
 12 17  1  0  0  0  0
 12 13  2  0  0  0  0
 13 14  1  0  0  0  0
 13 35  1  0  0  0  0
 14 15  2  0  0  0  0
 14 36  1  0  0  0  0
 15 16  1  0  0  0  0
 15 37  1  0  0  0  0
 16 17  2  0  0  0  0
 16 38  1  0  0  0  0
 17 18  1  0  0  0  0
 19 20  2  0  0  0  0
 19 21  1  0  0  0  0
 21 22  1  0  0  0  0
 22 39  1  0  0  0  0
 22 40  1  0  0  0  0
 22 41  1  0  0  0  0
M  END
> <s_m_source_file>
AV-unprocessed.smi

> <i_m_source_file_index>
2269

> <i_lp_mmshare_version>
43012

> <i_f3d_flags>
0

> <s_epik_input>
W0NIM11jMW5bY0hdbihjKD1PKWMxW0NIM10pW0NIMl1bQ0BIXShbT0hdKVtDSDJdT1tDSDJdYzJbY0hdW2NIXVtjSF1bY0hdYzJDbA==

> <s_epik_cmdline>
J2VwaWtfcHl0aG9uJywgJy1waCcsICc3LjAnLCAnLXRuJywgJzgnLCAnLW1hJywgJzIwMCcsICctbWV0YWxfYmluZGluZycsICctaW1hZScsICc8aW5maWxlLm1hZT4nLCAnLW9tYWUnLCAnPG91dGZpbGUubWFlPic=

> <r_lp_tautomer_probability>
1

> <r_epik_Ionization_Penalty>
5.36022e-05

> <r_epik_Ionization_Penalty_Charging>
1.17753e-07

> <r_epik_Ionization_Penalty_Neutral>
5.34845e-05

> <r_epik_State_Penalty>
-0

> <r_epik_Charging_Adjusted_Penalty>
1.17753e-07

> <i_epik_Tot_Q>
0

> <i_epik_Tot_abs_Q>
0

> <r_epik_Metal_State_Penalty>
-0

> <b_epik_Metal_Only>
0

> <s_lp_Force_Field>
OPLS_2005

> <r_lp_Energy>
24.1822

> <b_lp_Chiralities_Consistent>
1

> <s_lp_Variant>
AV-unprocessed.smi:2269-1

> <Gold.Version>
5.8.1

> <Gold.Id.Protein>
6NUR|6NUR_protein|mol2

> <Gold.PLP.Fitness>
46.5409

> <Gold.PLP.PLP>
-42.2364

> <Gold.PLP.part.hbond>
-2.5719

> <Gold.PLP.part.metal>
0.0000

> <Gold.PLP.part.buried>
-3.7811

> <Gold.PLP.part.nonpolar>
-37.1027

> <Gold.PLP.part.repulsive>
0.3479

> <Gold.PLP.ligand.clash>
0.0000

> <Gold.PLP.ligand.torsion>
0.9030

> <Gold.PLP.Chemscore.Hbond>
1.9920

> <Gold.PLP.Chemscore.CHOScore>
0.0000

> <Gold.PLP.Chemscore.Metal>
0.0000

> <Gold.Chemscore.Hbonds>
donor molecule, donor type, donor heavy atom, donor atom, acceptor molecule, acceptor atom, score
      P1  H  7997  8008       L1     8  0.67
      P1  H 10752 10763       L1    20  1.00

> <Gold.PLP.Chemscore.Internal.Correction>
0.1346

> <Gold.Rescore>
     Score         DG    S(hbond)    S(metal)    S(lipo)     H(rot)  DE(clash)    DE(int)     intcor
     14.69     -17.20       1.35        0.00     116.71       2.52       0.04       2.47       ----

> <Gold.Chemscore.Fitness>
14.6883

> <Gold.Chemscore.DG>
-17.2034

> <Gold.Chemscore.ZeroCoef>
-5.4800

> <Gold.Chemscore.Hbond>
1.3503

> <Gold.Chemscore.Metal>
0.0000

> <Gold.Chemscore.Lipo>
116.7076

> <Gold.Chemscore.Internal_Hbond>
0.0000

> <Gold.Chemscore.DEClash>
0.0414

> <Gold.Chemscore.DEInternal>
2.4738

> <Gold.Chemscore.Rot>
2.5162

> <Gold.Chemscore.Internal.Correction>
   9.000000E+99

> <Gold.Chemscore.Hbonds>
donor molecule, donor type, donor heavy atom, donor atom, acceptor molecule, acceptor atom, score
      P1  H  7997  8008       L1     8  0.08
      P1  H 10752 10763       L1    20  0.87

> <Gold.Chemscore.Hbond.Weighted>
-4.5100

> <Gold.Chemscore.Metal.Weighted>
-0.0000

> <Gold.Chemscore.Lipo.Weighted>
-13.6548

> <Gold.Chemscore.Internal_Hbond.Weighted>
0.0000

> <Gold.Chemscore.DEClash.Weighted>
0.0414

> <Gold.Chemscore.DEInternal.Weighted>
2.4738

> <Gold.Chemscore.Rot.Weighted>
6.4414

> <Gold.Chemscore.Internal.Correction.Weighted>
   9.000000E+99

> <Gold.Protein.RotatedTorsions>
[ 6907 6896 6895 6894 ] final -161.36 input  -60.11 | X-H torsion
[ 7974 7965 7964 7962 ] final   44.97 input  175.53 | X-H torsion
[ 8008 7997 7996 7995 ] final  -43.66 input   59.86 | X-H torsion
[ 10167 10162 10161 10158 ] final  -85.80 input  -65.29 | X-H torsion
[ 10718 10713 10712 10709 ] final  119.56 input   66.30 | X-H torsion
[ 10763 10752 10751 10750 ] final   80.04 input  -60.55 | X-H torsion
[ 11005 11000 10999 10996 ] final -166.70 input  -57.11 | X-H torsion

> <Gold.Protein.ActiveResidues>
 VAL166  LYS551  ARG553  GLY616  TRP617  ASP618  TYR619  PRO620  LYS621  CYS622 
 ASP623  PHE694  ASN695  SER759  ASP760  ASP761  ALA762  ILE779  LEU786  VAL792 
 PHE793  MET794  SER795  GLU796  ALA797  LYS798  CYS799  TRP800  GLU811  SER814 

> <Gold.Protein.RotatedAtoms>
  151.3635  133.3881  159.2691 H   0  0  0  0  0  0  0  0  0  0  0  0  # atno 6907 bound_to 6896
  150.9707  134.9081  159.7796 H   0  0  0  0  0  0  0  0  0  0  0  0  # atno 6908 bound_to 6896
  152.5183  134.3597  159.9332 H   0  0  0  0  0  0  0  0  0  0  0  0  # atno 6909 bound_to 6896
  146.0521  139.5015  142.9711 H   0  0  0  0  0  0  0  0  0  0  0  0  # atno 7974 bound_to 7965
  154.3997  140.1442  156.3555 H   0  0  0  0  0  0  0  0  0  0  0  0  # atno 8008 bound_to 7997
  155.8229  140.3469  155.5504 H   0  0  0  0  0  0  0  0  0  0  0  0  # atno 8009 bound_to 7997
  155.8269  140.0906  157.1806 H   0  0  0  0  0  0  0  0  0  0  0  0  # atno 8010 bound_to 7997
  140.4003  143.2666  151.9151 H   0  0  0  0  0  0  0  0  0  0  0  0  # atno 10167 bound_to 10162
  157.5953  131.1059  150.7914 H   0  0  0  0  0  0  0  0  0  0  0  0  # atno 10718 bound_to 10713
  153.1001  135.4817  154.8851 H   0  0  0  0  0  0  0  0  0  0  0  0  # atno 10763 bound_to 10752
  154.7369  135.3073  154.8798 H   0  0  0  0  0  0  0  0  0  0  0  0  # atno 10764 bound_to 10752
  153.9417  135.6833  153.4797 H   0  0  0  0  0  0  0  0  0  0  0  0  # atno 10765 bound_to 10752
  140.5615  134.5328  157.5144 H   0  0  0  0  0  0  0  0  0  0  0  0  # atno 11005 bound_to 11000
  145.6706  141.0217  143.1660 LP  0  0  0  0  0  0  0  0  0  0  0  0  # atno 17320 bound_to 7965
  144.7128  139.8306  143.7409 LP  0  0  0  0  0  0  0  0  0  0  0  0  # atno 17321 bound_to 7965
  139.4785  144.5640  151.8194 LP  0  0  0  0  0  0  0  0  0  0  0  0  # atno 17342 bound_to 10162
  140.4747  144.1536  150.5923 LP  0  0  0  0  0  0  0  0  0  0  0  0  # atno 17343 bound_to 10162
  156.8326  130.5021  149.5330 LP  0  0  0  0  0  0  0  0  0  0  0  0  # atno 17370 bound_to 10713
  156.1014  130.5972  150.9900 LP  0  0  0  0  0  0  0  0  0  0  0  0  # atno 17371 bound_to 10713
  139.9405  134.7795  156.0690 LP  0  0  0  0  0  0  0  0  0  0  0  0  # atno 17394 bound_to 11000
  141.1111  133.6643  156.2982 LP  0  0  0  0  0  0  0  0  0  0  0  0  # atno 17395 bound_to 11000

$$$$
