#       Name:                AV-unprocessed.smi:767
#       Creating user name   scv26
#       Creation time:       Fri Mar 27 01:08:22 2020


#       File generated by GOLD software.
#

@<TRIPOS>MOLECULE
AV-unprocessed.smi:767
    52    54     1
SMALL
NO_CHARGES


@<TRIPOS>ATOM
      1 ****        -1.5094   2.8375   3.0985 C.3            1 S1                 0.0000
      2 ****        -2.0357   2.3537   1.7645 C.ar           1 S1                 0.0000
      3 ****        -1.5562   2.8625   0.5392 C.ar           1 S1                 0.0000
      4 ****        -2.0724   2.3495  -0.6683 C.ar           1 S1                 0.0000
      5 ****        -3.0620   1.3425  -0.6273 C.ar           1 S1                 0.0000
      6 ****        -3.6045   0.7346  -1.9102 C.3            1 S1                 0.0000
      7 ****        -3.2040  -0.7400  -2.1214 C.3            1 S1                 0.0000
      8 ****        -1.7561  -0.9398  -2.0871 N.am           1 S1                 0.0000
      9 ****        -1.0529  -1.3266  -1.0124 C.2            1 S1                 0.0000
     10 ****        -1.5512  -1.5784   0.0852 O.2            1 S1                 0.0000
     11 ****         0.2610  -1.3790  -1.2641 N.am           1 S1                 0.0000
     12 ****         1.2681  -1.6860  -0.2555 C.3            1 S1                 0.0000
     13 ****         2.6872  -1.7055  -0.8208 C.3            1 S1                 0.0000
     14 ****         3.7194  -2.7578  -1.0176 C.3            1 S1                 0.0000
     15 ****         4.9300  -1.9796  -0.4361 C.3            1 S1                 0.0000
     16 ****         4.3765  -0.8045   0.2052 O.3            1 S1                 0.0000
     17 ****         3.0674  -1.1999   0.5589 C.3            1 S1                 0.0000
     18 ****         1.7338  -0.4268   0.5700 C.3            1 S1                 0.0000
     19 ****         1.7144   0.9695  -0.0844 C.3            1 S1                 0.0000
     20 ****         1.0684  -0.2682   1.9376 C.3            1 S1                 0.0000
     21 ****        -3.5195   0.8886   0.6287 C.ar           1 S1                 0.0000
     22 ****        -2.9927   1.3991   1.7629 N.pl3          1 S1                 1.0000
     23 ****        -0.5331   3.3096   2.9830 H              1 S1                 0.0000
     24 ****        -1.4010   2.0051   3.7946 H              1 S1                 0.0000
     25 ****        -2.1941   3.5659   3.5333 H              1 S1                 0.0000
     26 ****        -0.7922   3.6259   0.5218 H              1 S1                 0.0000
     27 ****        -1.6995   2.7171  -1.6132 H              1 S1                 0.0000
     28 ****        -4.6915   0.8201  -1.9012 H              1 S1                 0.0000
     29 ****        -3.2626   1.3277  -2.7595 H              1 S1                 0.0000
     30 ****        -3.6923  -1.3715  -1.3772 H              1 S1                 0.0000
     31 ****        -3.5710  -1.0806  -3.0896 H              1 S1                 0.0000
     32 ****        -1.2522  -0.7584  -2.9430 H              1 S1                 0.0000
     33 ****         0.5878  -1.1631  -2.1946 H              1 S1                 0.0000
     34 ****         1.0391  -2.5652   0.3541 H              1 S1                 0.0000
     35 ****         2.7928  -0.9499  -1.6027 H              1 S1                 0.0000
     36 ****         3.4988  -3.6590  -0.4436 H              1 S1                 0.0000
     37 ****         3.8579  -3.0266  -2.0653 H              1 S1                 0.0000
     38 ****         5.4723  -2.5893   0.2876 H              1 S1                 0.0000
     39 ****         5.6302  -1.6741  -1.2141 H              1 S1                 0.0000
     40 ****         3.0942  -1.9821   1.3264 H              1 S1                 0.0000
     41 ****         2.1557   1.7189   0.5734 H              1 S1                 0.0000
     42 ****         0.6964   1.2903  -0.3002 H              1 S1                 0.0000
     43 ****         2.2680   1.0232  -1.0198 H              1 S1                 0.0000
     44 ****         1.6211   0.4216   2.5760 H              1 S1                 0.0000
     45 ****         1.0094  -1.2197   2.4668 H              1 S1                 0.0000
     46 ****         0.0500   0.1097   1.8446 H              1 S1                 0.0000
     47 ****        -4.2659   0.1185   0.7591 H              1 S1                 0.0000
     48 ****        -3.3269   1.0423   2.6583 H              1 S1                 0.0000
     49 ****        -2.5395  -1.4990   0.2157 LP             1 S1                 0.0000
     50 ****        -0.9676  -1.8624   0.8460 LP             1 S1                 0.0000
     51 ****         4.3563  -0.0298  -0.4268 LP             1 S1                 0.0000
     52 ****         4.9061  -0.5587   1.0170 LP             1 S1                 0.0000
@<TRIPOS>BOND
    1    1    2 1     
    2    1   23 1     
    3    1   24 1     
    4    1   25 1     
    5    2   22 ar    
    6    2    3 ar    
    7    3    4 ar    
    8    3   26 1     
    9    4    5 ar    
   10    4   27 1     
   11    5    6 1     
   12    5   21 ar    
   13    6    7 1     
   14    6   28 1     
   15    6   29 1     
   16    7    8 1     
   17    7   30 1     
   18    7   31 1     
   19    8    9 am    
   20    8   32 1     
   21    9   10 2     
   22    9   11 am    
   23   11   12 1     
   24   11   33 1     
   25   12   18 1     
   26   12   13 1     
   27   12   34 1     
   28   13   17 1     
   29   13   14 1     
   30   13   35 1     
   31   14   15 1     
   32   14   36 1     
   33   14   37 1     
   34   15   16 1     
   35   15   38 1     
   36   15   39 1     
   37   16   17 1     
   38   17   18 1     
   39   17   40 1     
   40   18   19 1     
   41   18   20 1     
   42   19   41 1     
   43   19   42 1     
   44   19   43 1     
   45   20   44 1     
   46   20   45 1     
   47   20   46 1     
   48   21   22 ar    
   49   21   47 1     
   50   22   48 1     
   51   10   49 1     
   52   10   50 1     
   53   16   51 1     
   54   16   52 1     
@<TRIPOS>SUBSTRUCTURE
      1 S1             1
@<TRIPOS>SET
LONE_PAIRS      STATIC     ATOMS    <user>   **** ""
4 49 50 51 52
DONOR_HYDROGENS      STATIC     ATOMS    <user>   **** ""
3 32 33 48
ATOM$BLUE        STATIC     ATOMS    COLORGROUP SYSTEM
4 49 50 51 52
ATOM$RED        STATIC     ATOMS    COLORGROUP SYSTEM
3 32 33 48
