AV-unprocessed.smi:3116|AV-procd|sdf|11862|dock3
  -GOLD-   2272017243D 1   1.00000     0.00000
 Structure written by MMmdl.
 34 34  0  0  0  0  0  0  0  0  2 V2000
  146.5273  138.6642  151.1943 C   0  0  0  0  0  0  0  0  0  0  0  0
  146.8256  138.7845  152.7000 C   0  0  2  0  0  0  0  0  0  0  0  0
  148.2806  138.9144  152.9474 N   0  3  0  0  0  0  0  0  0  0  0  0
  148.6654  139.4951  154.2546 C   0  0  2  0  0  0  0  0  0  0  0  0
  147.9016  140.8165  154.4578 C   0  0  0  0  0  0  0  0  0  0  0  0
  150.2062  139.6616  154.3324 C   0  0  2  0  0  0  0  0  0  0  0  0
  150.9557  138.3235  154.1824 C   0  0  0  0  0  0  0  0  0  0  0  0
  150.6245  140.3329  155.5565 N   0  0  0  0  0  0  0  0  0  0  0  0
  150.3755  141.6331  155.9453 C   0  0  0  0  0  0  0  0  0  0  0  0
  150.9648  141.8153  157.1634 C   0  0  0  0  0  0  0  0  0  0  0  0
  151.5625  140.5547  157.4422 C   0  0  0  0  0  0  0  0  0  0  0  0
  151.3583  139.6704  156.4794 N   0  0  0  0  0  0  0  0  0  0  0  0
  146.2602  137.5720  153.4492 C   0  0  0  0  0  0  0  0  0  0  0  0
  146.7740  136.3770  153.1460 N   0  0  0  0  0  0  0  0  0  0  0  0
  145.3805  137.7075  154.2980 O   0  0  0  0  0  0  0  0  0  0  0  0
  145.4578  138.5552  151.0093 H   0  0  0  0  0  0  0  0  0  0  0  0
  147.0288  137.8000  150.7566 H   0  0  0  0  0  0  0  0  0  0  0  0
  146.8571  139.5481  150.6483 H   0  0  0  0  0  0  0  0  0  0  0  0
  146.3326  139.6735  153.0975 H   0  0  0  0  0  0  0  0  0  0  0  0
  148.6793  137.9878  152.9000 H   0  0  0  0  0  0  0  0  0  0  0  0
  148.3582  138.8196  155.0546 H   0  0  0  0  0  0  0  0  0  0  0  0
  148.0728  141.2363  155.4492 H   0  0  0  0  0  0  0  0  0  0  0  0
  146.8260  140.6659  154.3584 H   0  0  0  0  0  0  0  0  0  0  0  0
  148.2010  141.5645  153.7229 H   0  0  0  0  0  0  0  0  0  0  0  0
  150.5151  140.3045  153.5063 H   0  0  0  0  0  0  0  0  0  0  0  0
  150.7678  137.8652  153.2113 H   0  0  0  0  0  0  0  0  0  0  0  0
  150.6556  137.6083  154.9491 H   0  0  0  0  0  0  0  0  0  0  0  0
  152.0334  138.4672  154.2677 H   0  0  0  0  0  0  0  0  0  0  0  0
  149.8049  142.3136  155.3306 H   0  0  0  0  0  0  0  0  0  0  0  0
  150.9697  142.7131  157.7635 H   0  0  0  0  0  0  0  0  0  0  0  0
  152.1347  140.2584  158.3088 H   0  0  0  0  0  0  0  0  0  0  0  0
  146.4322  135.5447  153.6045 H   0  0  0  0  0  0  0  0  0  0  0  0
  147.5022  136.3081  152.4492 H   0  0  0  0  0  0  0  0  0  0  0  0
  148.6846  139.4675  152.2053 H   0  0  0  0  0  0  0  0  0  0  0  0
  1  2  1  0  0  0  0
  1 16  1  0  0  0  0
  1 17  1  0  0  0  0
  1 18  1  0  0  0  0
  2  3  1  0  0  0  0
  2 13  1  0  0  0  0
  2 19  1  0  0  0  0
  3  4  1  0  0  0  0
  3 20  1  0  0  0  0
  3 34  1  0  0  0  0
  4  5  1  0  0  0  0
  4  6  1  0  0  0  0
  4 21  1  0  0  0  0
  5 22  1  0  0  0  0
  5 23  1  0  0  0  0
  5 24  1  0  0  0  0
  6  7  1  0  0  0  0
  6  8  1  0  0  0  0
  6 25  1  0  0  0  0
  7 26  1  0  0  0  0
  7 27  1  0  0  0  0
  7 28  1  0  0  0  0
  8 12  1  0  0  0  0
  8  9  1  0  0  0  0
  9 10  2  0  0  0  0
  9 29  1  0  0  0  0
 10 11  1  0  0  0  0
 10 30  1  0  0  0  0
 11 12  2  0  0  0  0
 11 31  1  0  0  0  0
 13 14  1  0  0  0  0
 13 15  2  0  0  0  0
 14 32  1  0  0  0  0
 14 33  1  0  0  0  0
M  CHG  1   3   1
M  END
> <s_m_source_file>
AV-unprocessed.smi

> <i_m_source_file_index>
3116

> <i_lp_mmshare_version>
43012

> <i_f3d_flags>
0

> <s_epik_input>
W05IMl1DKD1PKVtDQEhdKFtDSDNdKVtOSF1bQ0BIXShbQ0gzXSlbQ0BIXShbQ0gzXSluMVtjSF1bY0hdW2NIXW4x

> <s_epik_cmdline>
J2VwaWtfcHl0aG9uJywgJy1waCcsICc3LjAnLCAnLXRuJywgJzgnLCAnLW1hJywgJzIwMCcsICctbWV0YWxfYmluZGluZycsICctaW1hZScsICc8aW5maWxlLm1hZT4nLCAnLW9tYWUnLCAnPG91dGZpbGUubWFlPic=

> <r_lp_tautomer_probability>
1

> <r_epik_Ionization_Penalty>
0.15658

> <r_epik_Ionization_Penalty_Charging>
0.156568

> <r_epik_Ionization_Penalty_Neutral>
1.19778e-05

> <r_epik_State_Penalty>
0.145866

> <r_epik_Charging_Adjusted_Penalty>
0.302434

> <i_epik_Tot_Q>
1

> <i_epik_Tot_abs_Q>
1

> <r_epik_Metal_State_Penalty>
0.146064

> <b_epik_Metal_Only>
0

> <s_lp_Force_Field>
OPLS_2005

> <r_lp_Energy>
9.5332

> <b_lp_Chiralities_Consistent>
1

> <s_lp_Variant>
AV-unprocessed.smi:3116-1

> <Gold.Version>
5.8.1

> <Gold.Id.Protein>
6NUR|6NUR_protein|mol2

> <Gold.PLP.Fitness>
42.2132

> <Gold.PLP.PLP>
-28.6435

> <Gold.PLP.part.hbond>
-2.9399

> <Gold.PLP.part.metal>
0.0000

> <Gold.PLP.part.buried>
0.3927

> <Gold.PLP.part.nonpolar>
-26.3572

> <Gold.PLP.part.repulsive>
0.1693

> <Gold.PLP.ligand.clash>
0.0012

> <Gold.PLP.ligand.torsion>
0.3861

> <Gold.PLP.Chemscore.Hbond>
3.9433

> <Gold.PLP.Chemscore.CHOScore>
0.8091

> <Gold.PLP.Chemscore.Metal>
0.0000

> <Gold.Chemscore.Hbonds>
donor molecule, donor type, donor heavy atom, donor atom, acceptor molecule, acceptor atom, score
      L1  H     3    20       P1  7948  1.93
      L1  H     3    34       P1  7957  0.91
      L1  H    14    33       P1  7948  1.00
      L1  C     9    29       P1  8028  0.84

> <Gold.PLP.Chemscore.Internal.Correction>
0.0861

> <Gold.Rescore>
     Score         DG    S(hbond)    S(metal)    S(lipo)     H(rot)  DE(clash)    DE(int)     intcor
     14.99     -16.31       2.90        0.00      63.35       2.45       0.05       1.27       ----

> <Gold.Chemscore.Fitness>
14.9899

> <Gold.Chemscore.DG>
-16.3071

> <Gold.Chemscore.ZeroCoef>
-5.4800

> <Gold.Chemscore.Hbond>
2.8978

> <Gold.Chemscore.Metal>
0.0000

> <Gold.Chemscore.Lipo>
63.3473

> <Gold.Chemscore.Internal_Hbond>
0.0000

> <Gold.Chemscore.DEClash>
0.0521

> <Gold.Chemscore.DEInternal>
1.2651

> <Gold.Chemscore.Rot>
2.4465

> <Gold.Chemscore.Internal.Correction>
   9.000000E+99

> <Gold.Chemscore.Hbonds>
donor molecule, donor type, donor heavy atom, donor atom, acceptor molecule, acceptor atom, score
      L1  H     3    20       P1  7948  0.86
      L1  H     3    34       P1  7957  0.87
      L1  H    14    33       P1  7948  0.95

> <Gold.Chemscore.Hbond.Weighted>
-9.6786

> <Gold.Chemscore.Metal.Weighted>
-0.0000

> <Gold.Chemscore.Lipo.Weighted>
-7.4116

> <Gold.Chemscore.Internal_Hbond.Weighted>
0.0000

> <Gold.Chemscore.DEClash.Weighted>
0.0521

> <Gold.Chemscore.DEInternal.Weighted>
1.2651

> <Gold.Chemscore.Rot.Weighted>
6.2631

> <Gold.Chemscore.Internal.Correction.Weighted>
   9.000000E+99

> <Gold.Protein.RotatedTorsions>
[ 6907 6896 6895 6894 ] final   -9.97 input  -60.11 | X-H torsion
[ 7974 7965 7964 7962 ] final -165.19 input  175.53 | X-H torsion
[ 8008 7997 7996 7995 ] final  -30.24 input   59.86 | X-H torsion
[ 10167 10162 10161 10158 ] final  162.71 input  -65.29 | X-H torsion
[ 10718 10713 10712 10709 ] final -136.08 input   66.30 | X-H torsion
[ 10763 10752 10751 10750 ] final -106.69 input  -60.55 | X-H torsion
[ 11005 11000 10999 10996 ] final -173.07 input  -57.11 | X-H torsion

> <Gold.Protein.ActiveResidues>
 VAL166  LYS551  ARG553  GLY616  TRP617  ASP618  TYR619  PRO620  LYS621  CYS622 
 ASP623  PHE694  ASN695  SER759  ASP760  ASP761  ALA762  ILE779  LEU786  VAL792 
 PHE793  MET794  SER795  GLU796  ALA797  LYS798  CYS799  TRP800  GLU811  SER814 

> <Gold.Protein.RotatedAtoms>
  151.4094  135.0983  159.9580 H   0  0  0  0  0  0  0  0  0  0  0  0  # atno 6907 bound_to 6896
  152.5025  133.8812  159.7357 H   0  0  0  0  0  0  0  0  0  0  0  0  # atno 6908 bound_to 6896
  150.9303  133.6717  159.2840 H   0  0  0  0  0  0  0  0  0  0  0  0  # atno 6909 bound_to 6896
  144.7276  140.2851  143.6229 H   0  0  0  0  0  0  0  0  0  0  0  0  # atno 7974 bound_to 7965
  154.4258  140.1796  156.1376 H   0  0  0  0  0  0  0  0  0  0  0  0  # atno 8008 bound_to 7997
  156.0018  140.3359  155.6828 H   0  0  0  0  0  0  0  0  0  0  0  0  # atno 8009 bound_to 7997
  155.6233  140.0662  157.2662 H   0  0  0  0  0  0  0  0  0  0  0  0  # atno 8010 bound_to 7997
  139.4864  144.4410  151.8952 H   0  0  0  0  0  0  0  0  0  0  0  0  # atno 10167 bound_to 10162
  156.2732  130.7277  151.1251 H   0  0  0  0  0  0  0  0  0  0  0  0  # atno 10718 bound_to 10713
  154.8028  135.4702  154.0318 H   0  0  0  0  0  0  0  0  0  0  0  0  # atno 10763 bound_to 10752
  153.1810  135.6840  153.8484 H   0  0  0  0  0  0  0  0  0  0  0  0  # atno 10764 bound_to 10752
  153.8035  135.3227  155.3370 H   0  0  0  0  0  0  0  0  0  0  0  0  # atno 10765 bound_to 10752
  140.4899  134.5995  157.4951 H   0  0  0  0  0  0  0  0  0  0  0  0  # atno 11005 bound_to 11000
  145.7911  139.1927  143.2102 LP  0  0  0  0  0  0  0  0  0  0  0  0  # atno 17320 bound_to 7965
  146.0755  140.7822  142.9667 LP  0  0  0  0  0  0  0  0  0  0  0  0  # atno 17321 bound_to 7965
  140.3862  144.2674  150.5904 LP  0  0  0  0  0  0  0  0  0  0  0  0  # atno 17342 bound_to 10162
  140.5188  143.2271  151.8421 LP  0  0  0  0  0  0  0  0  0  0  0  0  # atno 17343 bound_to 10162
  157.7290  131.0627  150.5792 LP  0  0  0  0  0  0  0  0  0  0  0  0  # atno 17370 bound_to 10713
  156.5890  130.4324  149.5945 LP  0  0  0  0  0  0  0  0  0  0  0  0  # atno 17371 bound_to 10713
  139.9775  134.7191  155.9921 LP  0  0  0  0  0  0  0  0  0  0  0  0  # atno 17394 bound_to 11000
  141.1489  133.6551  156.3953 LP  0  0  0  0  0  0  0  0  0  0  0  0  # atno 17395 bound_to 11000

$$$$
