AV-unprocessed.smi:3306|AV-procd|sdf|12703|dock7
  -GOLD-   2272019 33D 1   1.00000     0.00000
 Structure written by MMmdl.
 44 45  0  0  0  0  0  0  0  0  2 V2000
  145.0290  131.2076  151.5508 C   0  0  0  0  0  0  0  0  0  0  0  0
  144.2532  132.4609  151.0867 C   0  0  0  0  0  0  0  0  0  0  0  0
  143.7846  132.2237  149.6336 C   0  0  0  0  0  0  0  0  0  0  0  0
  145.0673  133.6889  151.2129 N   0  0  0  0  0  0  0  0  0  0  0  0
  145.2907  134.0389  152.6249 C   0  0  0  0  0  0  0  0  0  0  0  0
  146.2123  135.2631  152.7608 C   0  0  0  0  0  0  0  0  0  0  0  0
  145.6148  136.4867  152.0589 C   0  0  0  0  0  0  0  0  0  0  0  0
  146.5513  137.6296  152.1394 N   0  3  0  0  0  0  0  0  0  0  0  0
  146.5226  138.3808  153.4117 C   0  0  0  0  0  0  0  0  0  0  0  0
  147.1056  139.7889  153.2303 C   0  0  0  0  0  0  0  0  0  0  0  0
  148.4021  139.9777  153.9949 C   0  0  0  0  0  0  0  0  0  0  0  0
  149.3600  138.9432  154.0580 C   0  0  0  0  0  0  0  0  0  0  0  0
  150.5449  139.1703  154.7849 C   0  0  0  0  0  0  0  0  0  0  0  0
  150.7241  140.4152  155.4180 C   0  0  0  0  0  0  0  0  0  0  0  0
  149.7064  141.3820  155.2965 C   0  0  0  0  0  0  0  0  0  0  0  0
  148.5656  141.1739  154.6034 N   0  0  0  0  0  0  0  0  0  0  0  0
  145.3035  136.0933  150.6081 C   0  0  0  0  0  0  0  0  0  0  0  0
  144.4203  134.8342  150.5529 C   0  0  0  0  0  0  0  0  0  0  0  0
  144.4830  130.2962  151.3053 H   0  0  0  0  0  0  0  0  0  0  0  0
  145.1747  131.1803  152.6300 H   0  0  0  0  0  0  0  0  0  0  0  0
  146.0058  131.1415  151.0702 H   0  0  0  0  0  0  0  0  0  0  0  0
  143.3665  132.5624  151.7148 H   0  0  0  0  0  0  0  0  0  0  0  0
  143.3301  131.2385  149.5244 H   0  0  0  0  0  0  0  0  0  0  0  0
  144.6171  132.2781  148.9311 H   0  0  0  0  0  0  0  0  0  0  0  0
  143.0221  132.9354  149.3192 H   0  0  0  0  0  0  0  0  0  0  0  0
  144.3366  134.2229  153.1213 H   0  0  0  0  0  0  0  0  0  0  0  0
  145.7754  133.2229  153.1568 H   0  0  0  0  0  0  0  0  0  0  0  0
  146.3745  135.4816  153.8171 H   0  0  0  0  0  0  0  0  0  0  0  0
  147.1914  135.0280  152.3397 H   0  0  0  0  0  0  0  0  0  0  0  0
  144.6893  136.7590  152.5690 H   0  0  0  0  0  0  0  0  0  0  0  0
  147.4863  137.2653  152.0251 H   0  0  0  0  0  0  0  0  0  0  0  0
  145.4966  138.4509  153.7732 H   0  0  0  0  0  0  0  0  0  0  0  0
  147.0961  137.8389  154.1651 H   0  0  0  0  0  0  0  0  0  0  0  0
  147.2822  139.9866  152.1722 H   0  0  0  0  0  0  0  0  0  0  0  0
  146.3866  140.5381  153.5660 H   0  0  0  0  0  0  0  0  0  0  0  0
  149.1944  137.9976  153.5632 H   0  0  0  0  0  0  0  0  0  0  0  0
  151.3024  138.4037  154.8558 H   0  0  0  0  0  0  0  0  0  0  0  0
  151.6203  140.6244  155.9835 H   0  0  0  0  0  0  0  0  0  0  0  0
  149.8108  142.3474  155.7692 H   0  0  0  0  0  0  0  0  0  0  0  0
  144.7917  136.9059  150.0926 H   0  0  0  0  0  0  0  0  0  0  0  0
  146.2299  135.9128  150.0602 H   0  0  0  0  0  0  0  0  0  0  0  0
  144.2401  134.6260  149.5001 H   0  0  0  0  0  0  0  0  0  0  0  0
  143.4493  135.0297  151.0109 H   0  0  0  0  0  0  0  0  0  0  0  0
  146.3599  138.2629  151.3761 H   0  0  0  0  0  0  0  0  0  0  0  0
  1  2  1  0  0  0  0
  1 19  1  0  0  0  0
  1 20  1  0  0  0  0
  1 21  1  0  0  0  0
  2  3  1  0  0  0  0
  2  4  1  0  0  0  0
  2 22  1  0  0  0  0
  3 23  1  0  0  0  0
  3 24  1  0  0  0  0
  3 25  1  0  0  0  0
  4 18  1  0  0  0  0
  4  5  1  0  0  0  0
  5  6  1  0  0  0  0
  5 26  1  0  0  0  0
  5 27  1  0  0  0  0
  6  7  1  0  0  0  0
  6 28  1  0  0  0  0
  6 29  1  0  0  0  0
  7  8  1  0  0  0  0
  7 17  1  0  0  0  0
  7 30  1  0  0  0  0
  8  9  1  0  0  0  0
  8 31  1  0  0  0  0
  8 44  1  0  0  0  0
  9 10  1  0  0  0  0
  9 32  1  0  0  0  0
  9 33  1  0  0  0  0
 10 11  1  0  0  0  0
 10 34  1  0  0  0  0
 10 35  1  0  0  0  0
 11 16  1  0  0  0  0
 11 12  2  0  0  0  0
 12 13  1  0  0  0  0
 12 36  1  0  0  0  0
 13 14  2  0  0  0  0
 13 37  1  0  0  0  0
 14 15  1  0  0  0  0
 14 38  1  0  0  0  0
 15 16  2  0  0  0  0
 15 39  1  0  0  0  0
 17 18  1  0  0  0  0
 17 40  1  0  0  0  0
 17 41  1  0  0  0  0
 18 42  1  0  0  0  0
 18 43  1  0  0  0  0
M  CHG  1   8   1
M  END
> <s_m_source_file>
AV-unprocessed.smi

> <i_m_source_file_index>
3306

> <i_lp_mmshare_version>
43012

> <i_f3d_flags>
0

> <s_epik_input>
W0NIM11bQ0hdKFtDSDNdKU4xW0NIMl1bQ0gyXVtDSF0oW0NIMl1bQ0gyXTEpW05IXVtDSDJdW0NIMl1jMltjSF1bY0hdW2NIXVtjSF1uMg==

> <s_epik_cmdline>
J2VwaWtfcHl0aG9uJywgJy1waCcsICc3LjAnLCAnLXRuJywgJzgnLCAnLW1hJywgJzIwMCcsICctbWV0YWxfYmluZGluZycsICctaW1hZScsICc8aW5maWxlLm1hZT4nLCAnLW9tYWUnLCAnPG91dGZpbGUubWFlPic=

> <r_epik_Ionization_Penalty>
1.34673

> <r_epik_Ionization_Penalty_Charging>
0.000531593

> <r_epik_Ionization_Penalty_Neutral>
1.3462

> <r_epik_State_Penalty>
1.43277

> <r_epik_Charging_Adjusted_Penalty>
1.4333

> <i_epik_Tot_Q>
1

> <i_epik_Tot_abs_Q>
1

> <r_epik_Metal_State_Penalty>
1.43418

> <b_epik_Metal_Only>
0

> <s_lp_Force_Field>
OPLS_2005

> <r_lp_Energy>
21.3297

> <b_lp_Chiralities_Consistent>
1

> <s_lp_Variant>
AV-unprocessed.smi:3306-3

> <Gold.Version>
5.8.1

> <Gold.Id.Protein>
6NUR|6NUR_protein|mol2

> <Gold.PLP.Fitness>
41.2021

> <Gold.PLP.PLP>
-34.3263

> <Gold.PLP.part.hbond>
-1.0000

> <Gold.PLP.part.metal>
0.0000

> <Gold.PLP.part.buried>
0.4386

> <Gold.PLP.part.nonpolar>
-33.5198

> <Gold.PLP.part.repulsive>
0.3093

> <Gold.PLP.ligand.clash>
0.0000

> <Gold.PLP.ligand.torsion>
1.0744

> <Gold.PLP.Chemscore.Hbond>
2.0000

> <Gold.PLP.Chemscore.CHOScore>
1.0000

> <Gold.PLP.Chemscore.Metal>
0.0000

> <Gold.Chemscore.Hbonds>
donor molecule, donor type, donor heavy atom, donor atom, acceptor molecule, acceptor atom, score
      L1  H     8    31       P1  7948  2.00
      L1  C    15    39       P1  8028  0.96

> <Gold.PLP.Chemscore.Internal.Correction>
0.0246

> <Gold.Rescore>
     Score         DG    S(hbond)    S(metal)    S(lipo)     H(rot)  DE(clash)    DE(int)     intcor
     15.34     -16.79       1.00        0.00      99.00       1.41       0.52       0.92       ----

> <Gold.Chemscore.Fitness>
15.3434

> <Gold.Chemscore.DG>
-16.7882

> <Gold.Chemscore.ZeroCoef>
-5.4800

> <Gold.Chemscore.Hbond>
0.9991

> <Gold.Chemscore.Metal>
0.0000

> <Gold.Chemscore.Lipo>
98.9955

> <Gold.Chemscore.Internal_Hbond>
0.0000

> <Gold.Chemscore.DEClash>
0.5248

> <Gold.Chemscore.DEInternal>
0.9200

> <Gold.Chemscore.Rot>
1.4106

> <Gold.Chemscore.Internal.Correction>
   9.000000E+99

> <Gold.Chemscore.Hbonds>
donor molecule, donor type, donor heavy atom, donor atom, acceptor molecule, acceptor atom, score
      L1  H     8    31       P1  7948  1.00

> <Gold.Chemscore.Hbond.Weighted>
-3.3369

> <Gold.Chemscore.Metal.Weighted>
-0.0000

> <Gold.Chemscore.Lipo.Weighted>
-11.5825

> <Gold.Chemscore.Internal_Hbond.Weighted>
0.0000

> <Gold.Chemscore.DEClash.Weighted>
0.5248

> <Gold.Chemscore.DEInternal.Weighted>
0.9200

> <Gold.Chemscore.Rot.Weighted>
3.6112

> <Gold.Chemscore.Internal.Correction.Weighted>
   9.000000E+99

> <Gold.Protein.RotatedTorsions>
[ 6907 6896 6895 6894 ] final  134.95 input  -60.11 | X-H torsion
[ 7974 7965 7964 7962 ] final  110.51 input  175.53 | X-H torsion
[ 8008 7997 7996 7995 ] final  126.49 input   59.86 | X-H torsion
[ 10167 10162 10161 10158 ] final  -22.26 input  -65.29 | X-H torsion
[ 10718 10713 10712 10709 ] final  -53.14 input   66.30 | X-H torsion
[ 10763 10752 10751 10750 ] final  -20.72 input  -60.55 | X-H torsion
[ 11005 11000 10999 10996 ] final   62.21 input  -57.11 | X-H torsion

> <Gold.Protein.ActiveResidues>
 VAL166  LYS551  ARG553  GLY616  TRP617  ASP618  TYR619  PRO620  LYS621  CYS622 
 ASP623  PHE694  ASN695  SER759  ASP760  ASP761  ALA762  ILE779  LEU786  VAL792 
 PHE793  MET794  SER795  GLU796  ALA797  LYS798  CYS799  TRP800  GLU811  SER814 

> <Gold.Protein.RotatedAtoms>
  152.3058  133.5701  159.5647 H   0  0  0  0  0  0  0  0  0  0  0  0  # atno 6907 bound_to 6896
  150.7299  134.0225  159.3715 H   0  0  0  0  0  0  0  0  0  0  0  0  # atno 6908 bound_to 6896
  151.8122  135.0678  160.0465 H   0  0  0  0  0  0  0  0  0  0  0  0  # atno 6909 bound_to 6896
  145.2541  139.2728  143.4052 H   0  0  0  0  0  0  0  0  0  0  0  0  # atno 7974 bound_to 7965
  156.2865  140.2691  156.2120 H   0  0  0  0  0  0  0  0  0  0  0  0  # atno 8008 bound_to 7997
  155.0255  140.0386  157.2472 H   0  0  0  0  0  0  0  0  0  0  0  0  # atno 8009 bound_to 7997
  154.7399  140.2723  155.6387 H   0  0  0  0  0  0  0  0  0  0  0  0  # atno 8010 bound_to 7997
  140.7285  143.4551  151.0459 H   0  0  0  0  0  0  0  0  0  0  0  0  # atno 10167 bound_to 10162
  156.1561  130.4150  149.9867 H   0  0  0  0  0  0  0  0  0  0  0  0  # atno 10718 bound_to 10713
  153.6249  135.6991  153.5297 H   0  0  0  0  0  0  0  0  0  0  0  0  # atno 10763 bound_to 10752
  153.2907  135.4158  155.1163 H   0  0  0  0  0  0  0  0  0  0  0  0  # atno 10764 bound_to 10752
  154.8535  135.3624  154.5791 H   0  0  0  0  0  0  0  0  0  0  0  0  # atno 10765 bound_to 10752
  140.0108  134.6300  155.9784 H   0  0  0  0  0  0  0  0  0  0  0  0  # atno 11005 bound_to 11000
  146.3294  140.2939  142.8617 LP  0  0  0  0  0  0  0  0  0  0  0  0  # atno 17320 bound_to 7965
  144.9477  140.8145  143.5591 LP  0  0  0  0  0  0  0  0  0  0  0  0  # atno 17321 bound_to 7965
  139.8231  143.7792  152.3177 LP  0  0  0  0  0  0  0  0  0  0  0  0  # atno 17342 bound_to 10162
  139.7882  144.7420  150.9992 LP  0  0  0  0  0  0  0  0  0  0  0  0  # atno 17343 bound_to 10162
  156.7710  130.9186  151.3644 LP  0  0  0  0  0  0  0  0  0  0  0  0  # atno 17370 bound_to 10713
  157.6696  130.9039  150.0009 LP  0  0  0  0  0  0  0  0  0  0  0  0  # atno 17371 bound_to 10713
  141.1709  133.6537  156.4649 LP  0  0  0  0  0  0  0  0  0  0  0  0  # atno 17394 bound_to 11000
  140.4559  134.6886  157.5062 LP  0  0  0  0  0  0  0  0  0  0  0  0  # atno 17395 bound_to 11000

$$$$
