AV-unprocessed.smi:1934|AV-procd|sdf|7824|dock4
  -GOLD-   22720 9573D 1   1.00000     0.00000
 Structure written by MMmdl.
 46 47  0  0  0  0  0  0  0  0  2 V2000
  153.1297  142.5821  162.5047 C   0  0  0  0  0  0  0  0  0  0  0  0
  152.8024  142.7183  161.0468 C   0  0  0  0  0  0  0  0  0  0  0  0
  152.5151  141.6829  160.1099 C   0  0  0  0  0  0  0  0  0  0  0  0
  152.2931  142.3779  158.9525 C   0  0  0  0  0  0  0  0  0  0  0  0
  151.9666  141.9056  157.7200 N   0  0  0  0  0  0  0  0  0  0  0  0
  151.6239  140.6558  157.3624 C   0  0  0  0  0  0  0  0  0  0  0  0
  151.5526  139.6879  158.1200 O   0  0  0  0  0  0  0  0  0  0  0  0
  151.3691  140.5805  156.0480 N   0  0  0  0  0  0  0  0  0  0  0  0
  150.9723  139.3681  155.3415 C   0  0  0  0  0  0  0  0  0  0  0  0
  149.5752  138.8889  155.7812 C   0  0  0  0  0  0  0  0  0  0  0  0
  148.4887  139.5007  154.9752 N   0  3  2  0  0  0  0  0  0  0  0  0
  148.1314  138.6741  153.7932 C   0  0  0  0  0  0  0  0  0  0  0  0
  146.9039  139.2462  153.0666 C   0  0  0  0  0  0  0  0  0  0  0  0
  147.1337  140.7099  152.6655 C   0  0  0  0  0  0  0  0  0  0  0  0
  147.5635  141.5597  153.8757 C   0  0  1  0  0  0  0  0  0  0  0  0
  146.4025  141.8541  154.8419 C   0  0  0  0  0  0  0  0  0  0  0  0
  148.7668  140.9118  154.5917 C   0  0  0  0  0  0  0  0  0  0  0  0
  152.4426  143.7233  159.2055 N   0  0  0  0  0  0  0  0  0  0  0  0
  152.3057  144.8516  158.3054 C   0  0  0  0  0  0  0  0  0  0  0  0
  152.7572  143.9290  160.5025 N   0  0  0  0  0  0  0  0  0  0  0  0
  153.1281  141.5367  162.8134 H   0  0  0  0  0  0  0  0  0  0  0  0
  152.4028  143.1110  163.1214 H   0  0  0  0  0  0  0  0  0  0  0  0
  154.1159  142.9916  162.7255 H   0  0  0  0  0  0  0  0  0  0  0  0
  152.4802  140.6177  160.2812 H   0  0  0  0  0  0  0  0  0  0  0  0
  151.9940  142.5896  156.9782 H   0  0  0  0  0  0  0  0  0  0  0  0
  151.4492  141.4239  155.4983 H   0  0  0  0  0  0  0  0  0  0  0  0
  150.9961  139.5397  154.2638 H   0  0  0  0  0  0  0  0  0  0  0  0
  151.7278  138.6122  155.5512 H   0  0  0  0  0  0  0  0  0  0  0  0
  149.5044  137.8010  155.7351 H   0  0  0  0  0  0  0  0  0  0  0  0
  149.4350  139.1605  156.8284 H   0  0  0  0  0  0  0  0  0  0  0  0
  148.9832  138.6216  153.1132 H   0  0  0  0  0  0  0  0  0  0  0  0
  147.9122  137.6528  154.1073 H   0  0  0  0  0  0  0  0  0  0  0  0
  146.6871  138.6494  152.1802 H   0  0  0  0  0  0  0  0  0  0  0  0
  146.0258  139.1681  153.7082 H   0  0  0  0  0  0  0  0  0  0  0  0
  147.9135  140.7509  151.9038 H   0  0  0  0  0  0  0  0  0  0  0  0
  146.2357  141.1232  152.2049 H   0  0  0  0  0  0  0  0  0  0  0  0
  147.8940  142.5256  153.4913 H   0  0  0  0  0  0  0  0  0  0  0  0
  146.0189  140.9466  155.3081 H   0  0  0  0  0  0  0  0  0  0  0  0
  145.5738  142.3361  154.3225 H   0  0  0  0  0  0  0  0  0  0  0  0
  146.7207  142.5243  155.6410 H   0  0  0  0  0  0  0  0  0  0  0  0
  149.0233  141.5059  155.4680 H   0  0  0  0  0  0  0  0  0  0  0  0
  149.6400  140.9356  153.9375 H   0  0  0  0  0  0  0  0  0  0  0  0
  152.8693  144.6643  157.3911 H   0  0  0  0  0  0  0  0  0  0  0  0
  152.6854  145.7620  158.7713 H   0  0  0  0  0  0  0  0  0  0  0  0
  151.2543  144.9923  158.0546 H   0  0  0  0  0  0  0  0  0  0  0  0
  147.6691  139.5111  155.5654 H   0  0  0  0  0  0  0  0  0  0  0  0
  1  2  1  0  0  0  0
  1 21  1  0  0  0  0
  1 22  1  0  0  0  0
  1 23  1  0  0  0  0
  2 20  2  0  0  0  0
  2  3  1  0  0  0  0
  3  4  2  0  0  0  0
  3 24  1  0  0  0  0
  4  5  1  0  0  0  0
  4 18  1  0  0  0  0
  5  6  1  0  0  0  0
  5 25  1  0  0  0  0
  6  7  2  0  0  0  0
  6  8  1  0  0  0  0
  8  9  1  0  0  0  0
  8 26  1  0  0  0  0
  9 10  1  0  0  0  0
  9 27  1  0  0  0  0
  9 28  1  0  0  0  0
 10 11  1  0  0  0  0
 10 29  1  0  0  0  0
 10 30  1  0  0  0  0
 11 17  1  0  0  0  0
 11 12  1  0  0  0  0
 11 46  1  0  0  0  0
 12 13  1  0  0  0  0
 12 31  1  0  0  0  0
 12 32  1  0  0  0  0
 13 14  1  0  0  0  0
 13 33  1  0  0  0  0
 13 34  1  0  0  0  0
 14 15  1  0  0  0  0
 14 35  1  0  0  0  0
 14 36  1  0  0  0  0
 15 16  1  0  0  0  0
 15 17  1  0  0  0  0
 15 37  1  0  0  0  0
 16 38  1  0  0  0  0
 16 39  1  0  0  0  0
 16 40  1  0  0  0  0
 17 41  1  0  0  0  0
 17 42  1  0  0  0  0
 18 19  1  0  0  0  0
 18 20  1  0  0  0  0
 19 43  1  0  0  0  0
 19 44  1  0  0  0  0
 19 45  1  0  0  0  0
M  CHG  1  11   1
M  END
> <s_m_source_file>
AV-unprocessed.smi

> <i_m_source_file_index>
1934

> <i_lp_mmshare_version>
43012

> <i_f3d_flags>
0

> <s_epik_input>
W0NIM11jMVtjSF1jKG4objEpW0NIM10pW05IXUMoPU8pW05IXVtDSDJdW0NIMl1OMltDSDJdW0NIMl1bQ0gyXVtDQEBIXShbQ0gzXSlbQ0gyXTI=

> <s_epik_cmdline>
J2VwaWtfcHl0aG9uJywgJy1waCcsICc3LjAnLCAnLXRuJywgJzgnLCAnLW1hJywgJzIwMCcsICctbWV0YWxfYmluZGluZycsICctaW1hZScsICc8aW5maWxlLm1hZT4nLCAnLW9tYWUnLCAnPG91dGZpbGUubWFlPic=

> <r_lp_tautomer_probability>
1

> <r_epik_Ionization_Penalty>
0.00202955

> <r_epik_Ionization_Penalty_Charging>
0.00195276

> <r_epik_Ionization_Penalty_Neutral>
7.67968e-05

> <r_epik_State_Penalty>
0.00133177

> <r_epik_Charging_Adjusted_Penalty>
0.00328452

> <i_epik_Tot_Q>
1

> <i_epik_Tot_abs_Q>
1

> <r_epik_Metal_State_Penalty>
-0

> <b_epik_Metal_Only>
0

> <s_lp_Force_Field>
OPLS_2005

> <r_lp_Energy>
20.6023

> <b_lp_Chiralities_Consistent>
1

> <s_lp_Variant>
AV-unprocessed.smi:1934-2

> <Gold.Version>
5.8.1

> <Gold.Id.Protein>
6NUR|6NUR_protein|mol2

> <Gold.PLP.Fitness>
39.4567

> <Gold.PLP.PLP>
-40.5028

> <Gold.PLP.part.hbond>
0.0000

> <Gold.PLP.part.metal>
0.0000

> <Gold.PLP.part.buried>
-1.5087

> <Gold.PLP.part.nonpolar>
-38.1934

> <Gold.PLP.part.repulsive>
0.2640

> <Gold.PLP.ligand.clash>
0.0000

> <Gold.PLP.ligand.torsion>
0.5442

> <Gold.PLP.Chemscore.Hbond>
0.0000

> <Gold.PLP.Chemscore.CHOScore>
0.0000

> <Gold.PLP.Chemscore.Metal>
0.0000

> <Gold.PLP.Chemscore.Internal.Correction>
0.0423

> <Gold.Rescore>
     Score         DG    S(hbond)    S(metal)    S(lipo)     H(rot)  DE(clash)    DE(int)     intcor
     11.22     -13.12       0.00        0.00      97.80       1.48       0.25       1.65       ----

> <Gold.Chemscore.Fitness>
11.2197

> <Gold.Chemscore.DG>
-13.1243

> <Gold.Chemscore.ZeroCoef>
-5.4800

> <Gold.Chemscore.Hbond>
0.0000

> <Gold.Chemscore.Metal>
0.0000

> <Gold.Chemscore.Lipo>
97.8012

> <Gold.Chemscore.Internal_Hbond>
0.0000

> <Gold.Chemscore.DEClash>
0.2523

> <Gold.Chemscore.DEInternal>
1.6523

> <Gold.Chemscore.Rot>
1.4838

> <Gold.Chemscore.Internal.Correction>
   9.000000E+99

> <Gold.Chemscore.Hbond.Weighted>
-0.0000

> <Gold.Chemscore.Metal.Weighted>
-0.0000

> <Gold.Chemscore.Lipo.Weighted>
-11.4427

> <Gold.Chemscore.Internal_Hbond.Weighted>
0.0000

> <Gold.Chemscore.DEClash.Weighted>
0.2523

> <Gold.Chemscore.DEInternal.Weighted>
1.6523

> <Gold.Chemscore.Rot.Weighted>
3.7985

> <Gold.Chemscore.Internal.Correction.Weighted>
   9.000000E+99

> <Gold.Protein.RotatedTorsions>
[ 6907 6896 6895 6894 ] final   -6.11 input  -60.11 | X-H torsion
[ 7974 7965 7964 7962 ] final   36.44 input  175.53 | X-H torsion
[ 8008 7997 7996 7995 ] final   -8.42 input   59.86 | X-H torsion
[ 10167 10162 10161 10158 ] final -123.24 input  -65.29 | X-H torsion
[ 10718 10713 10712 10709 ] final   28.62 input   66.30 | X-H torsion
[ 10763 10752 10751 10750 ] final -124.99 input  -60.55 | X-H torsion
[ 11005 11000 10999 10996 ] final -125.85 input  -57.11 | X-H torsion

> <Gold.Protein.ActiveResidues>
 VAL166  LYS551  ARG553  GLY616  TRP617  ASP618  TYR619  PRO620  LYS621  CYS622 
 ASP623  PHE694  ASN695  SER759  ASP760  ASP761  ALA762  ILE779  LEU786  VAL792 
 PHE793  MET794  SER795  GLU796  ALA797  LYS798  CYS799  TRP800  GLU811  SER814 

> <Gold.Protein.RotatedAtoms>
  151.4709  135.1045  159.9750 H   0  0  0  0  0  0  0  0  0  0  0  0  # atno 6907 bound_to 6896
  152.4817  133.8267  159.7092 H   0  0  0  0  0  0  0  0  0  0  0  0  # atno 6908 bound_to 6896
  150.8894  133.7203  159.2936 H   0  0  0  0  0  0  0  0  0  0  0  0  # atno 6909 bound_to 6896
  146.1211  139.6017  142.9289 H   0  0  0  0  0  0  0  0  0  0  0  0  # atno 7974 bound_to 7965
  154.5743  140.2381  155.8146 H   0  0  0  0  0  0  0  0  0  0  0  0  # atno 8008 bound_to 7997
  156.2131  140.3020  155.9734 H   0  0  0  0  0  0  0  0  0  0  0  0  # atno 8009 bound_to 7997
  155.2656  140.0416  157.2992 H   0  0  0  0  0  0  0  0  0  0  0  0  # atno 8010 bound_to 7997
  140.0056  143.5495  152.2285 H   0  0  0  0  0  0  0  0  0  0  0  0  # atno 10167 bound_to 10162
  157.2358  130.7045  149.6335 H   0  0  0  0  0  0  0  0  0  0  0  0  # atno 10718 bound_to 10713
  154.8730  135.4045  154.3195 H   0  0  0  0  0  0  0  0  0  0  0  0  # atno 10763 bound_to 10752
  153.4026  135.7018  153.6421 H   0  0  0  0  0  0  0  0  0  0  0  0  # atno 10764 bound_to 10752
  153.5157  135.3698  155.2579 H   0  0  0  0  0  0  0  0  0  0  0  0  # atno 10765 bound_to 10752
  140.9729  134.0781  157.3850 H   0  0  0  0  0  0  0  0  0  0  0  0  # atno 11005 bound_to 11000
  145.5464  141.0417  143.2302 LP  0  0  0  0  0  0  0  0  0  0  0  0  # atno 17320 bound_to 7965
  144.7598  139.6985  143.7239 LP  0  0  0  0  0  0  0  0  0  0  0  0  # atno 17321 bound_to 7965
  139.6241  144.7634  151.2677 LP  0  0  0  0  0  0  0  0  0  0  0  0  # atno 17342 bound_to 10162
  140.7401  143.6596  150.8176 LP  0  0  0  0  0  0  0  0  0  0  0  0  # atno 17343 bound_to 10162
  155.9672  130.4474  150.5579 LP  0  0  0  0  0  0  0  0  0  0  0  0  # atno 17370 bound_to 10713
  157.3431  131.0720  151.1773 LP  0  0  0  0  0  0  0  0  0  0  0  0  # atno 17371 bound_to 10713
  139.8919  135.0121  156.6817 LP  0  0  0  0  0  0  0  0  0  0  0  0  # atno 17394 bound_to 11000
  140.7302  133.9065  155.8206 LP  0  0  0  0  0  0  0  0  0  0  0  0  # atno 17395 bound_to 11000

$$$$
