AV-unprocessed.smi:2567|AV-procd|sdf|10076|dock3
  -GOLD-   2272014103D 1   1.00000     0.00000
 Structure written by MMmdl.
 34 35  0  0  0  0  0  0  0  0  2 V2000
  150.9447  144.4731  159.7086 C   0  0  0  0  0  0  0  0  0  0  0  0
  152.0408  143.8437  158.8266 C   0  0  0  0  0  0  0  0  0  0  0  0
  152.7535  144.9445  158.0179 C   0  0  0  0  0  0  0  0  0  0  0  0
  153.0794  143.1791  159.7578 C   0  0  0  0  0  0  0  0  0  0  0  0
  151.4187  142.8441  157.8806 C   0  0  0  0  0  0  0  0  0  0  0  0
  150.3014  143.0811  157.1840 N   0  0  0  0  0  0  0  0  0  0  0  0
  149.9853  141.9961  156.4469 N   0  0  0  0  0  0  0  0  0  0  0  0
  150.9739  141.1580  156.7505 C   0  0  0  0  0  0  0  0  0  0  0  0
  151.0086  139.7738  156.1819 C   0  0  2  0  0  0  0  0  0  0  0  0
  152.3246  139.0435  156.5102 C   0  0  0  0  0  0  0  0  0  0  0  0
  152.3484  137.7279  155.8416 N   0  3  0  0  0  0  0  0  0  0  0  0
  152.1264  137.8571  154.3877 C   0  0  0  0  0  0  0  0  0  0  0  0
  150.8257  138.6338  154.1162 C   0  0  0  0  0  0  0  0  0  0  0  0
  150.8748  139.8991  154.7675 O   0  0  0  0  0  0  0  0  0  0  0  0
  151.8888  141.6187  157.6568 N   0  0  0  0  0  0  0  0  0  0  0  0
  151.3643  145.1951  160.4102 H   0  0  0  0  0  0  0  0  0  0  0  0
  150.4209  143.7146  160.2915 H   0  0  0  0  0  0  0  0  0  0  0  0
  150.2002  144.9985  159.1094 H   0  0  0  0  0  0  0  0  0  0  0  0
  152.0579  145.4794  157.3702 H   0  0  0  0  0  0  0  0  0  0  0  0
  153.5361  144.5260  157.3840 H   0  0  0  0  0  0  0  0  0  0  0  0
  153.2199  145.6812  158.6730 H   0  0  0  0  0  0  0  0  0  0  0  0
  153.5184  143.9051  160.4432 H   0  0  0  0  0  0  0  0  0  0  0  0
  153.8992  142.7339  159.1927 H   0  0  0  0  0  0  0  0  0  0  0  0
  152.6282  142.3935  160.3654 H   0  0  0  0  0  0  0  0  0  0  0  0
  150.1582  139.2123  156.5743 H   0  0  0  0  0  0  0  0  0  0  0  0
  153.1807  139.6297  156.1728 H   0  0  0  0  0  0  0  0  0  0  0  0
  152.4321  138.9048  157.5863 H   0  0  0  0  0  0  0  0  0  0  0  0
  153.2392  137.2817  156.0084 H   0  0  0  0  0  0  0  0  0  0  0  0
  152.9750  138.3761  153.9403 H   0  0  0  0  0  0  0  0  0  0  0  0
  152.0827  136.8647  153.9388 H   0  0  0  0  0  0  0  0  0  0  0  0
  150.6989  138.7924  153.0452 H   0  0  0  0  0  0  0  0  0  0  0  0
  149.9567  138.0701  154.4593 H   0  0  0  0  0  0  0  0  0  0  0  0
  151.6141  137.1542  156.2313 H   0  0  0  0  0  0  0  0  0  0  0  0
  149.7471  143.9259  157.1871 H   0  0  0  0  0  0  0  0  0  0  0  0
  1  2  1  0  0  0  0
  1 16  1  0  0  0  0
  1 17  1  0  0  0  0
  1 18  1  0  0  0  0
  2  3  1  0  0  0  0
  2  4  1  0  0  0  0
  2  5  1  0  0  0  0
  3 19  1  0  0  0  0
  3 20  1  0  0  0  0
  3 21  1  0  0  0  0
  4 22  1  0  0  0  0
  4 23  1  0  0  0  0
  4 24  1  0  0  0  0
  5 15  2  0  0  0  0
  5  6  1  0  0  0  0
  6  7  1  0  0  0  0
  6 34  1  0  0  0  0
  7  8  2  0  0  0  0
  8  9  1  0  0  0  0
  8 15  1  0  0  0  0
  9 14  1  0  0  0  0
  9 10  1  0  0  0  0
  9 25  1  0  0  0  0
 10 11  1  0  0  0  0
 10 26  1  0  0  0  0
 10 27  1  0  0  0  0
 11 12  1  0  0  0  0
 11 28  1  0  0  0  0
 11 33  1  0  0  0  0
 12 13  1  0  0  0  0
 12 29  1  0  0  0  0
 12 30  1  0  0  0  0
 13 14  1  0  0  0  0
 13 31  1  0  0  0  0
 13 32  1  0  0  0  0
M  CHG  1  11   1
M  END
> <s_m_source_file>
AV-unprocessed.smi

> <i_m_source_file_index>
2567

> <i_lp_mmshare_version>
43012

> <i_f3d_flags>
0

> <s_epik_input>
W0NIM11DKFtDSDNdKShbQ0gzXSljMW5bbkhdYyhuMSlbQ0BASF0yW0NIMl1bTkhdW0NIMl1bQ0gyXU8y

> <s_epik_cmdline>
J2VwaWtfcHl0aG9uJywgJy1waCcsICc3LjAnLCAnLXRuJywgJzgnLCAnLW1hJywgJzIwMCcsICctbWV0YWxfYmluZGluZycsICctaW1hZScsICc8aW5maWxlLm1hZT4nLCAnLW9tYWUnLCAnPG91dGZpbGUubWFlPic=

> <r_lp_tautomer_probability>
0.948284

> <r_epik_Ionization_Penalty>
0.108767

> <r_epik_Ionization_Penalty_Charging>
0.100865

> <r_epik_Ionization_Penalty_Neutral>
0.00790271

> <r_epik_State_Penalty>
0.197684

> <r_epik_Charging_Adjusted_Penalty>
0.298549

> <i_epik_Tot_Q>
1

> <i_epik_Tot_abs_Q>
1

> <r_epik_Metal_State_Penalty>
0.508163

> <b_epik_Metal_Only>
0

> <s_lp_Force_Field>
OPLS_2005

> <r_lp_Energy>
13.5153

> <b_lp_Chiralities_Consistent>
1

> <s_lp_Variant>
AV-unprocessed.smi:2567-1

> <Gold.Version>
5.8.1

> <Gold.Id.Protein>
6NUR|6NUR_protein|mol2

> <Gold.PLP.Fitness>
34.7549

> <Gold.PLP.PLP>
-31.5577

> <Gold.PLP.part.hbond>
-2.0000

> <Gold.PLP.part.metal>
0.0000

> <Gold.PLP.part.buried>
-4.4953

> <Gold.PLP.part.nonpolar>
-25.8308

> <Gold.PLP.part.repulsive>
1.0335

> <Gold.PLP.ligand.clash>
0.0000

> <Gold.PLP.ligand.torsion>
0.7028

> <Gold.PLP.Chemscore.Hbond>
1.5280

> <Gold.PLP.Chemscore.CHOScore>
0.0000

> <Gold.PLP.Chemscore.Metal>
0.0000

> <Gold.Chemscore.Hbonds>
donor molecule, donor type, donor heavy atom, donor atom, acceptor molecule, acceptor atom, score
      L1  H     6    34       P1  8028  0.54
      P1  H  7989  7998       L1    14  1.00

> <Gold.PLP.Chemscore.Internal.Correction>
0.0188

> <Gold.Rescore>
     Score         DG    S(hbond)    S(metal)    S(lipo)     H(rot)  DE(clash)    DE(int)     intcor
     15.49     -17.54       1.84        0.00      78.33       1.26       1.46       0.59       ----

> <Gold.Chemscore.Fitness>
15.4941

> <Gold.Chemscore.DG>
-17.5445

> <Gold.Chemscore.ZeroCoef>
-5.4800

> <Gold.Chemscore.Hbond>
1.8376

> <Gold.Chemscore.Metal>
0.0000

> <Gold.Chemscore.Lipo>
78.3292

> <Gold.Chemscore.Internal_Hbond>
0.0000

> <Gold.Chemscore.DEClash>
1.4649

> <Gold.Chemscore.DEInternal>
0.5855

> <Gold.Chemscore.Rot>
1.2647

> <Gold.Chemscore.Internal.Correction>
   9.000000E+99

> <Gold.Chemscore.Hbonds>
donor molecule, donor type, donor heavy atom, donor atom, acceptor molecule, acceptor atom, score
      L1  H     6    34       P1  8028  0.40
      P1  H  7989  7998       L1    14  0.26

> <Gold.Chemscore.Hbond.Weighted>
-6.1375

> <Gold.Chemscore.Metal.Weighted>
-0.0000

> <Gold.Chemscore.Lipo.Weighted>
-9.1645

> <Gold.Chemscore.Internal_Hbond.Weighted>
0.0000

> <Gold.Chemscore.DEClash.Weighted>
1.4649

> <Gold.Chemscore.DEInternal.Weighted>
0.5855

> <Gold.Chemscore.Rot.Weighted>
3.2375

> <Gold.Chemscore.Internal.Correction.Weighted>
   9.000000E+99

> <Gold.Protein.RotatedTorsions>
[ 6907 6896 6895 6894 ] final  -31.28 input  -60.11 | X-H torsion
[ 7974 7965 7964 7962 ] final  110.24 input  175.53 | X-H torsion
[ 8008 7997 7996 7995 ] final  -95.24 input   59.86 | X-H torsion
[ 10167 10162 10161 10158 ] final   26.24 input  -65.29 | X-H torsion
[ 10718 10713 10712 10709 ] final  157.46 input   66.30 | X-H torsion
[ 10763 10752 10751 10750 ] final    8.62 input  -60.55 | X-H torsion
[ 11005 11000 10999 10996 ] final  -68.53 input  -57.11 | X-H torsion

> <Gold.Protein.ActiveResidues>
 VAL166  LYS551  ARG553  GLY616  TRP617  ASP618  TYR619  PRO620  LYS621  CYS622 
 ASP623  PHE694  ASN695  SER759  ASP760  ASP761  ALA762  ILE779  LEU786  VAL792 
 PHE793  MET794  SER795  GLU796  ALA797  LYS798  CYS799  TRP800  GLU811  SER814 

> <Gold.Protein.RotatedAtoms>
  151.0943  134.9934  159.8417 H   0  0  0  0  0  0  0  0  0  0  0  0  # atno 6907 bound_to 6896
  152.5432  134.2028  159.8729 H   0  0  0  0  0  0  0  0  0  0  0  0  # atno 6908 bound_to 6896
  151.2066  133.4536  159.2630 H   0  0  0  0  0  0  0  0  0  0  0  0  # atno 6909 bound_to 6896
  145.2575  139.2715  143.4035 H   0  0  0  0  0  0  0  0  0  0  0  0  # atno 7974 bound_to 7965
  154.7588  140.0482  157.0955 H   0  0  0  0  0  0  0  0  0  0  0  0  # atno 8008 bound_to 7997
  154.9964  140.3119  155.4865 H   0  0  0  0  0  0  0  0  0  0  0  0  # atno 8009 bound_to 7997
  156.2900  140.2209  156.5072 H   0  0  0  0  0  0  0  0  0  0  0  0  # atno 8010 bound_to 7997
  140.5039  144.0270  150.6344 H   0  0  0  0  0  0  0  0  0  0  0  0  # atno 10167 bound_to 10162
  157.1912  131.0655  151.2078 H   0  0  0  0  0  0  0  0  0  0  0  0  # atno 10718 bound_to 10713
  153.2231  135.6883  153.7977 H   0  0  0  0  0  0  0  0  0  0  0  0  # atno 10763 bound_to 10752
  153.7169  135.3273  155.3259 H   0  0  0  0  0  0  0  0  0  0  0  0  # atno 10764 bound_to 10752
  154.8279  135.4604  154.1086 H   0  0  0  0  0  0  0  0  0  0  0  0  # atno 10765 bound_to 10752
  141.1534  133.6743  156.6461 H   0  0  0  0  0  0  0  0  0  0  0  0  # atno 11005 bound_to 11000
  146.3285  140.2982  142.8619 LP  0  0  0  0  0  0  0  0  0  0  0  0  # atno 17320 bound_to 7965
  144.9448  140.8117  143.5608 LP  0  0  0  0  0  0  0  0  0  0  0  0  # atno 17321 bound_to 7965
  140.3574  143.2928  152.0421 LP  0  0  0  0  0  0  0  0  0  0  0  0  # atno 17342 bound_to 10162
  139.4879  144.6329  151.7034 LP  0  0  0  0  0  0  0  0  0  0  0  0  # atno 17343 bound_to 10162
  157.3859  130.7256  149.6663 LP  0  0  0  0  0  0  0  0  0  0  0  0  # atno 17370 bound_to 10713
  155.9711  130.4159  150.4207 LP  0  0  0  0  0  0  0  0  0  0  0  0  # atno 17371 bound_to 10713
  140.3356  134.7892  157.4359 LP  0  0  0  0  0  0  0  0  0  0  0  0  # atno 17394 bound_to 11000
  140.0980  134.5511  155.8380 LP  0  0  0  0  0  0  0  0  0  0  0  0  # atno 17395 bound_to 11000

$$$$
