AV-unprocessed.smi:197|AV-procd|sdf|1549|dock5
  -GOLD-   2262019413D 1   1.00000     0.00000
 Structure written by MMmdl.
 54 57  0  0  0  0  0  0  0  0  1 V2000
  147.2689  127.8090  151.8720 C   0  0  0  0  0  0  0  0  0  0  0  0
  146.4181  128.9048  151.5699 O   0  0  0  0  0  0  0  0  0  0  0  0
  146.3742  129.9024  152.5809 C   0  0  0  0  0  0  0  0  0  0  0  0
  145.4531  131.0716  152.1869 C   0  0  0  0  0  0  0  0  0  0  0  0
  146.0526  131.9895  151.0926 C   0  0  1  0  0  0  0  0  0  0  0  0
  145.7895  131.4750  149.6601 C   0  0  0  0  0  0  0  0  0  0  0  0
  144.4095  131.6058  149.3344 O   0  0  0  0  0  0  0  0  0  0  0  0
  143.9898  132.9657  149.3458 C   0  0  0  0  0  0  0  0  0  0  0  0
  144.1795  133.5531  150.7530 C   0  0  0  0  0  0  0  0  0  0  0  0
  145.5616  133.3689  151.1963 N   0  0  0  0  0  0  0  0  0  0  0  0
  145.9784  134.0716  152.2846 C   0  0  0  0  0  0  0  0  0  0  0  0
  146.6897  133.4418  153.2586 N   0  0  0  0  0  0  0  0  0  0  0  0
  147.1579  134.1241  154.3069 C   0  0  0  0  0  0  0  0  0  0  0  0
  147.0382  135.4247  154.5753 N   0  0  0  0  0  0  0  0  0  0  0  0
  146.3135  136.0623  153.6127 C   0  0  0  0  0  0  0  0  0  0  0  0
  145.7418  135.4669  152.4523 C   0  0  0  0  0  0  0  0  0  0  0  0
  145.0568  136.4308  151.7209 N   0  0  0  0  0  0  0  0  0  0  0  0
  145.2376  137.5342  152.3928 C   0  0  0  0  0  0  0  0  0  0  0  0
  145.9986  137.4072  153.5321 N   0  0  0  0  0  0  0  0  0  0  0  0
  146.3860  138.4712  154.4437 C   0  0  0  0  0  0  0  0  0  0  0  0
  147.5671  139.3229  153.9179 C   0  0  1  0  0  0  0  0  0  0  0  0
  147.9265  138.8453  152.6311 O   0  0  0  0  0  0  0  0  0  0  0  0
  147.2113  140.7964  153.7932 C   0  0  0  0  0  0  0  0  0  0  0  0
  148.5735  141.4728  153.8655 C   0  0  0  0  0  0  0  0  0  0  0  0
  149.2936  140.7085  154.8212 O   0  0  0  0  0  0  0  0  0  0  0  0
  148.8022  139.3690  154.8535 C   0  0  2  0  0  0  0  0  0  0  0  0
  149.9422  138.3780  154.5562 C   0  0  0  0  0  0  0  0  0  0  0  0
  147.2790  127.1174  151.0297 H   0  0  0  0  0  0  0  0  0  0  0  0
  146.9308  127.2558  152.7477 H   0  0  0  0  0  0  0  0  0  0  0  0
  148.2939  128.1395  152.0429 H   0  0  0  0  0  0  0  0  0  0  0  0
  146.0764  129.4694  153.5375 H   0  0  0  0  0  0  0  0  0  0  0  0
  147.3927  130.2668  152.7100 H   0  0  0  0  0  0  0  0  0  0  0  0
  144.4848  130.6836  151.8696 H   0  0  0  0  0  0  0  0  0  0  0  0
  145.2573  131.6676  153.0770 H   0  0  0  0  0  0  0  0  0  0  0  0
  147.1323  131.9880  151.2257 H   0  0  0  0  0  0  0  0  0  0  0  0
  146.3885  132.0357  148.9405 H   0  0  0  0  0  0  0  0  0  0  0  0
  146.0847  130.4323  149.5520 H   0  0  0  0  0  0  0  0  0  0  0  0
  144.5538  133.5379  148.6073 H   0  0  0  0  0  0  0  0  0  0  0  0
  142.9409  133.0173  149.0546 H   0  0  0  0  0  0  0  0  0  0  0  0
  143.9262  134.6141  150.7377 H   0  0  0  0  0  0  0  0  0  0  0  0
  143.5003  133.0684  151.4550 H   0  0  0  0  0  0  0  0  0  0  0  0
  147.7164  133.5469  155.0290 H   0  0  0  0  0  0  0  0  0  0  0  0
  144.8324  138.4806  152.0652 H   0  0  0  0  0  0  0  0  0  0  0  0
  145.5147  139.1008  154.6288 H   0  0  0  0  0  0  0  0  0  0  0  0
  146.6445  138.0202  155.4026 H   0  0  0  0  0  0  0  0  0  0  0  0
  148.7845  139.1800  152.4183 H   0  0  0  0  0  0  0  0  0  0  0  0
  146.6578  141.0404  152.8856 H   0  0  0  0  0  0  0  0  0  0  0  0
  146.6094  141.1145  154.6454 H   0  0  0  0  0  0  0  0  0  0  0  0
  149.0849  141.4151  152.9036 H   0  0  0  0  0  0  0  0  0  0  0  0
  148.5096  142.5216  154.1556 H   0  0  0  0  0  0  0  0  0  0  0  0
  148.4714  139.2124  155.8802 H   0  0  0  0  0  0  0  0  0  0  0  0
  149.5901  137.3467  154.5686 H   0  0  0  0  0  0  0  0  0  0  0  0
  150.7299  138.4631  155.3046 H   0  0  0  0  0  0  0  0  0  0  0  0
  150.3964  138.5665  153.5834 H   0  0  0  0  0  0  0  0  0  0  0  0
  1  2  1  0  0  0  0
  1 28  1  0  0  0  0
  1 29  1  0  0  0  0
  1 30  1  0  0  0  0
  2  3  1  0  0  0  0
  3  4  1  0  0  0  0
  3 31  1  0  0  0  0
  3 32  1  0  0  0  0
  4  5  1  0  0  0  0
  4 33  1  0  0  0  0
  4 34  1  0  0  0  0
  5 10  1  0  0  0  0
  5  6  1  0  0  0  0
  5 35  1  0  0  0  0
  6  7  1  0  0  0  0
  6 36  1  0  0  0  0
  6 37  1  0  0  0  0
  7  8  1  0  0  0  0
  8  9  1  0  0  0  0
  8 38  1  0  0  0  0
  8 39  1  0  0  0  0
  9 10  1  0  0  0  0
  9 40  1  0  0  0  0
  9 41  1  0  0  0  0
 10 11  1  0  0  0  0
 11 16  1  0  0  0  0
 11 12  2  0  0  0  0
 12 13  1  0  0  0  0
 13 14  2  0  0  0  0
 13 42  1  0  0  0  0
 14 15  1  0  0  0  0
 15 19  1  0  0  0  0
 15 16  2  0  0  0  0
 16 17  1  0  0  0  0
 17 18  2  0  0  0  0
 18 19  1  0  0  0  0
 18 43  1  0  0  0  0
 19 20  1  0  0  0  0
 20 21  1  0  0  0  0
 20 44  1  0  0  0  0
 20 45  1  0  0  0  0
 21 26  1  0  0  0  0
 21 22  1  0  0  0  0
 21 23  1  0  0  0  0
 22 46  1  0  0  0  0
 23 24  1  0  0  0  0
 23 47  1  0  0  0  0
 23 48  1  0  0  0  0
 24 25  1  0  0  0  0
 24 49  1  0  0  0  0
 24 50  1  0  0  0  0
 25 26  1  0  0  0  0
 26 27  1  0  0  0  0
 26 51  1  0  0  0  0
 27 52  1  0  0  0  0
 27 53  1  0  0  0  0
 27 54  1  0  0  0  0
M  END
> <s_m_source_file>
AV-unprocessed.smi

> <i_m_source_file_index>
197

> <i_lp_mmshare_version>
43012

> <i_f3d_flags>
0

> <s_epik_input>
W0NIM11PW0NIMl1bQ0gyXVtDQEBIXTFbQ0gyXU9bQ0gyXVtDSDJdTjFjKG5bY0hdbjIpYyhjMjMpbltjSF1uM1tDSDJdW0NAQF00KFtPSF0pW0NIMl1bQ0gyXU9bQ0BIXTRbQ0gzXQ==

> <s_epik_cmdline>
J2VwaWtfcHl0aG9uJywgJy1waCcsICc3LjAnLCAnLXRuJywgJzgnLCAnLW1hJywgJzIwMCcsICctbWV0YWxfYmluZGluZycsICctaW1hZScsICc8aW5maWxlLm1hZT4nLCAnLW9tYWUnLCAnPG91dGZpbGUubWFlPic=

> <r_lp_tautomer_probability>
1

> <r_epik_Ionization_Penalty>
0.000106218

> <r_epik_Ionization_Penalty_Charging>
0

> <r_epik_Ionization_Penalty_Neutral>
0.000106218

> <r_epik_State_Penalty>
-0

> <r_epik_Charging_Adjusted_Penalty>
0

> <i_epik_Tot_Q>
0

> <i_epik_Tot_abs_Q>
0

> <r_epik_Metal_State_Penalty>
-0

> <b_epik_Metal_Only>
0

> <s_lp_Force_Field>
OPLS_2005

> <r_lp_Energy>
41.5492

> <b_lp_Chiralities_Consistent>
1

> <s_lp_Variant>
AV-unprocessed.smi:197-6

> <Gold.Version>
5.8.1

> <Gold.Id.Protein>
6NUR|6NUR_protein|mol2

> <Gold.PLP.Fitness>
43.0750

> <Gold.PLP.PLP>
-36.9322

> <Gold.PLP.part.hbond>
-2.9306

> <Gold.PLP.part.metal>
0.0000

> <Gold.PLP.part.buried>
-1.8836

> <Gold.PLP.part.nonpolar>
-33.3549

> <Gold.PLP.part.repulsive>
1.3333

> <Gold.PLP.ligand.clash>
0.0000

> <Gold.PLP.ligand.torsion>
1.9565

> <Gold.PLP.Chemscore.Hbond>
1.4480

> <Gold.PLP.Chemscore.CHOScore>
1.7111

> <Gold.PLP.Chemscore.Metal>
0.0000

> <Gold.Chemscore.Hbonds>
donor molecule, donor type, donor heavy atom, donor atom, acceptor molecule, acceptor atom, score
      L1  H    22    46       P1  7957  0.80
      P1  H 10785 10796       L1     7  0.46
      L1  C    18    43       P1 10171  0.77
      L1  C    18    43       P1 10175  1.00

> <Gold.PLP.Chemscore.Internal.Correction>
0.5784

> <Gold.Rescore>
     Score         DG    S(hbond)    S(metal)    S(lipo)     H(rot)  DE(clash)    DE(int)     intcor
     10.56     -15.11       1.56        0.00      99.84       2.84       0.13       4.43       ----

> <Gold.Chemscore.Fitness>
10.5568

> <Gold.Chemscore.DG>
-15.1145

> <Gold.Chemscore.ZeroCoef>
-5.4800

> <Gold.Chemscore.Hbond>
1.5607

> <Gold.Chemscore.Metal>
0.0000

> <Gold.Chemscore.Lipo>
99.8409

> <Gold.Chemscore.Internal_Hbond>
0.0000

> <Gold.Chemscore.DEClash>
0.1325

> <Gold.Chemscore.DEInternal>
4.4252

> <Gold.Chemscore.Rot>
2.8358

> <Gold.Chemscore.Internal.Correction>
   9.000000E+99

> <Gold.Chemscore.Hbonds>
donor molecule, donor type, donor heavy atom, donor atom, acceptor molecule, acceptor atom, score
      L1  H    22    46       P1  7957  0.80
      P1  H 10785 10796       L1     7  0.45

> <Gold.Chemscore.Hbond.Weighted>
-5.2127

> <Gold.Chemscore.Metal.Weighted>
-0.0000

> <Gold.Chemscore.Lipo.Weighted>
-11.6814

> <Gold.Chemscore.Internal_Hbond.Weighted>
0.0000

> <Gold.Chemscore.DEClash.Weighted>
0.1325

> <Gold.Chemscore.DEInternal.Weighted>
4.4252

> <Gold.Chemscore.Rot.Weighted>
7.2596

> <Gold.Chemscore.Internal.Correction.Weighted>
   9.000000E+99

> <Gold.Protein.RotatedTorsions>
[ 6907 6896 6895 6894 ] final   93.14 input  -60.11 | X-H torsion
[ 7974 7965 7964 7962 ] final -158.41 input  175.53 | X-H torsion
[ 8008 7997 7996 7995 ] final    7.28 input   59.86 | X-H torsion
[ 10167 10162 10161 10158 ] final   29.48 input  -65.29 | X-H torsion
[ 10718 10713 10712 10709 ] final   99.03 input   66.30 | X-H torsion
[ 10763 10752 10751 10750 ] final -118.64 input  -60.55 | X-H torsion
[ 11005 11000 10999 10996 ] final   91.59 input  -57.11 | X-H torsion

> <Gold.Protein.ActiveResidues>
 VAL166  LYS551  ARG553  GLY616  TRP617  ASP618  TYR619  PRO620  LYS621  CYS622 
 ASP623  PHE694  ASN695  SER759  ASP760  ASP761  ALA762  ILE779  LEU786  VAL792 
 PHE793  MET794  SER795  GLU796  ALA797  LYS798  CYS799  TRP800  GLU811  SER814 

> <Gold.Protein.RotatedAtoms>
  152.5453  134.1393  159.8471 H   0  0  0  0  0  0  0  0  0  0  0  0  # atno 6907 bound_to 6896
  151.1431  133.4951  159.2604 H   0  0  0  0  0  0  0  0  0  0  0  0  # atno 6908 bound_to 6896
  151.1552  135.0257  159.8740 H   0  0  0  0  0  0  0  0  0  0  0  0  # atno 6909 bound_to 6896
  144.7507  140.3832  143.6050 H   0  0  0  0  0  0  0  0  0  0  0  0  # atno 7974 bound_to 7965
  154.7518  140.2768  155.6286 H   0  0  0  0  0  0  0  0  0  0  0  0  # atno 8008 bound_to 7997
  156.2897  140.2677  156.2199 H   0  0  0  0  0  0  0  0  0  0  0  0  # atno 8009 bound_to 7997
  155.0128  140.0372  157.2396 H   0  0  0  0  0  0  0  0  0  0  0  0  # atno 8010 bound_to 7997
  140.4762  144.0687  150.6251 H   0  0  0  0  0  0  0  0  0  0  0  0  # atno 10167 bound_to 10162
  157.6884  131.0657  150.4886 H   0  0  0  0  0  0  0  0  0  0  0  0  # atno 10718 bound_to 10713
  154.8593  135.4267  154.2171 H   0  0  0  0  0  0  0  0  0  0  0  0  # atno 10763 bound_to 10752
  153.3184  135.6980  153.7058 H   0  0  0  0  0  0  0  0  0  0  0  0  # atno 10764 bound_to 10752
  153.6123  135.3517  155.2956 H   0  0  0  0  0  0  0  0  0  0  0  0  # atno 10765 bound_to 10752
  139.8836  134.8683  156.3450 H   0  0  0  0  0  0  0  0  0  0  0  0  # atno 11005 bound_to 11000
  145.6955  139.1649  143.2622 LP  0  0  0  0  0  0  0  0  0  0  0  0  # atno 17320 bound_to 7965
  146.1452  140.7002  142.9348 LP  0  0  0  0  0  0  0  0  0  0  0  0  # atno 17321 bound_to 7965
  140.3916  143.2749  152.0054 LP  0  0  0  0  0  0  0  0  0  0  0  0  # atno 17342 bound_to 10162
  139.4826  144.6073  151.7498 LP  0  0  0  0  0  0  0  0  0  0  0  0  # atno 17343 bound_to 10162
  156.5214  130.4163  149.6249 LP  0  0  0  0  0  0  0  0  0  0  0  0  # atno 17370 bound_to 10713
  156.3151  130.7250  151.2151 LP  0  0  0  0  0  0  0  0  0  0  0  0  # atno 17371 bound_to 10713
  140.9633  133.7375  156.0431 LP  0  0  0  0  0  0  0  0  0  0  0  0  # atno 17394 bound_to 11000
  140.7963  134.3560  157.5451 LP  0  0  0  0  0  0  0  0  0  0  0  0  # atno 17395 bound_to 11000

$$$$
