AV-unprocessed.smi:2083|AV-procd|sdf|8508|dock2
  -GOLD-   2272011223D 1   1.00000     0.00000
 Structure written by MMmdl.
 44 45  0  0  0  0  0  0  0  0  3 V2000
  151.8530  145.1615  159.9102 C   0  0  0  0  0  0  0  0  0  0  0  0
  151.7433  143.9453  159.0561 C   0  0  0  0  0  0  0  0  0  0  0  0
  151.2096  143.7231  157.8181 C   0  0  0  0  0  0  0  0  0  0  0  0
  151.4484  142.3387  157.6089 C   0  0  0  0  0  0  0  0  0  0  0  0
  151.0357  141.7066  156.4061 N   0  0  0  0  0  0  0  0  0  0  0  0
  151.4701  140.5513  155.8695 C   0  0  0  0  0  0  0  0  0  0  0  0
  152.3243  139.8742  156.4540 O   0  0  0  0  0  0  0  0  0  0  0  0
  150.8664  140.2765  154.6807 N   0  5  0  0  0  0  0  0  0  0  0  0
  149.9536  139.1568  154.4499 C   0  0  0  0  0  0  0  0  0  0  0  0
  148.7566  139.6057  153.5710 C   0  0  2  0  0  0  0  0  0  0  0  0
  148.1438  140.9705  153.9758 C   0  0  0  0  0  0  0  0  0  0  0  0
  147.7368  138.5145  153.4782 N   0  3  2  0  0  0  0  0  0  0  0  0
  146.6740  138.7855  152.4738 C   0  0  0  0  0  0  0  0  0  0  0  0
  145.8341  137.5252  152.2101 C   0  0  0  0  0  0  0  0  0  0  0  0
  145.2408  136.9686  153.5127 C   0  0  0  0  0  0  0  0  0  0  0  0
  146.3315  136.7523  154.5788 C   0  0  1  0  0  0  0  0  0  0  0  0
  147.2213  135.5311  154.2873 C   0  0  0  0  0  0  0  0  0  0  0  0
  147.1570  138.0404  154.7708 C   0  0  0  0  0  0  0  0  0  0  0  0
  152.0729  141.7683  158.6288 N   0  0  0  0  0  0  0  0  0  0  0  0
  152.2645  142.7947  159.5612 O   0  0  0  0  0  0  0  0  0  0  0  0
  151.3071  145.9966  159.4708 H   0  0  0  0  0  0  0  0  0  0  0  0
  152.8950  145.4606  160.0233 H   0  0  0  0  0  0  0  0  0  0  0  0
  151.4437  144.9750  160.9030 H   0  0  0  0  0  0  0  0  0  0  0  0
  150.7272  144.4371  157.1676 H   0  0  0  0  0  0  0  0  0  0  0  0
  150.3309  142.1971  155.8762 H   0  0  0  0  0  0  0  0  0  0  0  0
  150.4537  138.3293  153.9435 H   0  0  0  0  0  0  0  0  0  0  0  0
  149.5778  138.7408  155.3851 H   0  0  0  0  0  0  0  0  0  0  0  0
  149.1661  139.7356  152.5677 H   0  0  0  0  0  0  0  0  0  0  0  0
  148.8684  141.7822  153.8895 H   0  0  0  0  0  0  0  0  0  0  0  0
  147.7701  140.9795  155.0012 H   0  0  0  0  0  0  0  0  0  0  0  0
  147.3113  141.2302  153.3219 H   0  0  0  0  0  0  0  0  0  0  0  0
  146.0387  139.6010  152.8227 H   0  0  0  0  0  0  0  0  0  0  0  0
  147.1185  139.1090  151.5319 H   0  0  0  0  0  0  0  0  0  0  0  0
  145.0333  137.7543  151.5064 H   0  0  0  0  0  0  0  0  0  0  0  0
  146.4529  136.7666  151.7296 H   0  0  0  0  0  0  0  0  0  0  0  0
  144.5009  137.6732  153.8947 H   0  0  0  0  0  0  0  0  0  0  0  0
  144.7043  136.0392  153.3183 H   0  0  0  0  0  0  0  0  0  0  0  0
  145.8252  136.5446  155.5224 H   0  0  0  0  0  0  0  0  0  0  0  0
  147.7924  135.6518  153.3667 H   0  0  0  0  0  0  0  0  0  0  0  0
  146.6228  134.6251  154.1903 H   0  0  0  0  0  0  0  0  0  0  0  0
  147.9346  135.3668  155.0954 H   0  0  0  0  0  0  0  0  0  0  0  0
  147.9418  137.8600  155.5063 H   0  0  0  0  0  0  0  0  0  0  0  0
  146.5140  138.8172  155.1874 H   0  0  0  0  0  0  0  0  0  0  0  0
  148.2525  137.7299  153.1051 H   0  0  0  0  0  0  0  0  0  0  0  0
  1  2  1  0  0  0  0
  1 21  1  0  0  0  0
  1 22  1  0  0  0  0
  1 23  1  0  0  0  0
  2 20  1  0  0  0  0
  2  3  2  0  0  0  0
  3  4  1  0  0  0  0
  3 24  1  0  0  0  0
  4  5  1  0  0  0  0
  4 19  2  0  0  0  0
  5  6  1  0  0  0  0
  5 25  1  0  0  0  0
  6  7  2  0  0  0  0
  6  8  1  0  0  0  0
  8  9  1  0  0  0  0
  9 10  1  0  0  0  0
  9 26  1  0  0  0  0
  9 27  1  0  0  0  0
 10 11  1  0  0  0  0
 10 12  1  0  0  0  0
 10 28  1  0  0  0  0
 11 29  1  0  0  0  0
 11 30  1  0  0  0  0
 11 31  1  0  0  0  0
 12 18  1  0  0  0  0
 12 13  1  0  0  0  0
 12 44  1  0  0  0  0
 13 14  1  0  0  0  0
 13 32  1  0  0  0  0
 13 33  1  0  0  0  0
 14 15  1  0  0  0  0
 14 34  1  0  0  0  0
 14 35  1  0  0  0  0
 15 16  1  0  0  0  0
 15 36  1  0  0  0  0
 15 37  1  0  0  0  0
 16 17  1  0  0  0  0
 16 18  1  0  0  0  0
 16 38  1  0  0  0  0
 17 39  1  0  0  0  0
 17 40  1  0  0  0  0
 17 41  1  0  0  0  0
 18 42  1  0  0  0  0
 18 43  1  0  0  0  0
 19 20  1  0  0  0  0
M  CHG  1   8  -1
M  CHG  1  12   1
M  END
> <s_m_source_file>
AV-unprocessed.smi

> <i_m_source_file_index>
2083

> <i_lp_mmshare_version>
43012

> <i_f3d_flags>
0

> <s_epik_input>
W0NIM11jMVtjSF1jKG5vMSlbTkhdQyg9TylbTkhdW0NIMl1bQ0BIXShbQ0gzXSlOMltDSDJdW0NIMl1bQ0gyXVtDQEBIXShbQ0gzXSlbQ0gyXTI=

> <s_epik_cmdline>
J2VwaWtfcHl0aG9uJywgJy1waCcsICc3LjAnLCAnLXRuJywgJzgnLCAnLW1hJywgJzIwMCcsICctbWV0YWxfYmluZGluZycsICctaW1hZScsICc8aW5maWxlLm1hZT4nLCAnLW9tYWUnLCAnPG91dGZpbGUubWFlPic=

> <r_epik_Ionization_Penalty>
6.76934

> <r_epik_Ionization_Penalty_Charging>
6.76934

> <r_epik_Ionization_Penalty_Neutral>
5.77849e-06

> <r_epik_State_Penalty>
6.79457

> <r_epik_Charging_Adjusted_Penalty>
13.5639

> <i_epik_Tot_Q>
0

> <i_epik_Tot_abs_Q>
2

> <r_epik_Metal_State_Penalty>
2.72837

> <b_epik_Metal_Only>
1

> <s_lp_Force_Field>
OPLS_2005

> <r_lp_Energy>
20.5905

> <b_lp_Chiralities_Consistent>
1

> <s_lp_Variant>
AV-unprocessed.smi:2083-19

> <Gold.Version>
5.8.1

> <Gold.Id.Protein>
6NUR|6NUR_protein|mol2

> <Gold.PLP.Fitness>
43.7925

> <Gold.PLP.PLP>
-33.5323

> <Gold.PLP.part.hbond>
-3.0517

> <Gold.PLP.part.metal>
0.0000

> <Gold.PLP.part.buried>
0.3105

> <Gold.PLP.part.nonpolar>
-30.8453

> <Gold.PLP.part.repulsive>
0.2201

> <Gold.PLP.ligand.clash>
0.0000

> <Gold.PLP.ligand.torsion>
0.9761

> <Gold.PLP.Chemscore.Hbond>
4.0000

> <Gold.PLP.Chemscore.CHOScore>
0.0000

> <Gold.PLP.Chemscore.Metal>
0.0000

> <Gold.Chemscore.Hbonds>
donor molecule, donor type, donor heavy atom, donor atom, acceptor molecule, acceptor atom, score
      L1  H    12    44       P1  7948  1.85
      P1  H  7989  7998       L1     8  0.99
      P1  H  7997  8010       L1     7  1.00

> <Gold.PLP.Chemscore.Internal.Correction>
0.2125

> <Gold.Rescore>
     Score         DG    S(hbond)    S(metal)    S(lipo)     H(rot)  DE(clash)    DE(int)     intcor
     16.36     -20.24       2.79        0.00      79.85       1.52       1.58       2.30       ----

> <Gold.Chemscore.Fitness>
16.3573

> <Gold.Chemscore.DG>
-20.2367

> <Gold.Chemscore.ZeroCoef>
-5.4800

> <Gold.Chemscore.Hbond>
2.7852

> <Gold.Chemscore.Metal>
0.0000

> <Gold.Chemscore.Lipo>
79.8533

> <Gold.Chemscore.Internal_Hbond>
0.0000

> <Gold.Chemscore.DEClash>
1.5790

> <Gold.Chemscore.DEInternal>
2.3004

> <Gold.Chemscore.Rot>
1.5190

> <Gold.Chemscore.Internal.Correction>
   9.000000E+99

> <Gold.Chemscore.Hbonds>
donor molecule, donor type, donor heavy atom, donor atom, acceptor molecule, acceptor atom, score
      L1  H    12    44       P1  7948  0.88
      P1  H  7989  7998       L1     8  0.73
      P1  H  7997  8010       L1     7  0.93

> <Gold.Chemscore.Hbond.Weighted>
-9.3026

> <Gold.Chemscore.Metal.Weighted>
-0.0000

> <Gold.Chemscore.Lipo.Weighted>
-9.3428

> <Gold.Chemscore.Internal_Hbond.Weighted>
0.0000

> <Gold.Chemscore.DEClash.Weighted>
1.5790

> <Gold.Chemscore.DEInternal.Weighted>
2.3004

> <Gold.Chemscore.Rot.Weighted>
3.8886

> <Gold.Chemscore.Internal.Correction.Weighted>
   9.000000E+99

> <Gold.Protein.RotatedTorsions>
[ 6907 6896 6895 6894 ] final  105.63 input  -60.11 | X-H torsion
[ 7974 7965 7964 7962 ] final  -57.52 input  175.53 | X-H torsion
[ 8008 7997 7996 7995 ] final   69.16 input   59.86 | X-H torsion
[ 10167 10162 10161 10158 ] final  108.82 input  -65.29 | X-H torsion
[ 10718 10713 10712 10709 ] final  133.60 input   66.30 | X-H torsion
[ 10763 10752 10751 10750 ] final -102.27 input  -60.55 | X-H torsion
[ 11005 11000 10999 10996 ] final  132.54 input  -57.11 | X-H torsion

> <Gold.Protein.ActiveResidues>
 VAL166  LYS551  ARG553  GLY616  TRP617  ASP618  TYR619  PRO620  LYS621  CYS622 
 ASP623  PHE694  ASN695  SER759  ASP760  ASP761  ALA762  ILE779  LEU786  VAL792 
 PHE793  MET794  SER795  GLU796  ALA797  LYS798  CYS799  TRP800  GLU811  SER814 

> <Gold.Protein.RotatedAtoms>
  152.5223  133.9501  159.7667 H   0  0  0  0  0  0  0  0  0  0  0  0  # atno 6907 bound_to 6896
  150.9812  133.6235  159.2729 H   0  0  0  0  0  0  0  0  0  0  0  0  # atno 6908 bound_to 6896
  151.3411  135.0870  159.9424 H   0  0  0  0  0  0  0  0  0  0  0  0  # atno 6909 bound_to 6896
  145.8501  140.8358  142.9990 H   0  0  0  0  0  0  0  0  0  0  0  0  # atno 7974 bound_to 7965
  155.7194  140.3493  155.5009 H   0  0  0  0  0  0  0  0  0  0  0  0  # atno 8008 bound_to 7997
  155.9284  140.1079  157.1174 H   0  0  0  0  0  0  0  0  0  0  0  0  # atno 8009 bound_to 7997
  154.4081  140.1236  156.4757 H   0  0  0  0  0  0  0  0  0  0  0  0  # atno 8010 bound_to 7997
  139.6816  144.7117  151.1506 H   0  0  0  0  0  0  0  0  0  0  0  0  # atno 10167 bound_to 10162
  157.4757  131.1083  150.9746 H   0  0  0  0  0  0  0  0  0  0  0  0  # atno 10718 bound_to 10713
  154.7721  135.4866  153.9671 H   0  0  0  0  0  0  0  0  0  0  0  0  # atno 10763 bound_to 10752
  153.1381  135.6767  153.9077 H   0  0  0  0  0  0  0  0  0  0  0  0  # atno 10764 bound_to 10752
  153.8760  135.3138  155.3422 H   0  0  0  0  0  0  0  0  0  0  0  0  # atno 10765 bound_to 10752
  139.9796  134.9552  156.9596 H   0  0  0  0  0  0  0  0  0  0  0  0  # atno 11005 bound_to 11000
  144.6729  140.0940  143.7464 LP  0  0  0  0  0  0  0  0  0  0  0  0  # atno 17320 bound_to 7965
  145.9368  139.2642  143.1292 LP  0  0  0  0  0  0  0  0  0  0  0  0  # atno 17321 bound_to 7965
  140.7654  143.5691  150.9015 LP  0  0  0  0  0  0  0  0  0  0  0  0  # atno 17342 bound_to 10162
  139.9363  143.6434  152.3064 LP  0  0  0  0  0  0  0  0  0  0  0  0  # atno 17343 bound_to 10162
  157.0496  130.5782  149.5368 LP  0  0  0  0  0  0  0  0  0  0  0  0  # atno 17370 bound_to 10713
  156.0095  130.5186  150.7943 LP  0  0  0  0  0  0  0  0  0  0  0  0  # atno 17371 bound_to 10713
  140.5123  134.0989  155.7273 LP  0  0  0  0  0  0  0  0  0  0  0  0  # atno 17394 bound_to 11000
  141.1470  133.9038  157.2192 LP  0  0  0  0  0  0  0  0  0  0  0  0  # atno 17395 bound_to 11000

$$$$
