AV-unprocessed.smi:229|AV-procd|sdf|1747|dock3
  -GOLD-   2262020263D 1   1.00000     0.00000
 Structure written by MMmdl.
 58 62  0  0  0  0  0  0  0  0  1 V2000
  146.6126  133.9303  152.6778 C   0  0  0  0  0  0  0  0  0  0  0  0
  146.2498  134.1212  154.1565 C   0  0  0  0  0  0  0  0  0  0  0  0
  147.4362  134.5518  155.0346 C   0  0  2  0  0  0  0  0  0  0  0  0
  148.0583  135.8883  154.5896 C   0  0  0  0  0  0  0  0  0  0  0  0
  149.2456  136.1741  155.3846 N   0  0  0  0  0  0  0  0  0  0  0  0
  149.6850  137.4566  155.3213 C   0  0  0  0  0  0  0  0  0  0  0  0
  149.4431  138.2047  154.2113 N   0  0  0  0  0  0  0  0  0  0  0  0
  149.8641  139.4713  154.1449 C   0  0  0  0  0  0  0  0  0  0  0  0
  150.5372  140.1756  155.0564 N   0  0  0  0  0  0  0  0  0  0  0  0
  150.7905  139.4293  156.1690 C   0  0  0  0  0  0  0  0  0  0  0  0
  150.4053  138.0753  156.3823 C   0  0  0  0  0  0  0  0  0  0  0  0
  150.8520  137.6481  157.6280 N   0  0  0  0  0  0  0  0  0  0  0  0
  151.4544  138.6927  158.1269 C   0  0  0  0  0  0  0  0  0  0  0  0
  151.4624  139.8061  157.3185 N   0  0  0  0  0  0  0  0  0  0  0  0
  152.0568  141.0953  157.6254 C   0  0  0  0  0  0  0  0  0  0  0  0
  151.0138  142.2296  157.6575 C   0  0  2  0  0  0  0  0  0  0  0  0
  150.4505  142.4284  156.3745 O   0  0  0  0  0  0  0  0  0  0  0  0
  151.5848  143.5502  158.2136 C   0  0  2  0  0  0  0  0  0  0  0  0
  152.2663  143.4770  159.5832 C   0  0  0  0  0  0  0  0  0  0  0  0
  152.1520  144.9125  160.0458 C   0  0  0  0  0  0  0  0  0  0  0  0
  150.7686  145.2969  159.5271 C   0  0  0  0  0  0  0  0  0  0  0  0
  150.5881  144.5644  158.3182 O   0  0  0  0  0  0  0  0  0  0  0  0
  150.2348  135.1026  155.3291 C   0  0  0  0  0  0  0  0  0  0  0  0
  149.6018  133.7508  155.7315 C   0  0  1  0  0  0  0  0  0  0  0  0
  150.5639  132.5967  155.4691 C   0  0  0  0  0  0  0  0  0  0  0  0
  151.2411  132.3947  156.8160 C   0  0  0  0  0  0  0  0  0  0  0  0
  150.1666  132.5605  157.7217 O   0  0  0  0  0  0  0  0  0  0  0  0
  149.3489  133.6269  157.2528 C   0  0  0  0  0  0  0  0  0  0  0  0
  148.4253  133.5239  154.9494 O   0  0  0  0  0  0  0  0  0  0  0  0
  145.7260  133.6881  152.0919 H   0  0  0  0  0  0  0  0  0  0  0  0
  147.3268  133.1185  152.5405 H   0  0  0  0  0  0  0  0  0  0  0  0
  147.0491  134.8374  152.2592 H   0  0  0  0  0  0  0  0  0  0  0  0
  145.4698  134.8805  154.2230 H   0  0  0  0  0  0  0  0  0  0  0  0
  145.8120  133.2026  154.5491 H   0  0  0  0  0  0  0  0  0  0  0  0
  147.0887  134.6408  156.0643 H   0  0  0  0  0  0  0  0  0  0  0  0
  148.3419  135.8400  153.5374 H   0  0  0  0  0  0  0  0  0  0  0  0
  147.3233  136.6863  154.6811 H   0  0  0  0  0  0  0  0  0  0  0  0
  149.6279  139.9954  153.2308 H   0  0  0  0  0  0  0  0  0  0  0  0
  151.9117  138.6805  159.1056 H   0  0  0  0  0  0  0  0  0  0  0  0
  152.5576  141.0173  158.5909 H   0  0  0  0  0  0  0  0  0  0  0  0
  152.8330  141.3068  156.8890 H   0  0  0  0  0  0  0  0  0  0  0  0
  150.1937  141.9239  158.3081 H   0  0  0  0  0  0  0  0  0  0  0  0
  149.7791  143.0898  156.4405 H   0  0  0  0  0  0  0  0  0  0  0  0
  152.3179  143.9306  157.5003 H   0  0  0  0  0  0  0  0  0  0  0  0
  151.7228  142.8293  160.2719 H   0  0  0  0  0  0  0  0  0  0  0  0
  153.2970  143.1259  159.5265 H   0  0  0  0  0  0  0  0  0  0  0  0
  152.2493  145.0264  161.1258 H   0  0  0  0  0  0  0  0  0  0  0  0
  152.9175  145.5240  159.5658 H   0  0  0  0  0  0  0  0  0  0  0  0
  149.9991  144.9877  160.2358 H   0  0  0  0  0  0  0  0  0  0  0  0
  150.6666  146.3698  159.3632 H   0  0  0  0  0  0  0  0  0  0  0  0
  150.6225  135.0422  154.3109 H   0  0  0  0  0  0  0  0  0  0  0  0
  151.0796  135.3302  155.9810 H   0  0  0  0  0  0  0  0  0  0  0  0
  150.0071  131.6935  155.2144 H   0  0  0  0  0  0  0  0  0  0  0  0
  151.2703  132.7873  154.6607 H   0  0  0  0  0  0  0  0  0  0  0  0
  151.7037  131.4124  156.9146 H   0  0  0  0  0  0  0  0  0  0  0  0
  151.9998  133.1580  156.9956 H   0  0  0  0  0  0  0  0  0  0  0  0
  149.6166  134.5444  157.7785 H   0  0  0  0  0  0  0  0  0  0  0  0
  148.3111  133.3991  157.4940 H   0  0  0  0  0  0  0  0  0  0  0  0
  1  2  1  0  0  0  0
  1 30  1  0  0  0  0
  1 31  1  0  0  0  0
  1 32  1  0  0  0  0
  2  3  1  0  0  0  0
  2 33  1  0  0  0  0
  2 34  1  0  0  0  0
  3 29  1  0  0  0  0
  3  4  1  0  0  0  0
  3 35  1  0  0  0  0
  4  5  1  0  0  0  0
  4 36  1  0  0  0  0
  4 37  1  0  0  0  0
  5  6  1  0  0  0  0
  5 23  1  0  0  0  0
  6 11  1  0  0  0  0
  6  7  2  0  0  0  0
  7  8  1  0  0  0  0
  8  9  2  0  0  0  0
  8 38  1  0  0  0  0
  9 10  1  0  0  0  0
 10 14  1  0  0  0  0
 10 11  2  0  0  0  0
 11 12  1  0  0  0  0
 12 13  2  0  0  0  0
 13 14  1  0  0  0  0
 13 39  1  0  0  0  0
 14 15  1  0  0  0  0
 15 16  1  0  0  0  0
 15 40  1  0  0  0  0
 15 41  1  0  0  0  0
 16 17  1  0  0  0  0
 16 18  1  0  0  0  0
 16 42  1  0  0  0  0
 17 43  1  0  0  0  0
 18 22  1  0  0  0  0
 18 19  1  0  0  0  0
 18 44  1  0  0  0  0
 19 20  1  0  0  0  0
 19 45  1  0  0  0  0
 19 46  1  0  0  0  0
 20 21  1  0  0  0  0
 20 47  1  0  0  0  0
 20 48  1  0  0  0  0
 21 22  1  0  0  0  0
 21 49  1  0  0  0  0
 21 50  1  0  0  0  0
 23 24  1  0  0  0  0
 23 51  1  0  0  0  0
 23 52  1  0  0  0  0
 24 28  1  0  0  0  0
 24 25  1  0  0  0  0
 24 29  1  0  0  0  0
 25 26  1  0  0  0  0
 25 53  1  0  0  0  0
 25 54  1  0  0  0  0
 26 27  1  0  0  0  0
 26 55  1  0  0  0  0
 26 56  1  0  0  0  0
 27 28  1  0  0  0  0
 28 57  1  0  0  0  0
 28 58  1  0  0  0  0
M  END
> <s_m_source_file>
AV-unprocessed.smi

> <i_m_source_file_index>
229

> <i_lp_mmshare_version>
43012

> <i_f3d_flags>
0

> <s_epik_input>
W0NIMl0xT1tDSDJdW0NIMl1bQ0BdMTJbQ0gyXU4oW0NIMl1bQ0BIXShPMilbQ0gyXVtDSDNdKWMobltjSF1uMyljKGMzNCluW2NIXW40W0NIMl1bQ0BIXShbT0hdKVtDQEBIXTVbQ0gyXVtDSDJdW0NIMl1PNQ==

> <s_epik_cmdline>
J2VwaWtfcHl0aG9uJywgJy1waCcsICc3LjAnLCAnLXRuJywgJzgnLCAnLW1hJywgJzIwMCcsICctbWV0YWxfYmluZGluZycsICctaW1hZScsICc8aW5maWxlLm1hZT4nLCAnLW9tYWUnLCAnPG91dGZpbGUubWFlPic=

> <r_lp_tautomer_probability>
1

> <r_epik_Ionization_Penalty>
0.00318402

> <r_epik_Ionization_Penalty_Charging>
0

> <r_epik_Ionization_Penalty_Neutral>
0.00318402

> <r_epik_State_Penalty>
0.00215642

> <r_epik_Charging_Adjusted_Penalty>
0.00215642

> <i_epik_Tot_Q>
0

> <i_epik_Tot_abs_Q>
0

> <r_epik_Metal_State_Penalty>
-0

> <b_epik_Metal_Only>
0

> <s_lp_Force_Field>
OPLS_2005

> <r_lp_Energy>
57.781

> <b_lp_Chiralities_Consistent>
1

> <s_lp_Variant>
AV-unprocessed.smi:229-1

> <Gold.Version>
5.8.1

> <Gold.Id.Protein>
6NUR|6NUR_protein|mol2

> <Gold.PLP.Fitness>
46.0130

> <Gold.PLP.PLP>
-36.6581

> <Gold.PLP.part.hbond>
-3.0000

> <Gold.PLP.part.metal>
0.0000

> <Gold.PLP.part.buried>
-4.5692

> <Gold.PLP.part.nonpolar>
-29.9850

> <Gold.PLP.part.repulsive>
1.0550

> <Gold.PLP.ligand.clash>
0.0000

> <Gold.PLP.ligand.torsion>
0.5170

> <Gold.PLP.Chemscore.Hbond>
2.3440

> <Gold.PLP.Chemscore.CHOScore>
1.0000

> <Gold.PLP.Chemscore.Metal>
0.0000

> <Gold.Chemscore.Hbonds>
donor molecule, donor type, donor heavy atom, donor atom, acceptor molecule, acceptor atom, score
      L1  H    17    43       P1  8028  0.98
      P1  H  6896  6908       L1    27  0.79
      P1  H  7989  7998       L1     9  0.30
      L1  C     8    38       P1  7957  1.00

> <Gold.PLP.Chemscore.Internal.Correction>
0.3570

> <Gold.Rescore>
     Score         DG    S(hbond)    S(metal)    S(lipo)     H(rot)  DE(clash)    DE(int)     intcor
     11.97     -13.58       0.84        0.00      99.03       2.46       0.91       0.70       ----

> <Gold.Chemscore.Fitness>
11.9668

> <Gold.Chemscore.DG>
-13.5764

> <Gold.Chemscore.ZeroCoef>
-5.4800

> <Gold.Chemscore.Hbond>
0.8401

> <Gold.Chemscore.Metal>
0.0000

> <Gold.Chemscore.Lipo>
99.0253

> <Gold.Chemscore.Internal_Hbond>
0.0000

> <Gold.Chemscore.DEClash>
0.9092

> <Gold.Chemscore.DEInternal>
0.7004

> <Gold.Chemscore.Rot>
2.4591

> <Gold.Chemscore.Internal.Correction>
   9.000000E+99

> <Gold.Chemscore.Hbonds>
donor molecule, donor type, donor heavy atom, donor atom, acceptor molecule, acceptor atom, score
      L1  H    17    43       P1  8028  0.88
      P1  H  6896  6908       L1    27  0.05

> <Gold.Chemscore.Hbond.Weighted>
-2.8058

> <Gold.Chemscore.Metal.Weighted>
-0.0000

> <Gold.Chemscore.Lipo.Weighted>
-11.5860

> <Gold.Chemscore.Internal_Hbond.Weighted>
0.0000

> <Gold.Chemscore.DEClash.Weighted>
0.9092

> <Gold.Chemscore.DEInternal.Weighted>
0.7004

> <Gold.Chemscore.Rot.Weighted>
6.2953

> <Gold.Chemscore.Internal.Correction.Weighted>
   9.000000E+99

> <Gold.Protein.RotatedTorsions>
[ 6907 6896 6895 6894 ] final   80.98 input  -60.11 | X-H torsion
[ 7974 7965 7964 7962 ] final   94.40 input  175.53 | X-H torsion
[ 8008 7997 7996 7995 ] final   27.05 input   59.86 | X-H torsion
[ 10167 10162 10161 10158 ] final  160.07 input  -65.29 | X-H torsion
[ 10718 10713 10712 10709 ] final  152.11 input   66.30 | X-H torsion
[ 10763 10752 10751 10750 ] final   56.06 input  -60.55 | X-H torsion
[ 11005 11000 10999 10996 ] final    0.11 input  -57.11 | X-H torsion

> <Gold.Protein.ActiveResidues>
 VAL166  LYS551  ARG553  GLY616  TRP617  ASP618  TYR619  PRO620  LYS621  CYS622 
 ASP623  PHE694  ASN695  SER759  ASP760  ASP761  ALA762  ILE779  LEU786  VAL792 
 PHE793  MET794  SER795  GLU796  ALA797  LYS798  CYS799  TRP800  GLU811  SER814 

> <Gold.Protein.RotatedAtoms>
  152.5253  134.3274  159.9170 H   0  0  0  0  0  0  0  0  0  0  0  0  # atno 6907 bound_to 6896
  151.3224  133.4028  159.2663 H   0  0  0  0  0  0  0  0  0  0  0  0  # atno 6908 bound_to 6896
  150.9948  134.9292  159.7978 H   0  0  0  0  0  0  0  0  0  0  0  0  # atno 6909 bound_to 6896
  145.4660  139.2284  143.2961 H   0  0  0  0  0  0  0  0  0  0  0  0  # atno 7974 bound_to 7965
  155.0369  140.3165  155.4738 H   0  0  0  0  0  0  0  0  0  0  0  0  # atno 8008 bound_to 7997
  156.2863  140.2170  156.5435 H   0  0  0  0  0  0  0  0  0  0  0  0  # atno 8009 bound_to 7997
  154.7323  140.0480  157.0725 H   0  0  0  0  0  0  0  0  0  0  0  0  # atno 8010 bound_to 7997
  139.4837  144.4670  151.8628 H   0  0  0  0  0  0  0  0  0  0  0  0  # atno 10167 bound_to 10162
  157.2621  131.0800  151.1658 H   0  0  0  0  0  0  0  0  0  0  0  0  # atno 10718 bound_to 10713
  152.9826  135.5689  154.5168 H   0  0  0  0  0  0  0  0  0  0  0  0  # atno 10763 bound_to 10752
  154.4663  135.2783  155.1678 H   0  0  0  0  0  0  0  0  0  0  0  0  # atno 10764 bound_to 10752
  154.3244  135.6262  153.5576 H   0  0  0  0  0  0  0  0  0  0  0  0  # atno 10765 bound_to 10752
  140.6302  133.9582  155.8270 H   0  0  0  0  0  0  0  0  0  0  0  0  # atno 11005 bound_to 11000
  146.2424  140.5434  142.8928 LP  0  0  0  0  0  0  0  0  0  0  0  0  # atno 17320 bound_to 7965
  144.7974  140.6148  143.6501 LP  0  0  0  0  0  0  0  0  0  0  0  0  # atno 17321 bound_to 7965
  140.4136  144.2337  150.5888 LP  0  0  0  0  0  0  0  0  0  0  0  0  # atno 17342 bound_to 10162
  140.4943  143.2337  151.8773 LP  0  0  0  0  0  0  0  0  0  0  0  0  # atno 17343 bound_to 10162
  157.3164  130.6915  149.6244 LP  0  0  0  0  0  0  0  0  0  0  0  0  # atno 17370 bound_to 10713
  155.9664  130.4348  150.5065 LP  0  0  0  0  0  0  0  0  0  0  0  0  # atno 17371 bound_to 10713
  141.0680  134.0247  157.3566 LP  0  0  0  0  0  0  0  0  0  0  0  0  # atno 17394 bound_to 11000
  139.9119  135.0191  156.7725 LP  0  0  0  0  0  0  0  0  0  0  0  0  # atno 17395 bound_to 11000

$$$$
