AV-unprocessed.smi:1174|AV-procd|sdf|4947|dock1
  -GOLD-   22720 3533D 1   1.00000     0.00000
 Structure written by MMmdl.
 41 42  0  0  0  0  0  0  0  0  1 V2000
  146.2962  133.1226  153.7396 C   0  0  0  0  0  0  0  0  0  0  0  0
  147.6101  133.1590  152.9440 C   0  0  1  0  0  0  0  0  0  0  0  0
  147.3587  133.4431  151.4504 C   0  0  0  0  0  0  0  0  0  0  0  0
  146.1231  132.8469  150.9732 N   0  0  0  0  0  0  0  0  0  0  0  0
  145.9611  131.7292  150.1814 C   0  0  0  0  0  0  0  0  0  0  0  0
  144.6196  131.5494  150.0024 C   0  0  0  0  0  0  0  0  0  0  0  0
  144.0349  132.6224  150.7316 C   0  0  0  0  0  0  0  0  0  0  0  0
  144.9374  133.3981  151.3102 N   0  0  0  0  0  0  0  0  0  0  0  0
  148.5011  134.1750  153.4999 N   0  0  0  0  0  0  0  0  0  0  0  0
  149.3271  134.0032  154.5429 C   0  0  0  0  0  0  0  0  0  0  0  0
  149.3997  132.9546  155.1840 O   0  0  0  0  0  0  0  0  0  0  0  0
  150.2072  135.2026  154.9156 C   0  0  2  0  0  0  0  0  0  0  0  0
  151.0696  134.9013  156.1641 C   0  0  0  0  0  0  0  0  0  0  0  0
  151.8550  136.1430  156.6281 C   0  0  0  0  0  0  0  0  0  0  0  0
  150.9257  137.3622  156.7709 C   0  0  0  0  0  0  0  0  0  0  0  0
  150.2380  137.5858  155.4878 N   0  0  0  0  0  0  0  0  0  0  0  0
  150.5220  138.5593  154.5864 C   0  0  0  0  0  0  0  0  0  0  0  0
  150.0480  138.3517  153.3543 N   0  0  0  0  0  0  0  0  0  0  0  0
  151.1957  139.5554  154.8446 O   0  0  0  0  0  0  0  0  0  0  0  0
  149.3493  136.4642  155.1590 C   0  0  0  0  0  0  0  0  0  0  0  0
  145.6221  132.3606  153.3474 H   0  0  0  0  0  0  0  0  0  0  0  0
  145.7775  134.0808  153.6945 H   0  0  0  0  0  0  0  0  0  0  0  0
  146.4762  132.8899  154.7896 H   0  0  0  0  0  0  0  0  0  0  0  0
  148.0841  132.1791  153.0269 H   0  0  0  0  0  0  0  0  0  0  0  0
  147.3079  134.5186  151.2743 H   0  0  0  0  0  0  0  0  0  0  0  0
  148.1844  133.0674  150.8445 H   0  0  0  0  0  0  0  0  0  0  0  0
  146.8042  131.1597  149.8185 H   0  0  0  0  0  0  0  0  0  0  0  0
  144.1305  130.7703  149.4368 H   0  0  0  0  0  0  0  0  0  0  0  0
  142.9886  132.8593  150.8561 H   0  0  0  0  0  0  0  0  0  0  0  0
  148.5059  135.0741  153.0408 H   0  0  0  0  0  0  0  0  0  0  0  0
  150.8807  135.4068  154.0807 H   0  0  0  0  0  0  0  0  0  0  0  0
  150.4325  134.5663  156.9842 H   0  0  0  0  0  0  0  0  0  0  0  0
  151.7608  134.0829  155.9581 H   0  0  0  0  0  0  0  0  0  0  0  0
  152.3521  135.9365  157.5763 H   0  0  0  0  0  0  0  0  0  0  0  0
  152.6425  136.3679  155.9074 H   0  0  0  0  0  0  0  0  0  0  0  0
  150.1824  137.1730  157.5468 H   0  0  0  0  0  0  0  0  0  0  0  0
  151.4960  138.2218  157.1224 H   0  0  0  0  0  0  0  0  0  0  0  0
  150.2164  139.0320  152.6279 H   0  0  0  0  0  0  0  0  0  0  0  0
  149.5209  137.5135  153.1566 H   0  0  0  0  0  0  0  0  0  0  0  0
  148.7227  136.6733  154.2899 H   0  0  0  0  0  0  0  0  0  0  0  0
  148.6562  136.3038  155.9866 H   0  0  0  0  0  0  0  0  0  0  0  0
  1  2  1  0  0  0  0
  1 21  1  0  0  0  0
  1 22  1  0  0  0  0
  1 23  1  0  0  0  0
  2  3  1  0  0  0  0
  2  9  1  0  0  0  0
  2 24  1  0  0  0  0
  3  4  1  0  0  0  0
  3 25  1  0  0  0  0
  3 26  1  0  0  0  0
  4  8  1  0  0  0  0
  4  5  1  0  0  0  0
  5  6  2  0  0  0  0
  5 27  1  0  0  0  0
  6  7  1  0  0  0  0
  6 28  1  0  0  0  0
  7  8  2  0  0  0  0
  7 29  1  0  0  0  0
  9 10  1  0  0  0  0
  9 30  1  0  0  0  0
 10 11  2  0  0  0  0
 10 12  1  0  0  0  0
 12 20  1  0  0  0  0
 12 13  1  0  0  0  0
 12 31  1  0  0  0  0
 13 14  1  0  0  0  0
 13 32  1  0  0  0  0
 13 33  1  0  0  0  0
 14 15  1  0  0  0  0
 14 34  1  0  0  0  0
 14 35  1  0  0  0  0
 15 16  1  0  0  0  0
 15 36  1  0  0  0  0
 15 37  1  0  0  0  0
 16 17  1  0  0  0  0
 16 20  1  0  0  0  0
 17 18  1  0  0  0  0
 17 19  2  0  0  0  0
 18 38  1  0  0  0  0
 18 39  1  0  0  0  0
 20 40  1  0  0  0  0
 20 41  1  0  0  0  0
M  END
> <s_m_source_file>
AV-unprocessed.smi

> <i_m_source_file_index>
1174

> <i_lp_mmshare_version>
43012

> <i_f3d_flags>
0

> <s_epik_input>
bjFbY0hdW2NIXVtjSF1uMVtDSDJdW0NAQEhdKFtDSDNdKVtOSF1DKD1PKVtDQEBIXTJbQ0gyXVtDSDJdW0NIMl1OKFtDSDJdMilDKD1PKVtOSDJd

> <s_epik_cmdline>
J2VwaWtfcHl0aG9uJywgJy1waCcsICc3LjAnLCAnLXRuJywgJzgnLCAnLW1hJywgJzIwMCcsICctbWV0YWxfYmluZGluZycsICctaW1hZScsICc8aW5maWxlLm1hZT4nLCAnLW9tYWUnLCAnPG91dGZpbGUubWFlPic=

> <r_lp_tautomer_probability>
1

> <r_epik_Ionization_Penalty>
0.000372452

> <r_epik_Ionization_Penalty_Charging>
0

> <r_epik_Ionization_Penalty_Neutral>
0.000372452

> <r_epik_State_Penalty>
-0

> <r_epik_Charging_Adjusted_Penalty>
0

> <i_epik_Tot_Q>
0

> <i_epik_Tot_abs_Q>
0

> <r_epik_Metal_State_Penalty>
-0

> <b_epik_Metal_Only>
0

> <s_lp_Force_Field>
OPLS_2005

> <r_lp_Energy>
26.6636

> <b_lp_Chiralities_Consistent>
1

> <s_lp_Variant>
AV-unprocessed.smi:1174-2

> <Gold.Version>
5.8.1

> <Gold.Id.Protein>
6NUR|6NUR_protein|mol2

> <Gold.PLP.Fitness>
46.4468

> <Gold.PLP.PLP>
-32.2895

> <Gold.PLP.part.hbond>
-4.2327

> <Gold.PLP.part.metal>
0.0000

> <Gold.PLP.part.buried>
-3.9953

> <Gold.PLP.part.nonpolar>
-23.3636

> <Gold.PLP.part.repulsive>
0.2720

> <Gold.PLP.ligand.clash>
1.6827

> <Gold.PLP.ligand.torsion>
0.9057

> <Gold.PLP.Chemscore.Hbond>
3.8560

> <Gold.PLP.Chemscore.CHOScore>
2.0000

> <Gold.PLP.Chemscore.Metal>
0.0000

> <Gold.Chemscore.Hbonds>
donor molecule, donor type, donor heavy atom, donor atom, acceptor molecule, acceptor atom, score
      L1  H     9    30       P1  7948  1.00
      L1  H    18    38       P1  7957  1.00
      L1  H    18    39       P1  7948  0.93
      P1  H  7989  7998       L1    19  1.00
      L1  C     5    27       P1 10747  1.00
      L1  C     7    29       P1 10186  0.23

> <Gold.PLP.Chemscore.Internal.Correction>
0.0833

> <Gold.Rescore>
     Score         DG    S(hbond)    S(metal)    S(lipo)     H(rot)  DE(clash)    DE(int)     intcor
     17.79     -19.95       3.47        0.00      64.48       1.82       0.04       2.12       ----

> <Gold.Chemscore.Fitness>
17.7865

> <Gold.Chemscore.DG>
-19.9528

> <Gold.Chemscore.ZeroCoef>
-5.4800

> <Gold.Chemscore.Hbond>
3.4699

> <Gold.Chemscore.Metal>
0.0000

> <Gold.Chemscore.Lipo>
64.4803

> <Gold.Chemscore.Internal_Hbond>
0.0000

> <Gold.Chemscore.DEClash>
0.0447

> <Gold.Chemscore.DEInternal>
2.1217

> <Gold.Chemscore.Rot>
1.8206

> <Gold.Chemscore.Internal.Correction>
   9.000000E+99

> <Gold.Chemscore.Hbonds>
donor molecule, donor type, donor heavy atom, donor atom, acceptor molecule, acceptor atom, score
      L1  H     9    30       P1  7948  0.73
      L1  H    18    38       P1  7957  0.48
      L1  H    18    39       P1  7948  0.76
      P1  H  7989  7998       L1    19  0.98

> <Gold.Chemscore.Hbond.Weighted>
-11.5893

> <Gold.Chemscore.Metal.Weighted>
-0.0000

> <Gold.Chemscore.Lipo.Weighted>
-7.5442

> <Gold.Chemscore.Internal_Hbond.Weighted>
0.0000

> <Gold.Chemscore.DEClash.Weighted>
0.0447

> <Gold.Chemscore.DEInternal.Weighted>
2.1217

> <Gold.Chemscore.Rot.Weighted>
4.6607

> <Gold.Chemscore.Internal.Correction.Weighted>
   9.000000E+99

> <Gold.Protein.RotatedTorsions>
[ 6907 6896 6895 6894 ] final  -21.31 input  -60.11 | X-H torsion
[ 7974 7965 7964 7962 ] final   47.50 input  175.53 | X-H torsion
[ 8008 7997 7996 7995 ] final   95.29 input   59.86 | X-H torsion
[ 10167 10162 10161 10158 ] final  -84.02 input  -65.29 | X-H torsion
[ 10718 10713 10712 10709 ] final  -45.56 input   66.30 | X-H torsion
[ 10763 10752 10751 10750 ] final  178.62 input  -60.55 | X-H torsion
[ 11005 11000 10999 10996 ] final  -53.39 input  -57.11 | X-H torsion

> <Gold.Protein.ActiveResidues>
 VAL166  LYS551  ARG553  GLY616  TRP617  ASP618  TYR619  PRO620  LYS621  CYS622 
 ASP623  PHE694  ASN695  SER759  ASP760  ASP761  ALA762  ILE779  LEU786  VAL792 
 PHE793  MET794  SER795  GLU796  ALA797  LYS798  CYS799  TRP800  GLU811  SER814 

> <Gold.Protein.RotatedAtoms>
  151.2353  135.0569  159.9003 H   0  0  0  0  0  0  0  0  0  0  0  0  # atno 6907 bound_to 6896
  152.5400  134.0493  159.8113 H   0  0  0  0  0  0  0  0  0  0  0  0  # atno 6908 bound_to 6896
  151.0679  133.5442  159.2661 H   0  0  0  0  0  0  0  0  0  0  0  0  # atno 6909 bound_to 6896
  146.0292  139.4743  142.9848 H   0  0  0  0  0  0  0  0  0  0  0  0  # atno 7974 bound_to 7965
  156.0672  140.3288  155.7532 H   0  0  0  0  0  0  0  0  0  0  0  0  # atno 8008 bound_to 7997
  155.5362  140.0597  157.2896 H   0  0  0  0  0  0  0  0  0  0  0  0  # atno 8009 bound_to 7997
  154.4511  140.1918  156.0534 H   0  0  0  0  0  0  0  0  0  0  0  0  # atno 8010 bound_to 7997
  140.4172  143.2599  151.8939 H   0  0  0  0  0  0  0  0  0  0  0  0  # atno 10167 bound_to 10162
  156.2271  130.4170  149.8921 H   0  0  0  0  0  0  0  0  0  0  0  0  # atno 10718 bound_to 10713
  154.5100  135.2788  155.1350 H   0  0  0  0  0  0  0  0  0  0  0  0  # atno 10763 bound_to 10752
  154.2949  135.6259  153.5404 H   0  0  0  0  0  0  0  0  0  0  0  0  # atno 10764 bound_to 10752
  152.9917  135.5683  154.5563 H   0  0  0  0  0  0  0  0  0  0  0  0  # atno 10765 bound_to 10752
  141.0974  133.6622  156.4165 H   0  0  0  0  0  0  0  0  0  0  0  0  # atno 11005 bound_to 11000
  145.7068  141.0119  143.1474 LP  0  0  0  0  0  0  0  0  0  0  0  0  # atno 17320 bound_to 7965
  144.7023  139.8710  143.7440 LP  0  0  0  0  0  0  0  0  0  0  0  0  # atno 17321 bound_to 7965
  139.4782  144.5475  151.8435 LP  0  0  0  0  0  0  0  0  0  0  0  0  # atno 17342 bound_to 10162
  140.4574  144.1771  150.5903 LP  0  0  0  0  0  0  0  0  0  0  0  0  # atno 17343 bound_to 10162
  156.6548  130.8758  151.3537 LP  0  0  0  0  0  0  0  0  0  0  0  0  # atno 17370 bound_to 10713
  157.7115  130.9446  150.1107 LP  0  0  0  0  0  0  0  0  0  0  0  0  # atno 17371 bound_to 10713
  140.5107  134.6397  157.5283 LP  0  0  0  0  0  0  0  0  0  0  0  0  # atno 17394 bound_to 11000
  139.9814  134.7131  155.9852 LP  0  0  0  0  0  0  0  0  0  0  0  0  # atno 17395 bound_to 11000

$$$$
