AV-unprocessed.smi:1207|AV-procd|sdf|5050|dock9
  -GOLD-   22720 4 83D 1   1.00000     0.00000
 Structure written by MMmdl.
 51 53  0  0  0  0  0  0  0  0  1 V2000
  153.2516  142.7478  162.0507 C   0  0  0  0  0  0  0  0  0  0  0  0
  152.8690  142.1659  160.7014 C   0  0  0  0  0  0  0  0  0  0  0  0
  151.9284  142.8506  159.8992 C   0  0  0  0  0  0  0  0  0  0  0  0
  151.5470  142.3434  158.6376 C   0  0  0  0  0  0  0  0  0  0  0  0
  150.6590  142.8427  157.7000 N   0  0  0  0  0  0  0  0  0  0  0  0
  150.7380  141.9242  156.7415 C   0  0  0  0  0  0  0  0  0  0  0  0
  151.5722  140.8872  156.9475 N   0  0  0  0  0  0  0  0  0  0  0  0
  151.8181  139.7749  156.0463 C   0  0  0  0  0  0  0  0  0  0  0  0
  150.5446  139.3211  155.3058 C   0  0  1  0  0  0  0  0  0  0  0  0
  150.3793  140.1301  154.1565 O   0  0  0  0  0  0  0  0  0  0  0  0
  150.6245  137.8408  154.8719 C   0  0  0  0  0  0  0  0  0  0  0  0
  150.4840  136.8629  155.9528 N   0  0  0  0  0  0  0  0  0  0  0  0
  150.8818  135.5386  155.4826 C   0  0  0  0  0  0  0  0  0  0  0  0
  149.1280  136.8406  156.5077 C   0  0  0  0  0  0  0  0  0  0  0  0
  149.1069  136.8525  158.0150 C   0  0  0  0  0  0  0  0  0  0  0  0
  147.9913  136.6606  158.8793 C   0  0  0  0  0  0  0  0  0  0  0  0
  146.5607  136.3921  158.5092 C   0  0  0  0  0  0  0  0  0  0  0  0
  148.3354  136.7341  160.1543 N   0  0  0  0  0  0  0  0  0  0  0  0
  149.7113  136.9834  160.1657 O   0  0  0  0  0  0  0  0  0  0  0  0
  150.1469  137.0487  158.8817 C   0  0  0  0  0  0  0  0  0  0  0  0
  151.6013  137.3112  158.6823 C   0  0  0  0  0  0  0  0  0  0  0  0
  152.1353  141.1216  158.1976 C   0  0  0  0  0  0  0  0  0  0  0  0
  153.0724  140.4316  158.9866 C   0  0  0  0  0  0  0  0  0  0  0  0
  153.4435  140.9528  160.2439 C   0  0  0  0  0  0  0  0  0  0  0  0
  154.4580  140.2009  161.0872 C   0  0  0  0  0  0  0  0  0  0  0  0
  152.7130  143.6745  162.2520 H   0  0  0  0  0  0  0  0  0  0  0  0
  154.3189  142.9676  162.0829 H   0  0  0  0  0  0  0  0  0  0  0  0
  153.0178  142.0449  162.8505 H   0  0  0  0  0  0  0  0  0  0  0  0
  151.4911  143.7750  160.2469 H   0  0  0  0  0  0  0  0  0  0  0  0
  150.1563  142.0093  155.8352 H   0  0  0  0  0  0  0  0  0  0  0  0
  152.5949  140.0623  155.3362 H   0  0  0  0  0  0  0  0  0  0  0  0
  152.2244  138.9506  156.6342 H   0  0  0  0  0  0  0  0  0  0  0  0
  149.6878  139.4692  155.9653 H   0  0  0  0  0  0  0  0  0  0  0  0
  149.5141  140.5092  154.1784 H   0  0  0  0  0  0  0  0  0  0  0  0
  149.9100  137.6339  154.0731 H   0  0  0  0  0  0  0  0  0  0  0  0
  151.6062  137.6907  154.4202 H   0  0  0  0  0  0  0  0  0  0  0  0
  150.8635  134.8077  156.2912 H   0  0  0  0  0  0  0  0  0  0  0  0
  151.8990  135.5556  155.0900 H   0  0  0  0  0  0  0  0  0  0  0  0
  150.2192  135.1862  154.6909 H   0  0  0  0  0  0  0  0  0  0  0  0
  148.5753  137.7095  156.1536 H   0  0  0  0  0  0  0  0  0  0  0  0
  148.5891  135.9772  156.1155 H   0  0  0  0  0  0  0  0  0  0  0  0
  146.1978  137.1306  157.7939 H   0  0  0  0  0  0  0  0  0  0  0  0
  145.9036  136.4253  159.3792 H   0  0  0  0  0  0  0  0  0  0  0  0
  146.4569  135.4080  158.0518 H   0  0  0  0  0  0  0  0  0  0  0  0
  151.9295  136.9703  157.7002 H   0  0  0  0  0  0  0  0  0  0  0  0
  152.1968  136.7924  159.4338 H   0  0  0  0  0  0  0  0  0  0  0  0
  151.8138  138.3776  158.7577 H   0  0  0  0  0  0  0  0  0  0  0  0
  153.5042  139.5103  158.6245 H   0  0  0  0  0  0  0  0  0  0  0  0
  154.8027  139.2975  160.5832 H   0  0  0  0  0  0  0  0  0  0  0  0
  154.0186  139.9054  162.0402 H   0  0  0  0  0  0  0  0  0  0  0  0
  155.3288  140.8263  161.2853 H   0  0  0  0  0  0  0  0  0  0  0  0
  1  2  1  0  0  0  0
  1 26  1  0  0  0  0
  1 27  1  0  0  0  0
  1 28  1  0  0  0  0
  2 24  1  0  0  0  0
  2  3  2  0  0  0  0
  3  4  1  0  0  0  0
  3 29  1  0  0  0  0
  4 22  2  0  0  0  0
  4  5  1  0  0  0  0
  5  6  2  0  0  0  0
  6  7  1  0  0  0  0
  6 30  1  0  0  0  0
  7  8  1  0  0  0  0
  7 22  1  0  0  0  0
  8  9  1  0  0  0  0
  8 31  1  0  0  0  0
  8 32  1  0  0  0  0
  9 10  1  0  0  0  0
  9 11  1  0  0  0  0
  9 33  1  0  0  0  0
 10 34  1  0  0  0  0
 11 12  1  0  0  0  0
 11 35  1  0  0  0  0
 11 36  1  0  0  0  0
 12 13  1  0  0  0  0
 12 14  1  0  0  0  0
 13 37  1  0  0  0  0
 13 38  1  0  0  0  0
 13 39  1  0  0  0  0
 14 15  1  0  0  0  0
 14 40  1  0  0  0  0
 14 41  1  0  0  0  0
 15 20  2  0  0  0  0
 15 16  1  0  0  0  0
 16 17  1  0  0  0  0
 16 18  2  0  0  0  0
 17 42  1  0  0  0  0
 17 43  1  0  0  0  0
 17 44  1  0  0  0  0
 18 19  1  0  0  0  0
 19 20  1  0  0  0  0
 20 21  1  0  0  0  0
 21 45  1  0  0  0  0
 21 46  1  0  0  0  0
 21 47  1  0  0  0  0
 22 23  1  0  0  0  0
 23 24  2  0  0  0  0
 23 48  1  0  0  0  0
 24 25  1  0  0  0  0
 25 49  1  0  0  0  0
 25 50  1  0  0  0  0
 25 51  1  0  0  0  0
M  END
> <s_m_source_file>
AV-unprocessed.smi

> <i_m_source_file_index>
1207

> <i_lp_mmshare_version>
43012

> <i_f3d_flags>
0

> <s_epik_input>
W0NIM11jKFtjSF0xKWMoW0NIM10pW2NIXWMoYzEyKW4oW2NIXW4yKVtDSDJdW0NASF0oW09IXSlbQ0gyXU4oW0NIM10pW0NIMl1jM2MoW0NIM10pbm9jM1tDSDNd

> <s_epik_cmdline>
J2VwaWtfcHl0aG9uJywgJy1waCcsICc3LjAnLCAnLXRuJywgJzgnLCAnLW1hJywgJzIwMCcsICctbWV0YWxfYmluZGluZycsICctaW1hZScsICc8aW5maWxlLm1hZT4nLCAnLW9tYWUnLCAnPG91dGZpbGUubWFlPic=

> <r_epik_Ionization_Penalty>
0.374039

> <r_epik_Ionization_Penalty_Charging>
0

> <r_epik_Ionization_Penalty_Neutral>
0.374039

> <r_epik_State_Penalty>
0.350767

> <r_epik_Charging_Adjusted_Penalty>
0.350767

> <i_epik_Tot_Q>
0

> <i_epik_Tot_abs_Q>
0

> <r_epik_Metal_State_Penalty>
0.343187

> <b_epik_Metal_Only>
0

> <s_lp_Force_Field>
OPLS_2005

> <r_lp_Energy>
17.6596

> <b_lp_Chiralities_Consistent>
1

> <s_lp_Variant>
AV-unprocessed.smi:1207-2

> <Gold.Version>
5.8.1

> <Gold.Id.Protein>
6NUR|6NUR_protein|mol2

> <Gold.PLP.Fitness>
48.0921

> <Gold.PLP.PLP>
-44.5754

> <Gold.PLP.part.hbond>
-4.9608

> <Gold.PLP.part.metal>
0.0000

> <Gold.PLP.part.buried>
-7.0632

> <Gold.PLP.part.nonpolar>
-34.2784

> <Gold.PLP.part.repulsive>
0.1832

> <Gold.PLP.ligand.clash>
0.0000

> <Gold.PLP.ligand.torsion>
1.4710

> <Gold.PLP.Chemscore.Hbond>
2.1184

> <Gold.PLP.Chemscore.CHOScore>
0.0000

> <Gold.PLP.Chemscore.Metal>
0.0000

> <Gold.Chemscore.Hbonds>
donor molecule, donor type, donor heavy atom, donor atom, acceptor molecule, acceptor atom, score
      P1  H  6931  6943       L1    19  0.01
      P1  H  7989  7998       L1    10  1.00

> <Gold.PLP.Chemscore.Internal.Correction>
0.1036

> <Gold.Rescore>
     Score         DG    S(hbond)    S(metal)    S(lipo)     H(rot)  DE(clash)    DE(int)     intcor
     14.94     -17.73       1.56        0.00     112.24       2.38       0.04       2.75       ----

> <Gold.Chemscore.Fitness>
14.9361

> <Gold.Chemscore.DG>
-17.7272

> <Gold.Chemscore.ZeroCoef>
-5.4800

> <Gold.Chemscore.Hbond>
1.5559

> <Gold.Chemscore.Metal>
0.0000

> <Gold.Chemscore.Lipo>
112.2387

> <Gold.Chemscore.Internal_Hbond>
0.0000

> <Gold.Chemscore.DEClash>
0.0411

> <Gold.Chemscore.DEInternal>
2.7500

> <Gold.Chemscore.Rot>
2.3756

> <Gold.Chemscore.Internal.Correction>
   9.000000E+99

> <Gold.Chemscore.Hbonds>
donor molecule, donor type, donor heavy atom, donor atom, acceptor molecule, acceptor atom, score
      P1  H  7989  7998       L1    10  0.93

> <Gold.Chemscore.Hbond.Weighted>
-5.1969

> <Gold.Chemscore.Metal.Weighted>
-0.0000

> <Gold.Chemscore.Lipo.Weighted>
-13.1319

> <Gold.Chemscore.Internal_Hbond.Weighted>
0.0000

> <Gold.Chemscore.DEClash.Weighted>
0.0411

> <Gold.Chemscore.DEInternal.Weighted>
2.7500

> <Gold.Chemscore.Rot.Weighted>
6.0816

> <Gold.Chemscore.Internal.Correction.Weighted>
   9.000000E+99

> <Gold.Protein.RotatedTorsions>
[ 6907 6896 6895 6894 ] final  -89.04 input  -60.11 | X-H torsion
[ 7974 7965 7964 7962 ] final -120.79 input  175.53 | X-H torsion
[ 8008 7997 7996 7995 ] final -146.40 input   59.86 | X-H torsion
[ 10167 10162 10161 10158 ] final -133.59 input  -65.29 | X-H torsion
[ 10718 10713 10712 10709 ] final  -43.23 input   66.30 | X-H torsion
[ 10763 10752 10751 10750 ] final -132.27 input  -60.55 | X-H torsion
[ 11005 11000 10999 10996 ] final -138.17 input  -57.11 | X-H torsion

> <Gold.Protein.ActiveResidues>
 VAL166  LYS551  ARG553  GLY616  TRP617  ASP618  TYR619  PRO620  LYS621  CYS622 
 ASP623  PHE694  ASN695  SER759  ASP760  ASP761  ALA762  ILE779  LEU786  VAL792 
 PHE793  MET794  SER795  GLU796  ALA797  LYS798  CYS799  TRP800  GLU811  SER814 

> <Gold.Protein.RotatedAtoms>
  150.6871  134.2648  159.4563 H   0  0  0  0  0  0  0  0  0  0  0  0  # atno 6907 bound_to 6896
  152.0575  134.9612  160.0584 H   0  0  0  0  0  0  0  0  0  0  0  0  # atno 6908 bound_to 6896
  152.1052  133.4236  159.4642 H   0  0  0  0  0  0  0  0  0  0  0  0  # atno 6909 bound_to 6896
  145.0475  140.8192  143.4229 H   0  0  0  0  0  0  0  0  0  0  0  0  # atno 7974 bound_to 7965
  155.5588  140.0623  157.2833 H   0  0  0  0  0  0  0  0  0  0  0  0  # atno 8008 bound_to 7997
  154.4397  140.1889  156.0806 H   0  0  0  0  0  0  0  0  0  0  0  0  # atno 8009 bound_to 7997
  156.0462  140.3290  155.7303 H   0  0  0  0  0  0  0  0  0  0  0  0  # atno 8010 bound_to 7997
  139.8967  143.6657  152.2602 H   0  0  0  0  0  0  0  0  0  0  0  0  # atno 10167 bound_to 10162
  156.2512  130.4188  149.8647 H   0  0  0  0  0  0  0  0  0  0  0  0  # atno 10718 bound_to 10713
  154.8744  135.3803  154.4382 H   0  0  0  0  0  0  0  0  0  0  0  0  # atno 10763 bound_to 10752
  153.5069  135.7030  153.5806 H   0  0  0  0  0  0  0  0  0  0  0  0  # atno 10764 bound_to 10752
  153.4113  135.3924  155.2018 H   0  0  0  0  0  0  0  0  0  0  0  0  # atno 10765 bound_to 10752
  140.8642  134.2132  157.4690 H   0  0  0  0  0  0  0  0  0  0  0  0  # atno 11005 bound_to 11000
  145.1569  139.2481  143.5411 LP  0  0  0  0  0  0  0  0  0  0  0  0  # atno 17320 bound_to 7965
  146.3515  140.1287  142.8598 LP  0  0  0  0  0  0  0  0  0  0  0  0  # atno 17321 bound_to 7965
  139.7061  144.7627  151.1190 LP  0  0  0  0  0  0  0  0  0  0  0  0  # atno 17342 bound_to 10162
  140.7715  143.5392  150.9332 LP  0  0  0  0  0  0  0  0  0  0  0  0  # atno 17343 bound_to 10162
  156.6195  130.8620  151.3472 LP  0  0  0  0  0  0  0  0  0  0  0  0  # atno 17370 bound_to 10713
  157.7215  130.9565  150.1458 LP  0  0  0  0  0  0  0  0  0  0  0  0  # atno 17371 bound_to 10713
  139.8708  134.9744  156.4843 LP  0  0  0  0  0  0  0  0  0  0  0  0  # atno 17394 bound_to 11000
  140.8648  133.8032  155.9303 LP  0  0  0  0  0  0  0  0  0  0  0  0  # atno 17395 bound_to 11000

$$$$
