AV-unprocessed.smi:218|AV-procd|sdf|1671|dock1
  -GOLD-   2262020 83D 1   1.00000     0.00000
 Structure written by MMmdl.
 54 57  0  0  0  0  0  0  0  0  1 V2000
  152.3507  144.0431  161.4669 C   0  0  0  0  0  0  0  0  0  0  0  0
  152.1085  144.8700  160.1983 C   0  0  0  0  0  0  0  0  0  0  0  0
  150.6099  144.9416  159.8581 C   0  0  0  0  0  0  0  0  0  0  0  0
  152.8276  144.2314  159.1413 O   0  0  0  0  0  0  0  0  0  0  0  0
  152.4181  142.9993  158.6684 C   0  0  0  0  0  0  0  0  0  0  0  0
  151.4983  142.9653  157.6002 C   0  0  0  0  0  0  0  0  0  0  0  0
  151.0668  141.7154  157.1128 C   0  0  0  0  0  0  0  0  0  0  0  0
  150.0884  141.6353  155.9608 C   0  0  0  0  0  0  0  0  0  0  0  0
  149.3333  140.3932  155.9543 N   0  0  0  0  0  0  0  0  0  0  0  0
  148.4546  140.1211  154.9668 C   0  0  0  0  0  0  0  0  0  0  0  0
  148.2122  141.1396  154.1071 N   0  0  0  0  0  0  0  0  0  0  0  0
  147.3592  140.9743  153.0929 C   0  0  0  0  0  0  0  0  0  0  0  0
  146.6558  139.8900  152.7642 N   0  0  0  0  0  0  0  0  0  0  0  0
  146.8932  138.8580  153.6244 C   0  0  0  0  0  0  0  0  0  0  0  0
  147.7711  138.8878  154.7462 C   0  0  0  0  0  0  0  0  0  0  0  0
  147.7425  137.6497  155.3806 N   0  0  0  0  0  0  0  0  0  0  0  0
  146.9021  136.9414  154.6767 C   0  0  0  0  0  0  0  0  0  0  0  0
  146.3516  137.5896  153.5957 N   0  0  0  0  0  0  0  0  0  0  0  0
  145.3647  137.0527  152.6124 C   0  0  1  0  0  0  0  0  0  0  0  0
  145.9050  135.8896  152.0696 O   0  0  0  0  0  0  0  0  0  0  0  0
  144.8763  134.9361  151.8541 C   0  0  2  0  0  0  0  0  0  0  0  0
  144.4195  134.9676  150.3800 C   0  0  0  0  0  0  0  0  0  0  0  0
  143.5426  133.9104  150.0494 O   0  0  0  0  0  0  0  0  0  0  0  0
  143.7978  135.2399  152.9050 C   0  0  1  0  0  0  0  0  0  0  0  0
  143.9886  134.3910  154.0200 O   0  0  0  0  0  0  0  0  0  0  0  0
  144.0312  136.6995  153.3004 C   0  0  2  0  0  0  0  0  0  0  0  0
  142.9744  137.4991  152.8085 O   0  0  0  0  0  0  0  0  0  0  0  0
  151.5744  140.5444  157.7092 C   0  0  0  0  0  0  0  0  0  0  0  0
  152.4889  140.6783  158.7716 C   0  0  0  0  0  0  0  0  0  0  0  0
  152.9041  141.8720  159.2456 N   0  0  0  0  0  0  0  0  0  0  0  0
  145.2733  137.8224  151.8443 H   0  0  0  0  0  0  0  0  0  0  0  0
  145.3132  133.9508  152.0249 H   0  0  0  0  0  0  0  0  0  0  0  0
  142.7925  135.0565  152.5227 H   0  0  0  0  0  0  0  0  0  0  0  0
  144.0982  136.8286  154.3820 H   0  0  0  0  0  0  0  0  0  0  0  0
  151.8377  144.4796  162.3244 H   0  0  0  0  0  0  0  0  0  0  0  0
  153.4136  143.9975  161.7052 H   0  0  0  0  0  0  0  0  0  0  0  0
  151.9922  143.0203  161.3476 H   0  0  0  0  0  0  0  0  0  0  0  0
  152.4956  145.8720  160.3894 H   0  0  0  0  0  0  0  0  0  0  0  0
  150.0467  145.3964  160.6732 H   0  0  0  0  0  0  0  0  0  0  0  0
  150.1988  143.9469  159.6837 H   0  0  0  0  0  0  0  0  0  0  0  0
  150.4255  145.5364  158.9638 H   0  0  0  0  0  0  0  0  0  0  0  0
  151.1321  143.8834  157.1641 H   0  0  0  0  0  0  0  0  0  0  0  0
  149.4009  142.4804  156.0159 H   0  0  0  0  0  0  0  0  0  0  0  0
  150.6464  141.7277  155.0284 H   0  0  0  0  0  0  0  0  0  0  0  0
  149.4859  139.7826  156.7438 H   0  0  0  0  0  0  0  0  0  0  0  0
  147.2214  141.8329  152.4523 H   0  0  0  0  0  0  0  0  0  0  0  0
  146.6620  135.9183  154.9277 H   0  0  0  0  0  0  0  0  0  0  0  0
  143.9451  135.9212  150.1466 H   0  0  0  0  0  0  0  0  0  0  0  0
  145.2907  134.8820  149.7302 H   0  0  0  0  0  0  0  0  0  0  0  0
  142.6911  134.2740  149.8596 H   0  0  0  0  0  0  0  0  0  0  0  0
  143.4595  133.6165  153.8982 H   0  0  0  0  0  0  0  0  0  0  0  0
  143.3191  138.3524  152.5945 H   0  0  0  0  0  0  0  0  0  0  0  0
  151.2742  139.5662  157.3630 H   0  0  0  0  0  0  0  0  0  0  0  0
  152.8988  139.8032  159.2536 H   0  0  0  0  0  0  0  0  0  0  0  0
  1  2  1  0  0  0  0
  1 35  1  0  0  0  0
  1 36  1  0  0  0  0
  1 37  1  0  0  0  0
  2  3  1  0  0  0  0
  2  4  1  0  0  0  0
  2 38  1  0  0  0  0
  3 39  1  0  0  0  0
  3 40  1  0  0  0  0
  3 41  1  0  0  0  0
  4  5  1  0  0  0  0
  5 30  1  0  0  0  0
  5  6  2  0  0  0  0
  6  7  1  0  0  0  0
  6 42  1  0  0  0  0
  7  8  1  0  0  0  0
  7 28  2  0  0  0  0
  8  9  1  0  0  0  0
  8 43  1  0  0  0  0
  8 44  1  0  0  0  0
  9 10  1  0  0  0  0
  9 45  1  0  0  0  0
 10 15  1  0  0  0  0
 10 11  2  0  0  0  0
 11 12  1  0  0  0  0
 12 13  2  0  0  0  0
 12 46  1  0  0  0  0
 13 14  1  0  0  0  0
 14 18  1  0  0  0  0
 14 15  2  0  0  0  0
 15 16  1  0  0  0  0
 16 17  2  0  0  0  0
 17 18  1  0  0  0  0
 17 47  1  0  0  0  0
 18 19  1  0  0  0  0
 19 31  1  0  0  0  0
 19 26  1  0  0  0  0
 19 20  1  0  0  0  0
 20 21  1  0  0  0  0
 21 32  1  0  0  0  0
 21 22  1  0  0  0  0
 21 24  1  0  0  0  0
 22 23  1  0  0  0  0
 22 48  1  0  0  0  0
 22 49  1  0  0  0  0
 23 50  1  0  0  0  0
 24 33  1  0  0  0  0
 24 25  1  0  0  0  0
 24 26  1  0  0  0  0
 25 51  1  0  0  0  0
 26 34  1  0  0  0  0
 26 27  1  0  0  0  0
 27 52  1  0  0  0  0
 28 29  1  0  0  0  0
 28 53  1  0  0  0  0
 29 30  2  0  0  0  0
 29 54  1  0  0  0  0
M  END
> <s_m_source_file>
AV-unprocessed.smi

> <i_m_source_file_index>
218

> <i_lp_mmshare_version>
43012

> <i_f3d_flags>
0

> <s_epik_input>
W0NIM11bQ0hdKFtDSDNdKU9jMVtjSF1jKFtjSF1bY0hdbjEpW0NIMl1bTkhdYyhuW2NIXW4yKWMoYzIzKW5bY0hdbjNbQ0BASF00T1tDQEhdKFtDSDJdW09IXSlbQ0BASF0oW09IXSlbQ0BIXTRbT0hd

> <s_epik_cmdline>
J2VwaWtfcHl0aG9uJywgJy1waCcsICc3LjAnLCAnLXRuJywgJzgnLCAnLW1hJywgJzIwMCcsICctbWV0YWxfYmluZGluZycsICctaW1hZScsICc8aW5maWxlLm1hZT4nLCAnLW9tYWUnLCAnPG91dGZpbGUubWFlPic=

> <r_lp_tautomer_probability>
1

> <r_epik_Ionization_Penalty>
0.00457014

> <r_epik_Ionization_Penalty_Charging>
0

> <r_epik_Ionization_Penalty_Neutral>
0.00457014

> <r_epik_State_Penalty>
-0

> <r_epik_Charging_Adjusted_Penalty>
0

> <i_epik_Tot_Q>
0

> <i_epik_Tot_abs_Q>
0

> <r_epik_Metal_State_Penalty>
-0

> <b_epik_Metal_Only>
0

> <s_epik_Chemistry_Notes>
This compound contains an acetal/aminal-like group ( X-CH(R)-Y where X, Y are N, S, or O) that may be acid/base labile, releasing an aldehyde.

> <s_lp_Force_Field>
OPLS_2005

> <r_lp_Energy>
37.7133

> <b_lp_Chiralities_Consistent>
1

> <s_lp_Variant>
AV-unprocessed.smi:218-10

> <Gold.Version>
5.8.1

> <Gold.Id.Protein>
6NUR|6NUR_protein|mol2

> <Gold.PLP.Fitness>
50.9173

> <Gold.PLP.PLP>
-45.0812

> <Gold.PLP.part.hbond>
-3.5348

> <Gold.PLP.part.metal>
0.0000

> <Gold.PLP.part.buried>
-9.6998

> <Gold.PLP.part.nonpolar>
-33.8551

> <Gold.PLP.part.repulsive>
0.9982

> <Gold.PLP.ligand.clash>
0.0000

> <Gold.PLP.ligand.torsion>
0.8574

> <Gold.PLP.Chemscore.Hbond>
2.4077

> <Gold.PLP.Chemscore.CHOScore>
0.0000

> <Gold.PLP.Chemscore.Metal>
0.0000

> <Gold.Chemscore.Hbonds>
donor molecule, donor type, donor heavy atom, donor atom, acceptor molecule, acceptor atom, score
      L1  H    23    50       P1 10186  1.00
      L1  H    25    51       P1 10957  0.54
      L1  H    27    52       P1 10175  0.81

> <Gold.PLP.Chemscore.Internal.Correction>
0.3279

> <Gold.Rescore>
     Score         DG    S(hbond)    S(metal)    S(lipo)     H(rot)  DE(clash)    DE(int)     intcor
     10.39     -11.52       2.39        0.00      90.58       4.90       0.37       0.77       ----

> <Gold.Chemscore.Fitness>
10.3881

> <Gold.Chemscore.DG>
-11.5248

> <Gold.Chemscore.ZeroCoef>
-5.4800

> <Gold.Chemscore.Hbond>
2.3946

> <Gold.Chemscore.Metal>
0.0000

> <Gold.Chemscore.Lipo>
90.5840

> <Gold.Chemscore.Internal_Hbond>
0.0000

> <Gold.Chemscore.DEClash>
0.3669

> <Gold.Chemscore.DEInternal>
0.7699

> <Gold.Chemscore.Rot>
4.9029

> <Gold.Chemscore.Internal.Correction>
   9.000000E+99

> <Gold.Chemscore.Hbonds>
donor molecule, donor type, donor heavy atom, donor atom, acceptor molecule, acceptor atom, score
      L1  H    23    50       P1 10186  0.98
      L1  H    25    51       P1 10957  0.53
      L1  H    27    52       P1 10175  0.80

> <Gold.Chemscore.Hbond.Weighted>
-7.9980

> <Gold.Chemscore.Metal.Weighted>
-0.0000

> <Gold.Chemscore.Lipo.Weighted>
-10.5983

> <Gold.Chemscore.Internal_Hbond.Weighted>
0.0000

> <Gold.Chemscore.DEClash.Weighted>
0.3669

> <Gold.Chemscore.DEInternal.Weighted>
0.7699

> <Gold.Chemscore.Rot.Weighted>
12.5515

> <Gold.Chemscore.Internal.Correction.Weighted>
   9.000000E+99

> <Gold.Protein.RotatedTorsions>
[ 6907 6896 6895 6894 ] final   51.23 input  -60.11 | X-H torsion
[ 7974 7965 7964 7962 ] final -106.17 input  175.53 | X-H torsion
[ 8008 7997 7996 7995 ] final  146.53 input   59.86 | X-H torsion
[ 10167 10162 10161 10158 ] final   35.08 input  -65.29 | X-H torsion
[ 10718 10713 10712 10709 ] final   41.01 input   66.30 | X-H torsion
[ 10763 10752 10751 10750 ] final   59.61 input  -60.55 | X-H torsion
[ 11005 11000 10999 10996 ] final   13.76 input  -57.11 | X-H torsion

> <Gold.Protein.ActiveResidues>
 VAL166  LYS551  ARG553  GLY616  TRP617  ASP618  TYR619  PRO620  LYS621  CYS622 
 ASP623  PHE694  ASN695  SER759  ASP760  ASP761  ALA762  ILE779  LEU786  VAL792 
 PHE793  MET794  SER795  GLU796  ALA797  LYS798  CYS799  TRP800  GLU811  SER814 

> <Gold.Protein.RotatedAtoms>
  152.3104  134.7504  160.0337 H   0  0  0  0  0  0  0  0  0  0  0  0  # atno 6907 bound_to 6896
  151.7987  133.3362  159.3528 H   0  0  0  0  0  0  0  0  0  0  0  0  # atno 6908 bound_to 6896
  150.7317  134.5704  159.5932 H   0  0  0  0  0  0  0  0  0  0  0  0  # atno 6909 bound_to 6896
  145.2212  140.9135  143.3258 H   0  0  0  0  0  0  0  0  0  0  0  0  # atno 7974 bound_to 7965
  156.2852  140.2180  156.5391 H   0  0  0  0  0  0  0  0  0  0  0  0  # atno 8008 bound_to 7997
  154.7384  140.0489  157.0812 H   0  0  0  0  0  0  0  0  0  0  0  0  # atno 8009 bound_to 7997
  155.0262  140.3130  155.4778 H   0  0  0  0  0  0  0  0  0  0  0  0  # atno 8010 bound_to 7997
  140.4255  144.1399  150.6153 H   0  0  0  0  0  0  0  0  0  0  0  0  # atno 10167 bound_to 10162
  157.3887  130.7794  149.7252 H   0  0  0  0  0  0  0  0  0  0  0  0  # atno 10718 bound_to 10713
  152.9899  135.5565  154.5740 H   0  0  0  0  0  0  0  0  0  0  0  0  # atno 10763 bound_to 10752
  154.5135  135.2803  155.1325 H   0  0  0  0  0  0  0  0  0  0  0  0  # atno 10764 bound_to 10752
  154.2707  135.6363  153.5362 H   0  0  0  0  0  0  0  0  0  0  0  0  # atno 10765 bound_to 10752
  140.4772  134.0972  155.7744 H   0  0  0  0  0  0  0  0  0  0  0  0  # atno 11005 bound_to 11000
  144.9764  139.3828  143.6284 LP  0  0  0  0  0  0  0  0  0  0  0  0  # atno 17320 bound_to 7965
  146.3375  139.8885  142.8813 LP  0  0  0  0  0  0  0  0  0  0  0  0  # atno 17321 bound_to 7965
  140.4486  143.2496  151.9378 LP  0  0  0  0  0  0  0  0  0  0  0  0  # atno 17342 bound_to 10162
  139.4783  144.5585  151.8276 LP  0  0  0  0  0  0  0  0  0  0  0  0  # atno 17343 bound_to 10162
  155.9793  130.4041  150.3596 LP  0  0  0  0  0  0  0  0  0  0  0  0  # atno 17370 bound_to 10713
  157.1709  131.0368  151.2796 LP  0  0  0  0  0  0  0  0  0  0  0  0  # atno 17371 bound_to 10713
  141.1549  133.8901  157.2003 LP  0  0  0  0  0  0  0  0  0  0  0  0  # atno 17394 bound_to 11000
  139.9849  135.0085  156.9838 LP  0  0  0  0  0  0  0  0  0  0  0  0  # atno 17395 bound_to 11000

$$$$
