AV-unprocessed.smi:1017|AV-procd|sdf|4438|dock1
  -GOLD-   22720 2393D 1   1.00000     0.00000
 Structure written by MMmdl.
 44 45  0  0  0  0  0  0  0  0  1 V2000
  152.2276  132.0920  156.9681 C   0  0  0  0  0  0  0  0  0  0  0  0
  151.0367  132.8307  157.1753 O   0  0  0  0  0  0  0  0  0  0  0  0
  150.3929  133.1751  155.9604 C   0  0  0  0  0  0  0  0  0  0  0  0
  149.1661  134.0437  156.2780 C   0  0  0  0  0  0  0  0  0  0  0  0
  149.5176  135.1854  157.1291 N   0  0  0  0  0  0  0  0  0  0  0  0
  148.7676  135.2768  158.2899 N   0  0  0  0  0  0  0  0  0  0  0  0
  148.9747  136.2400  159.1266 C   0  0  0  0  0  0  0  0  0  0  0  0
  148.1643  136.3224  160.3753 C   0  0  0  0  0  0  0  0  0  0  0  0
  148.5698  136.9620  161.3462 O   0  0  0  0  0  0  0  0  0  0  0  0
  146.9863  135.6691  160.3566 N   0  0  0  0  0  0  0  0  0  0  0  0
  145.9495  135.5589  161.3964 C   0  0  0  0  0  0  0  0  0  0  0  0
  145.4832  136.9758  161.8403 C   0  0  0  0  0  0  0  0  0  0  0  0
  145.1833  137.7225  160.7765 F   0  0  0  0  0  0  0  0  0  0  0  0
  144.3938  136.8862  162.6053 F   0  0  0  0  0  0  0  0  0  0  0  0
  146.4261  137.6184  162.5289 F   0  0  0  0  0  0  0  0  0  0  0  0
  144.7418  134.6979  160.9268 C   0  0  0  0  0  0  0  0  0  0  0  0
  145.1302  133.2459  160.5929 C   0  0  0  0  0  0  0  0  0  0  0  0
  145.8007  132.5645  161.7939 C   0  0  0  0  0  0  0  0  0  0  0  0
  147.0060  133.3764  162.2894 C   0  0  0  0  0  0  0  0  0  0  0  0
  146.6117  134.8342  162.5997 C   0  0  0  0  0  0  0  0  0  0  0  0
  149.9971  137.2457  158.8631 C   0  0  0  0  0  0  0  0  0  0  0  0
  150.7184  137.1428  157.7256 C   0  0  0  0  0  0  0  0  0  0  0  0
  150.5012  136.0617  156.7641 C   0  0  0  0  0  0  0  0  0  0  0  0
  151.1427  135.9515  155.7197 O   0  0  0  0  0  0  0  0  0  0  0  0
  152.6846  131.8582  157.9298 H   0  0  0  0  0  0  0  0  0  0  0  0
  152.9495  132.6628  156.3825 H   0  0  0  0  0  0  0  0  0  0  0  0
  152.0245  131.1514  156.4540 H   0  0  0  0  0  0  0  0  0  0  0  0
  151.0865  133.7159  155.3143 H   0  0  0  0  0  0  0  0  0  0  0  0
  150.0854  132.2712  155.4318 H   0  0  0  0  0  0  0  0  0  0  0  0
  148.7235  134.3970  155.3448 H   0  0  0  0  0  0  0  0  0  0  0  0
  148.3929  133.4390  156.7550 H   0  0  0  0  0  0  0  0  0  0  0  0
  146.7729  135.1798  159.4996 H   0  0  0  0  0  0  0  0  0  0  0  0
  143.9893  134.6779  161.7160 H   0  0  0  0  0  0  0  0  0  0  0  0
  144.2423  135.1491  160.0703 H   0  0  0  0  0  0  0  0  0  0  0  0
  144.2423  132.6852  160.2998 H   0  0  0  0  0  0  0  0  0  0  0  0
  145.8012  133.2251  159.7334 H   0  0  0  0  0  0  0  0  0  0  0  0
  145.0763  132.4568  162.6023 H   0  0  0  0  0  0  0  0  0  0  0  0
  146.1152  131.5561  161.5233 H   0  0  0  0  0  0  0  0  0  0  0  0
  147.4206  132.9092  163.1830 H   0  0  0  0  0  0  0  0  0  0  0  0
  147.7974  133.3527  161.5395 H   0  0  0  0  0  0  0  0  0  0  0  0
  147.4941  135.3835  162.9307 H   0  0  0  0  0  0  0  0  0  0  0  0
  145.9285  134.8291  163.4496 H   0  0  0  0  0  0  0  0  0  0  0  0
  150.1920  138.0602  159.5449 H   0  0  0  0  0  0  0  0  0  0  0  0
  151.4796  137.8804  157.5177 H   0  0  0  0  0  0  0  0  0  0  0  0
  1  2  1  0  0  0  0
  1 25  1  0  0  0  0
  1 26  1  0  0  0  0
  1 27  1  0  0  0  0
  2  3  1  0  0  0  0
  3  4  1  0  0  0  0
  3 28  1  0  0  0  0
  3 29  1  0  0  0  0
  4  5  1  0  0  0  0
  4 30  1  0  0  0  0
  4 31  1  0  0  0  0
  5 23  1  0  0  0  0
  5  6  1  0  0  0  0
  6  7  2  0  0  0  0
  7  8  1  0  0  0  0
  7 21  1  0  0  0  0
  8  9  2  0  0  0  0
  8 10  1  0  0  0  0
 10 11  1  0  0  0  0
 10 32  1  0  0  0  0
 11 20  1  0  0  0  0
 11 12  1  0  0  0  0
 11 16  1  0  0  0  0
 12 13  1  0  0  0  0
 12 14  1  0  0  0  0
 12 15  1  0  0  0  0
 16 17  1  0  0  0  0
 16 33  1  0  0  0  0
 16 34  1  0  0  0  0
 17 18  1  0  0  0  0
 17 35  1  0  0  0  0
 17 36  1  0  0  0  0
 18 19  1  0  0  0  0
 18 37  1  0  0  0  0
 18 38  1  0  0  0  0
 19 20  1  0  0  0  0
 19 39  1  0  0  0  0
 19 40  1  0  0  0  0
 20 41  1  0  0  0  0
 20 42  1  0  0  0  0
 21 22  2  0  0  0  0
 21 43  1  0  0  0  0
 22 23  1  0  0  0  0
 22 44  1  0  0  0  0
 23 24  2  0  0  0  0
M  END
> <s_m_source_file>
AV-unprocessed.smi

> <i_m_source_file_index>
1017

> <i_lp_mmshare_version>
43012

> <i_f3d_flags>
0

> <s_epik_input>
W0NIM11PW0NIMl1bQ0gyXW4xbmMoW2NIXVtjSF1jMT1PKUMoPU8pW05IXUMyKEMoRikoRilGKVtDSDJdW0NIMl1bQ0gyXVtDSDJdW0NIMl0y

> <s_epik_cmdline>
J2VwaWtfcHl0aG9uJywgJy1waCcsICc3LjAnLCAnLXRuJywgJzgnLCAnLW1hJywgJzIwMCcsICctbWV0YWxfYmluZGluZycsICctaW1hZScsICc8aW5maWxlLm1hZT4nLCAnLW9tYWUnLCAnPG91dGZpbGUubWFlPic=

> <r_lp_tautomer_probability>
1

> <r_epik_Ionization_Penalty>
9.29602e-06

> <r_epik_Ionization_Penalty_Charging>
4.97824e-09

> <r_epik_Ionization_Penalty_Neutral>
9.29104e-06

> <r_epik_State_Penalty>
-0

> <r_epik_Charging_Adjusted_Penalty>
4.97824e-09

> <i_epik_Tot_Q>
0

> <i_epik_Tot_abs_Q>
0

> <r_epik_Metal_State_Penalty>
0.00907788

> <b_epik_Metal_Only>
0

> <s_lp_Force_Field>
OPLS_2005

> <r_lp_Energy>
35.4859

> <b_lp_Chiralities_Consistent>
1

> <s_lp_Variant>
AV-unprocessed.smi:1017-1

> <Gold.Version>
5.8.1

> <Gold.Id.Protein>
6NUR|6NUR_protein|mol2

> <Gold.PLP.Fitness>
40.3016

> <Gold.PLP.PLP>
-32.3302

> <Gold.PLP.part.hbond>
-3.4332

> <Gold.PLP.part.metal>
0.0000

> <Gold.PLP.part.buried>
-4.6298

> <Gold.PLP.part.nonpolar>
-25.4413

> <Gold.PLP.part.repulsive>
0.1062

> <Gold.PLP.ligand.clash>
0.0000

> <Gold.PLP.ligand.torsion>
0.6341

> <Gold.PLP.Chemscore.Hbond>
2.9913

> <Gold.PLP.Chemscore.CHOScore>
0.0000

> <Gold.PLP.Chemscore.Metal>
0.0000

> <Gold.Chemscore.Hbonds>
donor molecule, donor type, donor heavy atom, donor atom, acceptor molecule, acceptor atom, score
      P1  H  6896  6909       L1     2  0.78
      P1  H  6931  6943       L1     9  0.86
      P1  H 10752 10763       L1    24  0.83

> <Gold.PLP.Chemscore.Internal.Correction>
0.2657

> <Gold.Rescore>
     Score         DG    S(hbond)    S(metal)    S(lipo)     H(rot)  DE(clash)    DE(int)     intcor
     13.62     -18.05       2.82        0.00      64.17       1.70       0.01       4.42       ----

> <Gold.Chemscore.Fitness>
13.6150

> <Gold.Chemscore.DG>
-18.0471

> <Gold.Chemscore.ZeroCoef>
-5.4800

> <Gold.Chemscore.Hbond>
2.8163

> <Gold.Chemscore.Metal>
0.0000

> <Gold.Chemscore.Lipo>
64.1715

> <Gold.Chemscore.Internal_Hbond>
0.0000

> <Gold.Chemscore.DEClash>
0.0144

> <Gold.Chemscore.DEInternal>
4.4176

> <Gold.Chemscore.Rot>
1.6982

> <Gold.Chemscore.Internal.Correction>
   9.000000E+99

> <Gold.Chemscore.Hbonds>
donor molecule, donor type, donor heavy atom, donor atom, acceptor molecule, acceptor atom, score
      P1  H  6896  6909       L1     2  0.22
      P1  H  6931  6943       L1     9  0.84
      P1  H 10752 10763       L1    24  0.80

> <Gold.Chemscore.Hbond.Weighted>
-9.4064

> <Gold.Chemscore.Metal.Weighted>
-0.0000

> <Gold.Chemscore.Lipo.Weighted>
-7.5081

> <Gold.Chemscore.Internal_Hbond.Weighted>
0.0000

> <Gold.Chemscore.DEClash.Weighted>
0.0144

> <Gold.Chemscore.DEInternal.Weighted>
4.4176

> <Gold.Chemscore.Rot.Weighted>
4.3474

> <Gold.Chemscore.Internal.Correction.Weighted>
   9.000000E+99

> <Gold.Protein.RotatedTorsions>
[ 6907 6896 6895 6894 ] final  -36.32 input  -60.11 | X-H torsion
[ 7974 7965 7964 7962 ] final   68.24 input  175.53 | X-H torsion
[ 8008 7997 7996 7995 ] final  -33.52 input   59.86 | X-H torsion
[ 10167 10162 10161 10158 ] final  135.19 input  -65.29 | X-H torsion
[ 10718 10713 10712 10709 ] final  -80.60 input   66.30 | X-H torsion
[ 10763 10752 10751 10750 ] final   75.76 input  -60.55 | X-H torsion
[ 11005 11000 10999 10996 ] final  -67.75 input  -57.11 | X-H torsion

> <Gold.Protein.ActiveResidues>
 VAL166  LYS551  ARG553  GLY616  TRP617  ASP618  TYR619  PRO620  LYS621  CYS622 
 ASP623  PHE694  ASN695  SER759  ASP760  ASP761  ALA762  ILE779  LEU786  VAL792 
 PHE793  MET794  SER795  GLU796  ALA797  LYS798  CYS799  TRP800  GLU811  SER814 

> <Gold.Protein.RotatedAtoms>
  151.0286  134.9523  159.8098 H   0  0  0  0  0  0  0  0  0  0  0  0  # atno 6907 bound_to 6896
  152.5341  134.2809  159.9017 H   0  0  0  0  0  0  0  0  0  0  0  0  # atno 6908 bound_to 6896
  151.2818  133.4164  159.2661 H   0  0  0  0  0  0  0  0  0  0  0  0  # atno 6909 bound_to 6896
  145.8049  139.3002  143.1133 H   0  0  0  0  0  0  0  0  0  0  0  0  # atno 7974 bound_to 7965
  154.4146  140.1708  156.1902 H   0  0  0  0  0  0  0  0  0  0  0  0  # atno 8008 bound_to 7997
  155.9609  140.3393  155.6466 H   0  0  0  0  0  0  0  0  0  0  0  0  # atno 8009 bound_to 7997
  155.6749  140.0716  157.2497 H   0  0  0  0  0  0  0  0  0  0  0  0  # atno 8010 bound_to 7997
  139.5226  144.6529  151.5248 H   0  0  0  0  0  0  0  0  0  0  0  0  # atno 10167 bound_to 10162
  156.0067  130.4579  150.3826 H   0  0  0  0  0  0  0  0  0  0  0  0  # atno 10718 bound_to 10713
  153.0677  135.4976  154.8237 H   0  0  0  0  0  0  0  0  0  0  0  0  # atno 10763 bound_to 10752
  154.6978  135.2996  154.9388 H   0  0  0  0  0  0  0  0  0  0  0  0  # atno 10764 bound_to 10752
  154.0122  135.6753  153.4819 H   0  0  0  0  0  0  0  0  0  0  0  0  # atno 10765 bound_to 10752
  141.1516  133.6726  156.6341 H   0  0  0  0  0  0  0  0  0  0  0  0  # atno 11005 bound_to 11000
  145.9838  140.8660  143.0101 LP  0  0  0  0  0  0  0  0  0  0  0  0  # atno 17320 bound_to 7965
  144.6764  140.2118  143.7376 LP  0  0  0  0  0  0  0  0  0  0  0  0  # atno 17321 bound_to 7965
  140.6342  143.9017  150.6632 LP  0  0  0  0  0  0  0  0  0  0  0  0  # atno 17342 bound_to 10162
  140.2330  143.3721  152.1549 LP  0  0  0  0  0  0  0  0  0  0  0  0  # atno 17343 bound_to 10162
  157.1905  131.0414  151.2703 LP  0  0  0  0  0  0  0  0  0  0  0  0  # atno 17370 bound_to 10713
  157.4066  130.7362  149.6807 LP  0  0  0  0  0  0  0  0  0  0  0  0  # atno 17371 bound_to 10713
  140.3444  134.7822  157.4421 LP  0  0  0  0  0  0  0  0  0  0  0  0  # atno 17394 bound_to 11000
  140.0912  134.5599  155.8443 LP  0  0  0  0  0  0  0  0  0  0  0  0  # atno 17395 bound_to 11000

$$$$
