AV-unprocessed.smi:1824|AV-procd|sdf|7407|dock2
  -GOLD-   22720 9 83D 1   1.00000     0.00000
 Structure written by MMmdl.
 45 47  0  0  0  0  0  0  0  0  2 V2000
  145.7539  142.8382  154.3537 C   0  0  0  0  0  0  0  0  0  0  0  0
  147.1422  142.1878  154.4794 C   0  0  2  0  0  0  0  0  0  0  0  0
  147.4151  141.1199  153.4008 C   0  0  0  0  0  0  0  0  0  0  0  0
  146.6802  139.8777  153.6357 N   0  0  0  0  0  0  0  0  0  0  0  0
  146.9643  138.8520  152.6304 C   0  0  0  0  0  0  0  0  0  0  0  0
  145.8236  137.8498  152.3629 C   0  0  2  0  0  0  0  0  0  0  0  0
  144.8653  137.9808  153.3945 O   0  0  0  0  0  0  0  0  0  0  0  0
  146.3455  136.4002  152.3247 C   0  0  0  0  0  0  0  0  0  0  0  0
  145.3904  135.4632  151.7148 N   0  0  0  0  0  0  0  0  0  0  0  0
  144.2354  135.7174  151.0420 C   0  0  0  0  0  0  0  0  0  0  0  0
  143.7039  134.5204  150.6691 N   0  3  0  0  0  0  0  0  0  0  0  0
  144.5299  133.4850  151.1120 C   0  0  0  0  0  0  0  0  0  0  0  0
  144.4121  132.1053  150.9788 C   0  0  0  0  0  0  0  0  0  0  0  0
  145.4341  131.3220  151.5542 C   0  0  0  0  0  0  0  0  0  0  0  0
  145.3682  129.9733  151.4542 F   0  0  0  0  0  0  0  0  0  0  0  0
  146.5203  131.9155  152.2315 C   0  0  0  0  0  0  0  0  0  0  0  0
  147.4790  131.1265  152.7717 F   0  0  0  0  0  0  0  0  0  0  0  0
  146.6293  133.3159  152.3585 C   0  0  0  0  0  0  0  0  0  0  0  0
  145.6156  134.0831  151.7858 C   0  0  0  0  0  0  0  0  0  0  0  0
  146.9935  139.3927  154.9742 C   0  0  0  0  0  0  0  0  0  0  0  0
  146.6578  140.4321  156.0584 C   0  0  1  0  0  0  0  0  0  0  0  0
  147.0626  139.9567  157.4578 C   0  0  0  0  0  0  0  0  0  0  0  0
  147.3567  141.6444  155.7828 O   0  0  0  0  0  0  0  0  0  0  0  0
  145.6499  143.3470  153.3952 H   0  0  0  0  0  0  0  0  0  0  0  0
  145.5994  143.5784  155.1390 H   0  0  0  0  0  0  0  0  0  0  0  0
  144.9498  142.1060  154.4217 H   0  0  0  0  0  0  0  0  0  0  0  0
  147.8774  142.9832  154.3553 H   0  0  0  0  0  0  0  0  0  0  0  0
  147.1664  141.5381  152.4265 H   0  0  0  0  0  0  0  0  0  0  0  0
  148.4852  140.9077  153.3802 H   0  0  0  0  0  0  0  0  0  0  0  0
  147.2411  139.3396  151.6944 H   0  0  0  0  0  0  0  0  0  0  0  0
  147.8439  138.2829  152.9357 H   0  0  0  0  0  0  0  0  0  0  0  0
  145.3356  138.0613  151.4123 H   0  0  0  0  0  0  0  0  0  0  0  0
  144.3165  138.7247  153.1955 H   0  0  0  0  0  0  0  0  0  0  0  0
  147.2595  136.3532  151.7311 H   0  0  0  0  0  0  0  0  0  0  0  0
  146.6122  136.0468  153.3211 H   0  0  0  0  0  0  0  0  0  0  0  0
  143.8167  136.6928  150.8399 H   0  0  0  0  0  0  0  0  0  0  0  0
  143.5816  131.6466  150.4626 H   0  0  0  0  0  0  0  0  0  0  0  0
  147.4618  133.7581  152.8849 H   0  0  0  0  0  0  0  0  0  0  0  0
  146.4355  138.4772  155.1740 H   0  0  0  0  0  0  0  0  0  0  0  0
  148.0515  139.1313  155.0334 H   0  0  0  0  0  0  0  0  0  0  0  0
  145.5845  140.6244  156.0591 H   0  0  0  0  0  0  0  0  0  0  0  0
  146.5468  139.0336  157.7233 H   0  0  0  0  0  0  0  0  0  0  0  0
  146.8131  140.7049  158.2105 H   0  0  0  0  0  0  0  0  0  0  0  0
  148.1352  139.7705  157.5161 H   0  0  0  0  0  0  0  0  0  0  0  0
  142.8401  134.4207  150.1513 H   0  0  0  0  0  0  0  0  0  0  0  0
  1  2  1  0  0  0  0
  1 24  1  0  0  0  0
  1 25  1  0  0  0  0
  1 26  1  0  0  0  0
  2 23  1  0  0  0  0
  2  3  1  0  0  0  0
  2 27  1  0  0  0  0
  3  4  1  0  0  0  0
  3 28  1  0  0  0  0
  3 29  1  0  0  0  0
  4  5  1  0  0  0  0
  4 20  1  0  0  0  0
  5  6  1  0  0  0  0
  5 30  1  0  0  0  0
  5 31  1  0  0  0  0
  6  7  1  0  0  0  0
  6  8  1  0  0  0  0
  6 32  1  0  0  0  0
  7 33  1  0  0  0  0
  8  9  1  0  0  0  0
  8 34  1  0  0  0  0
  8 35  1  0  0  0  0
  9 19  1  0  0  0  0
  9 10  1  0  0  0  0
 10 11  2  0  0  0  0
 10 36  1  0  0  0  0
 11 12  1  0  0  0  0
 11 45  1  0  0  0  0
 12 19  2  0  0  0  0
 12 13  1  0  0  0  0
 13 14  2  0  0  0  0
 13 37  1  0  0  0  0
 14 15  1  0  0  0  0
 14 16  1  0  0  0  0
 16 17  1  0  0  0  0
 16 18  2  0  0  0  0
 18 19  1  0  0  0  0
 18 38  1  0  0  0  0
 20 21  1  0  0  0  0
 20 39  1  0  0  0  0
 20 40  1  0  0  0  0
 21 22  1  0  0  0  0
 21 23  1  0  0  0  0
 21 41  1  0  0  0  0
 22 42  1  0  0  0  0
 22 43  1  0  0  0  0
 22 44  1  0  0  0  0
M  CHG  1  11   1
M  END
> <s_m_source_file>
AV-unprocessed.smi

> <i_m_source_file_index>
1824

> <i_lp_mmshare_version>
43012

> <i_f3d_flags>
0

> <s_epik_input>
W0NIM11bQ0BASF0xW0NIMl1OKFtDSDJdW0NASF0oTzEpW0NIM10pW0NIMl1bQ0BIXShbT0hdKVtDSDJdbihbY0hdbjIpYyhjMjMpW2NIXWMoRiljKEYpW2NIXTM=

> <s_epik_cmdline>
J2VwaWtfcHl0aG9uJywgJy1waCcsICc3LjAnLCAnLXRuJywgJzgnLCAnLW1hJywgJzIwMCcsICctbWV0YWxfYmluZGluZycsICctaW1hZScsICc8aW5maWxlLm1hZT4nLCAnLW9tYWUnLCAnPG91dGZpbGUubWFlPic=

> <r_epik_Ionization_Penalty>
2.58709

> <r_epik_Ionization_Penalty_Charging>
2.37273

> <r_epik_Ionization_Penalty_Neutral>
0.214359

> <r_epik_State_Penalty>
2.71799

> <r_epik_Charging_Adjusted_Penalty>
5.09071

> <i_epik_Tot_Q>
1

> <i_epik_Tot_abs_Q>
1

> <r_epik_Metal_State_Penalty>
6.80217

> <b_epik_Metal_Only>
0

> <s_lp_Force_Field>
OPLS_2005

> <r_lp_Energy>
35.5782

> <b_lp_Chiralities_Consistent>
1

> <s_lp_Variant>
AV-unprocessed.smi:1824-15

> <Gold.Version>
5.8.1

> <Gold.Id.Protein>
6NUR|6NUR_protein|mol2

> <Gold.PLP.Fitness>
46.6813

> <Gold.PLP.PLP>
-37.0606

> <Gold.PLP.part.hbond>
-2.0000

> <Gold.PLP.part.metal>
0.0000

> <Gold.PLP.part.buried>
-2.0771

> <Gold.PLP.part.nonpolar>
-33.9593

> <Gold.PLP.part.repulsive>
0.3055

> <Gold.PLP.ligand.clash>
0.0000

> <Gold.PLP.ligand.torsion>
1.1994

> <Gold.PLP.Chemscore.Hbond>
3.0000

> <Gold.PLP.Chemscore.CHOScore>
1.0000

> <Gold.PLP.Chemscore.Metal>
0.0000

> <Gold.Chemscore.Hbonds>
donor molecule, donor type, donor heavy atom, donor atom, acceptor molecule, acceptor atom, score
      L1  H     7    33       P1 10175  1.00
      L1  H    11    45       P1 10186  2.00
      L1  C    10    36       P1 10171  1.00

> <Gold.PLP.Chemscore.Internal.Correction>
0.0197

> <Gold.Rescore>
     Score         DG    S(hbond)    S(metal)    S(lipo)     H(rot)  DE(clash)    DE(int)     intcor
     13.12     -15.94       1.95        0.00      84.37       2.32       1.54       1.28       ----

> <Gold.Chemscore.Fitness>
13.1165

> <Gold.Chemscore.DG>
-15.9357

> <Gold.Chemscore.ZeroCoef>
-5.4800

> <Gold.Chemscore.Hbond>
1.9540

> <Gold.Chemscore.Metal>
0.0000

> <Gold.Chemscore.Lipo>
84.3678

> <Gold.Chemscore.Internal_Hbond>
0.0000

> <Gold.Chemscore.DEClash>
1.5358

> <Gold.Chemscore.DEInternal>
1.2833

> <Gold.Chemscore.Rot>
2.3210

> <Gold.Chemscore.Internal.Correction>
   9.000000E+99

> <Gold.Chemscore.Hbonds>
donor molecule, donor type, donor heavy atom, donor atom, acceptor molecule, acceptor atom, score
      L1  H     7    33       P1 10175  0.98
      L1  H    11    45       P1 10186  0.82

> <Gold.Chemscore.Hbond.Weighted>
-6.5263

> <Gold.Chemscore.Metal.Weighted>
-0.0000

> <Gold.Chemscore.Lipo.Weighted>
-9.8710

> <Gold.Chemscore.Internal_Hbond.Weighted>
0.0000

> <Gold.Chemscore.DEClash.Weighted>
1.5358

> <Gold.Chemscore.DEInternal.Weighted>
1.2833

> <Gold.Chemscore.Rot.Weighted>
5.9416

> <Gold.Chemscore.Internal.Correction.Weighted>
   9.000000E+99

> <Gold.Protein.RotatedTorsions>
[ 6907 6896 6895 6894 ] final -105.26 input  -60.11 | X-H torsion
[ 7974 7965 7964 7962 ] final -166.32 input  175.53 | X-H torsion
[ 8008 7997 7996 7995 ] final  -83.44 input   59.86 | X-H torsion
[ 10167 10162 10161 10158 ] final -173.57 input  -65.29 | X-H torsion
[ 10718 10713 10712 10709 ] final  -28.06 input   66.30 | X-H torsion
[ 10763 10752 10751 10750 ] final  -15.59 input  -60.55 | X-H torsion
[ 11005 11000 10999 10996 ] final  -34.90 input  -57.11 | X-H torsion

> <Gold.Protein.ActiveResidues>
 VAL166  LYS551  ARG553  GLY616  TRP617  ASP618  TYR619  PRO620  LYS621  CYS622 
 ASP623  PHE694  ASN695  SER759  ASP760  ASP761  ALA762  ILE779  LEU786  VAL792 
 PHE793  MET794  SER795  GLU796  ALA797  LYS798  CYS799  TRP800  GLU811  SER814 

> <Gold.Protein.RotatedAtoms>
  150.7328  134.0154  159.3683 H   0  0  0  0  0  0  0  0  0  0  0  0  # atno 6907 bound_to 6896
  151.8116  135.0677  160.0423 H   0  0  0  0  0  0  0  0  0  0  0  0  # atno 6908 bound_to 6896
  152.3069  133.5676  159.5691 H   0  0  0  0  0  0  0  0  0  0  0  0  # atno 6909 bound_to 6896
  144.7248  140.2683  143.6254 H   0  0  0  0  0  0  0  0  0  0  0  0  # atno 7974 bound_to 7965
  154.6191  140.0619  156.9592 H   0  0  0  0  0  0  0  0  0  0  0  0  # atno 8008 bound_to 7997
  155.1847  140.3302  155.4350 H   0  0  0  0  0  0  0  0  0  0  0  0  # atno 8009 bound_to 7997
  156.2421  140.1891  156.6941 H   0  0  0  0  0  0  0  0  0  0  0  0  # atno 8010 bound_to 7997
  139.5681  144.1707  152.1343 H   0  0  0  0  0  0  0  0  0  0  0  0  # atno 10167 bound_to 10162
  156.4301  130.4443  149.7123 H   0  0  0  0  0  0  0  0  0  0  0  0  # atno 10718 bound_to 10713
  153.5456  135.7012  153.5615 H   0  0  0  0  0  0  0  0  0  0  0  0  # atno 10763 bound_to 10752
  153.3562  135.3982  155.1684 H   0  0  0  0  0  0  0  0  0  0  0  0  # atno 10764 bound_to 10752
  154.8668  135.3777  154.4964 H   0  0  0  0  0  0  0  0  0  0  0  0  # atno 10765 bound_to 10752
  140.9753  133.7086  156.1593 H   0  0  0  0  0  0  0  0  0  0  0  0  # atno 11005 bound_to 11000
  145.8068  139.1986  143.2016 LP  0  0  0  0  0  0  0  0  0  0  0  0  # atno 17320 bound_to 7965
  146.0630  140.7950  142.9725 LP  0  0  0  0  0  0  0  0  0  0  0  0  # atno 17321 bound_to 7965
  140.1234  144.5353  150.6848 LP  0  0  0  0  0  0  0  0  0  0  0  0  # atno 17342 bound_to 10162
  140.6965  143.2407  151.4986 LP  0  0  0  0  0  0  0  0  0  0  0  0  # atno 17343 bound_to 10162
  156.4030  130.7684  151.2693 LP  0  0  0  0  0  0  0  0  0  0  0  0  # atno 17370 bound_to 10713
  157.7508  131.0234  150.3833 LP  0  0  0  0  0  0  0  0  0  0  0  0  # atno 17371 bound_to 10713
  140.7267  134.4299  157.5570 LP  0  0  0  0  0  0  0  0  0  0  0  0  # atno 17394 bound_to 11000
  139.8928  134.8745  156.2253 LP  0  0  0  0  0  0  0  0  0  0  0  0  # atno 17395 bound_to 11000

$$$$
