AV-unprocessed.smi:3333|AV-procd|sdf|12834|dock1
  -GOLD-   2272019213D 1   1.00000     0.00000
 Structure written by MMmdl.
 41 43  0  0  0  0  0  0  0  0  1 V2000
  146.0370  143.7538  159.0276 C   0  0  0  0  0  0  0  0  0  0  0  0
  146.2304  142.3348  158.4828 C   0  0  0  0  0  0  0  0  0  0  0  0
  146.3879  142.3073  156.9996 C   0  0  0  0  0  0  0  0  0  0  0  0
  147.5030  141.9045  156.3842 N   0  0  0  0  0  0  0  0  0  0  0  0
  147.4171  142.0067  154.9917 C   0  0  0  0  0  0  0  0  0  0  0  0
  148.5797  141.5937  154.1355 C   0  0  0  0  0  0  0  0  0  0  0  0
  149.7944  141.2405  154.9993 C   0  0  0  0  0  0  0  0  0  0  0  0
  150.4702  140.2429  154.7443 O   0  0  0  0  0  0  0  0  0  0  0  0
  150.0550  142.0608  156.0292 N   0  0  0  0  0  0  0  0  0  0  0  0
  151.1444  141.8893  156.9849 C   0  0  0  0  0  0  0  0  0  0  0  0
  151.0091  142.8301  158.2023 C   0  0  1  0  0  0  0  0  0  0  0  0
  152.0479  142.5394  159.3083 C   0  0  0  0  0  0  0  0  0  0  0  0
  152.7107  143.9106  159.5336 C   0  0  2  0  0  0  0  0  0  0  0  0
  151.7041  144.8699  160.1964 C   0  0  0  0  0  0  0  0  0  0  0  0
  150.7236  145.1785  159.0489 C   0  0  0  0  0  0  0  0  0  0  0  0
  151.2756  144.3234  157.8926 C   0  0  1  0  0  0  0  0  0  0  0  0
  152.7795  144.4550  158.1129 C   0  0  0  0  0  0  0  0  0  0  0  0
  146.2089  142.4967  154.5599 C   0  0  0  0  0  0  0  0  0  0  0  0
  145.1445  142.8674  155.8876 S   0  0  0  0  0  0  0  0  0  0  0  0
  145.9169  143.7407  160.1109 H   0  0  0  0  0  0  0  0  0  0  0  0
  145.1502  144.2220  158.5993 H   0  0  0  0  0  0  0  0  0  0  0  0
  146.8953  144.3848  158.7948 H   0  0  0  0  0  0  0  0  0  0  0  0
  147.1074  141.8752  158.9399 H   0  0  0  0  0  0  0  0  0  0  0  0
  145.3756  141.7143  158.7533 H   0  0  0  0  0  0  0  0  0  0  0  0
  148.3078  140.7461  153.5045 H   0  0  0  0  0  0  0  0  0  0  0  0
  148.8618  142.4014  153.4595 H   0  0  0  0  0  0  0  0  0  0  0  0
  149.4498  142.8572  156.1661 H   0  0  0  0  0  0  0  0  0  0  0  0
  151.1791  140.8496  157.3152 H   0  0  0  0  0  0  0  0  0  0  0  0
  152.0826  142.0749  156.4616 H   0  0  0  0  0  0  0  0  0  0  0  0
  150.0054  142.7144  158.6139 H   0  0  0  0  0  0  0  0  0  0  0  0
  151.5878  142.1467  160.2158 H   0  0  0  0  0  0  0  0  0  0  0  0
  152.7897  141.8124  158.9744 H   0  0  0  0  0  0  0  0  0  0  0  0
  153.6679  143.8530  160.0525 H   0  0  0  0  0  0  0  0  0  0  0  0
  151.2089  144.4190  161.0572 H   0  0  0  0  0  0  0  0  0  0  0  0
  152.1984  145.7820  160.5329 H   0  0  0  0  0  0  0  0  0  0  0  0
  149.6924  144.9277  159.3004 H   0  0  0  0  0  0  0  0  0  0  0  0
  150.7554  146.2384  158.7936 H   0  0  0  0  0  0  0  0  0  0  0  0
  150.9247  144.6508  156.9138 H   0  0  0  0  0  0  0  0  0  0  0  0
  153.1362  145.4853  158.0617 H   0  0  0  0  0  0  0  0  0  0  0  0
  153.3769  143.8377  157.4403 H   0  0  0  0  0  0  0  0  0  0  0  0
  145.8877  142.6729  153.5439 H   0  0  0  0  0  0  0  0  0  0  0  0
  1  2  1  0  0  0  0
  1 20  1  0  0  0  0
  1 21  1  0  0  0  0
  1 22  1  0  0  0  0
  2  3  1  0  0  0  0
  2 23  1  0  0  0  0
  2 24  1  0  0  0  0
  3 19  1  0  0  0  0
  3  4  2  0  0  0  0
  4  5  1  0  0  0  0
  5  6  1  0  0  0  0
  5 18  2  0  0  0  0
  6  7  1  0  0  0  0
  6 25  1  0  0  0  0
  6 26  1  0  0  0  0
  7  8  2  0  0  0  0
  7  9  1  0  0  0  0
  9 10  1  0  0  0  0
  9 27  1  0  0  0  0
 10 11  1  0  0  0  0
 10 28  1  0  0  0  0
 10 29  1  0  0  0  0
 11 16  1  0  0  0  0
 11 12  1  0  0  0  0
 11 30  1  0  0  0  0
 12 13  1  0  0  0  0
 12 31  1  0  0  0  0
 12 32  1  0  0  0  0
 13 17  1  0  0  0  0
 13 14  1  0  0  0  0
 13 33  1  0  0  0  0
 14 15  1  0  0  0  0
 14 34  1  0  0  0  0
 14 35  1  0  0  0  0
 15 16  1  0  0  0  0
 15 36  1  0  0  0  0
 15 37  1  0  0  0  0
 16 17  1  0  0  0  0
 16 38  1  0  0  0  0
 17 39  1  0  0  0  0
 17 40  1  0  0  0  0
 18 19  1  0  0  0  0
 18 41  1  0  0  0  0
M  END
> <s_m_source_file>
AV-unprocessed.smi

> <i_m_source_file_index>
3333

> <i_lp_mmshare_version>
43012

> <i_f3d_flags>
0

> <s_epik_input>
W0NIM11bQ0gyXWMxbmMoW2NIXXMxKVtDSDJdQyg9TylbTkhdW0NIMl1bQ0BIXShbQ0gyXVtDQEBIXTIzKVtDQEBIXShbQ0gyXTMpW0NIMl1bQ0gyXTI=

> <s_epik_cmdline>
J2VwaWtfcHl0aG9uJywgJy1waCcsICc3LjAnLCAnLXRuJywgJzgnLCAnLW1hJywgJzIwMCcsICctbWV0YWxfYmluZGluZycsICctaW1hZScsICc8aW5maWxlLm1hZT4nLCAnLW9tYWUnLCAnPG91dGZpbGUubWFlPic=

> <r_lp_tautomer_probability>
1

> <r_epik_Ionization_Penalty>
6.68371e-05

> <r_epik_Ionization_Penalty_Charging>
0

> <r_epik_Ionization_Penalty_Neutral>
6.68371e-05

> <r_epik_State_Penalty>
-0

> <r_epik_Charging_Adjusted_Penalty>
0

> <i_epik_Tot_Q>
0

> <i_epik_Tot_abs_Q>
0

> <r_epik_Metal_State_Penalty>
-0

> <b_epik_Metal_Only>
0

> <s_lp_Force_Field>
OPLS_2005

> <r_lp_Energy>
43.9975

> <b_lp_Chiralities_Consistent>
1

> <s_lp_Variant>
AV-unprocessed.smi:3333-4

> <Gold.Version>
5.8.1

> <Gold.Id.Protein>
6NUR|6NUR_protein|mol2

> <Gold.PLP.Fitness>
50.3153

> <Gold.PLP.PLP>
-45.0161

> <Gold.PLP.part.hbond>
-2.0000

> <Gold.PLP.part.metal>
0.0000

> <Gold.PLP.part.buried>
-3.2879

> <Gold.PLP.part.nonpolar>
-39.3813

> <Gold.PLP.part.repulsive>
0.3305

> <Gold.PLP.ligand.clash>
0.0000

> <Gold.PLP.ligand.torsion>
0.3735

> <Gold.PLP.Chemscore.Hbond>
2.0000

> <Gold.PLP.Chemscore.CHOScore>
0.0000

> <Gold.PLP.Chemscore.Metal>
0.0000

> <Gold.Chemscore.Hbonds>
donor molecule, donor type, donor heavy atom, donor atom, acceptor molecule, acceptor atom, score
      L1  H     9    27       P1  8028  0.99
      P1  H  7989  7998       L1     8  1.00

> <Gold.PLP.Chemscore.Internal.Correction>
0.0463

> <Gold.Rescore>
     Score         DG    S(hbond)    S(metal)    S(lipo)     H(rot)  DE(clash)    DE(int)     intcor
     20.17     -20.85       1.62        0.00     116.16       1.42       0.25       0.44       ----

> <Gold.Chemscore.Fitness>
20.1668

> <Gold.Chemscore.DG>
-20.8500

> <Gold.Chemscore.ZeroCoef>
-5.4800

> <Gold.Chemscore.Hbond>
1.6233

> <Gold.Chemscore.Metal>
0.0000

> <Gold.Chemscore.Lipo>
116.1567

> <Gold.Chemscore.Internal_Hbond>
0.0000

> <Gold.Chemscore.DEClash>
0.2458

> <Gold.Chemscore.DEInternal>
0.4375

> <Gold.Chemscore.Rot>
1.4227

> <Gold.Chemscore.Internal.Correction>
   9.000000E+99

> <Gold.Chemscore.Hbonds>
donor molecule, donor type, donor heavy atom, donor atom, acceptor molecule, acceptor atom, score
      L1  H     9    27       P1  8028  0.90
      P1  H  7989  7998       L1     8  0.34

> <Gold.Chemscore.Hbond.Weighted>
-5.4218

> <Gold.Chemscore.Metal.Weighted>
-0.0000

> <Gold.Chemscore.Lipo.Weighted>
-13.5903

> <Gold.Chemscore.Internal_Hbond.Weighted>
0.0000

> <Gold.Chemscore.DEClash.Weighted>
0.2458

> <Gold.Chemscore.DEInternal.Weighted>
0.4375

> <Gold.Chemscore.Rot.Weighted>
3.6421

> <Gold.Chemscore.Internal.Correction.Weighted>
   9.000000E+99

> <Gold.Protein.RotatedTorsions>
[ 6907 6896 6895 6894 ] final -122.61 input  -60.11 | X-H torsion
[ 7974 7965 7964 7962 ] final  -85.06 input  175.53 | X-H torsion
[ 8008 7997 7996 7995 ] final  107.69 input   59.86 | X-H torsion
[ 10167 10162 10161 10158 ] final -122.71 input  -65.29 | X-H torsion
[ 10718 10713 10712 10709 ] final  -91.62 input   66.30 | X-H torsion
[ 10763 10752 10751 10750 ] final  115.72 input  -60.55 | X-H torsion
[ 11005 11000 10999 10996 ] final  -52.47 input  -57.11 | X-H torsion

> <Gold.Protein.ActiveResidues>
 VAL166  LYS551  ARG553  GLY616  TRP617  ASP618  TYR619  PRO620  LYS621  CYS622 
 ASP623  PHE694  ASN695  SER759  ASP760  ASP761  ALA762  ILE779  LEU786  VAL792 
 PHE793  MET794  SER795  GLU796  ALA797  LYS798  CYS799  TRP800  GLU811  SER814 

> <Gold.Protein.RotatedAtoms>
  150.8592  133.7669  159.2998 H   0  0  0  0  0  0  0  0  0  0  0  0  # atno 6907 bound_to 6896
  151.5317  135.1067  159.9914 H   0  0  0  0  0  0  0  0  0  0  0  0  # atno 6908 bound_to 6896
  152.4613  133.7785  159.6893 H   0  0  0  0  0  0  0  0  0  0  0  0  # atno 6909 bound_to 6896
  145.4984  140.9548  143.1773 H   0  0  0  0  0  0  0  0  0  0  0  0  # atno 7974 bound_to 7965
  156.1844  140.3090  155.9210 H   0  0  0  0  0  0  0  0  0  0  0  0  # atno 8008 bound_to 7997
  155.3313  140.0461  157.3059 H   0  0  0  0  0  0  0  0  0  0  0  0  # atno 8009 bound_to 7997
  154.5379  140.2252  155.8701 H   0  0  0  0  0  0  0  0  0  0  0  0  # atno 8010 bound_to 7997
  140.0113  143.5439  152.2262 H   0  0  0  0  0  0  0  0  0  0  0  0  # atno 10167 bound_to 10162
  155.9995  130.4955  150.5502 H   0  0  0  0  0  0  0  0  0  0  0  0  # atno 10718 bound_to 10713
  153.5265  135.3587  155.2656 H   0  0  0  0  0  0  0  0  0  0  0  0  # atno 10763 bound_to 10752
  154.8730  135.4058  154.3200 H   0  0  0  0  0  0  0  0  0  0  0  0  # atno 10764 bound_to 10752
  153.3881  135.7071  153.6583 H   0  0  0  0  0  0  0  0  0  0  0  0  # atno 10765 bound_to 10752
  141.0926  133.6630  156.4029 H   0  0  0  0  0  0  0  0  0  0  0  0  # atno 11005 bound_to 11000
  144.7794  139.6559  143.7161 LP  0  0  0  0  0  0  0  0  0  0  0  0  # atno 17320 bound_to 7965
  146.2241  139.5690  142.9599 LP  0  0  0  0  0  0  0  0  0  0  0  0  # atno 17321 bound_to 7965
  139.6203  144.7628  151.2755 LP  0  0  0  0  0  0  0  0  0  0  0  0  # atno 17342 bound_to 10162
  140.7380  143.6661  150.8122 LP  0  0  0  0  0  0  0  0  0  0  0  0  # atno 17343 bound_to 10162
  157.3426  131.0719  151.1776 LP  0  0  0  0  0  0  0  0  0  0  0  0  # atno 17370 bound_to 10713
  157.2619  130.6663  149.5979 LP  0  0  0  0  0  0  0  0  0  0  0  0  # atno 17371 bound_to 10713
  140.5217  134.6298  157.5320 LP  0  0  0  0  0  0  0  0  0  0  0  0  # atno 17394 bound_to 11000
  139.9755  134.7223  155.9958 LP  0  0  0  0  0  0  0  0  0  0  0  0  # atno 17395 bound_to 11000

$$$$
