#       Name:                AV-unprocessed.smi:2574
#       Creating user name   scv26
#       Creation time:       Fri Mar 27 14:13:28 2020


#       File generated by GOLD software.
#

@<TRIPOS>MOLECULE
AV-unprocessed.smi:2574
    43    45     1
SMALL
NO_CHARGES


@<TRIPOS>ATOM
      1 ****        -1.0367  -2.9574   0.7151 O.2            1 S1                 0.0000
      2 ****        -1.4566  -1.7999   0.7315 C.2            1 S1                 0.0000
      3 ****        -2.8871  -1.4574   0.7404 C.2            1 S1                 0.0000
      4 ****        -3.8973  -2.6017   0.7262 C.3            1 S1                 0.0000
      5 ****        -5.1525  -2.1516   0.6929 F              1 S1                 0.0000
      6 ****        -3.7149  -3.3776  -0.3430 F              1 S1                 0.0000
      7 ****        -3.7629  -3.3565   1.8171 F              1 S1                 0.0000
      8 ****        -3.2752  -0.1588   0.7538 C.2            1 S1                 0.0000
      9 ****        -2.2864   0.9004   0.7597 C.2            1 S1                 0.0000
     10 ****        -2.6449   2.3590   0.7647 C.3            1 S1                 0.0000
     11 ****        -3.8146   2.9047  -0.0223 C.3            1 S1                 0.0000
     12 ****        -2.4010   3.2392  -0.4389 C.3            1 S1                 0.0000
     13 ****        -1.0322   0.5975   0.7583 N.2            1 S1                 0.0000
     14 ****        -0.6196  -0.7210   0.7431 N.am           1 S1                 0.0000
     15 ****         0.8394  -0.8863   0.7180 C.3            1 S1                 0.0000
     16 ****         1.4138  -0.7454  -0.7085 C.3            1 S1                 0.0000
     17 ****         1.1926  -1.9493  -1.4172 O.3            1 S1                 0.0000
     18 ****         2.8937  -0.3943  -0.6654 C.ar           1 S1                 0.0000
     19 ****         3.3111   0.9262  -0.9387 C.ar           1 S1                 0.0000
     20 ****         4.6776   1.2638  -0.8899 C.ar           1 S1                 0.0000
     21 ****         5.6349   0.2834  -0.5660 C.ar           1 S1                 0.0000
     22 ****         5.2247  -1.0347  -0.2886 C.ar           1 S1                 0.0000
     23 ****         3.8582  -1.3727  -0.3364 C.ar           1 S1                 0.0000
     24 ****        -4.3203   0.1121   0.7605 H              1 S1                 0.0000
     25 ****        -2.4633   2.7970   1.7444 H              1 S1                 0.0000
     26 ****        -4.3723   2.2229  -0.6618 H              1 S1                 0.0000
     27 ****        -4.4026   3.6956   0.4387 H              1 S1                 0.0000
     28 ****        -2.0498   4.2528  -0.2570 H              1 S1                 0.0000
     29 ****        -2.0230   2.7709  -1.3460 H              1 S1                 0.0000
     30 ****         1.2614  -0.1000   1.3473 H              1 S1                 0.0000
     31 ****         1.1665  -1.8177   1.1838 H              1 S1                 0.0000
     32 ****         0.8910   0.0502  -1.2412 H              1 S1                 0.0000
     33 ****         1.4793  -1.8288  -2.3095 H              1 S1                 0.0000
     34 ****         2.5846   1.6869  -1.1846 H              1 S1                 0.0000
     35 ****         4.9911   2.2758  -1.0995 H              1 S1                 0.0000
     36 ****         6.6825   0.5428  -0.5274 H              1 S1                 0.0000
     37 ****         5.9583  -1.7863  -0.0371 H              1 S1                 0.0000
     38 ****         3.5524  -2.3855  -0.1167 H              1 S1                 0.0000
     39 ****        -0.0521  -3.1320   0.7099 LP             1 S1                 0.0000
     40 ****        -1.6803  -3.7227   0.7070 LP             1 S1                 0.0000
     41 ****        -0.3489   1.3276   0.7684 LP             1 S1                 0.0000
     42 ****         0.2185  -2.1748  -1.4034 LP             1 S1                 0.0000
     43 ****         1.7124  -2.6908  -0.9931 LP             1 S1                 0.0000
@<TRIPOS>BOND
    1    1    2 2     
    2    2   14 am    
    3    2    3 1     
    4    3    4 1     
    5    3    8 2     
    6    4    5 1     
    7    4    6 1     
    8    4    7 1     
    9    8    9 1     
   10    8   24 1     
   11    9   10 1     
   12    9   13 2     
   13   10   12 1     
   14   10   11 1     
   15   10   25 1     
   16   11   12 1     
   17   11   26 1     
   18   11   27 1     
   19   12   28 1     
   20   12   29 1     
   21   13   14 1     
   22   14   15 1     
   23   15   16 1     
   24   15   30 1     
   25   15   31 1     
   26   16   17 1     
   27   16   18 1     
   28   16   32 1     
   29   17   33 1     
   30   18   23 ar    
   31   18   19 ar    
   32   19   20 ar    
   33   19   34 1     
   34   20   21 ar    
   35   20   35 1     
   36   21   22 ar    
   37   21   36 1     
   38   22   23 ar    
   39   22   37 1     
   40   23   38 1     
   41    1   39 1     
   42    1   40 1     
   43   13   41 1     
   44   17   42 1     
   45   17   43 1     
@<TRIPOS>SUBSTRUCTURE
      1 S1             1
@<TRIPOS>SET
LONE_PAIRS      STATIC     ATOMS    <user>   **** ""
5 39 40 41 42 43
DONOR_HYDROGENS      STATIC     ATOMS    <user>   **** ""
1 33
ATOM$BLUE        STATIC     ATOMS    COLORGROUP SYSTEM
5 39 40 41 42 43
ATOM$RED        STATIC     ATOMS    COLORGROUP SYSTEM
1 33
