#       Name:                AV-unprocessed.smi:3056
#       Creating user name   scv26
#       Creation time:       Fri Mar 27 17:05:49 2020


#       File generated by GOLD software.
#

@<TRIPOS>MOLECULE
AV-unprocessed.smi:3056
    53    54     1
SMALL
NO_CHARGES


@<TRIPOS>ATOM
      1 ****        -2.8605  -2.6813   2.8901 C.3            1 S1                 0.0000
      2 ****        -2.4224  -2.7426   1.4552 C.2            1 S1                 0.0000
      3 ****        -2.2696  -3.8952   0.6343 C.2            1 S1                 0.0000
      4 ****        -1.8548  -3.6047  -0.5877 N.2            1 S1                 0.0000
      5 ****        -1.7443  -2.2586  -0.6015 N.pl3          1 S1                 0.0000
      6 ****        -1.2606  -1.5894  -1.8061 C.3            1 S1                 0.0000
      7 ****        -1.9876  -0.2469  -2.0331 C.3            1 S1                 0.0000
      8 ****         0.2886  -1.4840  -1.8157 C.3            1 S1                 0.0000
      9 ****         0.8295  -0.9076  -3.1397 C.3            1 S1                 0.0000
     10 ****         0.7221  -0.6947  -0.6654 N.3            1 S1                 0.0000
     11 ****         2.1711  -0.7121  -0.4289 C.3            1 S1                 0.0000
     12 ****         2.5268   0.0466   0.8553 C.2            1 S1                 0.0000
     13 ****         2.9435  -0.6080   1.8110 O.2            1 S1                 0.0000
     14 ****         2.3621   1.3913   0.9126 N.am           1 S1                 0.0000
     15 ****         2.5363   2.1666   2.1425 C.3            1 S1                 0.0000
     16 ****         1.1510   2.6817   2.5760 C.3            1 S1                 0.0000
     17 ****         0.5669   3.4516   1.5251 O.3            1 S1                 0.0000
     18 ****         0.4301   2.7322   0.2993 C.3            1 S1                 0.0000
     19 ****        -0.2245   3.6518  -0.7364 C.3            1 S1                 0.0000
     20 ****         1.8232   2.2466  -0.1485 C.3            1 S1                 0.0000
     21 ****        -2.0694  -1.7158   0.6271 C.2            1 S1                 0.0000
     22 ****        -2.7239  -3.6370   3.3963 H              1 S1                 0.0000
     23 ****        -3.9149  -2.4190   2.9771 H              1 S1                 0.0000
     24 ****        -2.2959  -1.9375   3.4525 H              1 S1                 0.0000
     25 ****        -2.4403  -4.9302   0.8920 H              1 S1                 0.0000
     26 ****        -1.5414  -2.2285  -2.6455 H              1 S1                 0.0000
     27 ****        -1.7540   0.1727  -3.0114 H              1 S1                 0.0000
     28 ****        -1.7170   0.4971  -1.2836 H              1 S1                 0.0000
     29 ****        -3.0691  -0.3785  -1.9925 H              1 S1                 0.0000
     30 ****         0.6849  -2.4942  -1.7001 H              1 S1                 0.0000
     31 ****         0.3800  -1.4120  -3.9955 H              1 S1                 0.0000
     32 ****         1.9074  -1.0405  -3.2290 H              1 S1                 0.0000
     33 ****         0.6179   0.1580  -3.2336 H              1 S1                 0.0000
     34 ****         0.2289  -1.0385   0.1465 H              1 S1                 0.0000
     35 ****         2.5105  -1.7451  -0.3372 H              1 S1                 0.0000
     36 ****         2.7146  -0.2748  -1.2658 H              1 S1                 0.0000
     37 ****         2.9870   1.5885   2.9501 H              1 S1                 0.0000
     38 ****         3.2104   3.0039   1.9564 H              1 S1                 0.0000
     39 ****         0.4931   1.8505   2.8350 H              1 S1                 0.0000
     40 ****         1.2411   3.3067   3.4645 H              1 S1                 0.0000
     41 ****        -0.2252   1.8749   0.4636 H              1 S1                 0.0000
     42 ****        -0.3634   3.1340  -1.6859 H              1 S1                 0.0000
     43 ****         0.3861   4.5359  -0.9219 H              1 S1                 0.0000
     44 ****        -1.2039   3.9878  -0.3953 H              1 S1                 0.0000
     45 ****         2.4888   3.0980  -0.2986 H              1 S1                 0.0000
     46 ****         1.7593   1.7540  -1.1171 H              1 S1                 0.0000
     47 ****        -2.0187  -0.6532   0.8139 H              1 S1                 0.0000
     48 ****        -1.6651  -4.2408  -1.3356 LP             1 S1                 0.0000
     49 ****         0.5054   0.2628  -0.8557 LP             1 S1                 0.0000
     50 ****         3.0400  -1.6003   1.7333 LP             1 S1                 0.0000
     51 ****         3.1855  -0.1474   2.6650 LP             1 S1                 0.0000
     52 ****         1.1444   4.2511   1.3600 LP             1 S1                 0.0000
     53 ****        -0.3407   3.7511   1.8192 LP             1 S1                 0.0000
@<TRIPOS>BOND
    1    1    2 1     
    2    1   22 1     
    3    1   23 1     
    4    1   24 1     
    5    2   21 2     
    6    2    3 1     
    7    3    4 2     
    8    3   25 1     
    9    4    5 1     
   10    5    6 1     
   11    5   21 1     
   12    6    7 1     
   13    6    8 1     
   14    6   26 1     
   15    7   27 1     
   16    7   28 1     
   17    7   29 1     
   18    8    9 1     
   19    8   10 1     
   20    8   30 1     
   21    9   31 1     
   22    9   32 1     
   23    9   33 1     
   24   10   11 1     
   25   10   34 1     
   26   11   12 1     
   27   11   35 1     
   28   11   36 1     
   29   12   13 2     
   30   12   14 am    
   31   14   20 1     
   32   14   15 1     
   33   15   16 1     
   34   15   37 1     
   35   15   38 1     
   36   16   17 1     
   37   16   39 1     
   38   16   40 1     
   39   17   18 1     
   40   18   19 1     
   41   18   20 1     
   42   18   41 1     
   43   19   42 1     
   44   19   43 1     
   45   19   44 1     
   46   20   45 1     
   47   20   46 1     
   48   21   47 1     
   49    4   48 1     
   50   10   49 1     
   51   13   50 1     
   52   13   51 1     
   53   17   52 1     
   54   17   53 1     
@<TRIPOS>SUBSTRUCTURE
      1 S1             1
@<TRIPOS>SET
LONE_PAIRS      STATIC     ATOMS    <user>   **** ""
6 48 49 50 51 52 53
DONOR_HYDROGENS      STATIC     ATOMS    <user>   **** ""
1 34
ATOM$BLUE        STATIC     ATOMS    COLORGROUP SYSTEM
6 48 49 50 51 52 53
ATOM$RED        STATIC     ATOMS    COLORGROUP SYSTEM
1 34
