#       Name:                AV-unprocessed.smi:1251
#       Creating user name   scv26
#       Creation time:       Fri Mar 27 04:37:01 2020


#       File generated by GOLD software.
#

@<TRIPOS>MOLECULE
AV-unprocessed.smi:1251
    45    46     1
SMALL
NO_CHARGES


@<TRIPOS>ATOM
      1 ****        -7.2735  -0.0839  -0.9715 C.3            1 S1                 0.0000
      2 ****        -5.7933  -0.4738  -0.9000 C.3            1 S1                 0.0000
      3 ****        -5.3322  -0.7739   0.5331 C.3            1 S1                 0.0000
      4 ****        -3.8956  -1.1724   0.6015 C.2            1 S1                 0.0000
      5 ****        -3.4907  -2.4419   0.4679 N.2            1 S1                 0.0000
      6 ****        -2.1101  -2.5674   0.5406 N.2            1 S1                 0.0000
      7 ****        -1.5101  -1.3862   0.7114 C.2            1 S1                 0.0000
      8 ****        -0.0959  -1.3639   0.8009 N.am           1 S1                 0.0000
      9 ****         0.7045  -0.2998   0.9728 C.2            1 S1                 0.0000
     10 ****         0.3247   0.8660   1.0802 O.2            1 S1                 0.0000
     11 ****         1.9938  -0.6679   1.0081 N.am           1 S1                 0.0000
     12 ****         3.1375   0.2262   1.1827 C.3            1 S1                 0.0000
     13 ****         4.0827  -0.3809   2.2299 C.3            1 S1                 0.0000
     14 ****         3.8501   0.4603  -0.1654 C.3            1 S1                 0.0000
     15 ****         2.9764   1.0685  -1.2644 C.3            1 S1                 0.0000
     16 ****         4.0159   1.6768  -2.1768 C.3            1 S1                 0.0000
     17 ****         5.0398   2.2068  -1.1768 C.3            1 S1                 0.0000
     18 ****         4.9187   1.3918  -0.0132 O.3            1 S1                 0.0000
     19 ****        -2.5979  -0.0006   0.7967 S.3            1 S1                 0.0000
     20 ****        -7.5711   0.1237  -1.9996 H              1 S1                 0.0000
     21 ****        -7.4748   0.8098  -0.3801 H              1 S1                 0.0000
     22 ****        -7.9102  -0.8854  -0.5962 H              1 S1                 0.0000
     23 ****        -5.6228  -1.3482  -1.5292 H              1 S1                 0.0000
     24 ****        -5.1880   0.3312  -1.3186 H              1 S1                 0.0000
     25 ****        -5.4799   0.1022   1.1655 H              1 S1                 0.0000
     26 ****        -5.9381  -1.5735   0.9617 H              1 S1                 0.0000
     27 ****         0.3570  -2.2628   0.7277 H              1 S1                 0.0000
     28 ****         2.2052  -1.6496   0.9046 H              1 S1                 0.0000
     29 ****         2.7995   1.1906   1.5663 H              1 S1                 0.0000
     30 ****         4.9336   0.2739   2.4195 H              1 S1                 0.0000
     31 ****         4.4722  -1.3454   1.9024 H              1 S1                 0.0000
     32 ****         3.5707  -0.5328   3.1808 H              1 S1                 0.0000
     33 ****         4.2768  -0.4753  -0.5316 H              1 S1                 0.0000
     34 ****         2.3462   0.3336  -1.7662 H              1 S1                 0.0000
     35 ****         2.3340   1.8508  -0.8574 H              1 S1                 0.0000
     36 ****         4.4641   0.9018  -2.8002 H              1 S1                 0.0000
     37 ****         3.6150   2.4523  -2.8299 H              1 S1                 0.0000
     38 ****         6.0546   2.1816  -1.5745 H              1 S1                 0.0000
     39 ****         4.8093   3.2367  -0.9018 H              1 S1                 0.0000
     40 ****        -4.1128  -3.2127   0.3311 LP             1 S1                 0.0000
     41 ****        -1.6229  -3.4381   0.4731 LP             1 S1                 0.0000
     42 ****        -0.6514   1.0794   1.0415 LP             1 S1                 0.0000
     43 ****         0.9924   1.5998   1.2062 LP             1 S1                 0.0000
     44 ****         5.7732   0.8922   0.1290 LP             1 S1                 0.0000
     45 ****         4.7373   1.9743   0.7792 LP             1 S1                 0.0000
@<TRIPOS>BOND
    1    1    2 1     
    2    1   20 1     
    3    1   21 1     
    4    1   22 1     
    5    2    3 1     
    6    2   23 1     
    7    2   24 1     
    8    3    4 1     
    9    3   25 1     
   10    3   26 1     
   11    4   19 1     
   12    4    5 2     
   13    5    6 1     
   14    6    7 2     
   15    7    8 1     
   16    7   19 1     
   17    8    9 am    
   18    8   27 1     
   19    9   10 2     
   20    9   11 am    
   21   11   12 1     
   22   11   28 1     
   23   12   13 1     
   24   12   14 1     
   25   12   29 1     
   26   13   30 1     
   27   13   31 1     
   28   13   32 1     
   29   14   18 1     
   30   14   15 1     
   31   14   33 1     
   32   15   16 1     
   33   15   34 1     
   34   15   35 1     
   35   16   17 1     
   36   16   36 1     
   37   16   37 1     
   38   17   18 1     
   39   17   38 1     
   40   17   39 1     
   41    5   40 1     
   42    6   41 1     
   43   10   42 1     
   44   10   43 1     
   45   18   44 1     
   46   18   45 1     
@<TRIPOS>SUBSTRUCTURE
      1 S1             1
@<TRIPOS>SET
LONE_PAIRS      STATIC     ATOMS    <user>   **** ""
6 40 41 42 43 44 45
DONOR_HYDROGENS      STATIC     ATOMS    <user>   **** ""
2 27 28
ATOM$BLUE        STATIC     ATOMS    COLORGROUP SYSTEM
6 40 41 42 43 44 45
ATOM$RED        STATIC     ATOMS    COLORGROUP SYSTEM
2 27 28
