AV-unprocessed.smi:565|AV-procd|sdf|2953|dock5
  -GOLD-   2262023453D 1   1.00000     0.00000
 Structure written by MMmdl.
 50 51  0  0  0  0  0  0  0  0  2 V2000
  151.3429  139.9415  156.6909 C   0  0  0  0  0  0  0  0  0  0  0  0
  152.0427  140.6839  157.7933 C   0  0  0  0  0  0  0  0  0  0  0  0
  153.0732  140.1224  158.4031 N   0  0  0  0  0  0  0  0  0  0  0  0
  153.4701  141.0318  159.3160 N   0  0  0  0  0  0  0  0  0  0  0  0
  154.6006  140.7336  160.1735 C   0  0  0  0  0  0  0  0  0  0  0  0
  152.6878  142.1695  159.2834 C   0  0  0  0  0  0  0  0  0  0  0  0
  152.9320  143.3287  160.1951 C   0  0  0  0  0  0  0  0  0  0  0  0
  151.7460  141.9805  158.3071 C   0  0  0  0  0  0  0  0  0  0  0  0
  150.6500  142.9135  157.8594 C   0  0  0  0  0  0  0  0  0  0  0  0
  149.2971  142.2097  157.9766 C   0  0  0  0  0  0  0  0  0  0  0  0
  149.1908  141.1838  158.6491 O   0  0  0  0  0  0  0  0  0  0  0  0
  148.2676  142.7740  157.3268 N   0  0  0  0  0  0  0  0  0  0  0  0
  146.8914  142.2935  157.3610 C   0  0  0  0  0  0  0  0  0  0  0  0
  145.8754  143.4365  157.1623 C   0  0  0  0  0  0  0  0  0  0  0  0
  145.9721  144.4745  158.2194 N   0  3  1  0  0  0  0  0  0  0  0  0
  144.9279  145.5211  158.0727 C   0  0  0  0  0  0  0  0  0  0  0  0
  145.1465  146.6670  159.0731 C   0  0  0  0  0  0  0  0  0  0  0  0
  145.1971  146.1389  160.5138 C   0  0  0  0  0  0  0  0  0  0  0  0
  146.2318  145.0078  160.6585 C   0  0  2  0  0  0  0  0  0  0  0  0
  147.6825  145.5212  160.6434 C   0  0  0  0  0  0  0  0  0  0  0  0
  145.9894  143.9132  159.5985 C   0  0  0  0  0  0  0  0  0  0  0  0
  151.2946  140.5454  155.7849 H   0  0  0  0  0  0  0  0  0  0  0  0
  150.3217  139.6915  156.9784 H   0  0  0  0  0  0  0  0  0  0  0  0
  151.8541  139.0113  156.4400 H   0  0  0  0  0  0  0  0  0  0  0  0
  154.2705  140.6923  161.2115 H   0  0  0  0  0  0  0  0  0  0  0  0
  155.3555  141.5133  160.0702 H   0  0  0  0  0  0  0  0  0  0  0  0
  155.0467  139.7750  159.9053 H   0  0  0  0  0  0  0  0  0  0  0  0
  152.2281  144.1386  160.0051 H   0  0  0  0  0  0  0  0  0  0  0  0
  153.9376  143.7256  160.0559 H   0  0  0  0  0  0  0  0  0  0  0  0
  152.8253  143.0307  161.2382 H   0  0  0  0  0  0  0  0  0  0  0  0
  150.6462  143.8294  158.4520 H   0  0  0  0  0  0  0  0  0  0  0  0
  150.7894  143.2286  156.8251 H   0  0  0  0  0  0  0  0  0  0  0  0
  148.4461  143.6168  156.7995 H   0  0  0  0  0  0  0  0  0  0  0  0
  146.7771  141.5167  156.6050 H   0  0  0  0  0  0  0  0  0  0  0  0
  146.7261  141.8142  158.3263 H   0  0  0  0  0  0  0  0  0  0  0  0
  146.0707  143.8936  156.1911 H   0  0  0  0  0  0  0  0  0  0  0  0
  144.8533  143.0573  157.1226 H   0  0  0  0  0  0  0  0  0  0  0  0
  144.9470  145.9260  157.0602 H   0  0  0  0  0  0  0  0  0  0  0  0
  143.9419  145.0761  158.2176 H   0  0  0  0  0  0  0  0  0  0  0  0
  146.0722  147.1919  158.8350 H   0  0  0  0  0  0  0  0  0  0  0  0
  144.3466  147.4018  158.9768 H   0  0  0  0  0  0  0  0  0  0  0  0
  145.4160  146.9509  161.2082 H   0  0  0  0  0  0  0  0  0  0  0  0
  144.2113  145.7606  160.7881 H   0  0  0  0  0  0  0  0  0  0  0  0
  146.0792  144.5526  161.6379 H   0  0  0  0  0  0  0  0  0  0  0  0
  147.9435  145.9801  159.6897 H   0  0  0  0  0  0  0  0  0  0  0  0
  148.3872  144.7081  160.8201 H   0  0  0  0  0  0  0  0  0  0  0  0
  147.8415  146.2659  161.4237 H   0  0  0  0  0  0  0  0  0  0  0  0
  145.0362  143.4180  159.7916 H   0  0  0  0  0  0  0  0  0  0  0  0
  146.7577  143.1477  159.6973 H   0  0  0  0  0  0  0  0  0  0  0  0
  146.8577  144.9400  158.0812 H   0  0  0  0  0  0  0  0  0  0  0  0
  1  2  1  0  0  0  0
  1 22  1  0  0  0  0
  1 23  1  0  0  0  0
  1 24  1  0  0  0  0
  2  8  1  0  0  0  0
  2  3  2  0  0  0  0
  3  4  1  0  0  0  0
  4  5  1  0  0  0  0
  4  6  1  0  0  0  0
  5 25  1  0  0  0  0
  5 26  1  0  0  0  0
  5 27  1  0  0  0  0
  6  7  1  0  0  0  0
  6  8  2  0  0  0  0
  7 28  1  0  0  0  0
  7 29  1  0  0  0  0
  7 30  1  0  0  0  0
  8  9  1  0  0  0  0
  9 10  1  0  0  0  0
  9 31  1  0  0  0  0
  9 32  1  0  0  0  0
 10 11  2  0  0  0  0
 10 12  1  0  0  0  0
 12 13  1  0  0  0  0
 12 33  1  0  0  0  0
 13 14  1  0  0  0  0
 13 34  1  0  0  0  0
 13 35  1  0  0  0  0
 14 15  1  0  0  0  0
 14 36  1  0  0  0  0
 14 37  1  0  0  0  0
 15 21  1  0  0  0  0
 15 16  1  0  0  0  0
 15 50  1  0  0  0  0
 16 17  1  0  0  0  0
 16 38  1  0  0  0  0
 16 39  1  0  0  0  0
 17 18  1  0  0  0  0
 17 40  1  0  0  0  0
 17 41  1  0  0  0  0
 18 19  1  0  0  0  0
 18 42  1  0  0  0  0
 18 43  1  0  0  0  0
 19 20  1  0  0  0  0
 19 21  1  0  0  0  0
 19 44  1  0  0  0  0
 20 45  1  0  0  0  0
 20 46  1  0  0  0  0
 20 47  1  0  0  0  0
 21 48  1  0  0  0  0
 21 49  1  0  0  0  0
M  CHG  1  15   1
M  END
> <s_m_source_file>
AV-unprocessed.smi

> <i_m_source_file_index>
565

> <i_lp_mmshare_version>
43012

> <i_f3d_flags>
0

> <s_epik_input>
W0NIM11jMW5uKFtDSDNdKWMoW0NIM10pYzFbQ0gyXUMoPU8pW05IXVtDSDJdW0NIMl1OMltDSDJdW0NIMl1bQ0gyXVtDQEBIXShbQ0gzXSlbQ0gyXTI=

> <s_epik_cmdline>
J2VwaWtfcHl0aG9uJywgJy1waCcsICc3LjAnLCAnLXRuJywgJzgnLCAnLW1hJywgJzIwMCcsICctbWV0YWxfYmluZGluZycsICctaW1hZScsICc8aW5maWxlLm1hZT4nLCAnLW9tYWUnLCAnPG91dGZpbGUubWFlPic=

> <r_lp_tautomer_probability>
1

> <r_epik_Ionization_Penalty>
0.00411138

> <r_epik_Ionization_Penalty_Charging>
0.0019503

> <r_epik_Ionization_Penalty_Neutral>
0.00216107

> <r_epik_State_Penalty>
-0

> <r_epik_Charging_Adjusted_Penalty>
0.0019503

> <i_epik_Tot_Q>
1

> <i_epik_Tot_abs_Q>
1

> <r_epik_Metal_State_Penalty>
-0

> <b_epik_Metal_Only>
0

> <s_lp_Force_Field>
OPLS_2005

> <r_lp_Energy>
13.161

> <b_lp_Chiralities_Consistent>
1

> <s_lp_Variant>
AV-unprocessed.smi:565-3

> <Gold.Version>
5.8.1

> <Gold.Id.Protein>
6NUR|6NUR_protein|mol2

> <Gold.PLP.Fitness>
44.4738

> <Gold.PLP.PLP>
-33.6723

> <Gold.PLP.part.hbond>
-3.0459

> <Gold.PLP.part.metal>
0.0000

> <Gold.PLP.part.buried>
-3.2803

> <Gold.PLP.part.nonpolar>
-26.1519

> <Gold.PLP.part.repulsive>
0.0295

> <Gold.PLP.ligand.clash>
0.0000

> <Gold.PLP.ligand.torsion>
0.4367

> <Gold.PLP.Chemscore.Hbond>
3.8800

> <Gold.PLP.Chemscore.CHOScore>
0.0000

> <Gold.PLP.Chemscore.Metal>
0.0000

> <Gold.Chemscore.Hbonds>
donor molecule, donor type, donor heavy atom, donor atom, acceptor molecule, acceptor atom, score
      L1  H    12    33       P1  8028  0.80
      L1  H    15    50       P1  8029  2.00
      P1  H  7997  8009       L1     3  0.76

> <Gold.PLP.Chemscore.Internal.Correction>
0.0348

> <Gold.Rescore>
     Score         DG    S(hbond)    S(metal)    S(lipo)     H(rot)  DE(clash)    DE(int)     intcor
     16.31     -16.87       1.61        0.00      86.61       1.61       0.06       0.50       ----

> <Gold.Chemscore.Fitness>
16.3055

> <Gold.Chemscore.DG>
-16.8663

> <Gold.Chemscore.ZeroCoef>
-5.4800

> <Gold.Chemscore.Hbond>
1.6125

> <Gold.Chemscore.Metal>
0.0000

> <Gold.Chemscore.Lipo>
86.6063

> <Gold.Chemscore.Internal_Hbond>
0.0000

> <Gold.Chemscore.DEClash>
0.0561

> <Gold.Chemscore.DEInternal>
0.5046

> <Gold.Chemscore.Rot>
1.6142

> <Gold.Chemscore.Internal.Correction>
   9.000000E+99

> <Gold.Chemscore.Hbonds>
donor molecule, donor type, donor heavy atom, donor atom, acceptor molecule, acceptor atom, score
      L1  H    12    33       P1  8028  0.12
      L1  H    15    50       P1  8029  0.84
      P1  H  7997  8009       L1     3  0.15

> <Gold.Chemscore.Hbond.Weighted>
-5.3857

> <Gold.Chemscore.Metal.Weighted>
-0.0000

> <Gold.Chemscore.Lipo.Weighted>
-10.1329

> <Gold.Chemscore.Internal_Hbond.Weighted>
0.0000

> <Gold.Chemscore.DEClash.Weighted>
0.0561

> <Gold.Chemscore.DEInternal.Weighted>
0.5046

> <Gold.Chemscore.Rot.Weighted>
4.1324

> <Gold.Chemscore.Internal.Correction.Weighted>
   9.000000E+99

> <Gold.Protein.RotatedTorsions>
[ 6907 6896 6895 6894 ] final -135.75 input  -60.11 | X-H torsion
[ 7974 7965 7964 7962 ] final -176.55 input  175.53 | X-H torsion
[ 8008 7997 7996 7995 ] final  140.23 input   59.86 | X-H torsion
[ 10167 10162 10161 10158 ] final   27.31 input  -65.29 | X-H torsion
[ 10718 10713 10712 10709 ] final  -90.11 input   66.30 | X-H torsion
[ 10763 10752 10751 10750 ] final   41.61 input  -60.55 | X-H torsion
[ 11005 11000 10999 10996 ] final  -50.82 input  -57.11 | X-H torsion

> <Gold.Protein.ActiveResidues>
 VAL166  LYS551  ARG553  GLY616  TRP617  ASP618  TYR619  PRO620  LYS621  CYS622 
 ASP623  PHE694  ASN695  SER759  ASP760  ASP761  ALA762  ILE779  LEU786  VAL792 
 PHE793  MET794  SER795  GLU796  ALA797  LYS798  CYS799  TRP800  GLU811  SER814 

> <Gold.Protein.RotatedAtoms>
  151.0017  133.6050  159.2693 H   0  0  0  0  0  0  0  0  0  0  0  0  # atno 6907 bound_to 6896
  151.3234  135.0823  159.9323 H   0  0  0  0  0  0  0  0  0  0  0  0  # atno 6908 bound_to 6896
  152.5275  133.9660  159.7794 H   0  0  0  0  0  0  0  0  0  0  0  0  # atno 6909 bound_to 6896
  144.7127  140.1154  143.6408 H   0  0  0  0  0  0  0  0  0  0  0  0  # atno 7974 bound_to 7965
  156.2981  140.2347  156.4366 H   0  0  0  0  0  0  0  0  0  0  0  0  # atno 8008 bound_to 7997
  154.8223  140.0437  157.1439 H   0  0  0  0  0  0  0  0  0  0  0  0  # atno 8009 bound_to 7997
  154.9301  140.3015  155.5175 H   0  0  0  0  0  0  0  0  0  0  0  0  # atno 8010 bound_to 7997
  140.4949  144.0407  150.6311 H   0  0  0  0  0  0  0  0  0  0  0  0  # atno 10167 bound_to 10162
  155.9986  130.4897  150.5273 H   0  0  0  0  0  0  0  0  0  0  0  0  # atno 10718 bound_to 10713
  152.9904  135.6156  154.2815 H   0  0  0  0  0  0  0  0  0  0  0  0  # atno 10763 bound_to 10752
  154.2544  135.2784  155.2805 H   0  0  0  0  0  0  0  0  0  0  0  0  # atno 10764 bound_to 10752
  154.5260  135.5801  153.6777 H   0  0  0  0  0  0  0  0  0  0  0  0  # atno 10765 bound_to 10752
  141.0837  133.6647  156.3787 H   0  0  0  0  0  0  0  0  0  0  0  0  # atno 11005 bound_to 11000
  145.9418  139.2674  143.1264 LP  0  0  0  0  0  0  0  0  0  0  0  0  # atno 17320 bound_to 7965
  145.9416  140.8975  143.0305 LP  0  0  0  0  0  0  0  0  0  0  0  0  # atno 17321 bound_to 7965
  140.3687  143.2867  152.0302 LP  0  0  0  0  0  0  0  0  0  0  0  0  # atno 17342 bound_to 10162
  139.4859  144.6247  151.7188 LP  0  0  0  0  0  0  0  0  0  0  0  0  # atno 17343 bound_to 10162
  157.3226  131.0685  151.1920 LP  0  0  0  0  0  0  0  0  0  0  0  0  # atno 17370 bound_to 10713
  157.2828  130.6758  149.6074 LP  0  0  0  0  0  0  0  0  0  0  0  0  # atno 17371 bound_to 10713
  140.5411  134.6119  157.5380 LP  0  0  0  0  0  0  0  0  0  0  0  0  # atno 17394 bound_to 11000
  139.9653  134.7383  156.0151 LP  0  0  0  0  0  0  0  0  0  0  0  0  # atno 17395 bound_to 11000

$$$$
