#       Name:                AV-unprocessed.smi:2493
#       Creating user name   scv26
#       Creation time:       Fri Mar 27 13:45:11 2020


#       File generated by GOLD software.
#

@<TRIPOS>MOLECULE
AV-unprocessed.smi:2493
    44    45     1
SMALL
NO_CHARGES


@<TRIPOS>ATOM
      1 ****        -0.5571   1.4579   1.8547 C.3            1 S1                 0.0000
      2 ****        -1.0799   0.7701   0.5719 C.3            1 S1                 0.0000
      3 ****        -0.4776  -0.6606   0.4715 C.3            1 S1                 0.0000
      4 ****         0.9747  -0.6766   0.3000 N.am           1 S1                 0.0000
      5 ****         1.8763  -0.9475   1.2572 C.2            1 S1                 0.0000
      6 ****         1.5762  -1.2068   2.4226 O.2            1 S1                 0.0000
      7 ****         3.3457  -0.9141   0.8362 C.3            1 S1                 0.0000
      8 ****         3.7482  -2.2415   0.2521 C.2            1 S1                 0.0000
      9 ****         4.1556  -3.4187   0.9478 C.2            1 S1                 0.0000
     10 ****         4.4053  -4.3233  -0.0443 C.2            1 S1                 0.0000
     11 ****         4.1528  -3.6802  -1.2328 N.pl3          1 S1                 0.0000
     12 ****         3.7527  -2.4059  -1.0648 N.2            1 S1                 0.0000
     13 ****        -2.6229   0.6447   0.7055 C.3            1 S1                 0.0000
     14 ****        -3.4118   0.4346  -0.6007 C.3            1 S1                 0.0000
     15 ****        -3.8277   1.7588  -1.2640 C.3            1 S1                 0.0000
     16 ****        -2.6779   2.5312  -1.9260 C.3            1 S1                 0.0000
     17 ****        -1.4949   2.8453  -0.9939 C.3            1 S1                 0.0000
     18 ****        -0.6440   1.6039  -0.6664 C.3            1 S1                 0.0000
     19 ****         4.2489  -4.0906  -2.1509 H              1 S1                 0.0000
     20 ****        -0.7970   0.8718   2.7427 H              1 S1                 0.0000
     21 ****        -0.9970   2.4462   1.9890 H              1 S1                 0.0000
     22 ****         0.5241   1.5943   1.8367 H              1 S1                 0.0000
     23 ****        -0.7625  -1.2564   1.3405 H              1 S1                 0.0000
     24 ****        -0.9007  -1.1810  -0.3878 H              1 S1                 0.0000
     25 ****         1.3220  -0.4769  -0.6270 H              1 S1                 0.0000
     26 ****         3.5046  -0.1056   0.1208 H              1 S1                 0.0000
     27 ****         3.9621  -0.6815   1.7053 H              1 S1                 0.0000
     28 ****         4.2465  -3.5727   2.0128 H              1 S1                 0.0000
     29 ****         4.7360  -5.3507  -0.0044 H              1 S1                 0.0000
     30 ****        -2.8481  -0.1810   1.3818 H              1 S1                 0.0000
     31 ****        -3.0281   1.5221   1.2114 H              1 S1                 0.0000
     32 ****        -2.8690  -0.2014  -1.3003 H              1 S1                 0.0000
     33 ****        -4.3251  -0.1090  -0.3561 H              1 S1                 0.0000
     34 ****        -4.5791   1.5475  -2.0256 H              1 S1                 0.0000
     35 ****        -4.3241   2.3971  -0.5318 H              1 S1                 0.0000
     36 ****        -2.3228   1.9824  -2.7990 H              1 S1                 0.0000
     37 ****        -3.0767   3.4698  -2.3121 H              1 S1                 0.0000
     38 ****        -0.8549   3.5617  -1.5099 H              1 S1                 0.0000
     39 ****        -1.8313   3.3504  -0.0884 H              1 S1                 0.0000
     40 ****         0.3883   1.9268  -0.5242 H              1 S1                 0.0000
     41 ****        -0.6102   0.9656  -1.5505 H              1 S1                 0.0000
     42 ****         0.6155  -1.2236   2.6996 LP             1 S1                 0.0000
     43 ****         2.2931  -1.4007   3.0923 LP             1 S1                 0.0000
     44 ****         3.5141  -1.7376  -1.7694 LP             1 S1                 0.0000
@<TRIPOS>BOND
    1    1    2 1     
    2    1   20 1     
    3    1   21 1     
    4    1   22 1     
    5    2   18 1     
    6    2    3 1     
    7    2   13 1     
    8    3    4 1     
    9    3   23 1     
   10    3   24 1     
   11    4    5 am    
   12    4   25 1     
   13    5    6 2     
   14    5    7 1     
   15    7   26 1     
   16    7   27 1     
   17    7    8 1     
   18    8   12 2     
   19    8    9 1     
   20    9   10 2     
   21    9   28 1     
   22   10   11 1     
   23   10   29 1     
   24   11   12 1     
   25   11   19 1     
   26   13   14 1     
   27   13   30 1     
   28   13   31 1     
   29   14   15 1     
   30   14   32 1     
   31   14   33 1     
   32   15   16 1     
   33   15   34 1     
   34   15   35 1     
   35   16   17 1     
   36   16   36 1     
   37   16   37 1     
   38   17   18 1     
   39   17   38 1     
   40   17   39 1     
   41   18   40 1     
   42   18   41 1     
   43    6   42 1     
   44    6   43 1     
   45   12   44 1     
@<TRIPOS>SUBSTRUCTURE
      1 S1             1
@<TRIPOS>SET
LONE_PAIRS      STATIC     ATOMS    <user>   **** ""
3 42 43 44
DONOR_HYDROGENS      STATIC     ATOMS    <user>   **** ""
2 25 19
ATOM$BLUE        STATIC     ATOMS    COLORGROUP SYSTEM
3 42 43 44
ATOM$RED        STATIC     ATOMS    COLORGROUP SYSTEM
2 25 19
