AV-unprocessed.smi:117|AV-procd|sdf|1129|dock6
  -GOLD-   2262018253D 1   1.00000     0.00000
 Structure written by MMmdl.
 53 55  0  0  0  0  0  0  0  0  1 V2000
  152.6884  144.3977  161.1694 C   0  0  0  0  0  0  0  0  0  0  0  0
  152.1647  143.7745  159.8862 C   0  0  0  0  0  0  0  0  0  0  0  0
  151.6108  144.6239  158.9067 C   0  0  0  0  0  0  0  0  0  0  0  0
  151.0912  144.0923  157.7155 C   0  0  0  0  0  0  0  0  0  0  0  0
  151.1237  142.7057  157.4921 C   0  0  0  0  0  0  0  0  0  0  0  0
  151.6947  141.8357  158.4523 C   0  0  0  0  0  0  0  0  0  0  0  0
  151.7133  140.4219  158.2730 N   0  0  0  0  0  0  0  0  0  0  0  0
  151.4894  139.7032  157.1570 C   0  0  0  0  0  0  0  0  0  0  0  0
  151.2238  140.1857  156.0553 O   0  0  0  0  0  0  0  0  0  0  0  0
  151.6041  138.1829  157.3374 C   0  0  0  0  0  0  0  0  0  0  0  0
  150.3157  137.5002  157.4372 N   0  0  0  0  0  0  0  0  0  0  0  0
  149.8394  136.8937  158.5359 C   0  0  0  0  0  0  0  0  0  0  0  0
  150.4507  136.8591  159.6045 O   0  0  0  0  0  0  0  0  0  0  0  0
  148.4536  136.2458  158.3959 C   0  0  0  0  0  0  0  0  0  0  0  0
  148.1232  135.3204  159.5019 N   0  0  0  0  0  0  0  0  0  0  0  0
  147.9390  135.8610  160.7987 C   0  0  0  0  0  0  0  0  0  0  0  0
  148.0617  137.0684  161.0107 O   0  0  0  0  0  0  0  0  0  0  0  0
  147.5913  134.8992  161.8384 C   0  0  0  0  0  0  0  0  0  0  0  0
  147.3874  135.3231  163.0972 F   0  0  0  0  0  0  0  0  0  0  0  0
  147.4680  133.5863  161.5560 C   0  0  0  0  0  0  0  0  0  0  0  0
  147.6687  133.0685  160.2917 N   0  0  0  0  0  0  0  0  0  0  0  0
  147.4554  131.5908  160.0577 C   0  0  2  0  0  0  0  0  0  0  0  0
  145.9949  131.1393  160.2476 C   0  0  0  0  0  0  0  0  0  0  0  0
  146.1040  130.0836  161.3356 C   0  0  0  0  0  0  0  0  0  0  0  0
  147.5683  129.6657  161.2577 C   0  0  0  0  0  0  0  0  0  0  0  0
  148.2410  130.8798  160.9638 O   0  0  0  0  0  0  0  0  0  0  0  0
  147.9741  133.9407  159.2209 C   0  0  0  0  0  0  0  0  0  0  0  0
  148.1003  133.5148  158.0717 O   0  0  0  0  0  0  0  0  0  0  0  0
  152.2144  142.3726  159.6612 C   0  0  0  0  0  0  0  0  0  0  0  0
  152.8114  141.4371  160.7104 C   0  0  0  0  0  0  0  0  0  0  0  0
  152.4627  145.4635  161.2160 H   0  0  0  0  0  0  0  0  0  0  0  0
  153.7706  144.2843  161.2351 H   0  0  0  0  0  0  0  0  0  0  0  0
  152.2319  143.9259  162.0401 H   0  0  0  0  0  0  0  0  0  0  0  0
  151.5719  145.6912  159.0691 H   0  0  0  0  0  0  0  0  0  0  0  0
  150.6558  144.7479  156.9757 H   0  0  0  0  0  0  0  0  0  0  0  0
  150.6865  142.3309  156.5798 H   0  0  0  0  0  0  0  0  0  0  0  0
  152.0089  139.8923  159.0801 H   0  0  0  0  0  0  0  0  0  0  0  0
  152.1892  137.7625  156.5176 H   0  0  0  0  0  0  0  0  0  0  0  0
  152.1621  137.9833  158.2525 H   0  0  0  0  0  0  0  0  0  0  0  0
  149.7494  137.4764  156.6020 H   0  0  0  0  0  0  0  0  0  0  0  0
  147.7146  137.0434  158.3096 H   0  0  0  0  0  0  0  0  0  0  0  0
  148.3955  135.7290  157.4364 H   0  0  0  0  0  0  0  0  0  0  0  0
  147.2034  132.9168  162.3613 H   0  0  0  0  0  0  0  0  0  0  0  0
  147.8092  131.3922  159.0448 H   0  0  0  0  0  0  0  0  0  0  0  0
  145.3325  131.9626  160.5166 H   0  0  0  0  0  0  0  0  0  0  0  0
  145.6420  130.7035  159.3123 H   0  0  0  0  0  0  0  0  0  0  0  0
  145.8950  130.5249  162.3104 H   0  0  0  0  0  0  0  0  0  0  0  0
  145.4172  129.2498  161.1899 H   0  0  0  0  0  0  0  0  0  0  0  0
  147.9295  129.2199  162.1845 H   0  0  0  0  0  0  0  0  0  0  0  0
  147.7279  128.9545  160.4455 H   0  0  0  0  0  0  0  0  0  0  0  0
  153.4090  140.6530  160.2448 H   0  0  0  0  0  0  0  0  0  0  0  0
  152.0139  140.9636  161.2833 H   0  0  0  0  0  0  0  0  0  0  0  0
  153.4720  141.9472  161.4091 H   0  0  0  0  0  0  0  0  0  0  0  0
  1  2  1  0  0  0  0
  1 31  1  0  0  0  0
  1 32  1  0  0  0  0
  1 33  1  0  0  0  0
  2 29  1  0  0  0  0
  2  3  2  0  0  0  0
  3  4  1  0  0  0  0
  3 34  1  0  0  0  0
  4  5  2  0  0  0  0
  4 35  1  0  0  0  0
  5  6  1  0  0  0  0
  5 36  1  0  0  0  0
  6  7  1  0  0  0  0
  6 29  2  0  0  0  0
  7  8  1  0  0  0  0
  7 37  1  0  0  0  0
  8  9  2  0  0  0  0
  8 10  1  0  0  0  0
 10 11  1  0  0  0  0
 10 38  1  0  0  0  0
 10 39  1  0  0  0  0
 11 12  1  0  0  0  0
 11 40  1  0  0  0  0
 12 13  2  0  0  0  0
 12 14  1  0  0  0  0
 14 15  1  0  0  0  0
 14 41  1  0  0  0  0
 14 42  1  0  0  0  0
 15 27  1  0  0  0  0
 15 16  1  0  0  0  0
 16 17  2  0  0  0  0
 16 18  1  0  0  0  0
 18 19  1  0  0  0  0
 18 20  2  0  0  0  0
 20 21  1  0  0  0  0
 20 43  1  0  0  0  0
 21 22  1  0  0  0  0
 21 27  1  0  0  0  0
 22 26  1  0  0  0  0
 22 23  1  0  0  0  0
 22 44  1  0  0  0  0
 23 24  1  0  0  0  0
 23 45  1  0  0  0  0
 23 46  1  0  0  0  0
 24 25  1  0  0  0  0
 24 47  1  0  0  0  0
 24 48  1  0  0  0  0
 25 26  1  0  0  0  0
 25 49  1  0  0  0  0
 25 50  1  0  0  0  0
 27 28  2  0  0  0  0
 29 30  1  0  0  0  0
 30 51  1  0  0  0  0
 30 52  1  0  0  0  0
 30 53  1  0  0  0  0
M  END
> <s_m_source_file>
AV-unprocessed.smi

> <i_m_source_file_index>
117

> <i_lp_mmshare_version>
43012

> <i_f3d_flags>
0

> <s_epik_input>
W0NIM11jMVtjSF1bY0hdW2NIXWMoYzFbQ0gzXSlbTkhdQyg9TylbQ0gyXVtOSF1DKD1PKVtDSDJdbjJjKD1PKWMoRilbY0hdbihjMj1PKVtDQEBIXTNbQ0gyXVtDSDJdW0NIMl1PMw==

> <s_epik_cmdline>
J2VwaWtfcHl0aG9uJywgJy1waCcsICc3LjAnLCAnLXRuJywgJzgnLCAnLW1hJywgJzIwMCcsICctbWV0YWxfYmluZGluZycsICctaW1hZScsICc8aW5maWxlLm1hZT4nLCAnLW9tYWUnLCAnPG91dGZpbGUubWFlPic=

> <r_lp_tautomer_probability>
1

> <r_epik_Ionization_Penalty>
1.58439e-06

> <r_epik_Ionization_Penalty_Charging>
4.14583e-09

> <r_epik_Ionization_Penalty_Neutral>
1.58025e-06

> <r_epik_State_Penalty>
-0

> <r_epik_Charging_Adjusted_Penalty>
4.14583e-09

> <i_epik_Tot_Q>
0

> <i_epik_Tot_abs_Q>
0

> <r_epik_Metal_State_Penalty>
-0

> <b_epik_Metal_Only>
0

> <s_epik_Chemistry_Notes>
This compound contains an acetal/aminal-like group ( X-CH(R)-Y where X, Y are N, S, or O) that may be acid/base labile, releasing an aldehyde.

> <s_lp_Force_Field>
OPLS_2005

> <r_lp_Energy>
28.8349

> <b_lp_Chiralities_Consistent>
1

> <s_lp_Variant>
AV-unprocessed.smi:117-1

> <Gold.Version>
5.8.1

> <Gold.Id.Protein>
6NUR|6NUR_protein|mol2

> <Gold.PLP.Fitness>
55.8338

> <Gold.PLP.PLP>
-49.3633

> <Gold.PLP.part.hbond>
-3.0000

> <Gold.PLP.part.metal>
0.0000

> <Gold.PLP.part.buried>
-4.2503

> <Gold.PLP.part.nonpolar>
-42.7041

> <Gold.PLP.part.repulsive>
0.1272

> <Gold.PLP.ligand.clash>
0.0000

> <Gold.PLP.ligand.torsion>
0.6612

> <Gold.PLP.Chemscore.Hbond>
2.5820

> <Gold.PLP.Chemscore.CHOScore>
0.0000

> <Gold.PLP.Chemscore.Metal>
0.0000

> <Gold.Chemscore.Hbonds>
donor molecule, donor type, donor heavy atom, donor atom, acceptor molecule, acceptor atom, score
      P1  H  6896  6907       L1    13  1.00
      P1  H  6931  6943       L1    17  1.00
      P1  H  6934  6947       L1    17  0.54

> <Gold.PLP.Chemscore.Internal.Correction>
0.0469

> <Gold.Rescore>
     Score         DG    S(hbond)    S(metal)    S(lipo)     H(rot)  DE(clash)    DE(int)     intcor
     17.61     -21.15       2.41        0.00     115.83       2.32       0.28       3.27       ----

> <Gold.Chemscore.Fitness>
17.6054

> <Gold.Chemscore.DG>
-21.1542

> <Gold.Chemscore.ZeroCoef>
-5.4800

> <Gold.Chemscore.Hbond>
2.4111

> <Gold.Chemscore.Metal>
0.0000

> <Gold.Chemscore.Lipo>
115.8252

> <Gold.Chemscore.Internal_Hbond>
0.0000

> <Gold.Chemscore.DEClash>
0.2768

> <Gold.Chemscore.DEInternal>
3.2720

> <Gold.Chemscore.Rot>
2.3166

> <Gold.Chemscore.Internal.Correction>
   9.000000E+99

> <Gold.Chemscore.Hbonds>
donor molecule, donor type, donor heavy atom, donor atom, acceptor molecule, acceptor atom, score
      P1  H  6896  6907       L1    13  0.44
      P1  H  6931  6943       L1    17  0.95
      P1  H  6934  6947       L1    17  0.52

> <Gold.Chemscore.Hbond.Weighted>
-8.0532

> <Gold.Chemscore.Metal.Weighted>
-0.0000

> <Gold.Chemscore.Lipo.Weighted>
-13.5515

> <Gold.Chemscore.Internal_Hbond.Weighted>
0.0000

> <Gold.Chemscore.DEClash.Weighted>
0.2768

> <Gold.Chemscore.DEInternal.Weighted>
3.2720

> <Gold.Chemscore.Rot.Weighted>
5.9306

> <Gold.Chemscore.Internal.Correction.Weighted>
   9.000000E+99

> <Gold.Protein.RotatedTorsions>
[ 6907 6896 6895 6894 ] final  -38.08 input  -60.11 | X-H torsion
[ 7974 7965 7964 7962 ] final  -91.80 input  175.53 | X-H torsion
[ 8008 7997 7996 7995 ] final  152.09 input   59.86 | X-H torsion
[ 10167 10162 10161 10158 ] final  166.72 input  -65.29 | X-H torsion
[ 10718 10713 10712 10709 ] final  168.80 input   66.30 | X-H torsion
[ 10763 10752 10751 10750 ] final  -35.40 input  -60.55 | X-H torsion
[ 11005 11000 10999 10996 ] final -166.89 input  -57.11 | X-H torsion

> <Gold.Protein.ActiveResidues>
 VAL166  LYS551  ARG553  GLY616  TRP617  ASP618  TYR619  PRO620  LYS621  CYS622 
 ASP623  PHE694  ASN695  SER759  ASP760  ASP761  ALA762  ILE779  LEU786  VAL792 
 PHE793  MET794  SER795  GLU796  ALA797  LYS798  CYS799  TRP800  GLU811  SER814 

> <Gold.Protein.RotatedAtoms>
  151.0069  134.9366  159.7984 H   0  0  0  0  0  0  0  0  0  0  0  0  # atno 6907 bound_to 6896
  152.5292  134.3080  159.9113 H   0  0  0  0  0  0  0  0  0  0  0  0  # atno 6908 bound_to 6896
  151.3086  133.4049  159.2679 H   0  0  0  0  0  0  0  0  0  0  0  0  # atno 6909 bound_to 6896
  145.4082  140.9543  143.2249 H   0  0  0  0  0  0  0  0  0  0  0  0  # atno 7974 bound_to 7965
  156.2645  140.2030  156.6279 H   0  0  0  0  0  0  0  0  0  0  0  0  # atno 8008 bound_to 7997
  154.6706  140.0550  157.0185 H   0  0  0  0  0  0  0  0  0  0  0  0  # atno 8009 bound_to 7997
  155.1143  140.3218  155.4516 H   0  0  0  0  0  0  0  0  0  0  0  0  # atno 8010 bound_to 7997
  139.4930  144.3998  151.9422 H   0  0  0  0  0  0  0  0  0  0  0  0  # atno 10167 bound_to 10162
  157.0319  131.0262  151.2742 H   0  0  0  0  0  0  0  0  0  0  0  0  # atno 10718 bound_to 10713
  153.8626  135.6838  153.4781 H   0  0  0  0  0  0  0  0  0  0  0  0  # atno 10763 bound_to 10752
  153.1333  135.4688  154.9381 H   0  0  0  0  0  0  0  0  0  0  0  0  # atno 10764 bound_to 10752
  154.7751  135.3251  154.8057 H   0  0  0  0  0  0  0  0  0  0  0  0  # atno 10765 bound_to 10752
  140.5594  134.5348  157.5140 H   0  0  0  0  0  0  0  0  0  0  0  0  # atno 11005 bound_to 11000
  144.8327  139.5602  143.6936 LP  0  0  0  0  0  0  0  0  0  0  0  0  # atno 17320 bound_to 7965
  146.2718  139.6653  142.9291 LP  0  0  0  0  0  0  0  0  0  0  0  0  # atno 17321 bound_to 7965
  140.3437  144.3173  150.5962 LP  0  0  0  0  0  0  0  0  0  0  0  0  # atno 17342 bound_to 10162
  140.5544  143.2201  151.7872 LP  0  0  0  0  0  0  0  0  0  0  0  0  # atno 17343 bound_to 10162
  157.5171  130.7975  149.7768 LP  0  0  0  0  0  0  0  0  0  0  0  0  # atno 17370 bound_to 10713
  156.0067  130.3852  150.2407 LP  0  0  0  0  0  0  0  0  0  0  0  0  # atno 17371 bound_to 10713
  139.9415  134.7778  156.0667 LP  0  0  0  0  0  0  0  0  0  0  0  0  # atno 17394 bound_to 11000
  141.1123  133.6639  156.3009 LP  0  0  0  0  0  0  0  0  0  0  0  0  # atno 17395 bound_to 11000

$$$$
