AV-unprocessed.smi:1403|AV-procd|sdf|5697|dock10
  -GOLD-   22720 5323D 1   1.00000     0.00000
 Structure written by MMmdl.
 36 37  0  0  0  0  0  0  0  0  1 V2000
  152.8488  141.4668  159.9827 C   0  0  0  0  0  0  0  0  0  0  0  0
  151.6083  141.7161  159.1081 C   0  0  2  0  0  0  0  0  0  0  0  0
  151.8902  141.3041  157.7356 N   0  0  0  0  0  0  0  0  0  0  0  0
  151.4687  140.1678  157.1599 C   0  0  0  0  0  0  0  0  0  0  0  0
  150.8107  139.3124  157.7535 O   0  0  0  0  0  0  0  0  0  0  0  0
  151.8783  139.9571  155.6961 C   0  0  0  0  0  0  0  0  0  0  0  0
  150.7421  139.5896  154.8393 N   0  0  0  0  0  0  0  0  0  0  0  0
  149.7816  140.5330  154.5026 C   0  0  0  0  0  0  0  0  0  0  0  0
  148.7179  140.2635  153.7092 C   0  0  0  0  0  0  0  0  0  0  0  0
  148.5287  138.9267  153.1559 C   0  0  0  0  0  0  0  0  0  0  0  0
  147.5976  138.5844  152.4305 O   0  0  0  0  0  0  0  0  0  0  0  0
  149.5170  138.0065  153.5156 N   0  0  0  0  0  0  0  0  0  0  0  0
  150.6168  138.2783  154.3307 C   0  0  0  0  0  0  0  0  0  0  0  0
  151.4336  137.3931  154.5822 O   0  0  0  0  0  0  0  0  0  0  0  0
  151.1713  143.1940  159.1123 C   0  0  2  0  0  0  0  0  0  0  0  0
  152.1114  144.1389  158.3592 C   0  0  0  0  0  0  0  0  0  0  0  0
  151.8642  145.4527  159.0634 C   0  0  0  0  0  0  0  0  0  0  0  0
  151.7187  144.9972  160.5103 C   0  0  0  0  0  0  0  0  0  0  0  0
  151.1392  143.6975  160.4484 O   0  0  0  0  0  0  0  0  0  0  0  0
  149.4297  137.0679  153.1542 H   0  0  0  0  0  0  0  0  0  0  0  0
  152.6583  141.7220  161.0250 H   0  0  0  0  0  0  0  0  0  0  0  0
  153.6989  142.0603  159.6444 H   0  0  0  0  0  0  0  0  0  0  0  0
  153.1442  140.4173  159.9567 H   0  0  0  0  0  0  0  0  0  0  0  0
  150.7819  141.1202  159.4998 H   0  0  0  0  0  0  0  0  0  0  0  0
  152.4275  141.9469  157.1718 H   0  0  0  0  0  0  0  0  0  0  0  0
  152.3678  140.8527  155.3072 H   0  0  0  0  0  0  0  0  0  0  0  0
  152.6419  139.1784  155.6694 H   0  0  0  0  0  0  0  0  0  0  0  0
  149.8834  141.5381  154.8865 H   0  0  0  0  0  0  0  0  0  0  0  0
  148.0039  141.0417  153.4815 H   0  0  0  0  0  0  0  0  0  0  0  0
  150.1650  143.2927  158.7016 H   0  0  0  0  0  0  0  0  0  0  0  0
  153.1514  143.8375  158.4928 H   0  0  0  0  0  0  0  0  0  0  0  0
  151.9032  144.1837  157.2896 H   0  0  0  0  0  0  0  0  0  0  0  0
  152.6679  146.1757  158.9220 H   0  0  0  0  0  0  0  0  0  0  0  0
  150.9331  145.8987  158.7113 H   0  0  0  0  0  0  0  0  0  0  0  0
  152.6979  144.9163  160.9838 H   0  0  0  0  0  0  0  0  0  0  0  0
  151.1101  145.6790  161.1046 H   0  0  0  0  0  0  0  0  0  0  0  0
  1  2  1  0  0  0  0
  1 21  1  0  0  0  0
  1 22  1  0  0  0  0
  1 23  1  0  0  0  0
  2  3  1  0  0  0  0
  2 15  1  0  0  0  0
  2 24  1  0  0  0  0
  3  4  1  0  0  0  0
  3 25  1  0  0  0  0
  4  5  2  0  0  0  0
  4  6  1  0  0  0  0
  6  7  1  0  0  0  0
  6 26  1  0  0  0  0
  6 27  1  0  0  0  0
  7 13  1  0  0  0  0
  7  8  1  0  0  0  0
  8  9  2  0  0  0  0
  8 28  1  0  0  0  0
  9 10  1  0  0  0  0
  9 29  1  0  0  0  0
 10 11  2  0  0  0  0
 10 12  1  0  0  0  0
 12 20  1  0  0  0  0
 12 13  1  0  0  0  0
 13 14  2  0  0  0  0
 15 19  1  0  0  0  0
 15 16  1  0  0  0  0
 15 30  1  0  0  0  0
 16 17  1  0  0  0  0
 16 31  1  0  0  0  0
 16 32  1  0  0  0  0
 17 18  1  0  0  0  0
 17 33  1  0  0  0  0
 17 34  1  0  0  0  0
 18 19  1  0  0  0  0
 18 35  1  0  0  0  0
 18 36  1  0  0  0  0
M  END
> <s_m_source_file>
AV-unprocessed.smi

> <i_m_source_file_index>
1403

> <i_lp_mmshare_version>
43012

> <i_f3d_flags>
0

> <s_epik_input>
TzFbQ0gyXVtDSDJdW0NIMl1bQ0BIXTFbQ0BIXShbQ0gzXSlbTkhdQyg9TylbQ0gyXW4yW2NIXVtjSF1jKD1PKVtuSF1jMj1P

> <s_epik_cmdline>
J2VwaWtfcHl0aG9uJywgJy1waCcsICc3LjAnLCAnLXRuJywgJzgnLCAnLW1hJywgJzIwMCcsICctbWV0YWxfYmluZGluZycsICctaW1hZScsICc8aW5maWxlLm1hZT4nLCAnLW9tYWUnLCAnPG91dGZpbGUubWFlPic=

> <r_lp_tautomer_probability>
0.999537

> <r_epik_Ionization_Penalty>
0.00331407

> <r_epik_Ionization_Penalty_Charging>
0.00331405

> <r_epik_Ionization_Penalty_Neutral>
2.30132e-08

> <r_epik_State_Penalty>
0.00234266

> <r_epik_Charging_Adjusted_Penalty>
0.00565671

> <i_epik_Tot_Q>
0

> <i_epik_Tot_abs_Q>
0

> <r_epik_Metal_State_Penalty>
0.365604

> <b_epik_Metal_Only>
0

> <s_lp_Force_Field>
OPLS_2005

> <r_lp_Energy>
18.7727

> <b_lp_Chiralities_Consistent>
1

> <s_lp_Variant>
AV-unprocessed.smi:1403-1

> <Gold.Version>
5.8.1

> <Gold.Id.Protein>
6NUR|6NUR_protein|mol2

> <Gold.PLP.Fitness>
42.9194

> <Gold.PLP.PLP>
-39.3408

> <Gold.PLP.part.hbond>
-2.2816

> <Gold.PLP.part.metal>
0.0000

> <Gold.PLP.part.buried>
0.2394

> <Gold.PLP.part.nonpolar>
-37.4444

> <Gold.PLP.part.repulsive>
0.7529

> <Gold.PLP.ligand.clash>
0.0000

> <Gold.PLP.ligand.torsion>
0.5372

> <Gold.PLP.Chemscore.Hbond>
1.0000

> <Gold.PLP.Chemscore.CHOScore>
0.5465

> <Gold.PLP.Chemscore.Metal>
0.0000

> <Gold.Chemscore.Hbonds>
donor molecule, donor type, donor heavy atom, donor atom, acceptor molecule, acceptor atom, score
      L1  H    12    20       P1  7948  0.85
      P1  H 10752 10763       L1    14  0.28

> <Gold.PLP.Chemscore.Internal.Correction>
0.0135

> <Gold.Rescore>
     Score         DG    S(hbond)    S(metal)    S(lipo)     H(rot)  DE(clash)    DE(int)     intcor
     13.45     -14.13       1.35        0.00      80.10       2.04       0.11       0.57       ----

> <Gold.Chemscore.Fitness>
13.4515

> <Gold.Chemscore.DG>
-14.1276

> <Gold.Chemscore.ZeroCoef>
-5.4800

> <Gold.Chemscore.Hbond>
1.3465

> <Gold.Chemscore.Metal>
0.0000

> <Gold.Chemscore.Lipo>
80.0980

> <Gold.Chemscore.Internal_Hbond>
0.0000

> <Gold.Chemscore.DEClash>
0.1060

> <Gold.Chemscore.DEInternal>
0.5701

> <Gold.Chemscore.Rot>
2.0395

> <Gold.Chemscore.Internal.Correction>
   9.000000E+99

> <Gold.Chemscore.Hbonds>
donor molecule, donor type, donor heavy atom, donor atom, acceptor molecule, acceptor atom, score
      L1  H    12    20       P1  7948  0.73
      P1  H 10752 10763       L1    14  0.28

> <Gold.Chemscore.Hbond.Weighted>
-4.4972

> <Gold.Chemscore.Metal.Weighted>
-0.0000

> <Gold.Chemscore.Lipo.Weighted>
-9.3715

> <Gold.Chemscore.Internal_Hbond.Weighted>
0.0000

> <Gold.Chemscore.DEClash.Weighted>
0.1060

> <Gold.Chemscore.DEInternal.Weighted>
0.5701

> <Gold.Chemscore.Rot.Weighted>
5.2211

> <Gold.Chemscore.Internal.Correction.Weighted>
   9.000000E+99

> <Gold.Protein.RotatedTorsions>
[ 6907 6896 6895 6894 ] final   39.59 input  -60.11 | X-H torsion
[ 7974 7965 7964 7962 ] final  -16.13 input  175.53 | X-H torsion
[ 8008 7997 7996 7995 ] final  -43.72 input   59.86 | X-H torsion
[ 10167 10162 10161 10158 ] final  159.63 input  -65.29 | X-H torsion
[ 10718 10713 10712 10709 ] final   89.26 input   66.30 | X-H torsion
[ 10763 10752 10751 10750 ] final   54.12 input  -60.55 | X-H torsion
[ 11005 11000 10999 10996 ] final  -97.24 input  -57.11 | X-H torsion

> <Gold.Protein.ActiveResidues>
 VAL166  LYS551  ARG553  GLY616  TRP617  ASP618  TYR619  PRO620  LYS621  CYS622 
 ASP623  PHE694  ASN695  SER759  ASP760  ASP761  ALA762  ILE779  LEU786  VAL792 
 PHE793  MET794  SER795  GLU796  ALA797  LYS798  CYS799  TRP800  GLU811  SER814 

> <Gold.Protein.RotatedAtoms>
  152.1715  134.8830  160.0533 H   0  0  0  0  0  0  0  0  0  0  0  0  # atno 6907 bound_to 6896
  151.9788  133.3746  159.4108 H   0  0  0  0  0  0  0  0  0  0  0  0  # atno 6908 bound_to 6896
  150.6902  134.3984  159.5151 H   0  0  0  0  0  0  0  0  0  0  0  0  # atno 6909 bound_to 6896
  146.2001  140.3592  142.8426 H   0  0  0  0  0  0  0  0  0  0  0  0  # atno 7974 bound_to 7965
  154.3997  140.1440  156.3566 H   0  0  0  0  0  0  0  0  0  0  0  0  # atno 8008 bound_to 7997
  155.8220  140.3469  155.5499 H   0  0  0  0  0  0  0  0  0  0  0  0  # atno 8009 bound_to 7997
  155.8278  140.0907  157.1801 H   0  0  0  0  0  0  0  0  0  0  0  0  # atno 8010 bound_to 7997
  139.4834  144.4712  151.8574 H   0  0  0  0  0  0  0  0  0  0  0  0  # atno 10167 bound_to 10162
  157.6954  131.0326  150.3399 H   0  0  0  0  0  0  0  0  0  0  0  0  # atno 10718 bound_to 10713
  152.9801  135.5756  154.4852 H   0  0  0  0  0  0  0  0  0  0  0  0  # atno 10763 bound_to 10752
  154.4395  135.2775  155.1859 H   0  0  0  0  0  0  0  0  0  0  0  0  # atno 10764 bound_to 10752
  154.3533  135.6204  153.5707 H   0  0  0  0  0  0  0  0  0  0  0  0  # atno 10765 bound_to 10752
  141.1385  133.8156  157.0679 H   0  0  0  0  0  0  0  0  0  0  0  0  # atno 11005 bound_to 11000
  144.8665  140.7213  143.6074 LP  0  0  0  0  0  0  0  0  0  0  0  0  # atno 17320 bound_to 7965
  145.3512  139.1706  143.4433 LP  0  0  0  0  0  0  0  0  0  0  0  0  # atno 17321 bound_to 7965
  140.4181  144.2280  150.5887 LP  0  0  0  0  0  0  0  0  0  0  0  0  # atno 17342 bound_to 10162
  140.4901  143.2350  151.8831 LP  0  0  0  0  0  0  0  0  0  0  0  0  # atno 17343 bound_to 10162
  156.3861  130.3889  149.7065 LP  0  0  0  0  0  0  0  0  0  0  0  0  # atno 17370 bound_to 10713
  156.4430  130.7870  151.2892 LP  0  0  0  0  0  0  0  0  0  0  0  0  # atno 17371 bound_to 10713
  140.0530  134.9795  157.1170 LP  0  0  0  0  0  0  0  0  0  0  0  0  # atno 17394 bound_to 11000
  140.3961  134.2132  155.7164 LP  0  0  0  0  0  0  0  0  0  0  0  0  # atno 17395 bound_to 11000

$$$$
