AV-unprocessed.smi:200|AV-procd|sdf|1579|dock2
  -GOLD-   2262019463D 1   1.00000     0.00000
 Structure written by MMmdl.
 56 59  0  0  0  0  0  0  0  0  1 V2000
  147.4530  140.6278  153.7896 C   0  0  0  0  0  0  0  0  0  0  0  0
  148.3810  140.4520  154.8452 O   0  0  0  0  0  0  0  0  0  0  0  0
  148.3059  141.4853  155.8130 C   0  0  0  0  0  0  0  0  0  0  0  0
  149.2655  141.1579  156.9706 C   0  0  0  0  0  0  0  0  0  0  0  0
  150.6741  141.0891  156.5648 N   0  0  0  0  0  0  0  0  0  0  0  0
  151.0982  139.9125  156.0466 C   0  0  0  0  0  0  0  0  0  0  0  0
  151.4972  139.9161  154.7504 N   0  0  0  0  0  0  0  0  0  0  0  0
  151.9221  138.7862  154.1780 C   0  0  0  0  0  0  0  0  0  0  0  0
  152.0338  137.5694  154.7146 N   0  0  0  0  0  0  0  0  0  0  0  0
  151.6496  137.5653  156.0230 C   0  0  0  0  0  0  0  0  0  0  0  0
  151.1698  138.6833  156.7625 C   0  0  0  0  0  0  0  0  0  0  0  0
  150.8788  138.2980  158.0654 N   0  0  0  0  0  0  0  0  0  0  0  0
  151.1636  137.0254  158.0930 C   0  0  0  0  0  0  0  0  0  0  0  0
  151.6425  136.5045  156.9121 N   0  0  0  0  0  0  0  0  0  0  0  0
  152.0382  135.1247  156.6730 C   0  0  0  0  0  0  0  0  0  0  0  0
  151.0407  134.3163  155.8165 C   0  0  0  0  0  0  0  0  0  0  0  0
  150.6450  135.0937  154.5482 C   0  0  0  0  0  0  0  0  0  0  0  0
  149.5613  134.4785  153.8810 O   0  0  0  0  0  0  0  0  0  0  0  0
  151.4087  132.8450  155.5796 C   0  0  0  0  0  0  0  0  0  0  0  0
  150.1058  132.3925  156.0041 O   0  0  0  0  0  0  0  0  0  0  0  0
  149.8559  133.6955  156.5712 C   0  0  0  0  0  0  0  0  0  0  0  0
  151.7109  141.7433  157.3703 C   0  0  1  0  0  0  0  0  0  0  0  0
  151.4276  143.2019  157.7385 C   0  0  0  0  0  0  0  0  0  0  0  0
  152.4459  143.4693  158.8444 C   0  0  0  0  0  0  0  0  0  0  0  0
  152.4841  142.1692  159.6642 C   0  0  2  0  0  0  0  0  0  0  0  0
  153.8413  141.9098  160.3315 C   0  0  0  0  0  0  0  0  0  0  0  0
  152.0408  141.0486  158.7030 C   0  0  0  0  0  0  0  0  0  0  0  0
  147.5566  139.8143  153.0717 H   0  0  0  0  0  0  0  0  0  0  0  0
  147.6274  141.5669  153.2628 H   0  0  0  0  0  0  0  0  0  0  0  0
  146.4279  140.6196  154.1621 H   0  0  0  0  0  0  0  0  0  0  0  0
  148.6072  142.4279  155.3540 H   0  0  0  0  0  0  0  0  0  0  0  0
  147.2813  141.6180  156.1633 H   0  0  0  0  0  0  0  0  0  0  0  0
  149.1381  141.9130  157.7438 H   0  0  0  0  0  0  0  0  0  0  0  0
  148.9694  140.2150  157.4277 H   0  0  0  0  0  0  0  0  0  0  0  0
  152.2151  138.8690  153.1417 H   0  0  0  0  0  0  0  0  0  0  0  0
  151.0406  136.4286  158.9853 H   0  0  0  0  0  0  0  0  0  0  0  0
  153.0217  135.1314  156.2015 H   0  0  0  0  0  0  0  0  0  0  0  0
  152.1856  134.6483  157.6429 H   0  0  0  0  0  0  0  0  0  0  0  0
  150.3443  136.1109  154.8020 H   0  0  0  0  0  0  0  0  0  0  0  0
  151.4825  135.1935  153.8575 H   0  0  0  0  0  0  0  0  0  0  0  0
  149.1460  135.1222  153.3273 H   0  0  0  0  0  0  0  0  0  0  0  0
  151.6206  132.5992  154.5385 H   0  0  0  0  0  0  0  0  0  0  0  0
  152.1989  132.4751  156.2351 H   0  0  0  0  0  0  0  0  0  0  0  0
  149.9702  133.6847  157.6560 H   0  0  0  0  0  0  0  0  0  0  0  0
  148.8844  134.1012  156.2868 H   0  0  0  0  0  0  0  0  0  0  0  0
  152.6329  141.7595  156.7854 H   0  0  0  0  0  0  0  0  0  0  0  0
  151.5417  143.8773  156.8903 H   0  0  0  0  0  0  0  0  0  0  0  0
  150.4240  143.3340  158.1408 H   0  0  0  0  0  0  0  0  0  0  0  0
  153.4216  143.6627  158.3959 H   0  0  0  0  0  0  0  0  0  0  0  0
  152.1852  144.3371  159.4512 H   0  0  0  0  0  0  0  0  0  0  0  0
  151.7291  142.2490  160.4478 H   0  0  0  0  0  0  0  0  0  0  0  0
  154.6355  141.8131  159.5907 H   0  0  0  0  0  0  0  0  0  0  0  0
  153.8188  140.9911  160.9183 H   0  0  0  0  0  0  0  0  0  0  0  0
  154.1085  142.7260  161.0033 H   0  0  0  0  0  0  0  0  0  0  0  0
  151.1714  140.5431  159.1232 H   0  0  0  0  0  0  0  0  0  0  0  0
  152.8105  140.2891  158.5599 H   0  0  0  0  0  0  0  0  0  0  0  0
  1  2  1  0  0  0  0
  1 28  1  0  0  0  0
  1 29  1  0  0  0  0
  1 30  1  0  0  0  0
  2  3  1  0  0  0  0
  3  4  1  0  0  0  0
  3 31  1  0  0  0  0
  3 32  1  0  0  0  0
  4  5  1  0  0  0  0
  4 33  1  0  0  0  0
  4 34  1  0  0  0  0
  5  6  1  0  0  0  0
  5 22  1  0  0  0  0
  6 11  1  0  0  0  0
  6  7  2  0  0  0  0
  7  8  1  0  0  0  0
  8  9  2  0  0  0  0
  8 35  1  0  0  0  0
  9 10  1  0  0  0  0
 10 14  1  0  0  0  0
 10 11  2  0  0  0  0
 11 12  1  0  0  0  0
 12 13  2  0  0  0  0
 13 14  1  0  0  0  0
 13 36  1  0  0  0  0
 14 15  1  0  0  0  0
 15 16  1  0  0  0  0
 15 37  1  0  0  0  0
 15 38  1  0  0  0  0
 16 21  1  0  0  0  0
 16 17  1  0  0  0  0
 16 19  1  0  0  0  0
 17 18  1  0  0  0  0
 17 39  1  0  0  0  0
 17 40  1  0  0  0  0
 18 41  1  0  0  0  0
 19 20  1  0  0  0  0
 19 42  1  0  0  0  0
 19 43  1  0  0  0  0
 20 21  1  0  0  0  0
 21 44  1  0  0  0  0
 21 45  1  0  0  0  0
 22 27  1  0  0  0  0
 22 23  1  0  0  0  0
 22 46  1  0  0  0  0
 23 24  1  0  0  0  0
 23 47  1  0  0  0  0
 23 48  1  0  0  0  0
 24 25  1  0  0  0  0
 24 49  1  0  0  0  0
 24 50  1  0  0  0  0
 25 26  1  0  0  0  0
 25 27  1  0  0  0  0
 25 51  1  0  0  0  0
 26 52  1  0  0  0  0
 26 53  1  0  0  0  0
 26 54  1  0  0  0  0
 27 55  1  0  0  0  0
 27 56  1  0  0  0  0
M  END
> <s_m_source_file>
AV-unprocessed.smi

> <i_m_source_file_index>
200

> <i_lp_mmshare_version>
43012

> <i_f3d_flags>
0

> <s_epik_input>
W0NIM11bQ0BASF0oW0NIMl0xKVtDSDJdW0NIMl1bQ0BIXTFOKFtDSDJdW0NIMl1PW0NIM10pYyhuW2NIXW4yKWMoYzIzKW5bY0hdbjNbQ0gyXUM0KFtDSDJdW09IXSlbQ0gyXU9bQ0gyXTQ=

> <s_epik_cmdline>
J2VwaWtfcHl0aG9uJywgJy1waCcsICc3LjAnLCAnLXRuJywgJzgnLCAnLW1hJywgJzIwMCcsICctbWV0YWxfYmluZGluZycsICctaW1hZScsICc8aW5maWxlLm1hZT4nLCAnLW9tYWUnLCAnPG91dGZpbGUubWFlPic=

> <r_lp_tautomer_probability>
1

> <r_epik_Ionization_Penalty>
0.00363087

> <r_epik_Ionization_Penalty_Charging>
0

> <r_epik_Ionization_Penalty_Neutral>
0.00363087

> <r_epik_State_Penalty>
0.0024341

> <r_epik_Charging_Adjusted_Penalty>
0.0024341

> <i_epik_Tot_Q>
0

> <i_epik_Tot_abs_Q>
0

> <r_epik_Metal_State_Penalty>
-0

> <b_epik_Metal_Only>
0

> <s_lp_Force_Field>
OPLS_2005

> <r_lp_Energy>
49.9898

> <b_lp_Chiralities_Consistent>
1

> <s_lp_Variant>
AV-unprocessed.smi:200-4

> <Gold.Version>
5.8.1

> <Gold.Id.Protein>
6NUR|6NUR_protein|mol2

> <Gold.PLP.Fitness>
46.2585

> <Gold.PLP.PLP>
-39.7812

> <Gold.PLP.part.hbond>
-2.9727

> <Gold.PLP.part.metal>
0.0000

> <Gold.PLP.part.buried>
-3.2204

> <Gold.PLP.part.nonpolar>
-33.1546

> <Gold.PLP.part.repulsive>
0.2954

> <Gold.PLP.ligand.clash>
0.0000

> <Gold.PLP.ligand.torsion>
1.3646

> <Gold.PLP.Chemscore.Hbond>
2.6115

> <Gold.PLP.Chemscore.CHOScore>
0.0000

> <Gold.PLP.Chemscore.Metal>
0.0000

> <Gold.Chemscore.Hbonds>
donor molecule, donor type, donor heavy atom, donor atom, acceptor molecule, acceptor atom, score
      L1  H    18    41       P1  7948  0.90
      P1  H  7989  7998       L1     7  0.90
      P1  H 10752 10765       L1     9  0.58

> <Gold.PLP.Chemscore.Internal.Correction>
1.3720

> <Gold.Rescore>
     Score         DG    S(hbond)    S(metal)    S(lipo)     H(rot)  DE(clash)    DE(int)     intcor
      9.64     -15.77       2.12        0.00      99.10       3.28       1.30       4.83       ----

> <Gold.Chemscore.Fitness>
9.6381

> <Gold.Chemscore.DG>
-15.7728

> <Gold.Chemscore.ZeroCoef>
-5.4800

> <Gold.Chemscore.Hbond>
2.1211

> <Gold.Chemscore.Metal>
0.0000

> <Gold.Chemscore.Lipo>
99.1042

> <Gold.Chemscore.Internal_Hbond>
0.0000

> <Gold.Chemscore.DEClash>
1.3027

> <Gold.Chemscore.DEInternal>
4.8320

> <Gold.Chemscore.Rot>
3.2761

> <Gold.Chemscore.Internal.Correction>
   9.000000E+99

> <Gold.Chemscore.Hbonds>
donor molecule, donor type, donor heavy atom, donor atom, acceptor molecule, acceptor atom, score
      L1  H    18    41       P1  7948  0.18
      P1  H  7989  7998       L1     7  0.17
      P1  H 10752 10765       L1     9  0.23

> <Gold.Chemscore.Hbond.Weighted>
-7.0844

> <Gold.Chemscore.Metal.Weighted>
-0.0000

> <Gold.Chemscore.Lipo.Weighted>
-11.5952

> <Gold.Chemscore.Internal_Hbond.Weighted>
0.0000

> <Gold.Chemscore.DEClash.Weighted>
1.3027

> <Gold.Chemscore.DEInternal.Weighted>
4.8320

> <Gold.Chemscore.Rot.Weighted>
8.3868

> <Gold.Chemscore.Internal.Correction.Weighted>
   9.000000E+99

> <Gold.Protein.RotatedTorsions>
[ 6907 6896 6895 6894 ] final  170.74 input  -60.11 | X-H torsion
[ 7974 7965 7964 7962 ] final   -9.96 input  175.53 | X-H torsion
[ 8008 7997 7996 7995 ] final  -21.28 input   59.86 | X-H torsion
[ 10167 10162 10161 10158 ] final   40.60 input  -65.29 | X-H torsion
[ 10718 10713 10712 10709 ] final -148.96 input   66.30 | X-H torsion
[ 10763 10752 10751 10750 ] final  172.48 input  -60.55 | X-H torsion
[ 11005 11000 10999 10996 ] final   96.93 input  -57.11 | X-H torsion

> <Gold.Protein.ActiveResidues>
 VAL166  LYS551  ARG553  GLY616  TRP617  ASP618  TYR619  PRO620  LYS621  CYS622 
 ASP623  PHE694  ASN695  SER759  ASP760  ASP761  ALA762  ILE779  LEU786  VAL792 
 PHE793  MET794  SER795  GLU796  ALA797  LYS798  CYS799  TRP800  GLU811  SER814 

> <Gold.Protein.RotatedAtoms>
  151.8113  133.3382  159.3555 H   0  0  0  0  0  0  0  0  0  0  0  0  # atno 6907 bound_to 6896
  150.7325  134.5661  159.5876 H   0  0  0  0  0  0  0  0  0  0  0  0  # atno 6908 bound_to 6896
  152.3073  134.7541  160.0396 H   0  0  0  0  0  0  0  0  0  0  0  0  # atno 6909 bound_to 6896
  146.2236  140.2693  142.8356 H   0  0  0  0  0  0  0  0  0  0  0  0  # atno 7974 bound_to 7965
  154.4715  140.2039  155.9982 H   0  0  0  0  0  0  0  0  0  0  0  0  # atno 8008 bound_to 7997
  156.1019  140.3242  155.7924 H   0  0  0  0  0  0  0  0  0  0  0  0  # atno 8009 bound_to 7997
  155.4782  140.0536  157.2961 H   0  0  0  0  0  0  0  0  0  0  0  0  # atno 8010 bound_to 7997
  140.3726  144.2085  150.6132 H   0  0  0  0  0  0  0  0  0  0  0  0  # atno 10167 bound_to 10162
  156.4269  130.8056  151.2282 H   0  0  0  0  0  0  0  0  0  0  0  0  # atno 10718 bound_to 10713
  154.4266  135.2759  155.1940 H   0  0  0  0  0  0  0  0  0  0  0  0  # atno 10763 bound_to 10752
  154.3864  135.6076  153.5822 H   0  0  0  0  0  0  0  0  0  0  0  0  # atno 10764 bound_to 10752
  152.9834  135.5892  154.4570 H   0  0  0  0  0  0  0  0  0  0  0  0  # atno 10765 bound_to 10752
  139.8778  134.8975  156.4232 H   0  0  0  0  0  0  0  0  0  0  0  0  # atno 11005 bound_to 11000
  144.9280  140.7943  143.5707 LP  0  0  0  0  0  0  0  0  0  0  0  0  # atno 17320 bound_to 7965
  145.2634  139.1983  143.4880 LP  0  0  0  0  0  0  0  0  0  0  0  0  # atno 17321 bound_to 7965
  140.5018  143.2315  151.8667 LP  0  0  0  0  0  0  0  0  0  0  0  0  # atno 17342 bound_to 10162
  139.4802  144.5050  151.9009 LP  0  0  0  0  0  0  0  0  0  0  0  0  # atno 17343 bound_to 10162
  157.7508  131.0210  150.3733 LP  0  0  0  0  0  0  0  0  0  0  0  0  # atno 17370 bound_to 10713
  156.4062  130.3925  149.6924 LP  0  0  0  0  0  0  0  0  0  0  0  0  # atno 17371 bound_to 10713
  140.9119  133.7706  155.9802 LP  0  0  0  0  0  0  0  0  0  0  0  0  # atno 17394 bound_to 11000
  140.8537  134.2924  157.5264 LP  0  0  0  0  0  0  0  0  0  0  0  0  # atno 17395 bound_to 11000

$$$$
