AV-unprocessed.smi:16|AV-procd|sdf|90|dock10
  -GOLD-   2262015233D 1   1.00000     0.00000
 Structure written by MMmdl.
 60 64  0  0  0  0  0  0  0  0  2 V2000
  152.6925  138.7387  154.7090 C   0  0  0  0  0  0  0  0  0  0  0  0
  151.2631  138.1931  154.8358 C   0  0  0  0  0  0  0  0  0  0  0  0
  150.2325  139.2293  154.5584 N   0  3  2  0  0  0  0  0  0  0  0  0
  150.3162  140.4375  155.4249 C   0  0  0  0  0  0  0  0  0  0  0  0
  149.7763  140.1772  156.8445 C   0  0  0  0  0  0  0  0  0  0  0  0
  148.3484  139.6201  156.7867 C   0  0  2  0  0  0  0  0  0  0  0  0
  147.9007  139.3138  158.1021 O   0  0  0  0  0  0  0  0  0  0  0  0
  146.5508  138.8606  158.1067 C   0  0  0  0  0  0  0  0  0  0  0  0
  146.4381  137.5795  157.2644 C   0  0  0  0  0  0  0  0  0  0  0  0
  146.9456  137.8098  155.9138 N   0  0  0  0  0  0  0  0  0  0  0  0
  146.7562  136.7488  155.0970 C   0  0  0  0  0  0  0  0  0  0  0  0
  147.5091  135.6271  155.2467 N   0  0  0  0  0  0  0  0  0  0  0  0
  147.3293  134.5898  154.4228 C   0  0  0  0  0  0  0  0  0  0  0  0
  146.4817  134.4753  153.3976 N   0  0  0  0  0  0  0  0  0  0  0  0
  145.7357  135.6066  153.2395 C   0  0  0  0  0  0  0  0  0  0  0  0
  145.8054  136.7770  154.0444 C   0  0  0  0  0  0  0  0  0  0  0  0
  144.8934  137.7230  153.5961 N   0  0  0  0  0  0  0  0  0  0  0  0
  144.3076  137.1395  152.5857 C   0  0  0  0  0  0  0  0  0  0  0  0
  144.7750  135.8799  152.2815 N   0  0  0  0  0  0  0  0  0  0  0  0
  144.2892  135.0121  151.2495 C   0  0  0  0  0  0  0  0  0  0  0  0
  143.9825  133.5394  151.5310 C   0  0  0  0  0  0  0  0  0  0  0  0
  144.4124  133.1815  150.0903 C   0  0  0  0  0  0  0  0  0  0  0  0
  145.2542  131.9029  149.9495 C   0  0  0  0  0  0  0  0  0  0  0  0
  146.3950  131.9473  150.7823 O   0  0  0  0  0  0  0  0  0  0  0  0
  143.2740  133.1560  149.0504 C   0  0  0  0  0  0  0  0  0  0  0  0
  143.4538  134.1499  148.0618 O   0  0  0  0  0  0  0  0  0  0  0  0
  145.2189  134.4977  150.1476 C   0  0  0  0  0  0  0  0  0  0  0  0
  148.3091  138.3454  155.9161 C   0  0  1  0  0  0  0  0  0  0  0  0
  148.8500  138.6836  154.5033 C   0  0  0  0  0  0  0  0  0  0  0  0
  147.6946  140.3830  156.3586 H   0  0  0  0  0  0  0  0  0  0  0  0
  148.9558  137.5924  156.3698 H   0  0  0  0  0  0  0  0  0  0  0  0
  153.4192  137.9329  154.8135 H   0  0  0  0  0  0  0  0  0  0  0  0
  152.9194  139.4776  155.4769 H   0  0  0  0  0  0  0  0  0  0  0  0
  152.8526  139.2020  153.7350 H   0  0  0  0  0  0  0  0  0  0  0  0
  151.1562  137.3829  154.1134 H   0  0  0  0  0  0  0  0  0  0  0  0
  151.1126  137.7451  155.8179 H   0  0  0  0  0  0  0  0  0  0  0  0
  151.3361  140.8169  155.4692 H   0  0  0  0  0  0  0  0  0  0  0  0
  149.7254  141.2269  154.9582 H   0  0  0  0  0  0  0  0  0  0  0  0
  150.4267  139.4823  157.3763 H   0  0  0  0  0  0  0  0  0  0  0  0
  149.7881  141.1041  157.4186 H   0  0  0  0  0  0  0  0  0  0  0  0
  146.2453  138.6631  159.1342 H   0  0  0  0  0  0  0  0  0  0  0  0
  145.8904  139.6394  157.7217 H   0  0  0  0  0  0  0  0  0  0  0  0
  147.0048  136.7801  157.7444 H   0  0  0  0  0  0  0  0  0  0  0  0
  145.3976  137.2547  157.2195 H   0  0  0  0  0  0  0  0  0  0  0  0
  147.9562  133.7300  154.6084 H   0  0  0  0  0  0  0  0  0  0  0  0
  143.5190  137.6202  152.0248 H   0  0  0  0  0  0  0  0  0  0  0  0
  143.4189  135.5118  150.8206 H   0  0  0  0  0  0  0  0  0  0  0  0
  144.6413  133.1163  152.2917 H   0  0  0  0  0  0  0  0  0  0  0  0
  142.9377  133.3359  151.7674 H   0  0  0  0  0  0  0  0  0  0  0  0
  144.6726  131.0242  150.2305 H   0  0  0  0  0  0  0  0  0  0  0  0
  145.5716  131.7407  148.9192 H   0  0  0  0  0  0  0  0  0  0  0  0
  147.0790  131.4336  150.3808 H   0  0  0  0  0  0  0  0  0  0  0  0
  143.2237  132.1911  148.5453 H   0  0  0  0  0  0  0  0  0  0  0  0
  142.3011  133.3007  149.5204 H   0  0  0  0  0  0  0  0  0  0  0  0
  144.3245  134.5068  148.1504 H   0  0  0  0  0  0  0  0  0  0  0  0
  145.2022  135.0868  149.2301 H   0  0  0  0  0  0  0  0  0  0  0  0
  146.2424  134.3517  150.4986 H   0  0  0  0  0  0  0  0  0  0  0  0
  148.2031  139.4237  154.0298 H   0  0  0  0  0  0  0  0  0  0  0  0
  148.8400  137.8119  153.8481 H   0  0  0  0  0  0  0  0  0  0  0  0
  150.4310  139.5448  153.6197 H   0  0  0  0  0  0  0  0  0  0  0  0
  1  2  1  0  0  0  0
  1 32  1  0  0  0  0
  1 33  1  0  0  0  0
  1 34  1  0  0  0  0
  2  3  1  0  0  0  0
  2 35  1  0  0  0  0
  2 36  1  0  0  0  0
  3 29  1  0  0  0  0
  3  4  1  0  0  0  0
  3 60  1  0  0  0  0
  4  5  1  0  0  0  0
  4 37  1  0  0  0  0
  4 38  1  0  0  0  0
  5  6  1  0  0  0  0
  5 39  1  0  0  0  0
  5 40  1  0  0  0  0
  6 30  1  0  0  0  0
  6 28  1  0  0  0  0
  6  7  1  0  0  0  0
  7  8  1  0  0  0  0
  8  9  1  0  0  0  0
  8 41  1  0  0  0  0
  8 42  1  0  0  0  0
  9 10  1  0  0  0  0
  9 43  1  0  0  0  0
  9 44  1  0  0  0  0
 10 11  1  0  0  0  0
 10 28  1  0  0  0  0
 11 16  1  0  0  0  0
 11 12  2  0  0  0  0
 12 13  1  0  0  0  0
 13 14  2  0  0  0  0
 13 45  1  0  0  0  0
 14 15  1  0  0  0  0
 15 19  1  0  0  0  0
 15 16  2  0  0  0  0
 16 17  1  0  0  0  0
 17 18  2  0  0  0  0
 18 19  1  0  0  0  0
 18 46  1  0  0  0  0
 19 20  1  0  0  0  0
 20 27  1  0  0  0  0
 20 21  1  0  0  0  0
 20 47  1  0  0  0  0
 21 22  1  0  0  0  0
 21 48  1  0  0  0  0
 21 49  1  0  0  0  0
 22 23  1  0  0  0  0
 22 25  1  0  0  0  0
 22 27  1  0  0  0  0
 23 24  1  0  0  0  0
 23 50  1  0  0  0  0
 23 51  1  0  0  0  0
 24 52  1  0  0  0  0
 25 26  1  0  0  0  0
 25 53  1  0  0  0  0
 25 54  1  0  0  0  0
 26 55  1  0  0  0  0
 27 56  1  0  0  0  0
 27 57  1  0  0  0  0
 28 31  1  0  0  0  0
 28 29  1  0  0  0  0
 29 58  1  0  0  0  0
 29 59  1  0  0  0  0
M  CHG  1   3   1
M  END
> <s_m_source_file>
AV-unprocessed.smi

> <i_m_source_file_index>
16

> <i_lp_mmshare_version>
43012

> <i_f3d_flags>
0

> <s_epik_input>
W0NIM11bQ0gyXU4oW0NIMl1bQ0gyXTEpW0NIMl1bQ0BASF0oW0NAQEhdMTIpTihbQ0gyXVtDSDJdTzIpYyhuW2NIXW4zKWMoYzM0KW5bY0hdbjRbQ0hdKFtDSDJdNSlbQ0gyXUM1KFtDSDJdW09IXSlbQ0gyXVtPSF0=

> <s_epik_cmdline>
J2VwaWtfcHl0aG9uJywgJy1waCcsICc3LjAnLCAnLXRuJywgJzgnLCAnLW1hJywgJzIwMCcsICctbWV0YWxfYmluZGluZycsICctaW1hZScsICc8aW5maWxlLm1hZT4nLCAnLW9tYWUnLCAnPG91dGZpbGUubWFlPic=

> <r_lp_tautomer_probability>
1

> <r_epik_Ionization_Penalty>
0.0135603

> <r_epik_Ionization_Penalty_Charging>
0.0131385

> <r_epik_Ionization_Penalty_Neutral>
0.000421734

> <r_epik_State_Penalty>
0.0102091

> <r_epik_Charging_Adjusted_Penalty>
0.0233476

> <i_epik_Tot_Q>
1

> <i_epik_Tot_abs_Q>
1

> <r_epik_Metal_State_Penalty>
0.0103746

> <b_epik_Metal_Only>
0

> <s_lp_Force_Field>
OPLS_2005

> <r_lp_Energy>
56.2472

> <b_lp_Chiralities_Consistent>
1

> <s_lp_Variant>
AV-unprocessed.smi:16-4

> <Gold.Version>
5.8.1

> <Gold.Id.Protein>
6NUR|6NUR_protein|mol2

> <Gold.PLP.Fitness>
45.9358

> <Gold.PLP.PLP>
-36.0232

> <Gold.PLP.part.hbond>
-5.5035

> <Gold.PLP.part.metal>
0.0000

> <Gold.PLP.part.buried>
0.1857

> <Gold.PLP.part.nonpolar>
-31.7057

> <Gold.PLP.part.repulsive>
0.5375

> <Gold.PLP.ligand.clash>
0.0000

> <Gold.PLP.ligand.torsion>
1.4529

> <Gold.PLP.Chemscore.Hbond>
3.0000

> <Gold.PLP.Chemscore.CHOScore>
1.0561

> <Gold.PLP.Chemscore.Metal>
0.0000

> <Gold.Chemscore.Hbonds>
donor molecule, donor type, donor heavy atom, donor atom, acceptor molecule, acceptor atom, score
      L1  H    24    52       P1 10747  1.00
      L1  H    26    55       P1  7921  1.00
      P1  H 10192 10197       L1    26  1.00
      L1  C    18    46       P1 10171  0.88
      L1  C    18    46       P1 10175  0.13

> <Gold.PLP.Chemscore.Internal.Correction>
0.6500

> <Gold.Rescore>
     Score         DG    S(hbond)    S(metal)    S(lipo)     H(rot)  DE(clash)    DE(int)     intcor
     12.71     -16.92       2.93        0.00      86.95       3.33       2.75       1.47       ----

> <Gold.Chemscore.Fitness>
12.7052

> <Gold.Chemscore.DG>
-16.9242

> <Gold.Chemscore.ZeroCoef>
-5.4800

> <Gold.Chemscore.Hbond>
2.9291

> <Gold.Chemscore.Metal>
0.0000

> <Gold.Chemscore.Lipo>
86.9498

> <Gold.Chemscore.Internal_Hbond>
0.0000

> <Gold.Chemscore.DEClash>
2.7521

> <Gold.Chemscore.DEInternal>
1.4670

> <Gold.Chemscore.Rot>
3.3251

> <Gold.Chemscore.Internal.Correction>
   9.000000E+99

> <Gold.Chemscore.Hbonds>
donor molecule, donor type, donor heavy atom, donor atom, acceptor molecule, acceptor atom, score
      L1  H    24    52       P1 10747  0.94
      L1  H    26    55       P1  7921  0.97
      P1  H 10192 10197       L1    26  0.96

> <Gold.Chemscore.Hbond.Weighted>
-9.7833

> <Gold.Chemscore.Metal.Weighted>
-0.0000

> <Gold.Chemscore.Lipo.Weighted>
-10.1731

> <Gold.Chemscore.Internal_Hbond.Weighted>
0.0000

> <Gold.Chemscore.DEClash.Weighted>
2.7521

> <Gold.Chemscore.DEInternal.Weighted>
1.4670

> <Gold.Chemscore.Rot.Weighted>
8.5122

> <Gold.Chemscore.Internal.Correction.Weighted>
   9.000000E+99

> <Gold.Protein.RotatedTorsions>
[ 6907 6896 6895 6894 ] final -131.99 input  -60.11 | X-H torsion
[ 7974 7965 7964 7962 ] final   20.99 input  175.53 | X-H torsion
[ 8008 7997 7996 7995 ] final   57.43 input   59.86 | X-H torsion
[ 10167 10162 10161 10158 ] final  150.18 input  -65.29 | X-H torsion
[ 10718 10713 10712 10709 ] final   71.11 input   66.30 | X-H torsion
[ 10763 10752 10751 10750 ] final   36.84 input  -60.55 | X-H torsion
[ 11005 11000 10999 10996 ] final  123.96 input  -57.11 | X-H torsion

> <Gold.Protein.ActiveResidues>
 VAL166  LYS551  ARG553  GLY616  TRP617  ASP618  TYR619  PRO620  LYS621  CYS622 
 ASP623  PHE694  ASN695  SER759  ASP760  ASP761  ALA762  ILE779  LEU786  VAL792 
 PHE793  MET794  SER795  GLU796  ALA797  LYS798  CYS799  TRP800  GLU811  SER814 

> <Gold.Protein.RotatedAtoms>
  150.9572  133.6484  159.2760 H   0  0  0  0  0  0  0  0  0  0  0  0  # atno 6907 bound_to 6896
  151.3819  135.0940  159.9508 H   0  0  0  0  0  0  0  0  0  0  0  0  # atno 6908 bound_to 6896
  152.5133  133.9105  159.7540 H   0  0  0  0  0  0  0  0  0  0  0  0  # atno 6909 bound_to 6896
  146.2089  139.8091  142.8704 H   0  0  0  0  0  0  0  0  0  0  0  0  # atno 7974 bound_to 7965
  155.5337  140.3482  155.4432 H   0  0  0  0  0  0  0  0  0  0  0  0  # atno 8008 bound_to 7997
  156.0700  140.1361  156.9866 H   0  0  0  0  0  0  0  0  0  0  0  0  # atno 8009 bound_to 7997
  154.4523  140.0967  156.6630 H   0  0  0  0  0  0  0  0  0  0  0  0  # atno 8010 bound_to 7997
  139.4853  144.5542  151.7346 H   0  0  0  0  0  0  0  0  0  0  0  0  # atno 10167 bound_to 10162
  157.6435  130.9511  150.0743 H   0  0  0  0  0  0  0  0  0  0  0  0  # atno 10718 bound_to 10713
  153.0061  135.6294  154.2050 H   0  0  0  0  0  0  0  0  0  0  0  0  # atno 10763 bound_to 10752
  154.1793  135.2814  155.3058 H   0  0  0  0  0  0  0  0  0  0  0  0  # atno 10764 bound_to 10752
  154.5847  135.5636  153.7279 H   0  0  0  0  0  0  0  0  0  0  0  0  # atno 10765 bound_to 10752
  139.9336  134.9640  156.8337 H   0  0  0  0  0  0  0  0  0  0  0  0  # atno 11005 bound_to 11000
  145.3215  141.0245  143.3498 LP  0  0  0  0  0  0  0  0  0  0  0  0  # atno 17320 bound_to 7965
  144.8863  139.4834  143.6699 LP  0  0  0  0  0  0  0  0  0  0  0  0  # atno 17321 bound_to 7965
  140.5101  144.1038  150.5993 LP  0  0  0  0  0  0  0  0  0  0  0  0  # atno 17342 bound_to 10162
  140.3960  143.2728  152.0004 LP  0  0  0  0  0  0  0  0  0  0  0  0  # atno 17343 bound_to 10162
  156.1738  130.3647  149.9128 LP  0  0  0  0  0  0  0  0  0  0  0  0  # atno 17370 bound_to 10713
  156.7097  130.8965  151.3608 LP  0  0  0  0  0  0  0  0  0  0  0  0  # atno 17371 bound_to 10713
  140.6134  134.0061  155.7587 LP  0  0  0  0  0  0  0  0  0  0  0  0  # atno 17394 bound_to 11000
  141.0939  133.9874  157.3193 LP  0  0  0  0  0  0  0  0  0  0  0  0  # atno 17395 bound_to 11000

$$$$
