AV-unprocessed.smi:167|AV-procd|sdf|1392|dock1
  -GOLD-   2262019133D 1   1.00000     0.00000
 Structure written by MMmdl.
 51 55  0  0  0  0  0  0  0  0  1 V2000
  140.4348  136.5902  158.2842 O   0  0  0  0  0  0  0  0  0  0  0  0
  141.3569  137.6557  158.1923 C   0  0  0  0  0  0  0  0  0  0  0  0
  142.7871  137.1502  158.4566 C   0  0  2  0  0  0  0  0  0  0  0  0
  143.8471  138.2636  158.3430 C   0  0  0  0  0  0  0  0  0  0  0  0
  144.7843  137.6969  157.2632 C   0  0  1  0  0  0  0  0  0  0  0  0
  145.6053  136.5367  157.8600 C   0  0  0  0  0  0  0  0  0  0  0  0
  144.5417  135.4302  157.9444 C   0  0  0  0  0  0  0  0  0  0  0  0
  143.3006  136.1608  157.3872 C   0  0  2  0  0  0  0  0  0  0  0  0
  143.8502  137.0409  156.3625 N   0  0  0  0  0  0  0  0  0  0  0  0
  144.2664  136.5255  155.1717 C   0  0  0  0  0  0  0  0  0  0  0  0
  145.5658  136.7010  154.8106 N   0  0  0  0  0  0  0  0  0  0  0  0
  146.0241  136.2131  153.6552 C   0  0  0  0  0  0  0  0  0  0  0  0
  145.3664  135.5239  152.7227 N   0  0  0  0  0  0  0  0  0  0  0  0
  144.0650  135.3298  153.0792 C   0  0  0  0  0  0  0  0  0  0  0  0
  143.4394  135.7815  154.2778 C   0  0  0  0  0  0  0  0  0  0  0  0
  142.1145  135.3589  154.2944 N   0  0  0  0  0  0  0  0  0  0  0  0
  141.9649  134.7083  153.1738 C   0  0  0  0  0  0  0  0  0  0  0  0
  143.0794  134.6672  152.3688 N   0  0  0  0  0  0  0  0  0  0  0  0
  143.2086  133.9951  151.1091 C   0  0  0  0  0  0  0  0  0  0  0  0
  143.5695  132.5080  151.0446 C   0  0  0  0  0  0  0  0  0  0  0  0
  144.3281  132.7618  149.7210 C   0  0  0  0  0  0  0  0  0  0  0  0
  145.6639  132.0198  149.5157 C   0  0  0  0  0  0  0  0  0  0  0  0
  146.4816  132.0444  150.6687 O   0  0  0  0  0  0  0  0  0  0  0  0
  143.4992  132.5697  148.4368 C   0  0  0  0  0  0  0  0  0  0  0  0
  143.7566  133.5911  147.4945 O   0  0  0  0  0  0  0  0  0  0  0  0
  144.4199  134.2293  150.1998 C   0  0  0  0  0  0  0  0  0  0  0  0
  140.7119  135.9012  157.6996 H   0  0  0  0  0  0  0  0  0  0  0  0
  141.2781  138.1185  157.2079 H   0  0  0  0  0  0  0  0  0  0  0  0
  141.0818  138.4118  158.9282 H   0  0  0  0  0  0  0  0  0  0  0  0
  142.8196  136.6987  159.4494 H   0  0  0  0  0  0  0  0  0  0  0  0
  143.4038  139.2018  158.0059 H   0  0  0  0  0  0  0  0  0  0  0  0
  144.3600  138.4570  159.2857 H   0  0  0  0  0  0  0  0  0  0  0  0
  145.3996  138.4785  156.8225 H   0  0  0  0  0  0  0  0  0  0  0  0
  146.4144  136.2428  157.1899 H   0  0  0  0  0  0  0  0  0  0  0  0
  146.0403  136.7843  158.8290 H   0  0  0  0  0  0  0  0  0  0  0  0
  144.8172  134.5845  157.3132 H   0  0  0  0  0  0  0  0  0  0  0  0
  144.3955  135.0574  158.9587 H   0  0  0  0  0  0  0  0  0  0  0  0
  142.5246  135.4770  157.0409 H   0  0  0  0  0  0  0  0  0  0  0  0
  147.0669  136.4030  153.4480 H   0  0  0  0  0  0  0  0  0  0  0  0
  141.0284  134.2432  152.9023 H   0  0  0  0  0  0  0  0  0  0  0  0
  142.2793  134.1881  150.5707 H   0  0  0  0  0  0  0  0  0  0  0  0
  144.2167  132.2057  151.8697 H   0  0  0  0  0  0  0  0  0  0  0  0
  142.7094  131.8423  150.9670 H   0  0  0  0  0  0  0  0  0  0  0  0
  145.4973  130.9742  149.2562 H   0  0  0  0  0  0  0  0  0  0  0  0
  146.2305  132.4609  148.6951 H   0  0  0  0  0  0  0  0  0  0  0  0
  147.3265  131.6851  150.4450 H   0  0  0  0  0  0  0  0  0  0  0  0
  143.7194  131.6143  147.9602 H   0  0  0  0  0  0  0  0  0  0  0  0
  142.4312  132.5594  148.6575 H   0  0  0  0  0  0  0  0  0  0  0  0
  142.9718  133.7365  146.9882 H   0  0  0  0  0  0  0  0  0  0  0  0
  144.2593  134.9764  149.4221 H   0  0  0  0  0  0  0  0  0  0  0  0
  145.3259  134.4504  150.7660 H   0  0  0  0  0  0  0  0  0  0  0  0
  1  2  1  0  0  0  0
  1 27  1  0  0  0  0
  2  3  1  0  0  0  0
  2 28  1  0  0  0  0
  2 29  1  0  0  0  0
  3  8  1  0  0  0  0
  3  4  1  0  0  0  0
  3 30  1  0  0  0  0
  4  5  1  0  0  0  0
  4 31  1  0  0  0  0
  4 32  1  0  0  0  0
  5  9  1  0  0  0  0
  5  6  1  0  0  0  0
  5 33  1  0  0  0  0
  6  7  1  0  0  0  0
  6 34  1  0  0  0  0
  6 35  1  0  0  0  0
  7  8  1  0  0  0  0
  7 36  1  0  0  0  0
  7 37  1  0  0  0  0
  8  9  1  0  0  0  0
  8 38  1  0  0  0  0
  9 10  1  0  0  0  0
 10 15  1  0  0  0  0
 10 11  2  0  0  0  0
 11 12  1  0  0  0  0
 12 13  2  0  0  0  0
 12 39  1  0  0  0  0
 13 14  1  0  0  0  0
 14 18  1  0  0  0  0
 14 15  2  0  0  0  0
 15 16  1  0  0  0  0
 16 17  2  0  0  0  0
 17 18  1  0  0  0  0
 17 40  1  0  0  0  0
 18 19  1  0  0  0  0
 19 26  1  0  0  0  0
 19 20  1  0  0  0  0
 19 41  1  0  0  0  0
 20 21  1  0  0  0  0
 20 42  1  0  0  0  0
 20 43  1  0  0  0  0
 21 22  1  0  0  0  0
 21 24  1  0  0  0  0
 21 26  1  0  0  0  0
 22 23  1  0  0  0  0
 22 44  1  0  0  0  0
 22 45  1  0  0  0  0
 23 46  1  0  0  0  0
 24 25  1  0  0  0  0
 24 47  1  0  0  0  0
 24 48  1  0  0  0  0
 25 49  1  0  0  0  0
 26 50  1  0  0  0  0
 26 51  1  0  0  0  0
M  END
> <s_m_source_file>
AV-unprocessed.smi

> <i_m_source_file_index>
167

> <i_lp_mmshare_version>
43012

> <i_f3d_flags>
0

> <s_epik_input>
W09IXVtDSDJdW0NASF0oW0NIMl1bQ0BASF0xMilbQ0BIXShbQ0gyXVtDSDJdMSlOMmMobltjSF1uMyljKGMzNCluW2NIXW40W0NIXShbQ0gyXTUpW0NIMl1DNShbQ0gyXVtPSF0pW0NIMl1bT0hd

> <s_epik_cmdline>
J2VwaWtfcHl0aG9uJywgJy1waCcsICc3LjAnLCAnLXRuJywgJzgnLCAnLW1hJywgJzIwMCcsICctbWV0YWxfYmluZGluZycsICctaW1hZScsICc8aW5maWxlLm1hZT4nLCAnLW9tYWUnLCAnPG91dGZpbGUubWFlPic=

> <r_lp_tautomer_probability>
1

> <r_epik_Ionization_Penalty>
0.0047903

> <r_epik_Ionization_Penalty_Charging>
0

> <r_epik_Ionization_Penalty_Neutral>
0.0047903

> <r_epik_State_Penalty>
0.00341021

> <r_epik_Charging_Adjusted_Penalty>
0.00341021

> <i_epik_Tot_Q>
0

> <i_epik_Tot_abs_Q>
0

> <r_epik_Metal_State_Penalty>
-0

> <b_epik_Metal_Only>
0

> <s_lp_Force_Field>
OPLS_2005

> <r_lp_Energy>
90.0047

> <b_lp_Chiralities_Consistent>
1

> <s_lp_Variant>
AV-unprocessed.smi:167-1

> <Gold.Version>
5.8.1

> <Gold.Id.Protein>
6NUR|6NUR_protein|mol2

> <Gold.PLP.Fitness>
45.6756

> <Gold.PLP.PLP>
-32.7036

> <Gold.PLP.part.hbond>
-5.6234

> <Gold.PLP.part.metal>
0.0000

> <Gold.PLP.part.buried>
-3.3026

> <Gold.PLP.part.nonpolar>
-24.1903

> <Gold.PLP.part.repulsive>
0.2123

> <Gold.PLP.ligand.clash>
0.0000

> <Gold.PLP.ligand.torsion>
1.1864

> <Gold.PLP.Chemscore.Hbond>
3.9120

> <Gold.PLP.Chemscore.CHOScore>
0.9970

> <Gold.PLP.Chemscore.Metal>
0.0000

> <Gold.Chemscore.Hbonds>
donor molecule, donor type, donor heavy atom, donor atom, acceptor molecule, acceptor atom, score
      L1  H     1    27       P1 11000  0.99
      L1  H    23    46       P1 10747  1.00
      L1  H    25    49       P1 10195  0.99
      P1  H  7918  7932       L1    25  0.90
      L1  C    12    39       P1  7948  1.00

> <Gold.PLP.Chemscore.Internal.Correction>
0.6177

> <Gold.Rescore>
     Score         DG    S(hbond)    S(metal)    S(lipo)     H(rot)  DE(clash)    DE(int)     intcor
     10.57     -14.65       3.51        0.00      70.07       4.20       1.61       2.47       ----

> <Gold.Chemscore.Fitness>
10.5720

> <Gold.Chemscore.DG>
-14.6502

> <Gold.Chemscore.ZeroCoef>
-5.4800

> <Gold.Chemscore.Hbond>
3.5129

> <Gold.Chemscore.Metal>
0.0000

> <Gold.Chemscore.Lipo>
70.0739

> <Gold.Chemscore.Internal_Hbond>
0.0000

> <Gold.Chemscore.DEClash>
1.6104

> <Gold.Chemscore.DEInternal>
2.4678

> <Gold.Chemscore.Rot>
4.2038

> <Gold.Chemscore.Internal.Correction>
   9.000000E+99

> <Gold.Chemscore.Hbonds>
donor molecule, donor type, donor heavy atom, donor atom, acceptor molecule, acceptor atom, score
      L1  H     1    27       P1 11000  0.88
      L1  H    23    46       P1 10747  1.00
      L1  H    25    49       P1 10195  0.93
      P1  H  7918  7932       L1    25  0.32

> <Gold.Chemscore.Hbond.Weighted>
-11.7332

> <Gold.Chemscore.Metal.Weighted>
-0.0000

> <Gold.Chemscore.Lipo.Weighted>
-8.1987

> <Gold.Chemscore.Internal_Hbond.Weighted>
0.0000

> <Gold.Chemscore.DEClash.Weighted>
1.6104

> <Gold.Chemscore.DEInternal.Weighted>
2.4678

> <Gold.Chemscore.Rot.Weighted>
10.7617

> <Gold.Chemscore.Internal.Correction.Weighted>
   9.000000E+99

> <Gold.Protein.RotatedTorsions>
[ 6907 6896 6895 6894 ] final  -43.80 input  -60.11 | X-H torsion
[ 7974 7965 7964 7962 ] final    6.73 input  175.53 | X-H torsion
[ 8008 7997 7996 7995 ] final  162.20 input   59.86 | X-H torsion
[ 10167 10162 10161 10158 ] final -138.87 input  -65.29 | X-H torsion
[ 10718 10713 10712 10709 ] final  -55.58 input   66.30 | X-H torsion
[ 10763 10752 10751 10750 ] final -112.45 input  -60.55 | X-H torsion
[ 11005 11000 10999 10996 ] final  -27.26 input  -57.11 | X-H torsion

> <Gold.Protein.ActiveResidues>
 VAL166  LYS551  ARG553  GLY616  TRP617  ASP618  TYR619  PRO620  LYS621  CYS622 
 ASP623  PHE694  ASN695  SER759  ASP760  ASP761  ALA762  ILE779  LEU786  VAL792 
 PHE793  MET794  SER795  GLU796  ALA797  LYS798  CYS799  TRP800  GLU811  SER814 

> <Gold.Protein.RotatedAtoms>
  150.9399  134.8809  159.7605 H   0  0  0  0  0  0  0  0  0  0  0  0  # atno 6907 bound_to 6896
  152.5075  134.3957  159.9409 H   0  0  0  0  0  0  0  0  0  0  0  0  # atno 6908 bound_to 6896
  151.3978  133.3727  159.2763 H   0  0  0  0  0  0  0  0  0  0  0  0  # atno 6909 bound_to 6896
  146.2432  140.0190  142.8399 H   0  0  0  0  0  0  0  0  0  0  0  0  # atno 7974 bound_to 7965
  156.2049  140.1757  156.7822 H   0  0  0  0  0  0  0  0  0  0  0  0  # atno 8008 bound_to 7997
  154.5641  140.0694  156.8895 H   0  0  0  0  0  0  0  0  0  0  0  0  # atno 8009 bound_to 7997
  155.2794  140.3348  155.4262 H   0  0  0  0  0  0  0  0  0  0  0  0  # atno 8010 bound_to 7997
  139.8435  143.7291  152.2662 H   0  0  0  0  0  0  0  0  0  0  0  0  # atno 10167 bound_to 10162
  156.1357  130.4157  150.0189 H   0  0  0  0  0  0  0  0  0  0  0  0  # atno 10718 bound_to 10713
  154.8350  135.4490  154.1196 H   0  0  0  0  0  0  0  0  0  0  0  0  # atno 10763 bound_to 10752
  153.2436  135.6919  153.7762 H   0  0  0  0  0  0  0  0  0  0  0  0  # atno 10764 bound_to 10752
  153.7101  135.3358  155.3220 H   0  0  0  0  0  0  0  0  0  0  0  0  # atno 10765 bound_to 10752
  140.9103  133.7465  156.0661 H   0  0  0  0  0  0  0  0  0  0  0  0  # atno 11005 bound_to 11000
  145.1258  140.9489  143.4573 LP  0  0  0  0  0  0  0  0  0  0  0  0  # atno 17320 bound_to 7965
  145.0436  139.3239  143.5964 LP  0  0  0  0  0  0  0  0  0  0  0  0  # atno 17321 bound_to 7965
  139.7535  144.7527  151.0470 LP  0  0  0  0  0  0  0  0  0  0  0  0  # atno 17342 bound_to 10162
  140.7795  143.4832  150.9990 LP  0  0  0  0  0  0  0  0  0  0  0  0  # atno 17343 bound_to 10162
  156.8089  130.9317  151.3644 LP  0  0  0  0  0  0  0  0  0  0  0  0  # atno 17370 bound_to 10713
  157.6530  130.8900  149.9672 LP  0  0  0  0  0  0  0  0  0  0  0  0  # atno 17371 bound_to 10713
  140.8119  134.3390  157.5409 LP  0  0  0  0  0  0  0  0  0  0  0  0  # atno 17394 bound_to 11000
  139.8756  134.9259  156.3386 LP  0  0  0  0  0  0  0  0  0  0  0  0  # atno 17395 bound_to 11000

$$$$
