AV-unprocessed.smi:1749|AV-procd|sdf|7048|dock3
  -GOLD-   22720 8263D 1   1.00000     0.00000
 Structure written by MMmdl.
 31 32  0  0  0  0  0  0  0  0  2 V2000
  151.4518  145.6679  160.0146 C   0  0  0  0  0  0  0  0  0  0  0  0
  151.8169  144.1794  160.1041 C   0  0  2  0  0  0  0  0  0  0  0  0
  152.2183  143.7829  161.5378 C   0  0  0  0  0  0  0  0  0  0  0  0
  152.5899  142.2944  161.6296 C   0  0  0  0  0  0  0  0  0  0  0  0
  153.7060  141.9345  160.6342 C   0  0  0  0  0  0  0  0  0  0  0  0
  153.3391  142.3269  159.1878 C   0  0  1  0  0  0  0  0  0  0  0  0
  152.2557  141.4921  158.6731 N   0  0  0  0  0  0  0  0  0  0  0  0
  152.3245  140.1884  158.3408 C   0  0  0  0  0  0  0  0  0  0  0  0
  153.3994  139.6002  158.4515 O   0  0  0  0  0  0  0  0  0  0  0  0
  151.1872  139.5893  157.8989 N   0  5  0  0  0  0  0  0  0  0  0  0
  150.9629  139.3388  156.5951 C   0  0  0  0  0  0  0  0  0  0  0  0
  151.0295  140.2962  155.6556 N   0  0  0  0  0  0  0  0  0  0  0  0
  150.7790  139.8225  154.3751 N   0  0  0  0  0  0  0  0  0  0  0  0
  150.5170  138.5157  154.3829 C   0  0  0  0  0  0  0  0  0  0  0  0
  150.5530  137.7450  155.9549 S   0  0  0  0  0  0  0  0  0  0  0  0
  152.9383  143.8136  159.1082 C   0  0  0  0  0  0  0  0  0  0  0  0
  152.3009  146.3012  160.2734 H   0  0  0  0  0  0  0  0  0  0  0  0
  150.6340  145.9129  160.6927 H   0  0  0  0  0  0  0  0  0  0  0  0
  151.1334  145.9331  159.0060 H   0  0  0  0  0  0  0  0  0  0  0  0
  150.9245  143.6114  159.8368 H   0  0  0  0  0  0  0  0  0  0  0  0
  153.0648  144.3885  161.8648 H   0  0  0  0  0  0  0  0  0  0  0  0
  151.4010  143.9976  162.2272 H   0  0  0  0  0  0  0  0  0  0  0  0
  152.9073  142.0534  162.6443 H   0  0  0  0  0  0  0  0  0  0  0  0
  151.7081  141.6834  161.4313 H   0  0  0  0  0  0  0  0  0  0  0  0
  154.6210  142.4529  160.9228 H   0  0  0  0  0  0  0  0  0  0  0  0
  153.9318  140.8692  160.6954 H   0  0  0  0  0  0  0  0  0  0  0  0
  154.2142  142.1827  158.5517 H   0  0  0  0  0  0  0  0  0  0  0  0
  151.3568  141.9406  158.5744 H   0  0  0  0  0  0  0  0  0  0  0  0
  150.2986  138.0030  153.4579 H   0  0  0  0  0  0  0  0  0  0  0  0
  152.6303  144.0586  158.0905 H   0  0  0  0  0  0  0  0  0  0  0  0
  153.8160  144.4280  159.3138 H   0  0  0  0  0  0  0  0  0  0  0  0
  1  2  1  0  0  0  0
  1 17  1  0  0  0  0
  1 18  1  0  0  0  0
  1 19  1  0  0  0  0
  2 16  1  0  0  0  0
  2  3  1  0  0  0  0
  2 20  1  0  0  0  0
  3  4  1  0  0  0  0
  3 21  1  0  0  0  0
  3 22  1  0  0  0  0
  4  5  1  0  0  0  0
  4 23  1  0  0  0  0
  4 24  1  0  0  0  0
  5  6  1  0  0  0  0
  5 25  1  0  0  0  0
  5 26  1  0  0  0  0
  6  7  1  0  0  0  0
  6 16  1  0  0  0  0
  6 27  1  0  0  0  0
  7  8  1  0  0  0  0
  7 28  1  0  0  0  0
  8  9  2  0  0  0  0
  8 10  1  0  0  0  0
 10 11  1  0  0  0  0
 11 15  1  0  0  0  0
 11 12  2  0  0  0  0
 12 13  1  0  0  0  0
 13 14  2  0  0  0  0
 14 15  1  0  0  0  0
 14 29  1  0  0  0  0
 16 30  1  0  0  0  0
 16 31  1  0  0  0  0
M  CHG  1  10  -1
M  END
> <s_m_source_file>
AV-unprocessed.smi

> <i_m_source_file_index>
1749

> <i_lp_mmshare_version>
43012

> <i_f3d_flags>
0

> <s_epik_input>
W0NIM11bQ0BASF0xW0NIMl1bQ0gyXVtDSDJdW0NASF0oW0NIMl0xKVtOSF1DKD1PKVtOSF1jMm5uW2NIXXMy

> <s_epik_cmdline>
J2VwaWtfcHl0aG9uJywgJy1waCcsICc3LjAnLCAnLXRuJywgJzgnLCAnLW1hJywgJzIwMCcsICctbWV0YWxfYmluZGluZycsICctaW1hZScsICc8aW5maWxlLm1hZT4nLCAnLW9tYWUnLCAnPG91dGZpbGUubWFlPic=

> <r_lp_tautomer_probability>
1

> <r_epik_Ionization_Penalty>
4.55442

> <r_epik_Ionization_Penalty_Charging>
4.5081

> <r_epik_Ionization_Penalty_Neutral>
0.0463156

> <r_epik_State_Penalty>
4.50781

> <r_epik_Charging_Adjusted_Penalty>
9.01591

> <i_epik_Tot_Q>
-1

> <i_epik_Tot_abs_Q>
1

> <r_epik_Metal_State_Penalty>
0.823335

> <b_epik_Metal_Only>
1

> <s_lp_Force_Field>
OPLS_2005

> <r_lp_Energy>
7.79414

> <b_lp_Chiralities_Consistent>
1

> <s_lp_Variant>
AV-unprocessed.smi:1749-5

> <Gold.Version>
5.8.1

> <Gold.Id.Protein>
6NUR|6NUR_protein|mol2

> <Gold.PLP.Fitness>
41.8912

> <Gold.PLP.PLP>
-36.4640

> <Gold.PLP.part.hbond>
-2.2722

> <Gold.PLP.part.metal>
0.0000

> <Gold.PLP.part.buried>
-5.3232

> <Gold.PLP.part.nonpolar>
-28.9706

> <Gold.PLP.part.repulsive>
0.2325

> <Gold.PLP.ligand.clash>
0.0000

> <Gold.PLP.ligand.torsion>
1.3463

> <Gold.PLP.Chemscore.Hbond>
2.0000

> <Gold.PLP.Chemscore.CHOScore>
0.7038

> <Gold.PLP.Chemscore.Metal>
0.0000

> <Gold.Chemscore.Hbonds>
donor molecule, donor type, donor heavy atom, donor atom, acceptor molecule, acceptor atom, score
      P1  H  7989  7998       L1    13  1.00
      P1  H  7997  8010       L1     9  1.00
      L1  C    14    29       P1  7948  0.60

> <Gold.PLP.Chemscore.Internal.Correction>
0.0082

> <Gold.Rescore>
     Score         DG    S(hbond)    S(metal)    S(lipo)     H(rot)  DE(clash)    DE(int)     intcor
     18.32     -19.69       1.68        0.00      95.24       1.00       0.09       1.27       ----

> <Gold.Chemscore.Fitness>
18.3245

> <Gold.Chemscore.DG>
-19.6905

> <Gold.Chemscore.ZeroCoef>
-5.4800

> <Gold.Chemscore.Hbond>
1.6850

> <Gold.Chemscore.Metal>
0.0000

> <Gold.Chemscore.Lipo>
95.2373

> <Gold.Chemscore.Internal_Hbond>
0.0000

> <Gold.Chemscore.DEClash>
0.0928

> <Gold.Chemscore.DEInternal>
1.2732

> <Gold.Chemscore.Rot>
1.0000

> <Gold.Chemscore.Internal.Correction>
   9.000000E+99

> <Gold.Chemscore.Hbonds>
donor molecule, donor type, donor heavy atom, donor atom, acceptor molecule, acceptor atom, score
      P1  H  7989  7998       L1    13  0.30
      P1  H  7997  8010       L1     9  0.78

> <Gold.Chemscore.Hbond.Weighted>
-5.6277

> <Gold.Chemscore.Metal.Weighted>
-0.0000

> <Gold.Chemscore.Lipo.Weighted>
-11.1428

> <Gold.Chemscore.Internal_Hbond.Weighted>
0.0000

> <Gold.Chemscore.DEClash.Weighted>
0.0928

> <Gold.Chemscore.DEInternal.Weighted>
1.2732

> <Gold.Chemscore.Rot.Weighted>
2.5600

> <Gold.Chemscore.Internal.Correction.Weighted>
   9.000000E+99

> <Gold.Protein.RotatedTorsions>
[ 6907 6896 6895 6894 ] final -122.16 input  -60.11 | X-H torsion
[ 7974 7965 7964 7962 ] final    4.50 input  175.53 | X-H torsion
[ 8008 7997 7996 7995 ] final   36.95 input   59.86 | X-H torsion
[ 10167 10162 10161 10158 ] final  100.49 input  -65.29 | X-H torsion
[ 10718 10713 10712 10709 ] final  -12.22 input   66.30 | X-H torsion
[ 10763 10752 10751 10750 ] final -139.49 input  -60.55 | X-H torsion
[ 11005 11000 10999 10996 ] final  139.01 input  -57.11 | X-H torsion

> <Gold.Protein.ActiveResidues>
 VAL166  LYS551  ARG553  GLY616  TRP617  ASP618  TYR619  PRO620  LYS621  CYS622 
 ASP623  PHE694  ASN695  SER759  ASP760  ASP761  ALA762  ILE779  LEU786  VAL792 
 PHE793  MET794  SER795  GLU796  ALA797  LYS798  CYS799  TRP800  GLU811  SER814 

> <Gold.Protein.RotatedAtoms>
  150.8550  133.7729  159.3011 H   0  0  0  0  0  0  0  0  0  0  0  0  # atno 6907 bound_to 6896
  151.5389  135.1067  159.9931 H   0  0  0  0  0  0  0  0  0  0  0  0  # atno 6908 bound_to 6896
  152.4582  133.7724  159.6862 H   0  0  0  0  0  0  0  0  0  0  0  0  # atno 6909 bound_to 6896
  146.2444  140.0525  142.8374 H   0  0  0  0  0  0  0  0  0  0  0  0  # atno 7974 bound_to 7965
  155.1958  140.3311  155.4351 H   0  0  0  0  0  0  0  0  0  0  0  0  # atno 8008 bound_to 7997
  156.2425  140.1902  156.6998 H   0  0  0  0  0  0  0  0  0  0  0  0  # atno 8009 bound_to 7997
  154.6174  140.0600  156.9558 H   0  0  0  0  0  0  0  0  0  0  0  0  # atno 8010 bound_to 7997
  139.7522  144.6980  151.0415 H   0  0  0  0  0  0  0  0  0  0  0  0  # atno 10167 bound_to 10162
  156.6477  130.4946  149.6073 H   0  0  0  0  0  0  0  0  0  0  0  0  # atno 10718 bound_to 10713
  154.8607  135.3581  154.5554 H   0  0  0  0  0  0  0  0  0  0  0  0  # atno 10763 bound_to 10752
  153.6171  135.7007  153.5329 H   0  0  0  0  0  0  0  0  0  0  0  0  # atno 10764 bound_to 10752
  153.3160  135.4165  155.1337 H   0  0  0  0  0  0  0  0  0  0  0  0  # atno 10765 bound_to 10752
  140.0224  134.9390  157.0501 H   0  0  0  0  0  0  0  0  0  0  0  0  # atno 11005 bound_to 11000
  145.0971  140.9322  143.4734 LP  0  0  0  0  0  0  0  0  0  0  0  0  # atno 17320 bound_to 7965
  145.0710  139.3031  143.5832 LP  0  0  0  0  0  0  0  0  0  0  0  0  # atno 17321 bound_to 7965
  140.7799  143.4795  151.0037 LP  0  0  0  0  0  0  0  0  0  0  0  0  # atno 17342 bound_to 10162
  139.8483  143.7472  152.3179 LP  0  0  0  0  0  0  0  0  0  0  0  0  # atno 17343 bound_to 10162
  156.2109  130.6678  151.1268 LP  0  0  0  0  0  0  0  0  0  0  0  0  # atno 17370 bound_to 10713
  157.7151  131.0714  150.6358 LP  0  0  0  0  0  0  0  0  0  0  0  0  # atno 17371 bound_to 10713
  140.4364  134.1727  155.7171 LP  0  0  0  0  0  0  0  0  0  0  0  0  # atno 17394 bound_to 11000
  141.1782  133.8470  157.1349 LP  0  0  0  0  0  0  0  0  0  0  0  0  # atno 17395 bound_to 11000

$$$$
