#       Name:                AV-unprocessed.smi:203
#       Creating user name   scv26
#       Creation time:       Thu Mar 26 19:48:28 2020


#       File generated by GOLD software.
#

@<TRIPOS>MOLECULE
AV-unprocessed.smi:203
    67    71     1
SMALL
NO_CHARGES


@<TRIPOS>ATOM
      1 ****        -4.9684   0.5907   4.9228 O.2            1 S1                 0.0000
      2 ****        -4.2902   0.8989   3.9457 C.2            1 S1                 0.0000
      3 ****        -3.2426  -0.0134   3.3313 C.3            1 S1                 0.0000
      4 ****        -2.8513   0.7074   2.0262 C.3            1 S1                 0.0000
      5 ****        -3.3004  -0.0382   0.7293 C.3            1 S1                 0.0000
      6 ****        -4.8366  -0.2476   0.6592 C.3            1 S1                 0.0000
      7 ****        -5.2551  -0.9757  -0.6247 C.3            1 S1                 0.0000
      8 ****        -4.7345  -0.2142  -1.8480 C.3            1 S1                 0.0000
      9 ****        -3.2134  -0.0369  -1.7564 C.3            1 S1                 0.0000
     10 ****        -2.8280   0.6154  -0.5051 N.3            1 S1                 0.0000
     11 ****        -1.5206   0.9570  -0.5369 C.ar           1 S1                 0.0000
     12 ****        -1.2279   2.2691  -0.7112 N.ar           1 S1                 0.0000
     13 ****         0.0469   2.6698  -0.7381 C.ar           1 S1                 0.0000
     14 ****         1.1559   1.9371  -0.6137 N.ar           1 S1                 0.0000
     15 ****         0.8617   0.6154  -0.4472 C.ar           1 S1                 0.0000
     16 ****        -0.4392   0.0417  -0.3988 C.ar           1 S1                 0.0000
     17 ****        -0.3460  -1.3334  -0.2200 N.2            1 S1                 0.0000
     18 ****         0.9383  -1.5603  -0.1679 C.2            1 S1                 0.0000
     19 ****         1.7360  -0.4459  -0.2949 N.pl3          1 S1                 0.0000
     20 ****         3.1874  -0.4119  -0.2763 C.3            1 S1                 0.0000
     21 ****         3.7973  -0.6749  -1.6700 C.3            1 S1                 0.0000
     22 ****         3.3584   0.2969  -2.5983 O.3            1 S1                 0.0000
     23 ****         5.3393  -0.7169  -1.6927 C.3            1 S1                 0.0000
     24 ****         5.9443  -2.0141  -1.1462 C.3            1 S1                 0.0000
     25 ****         7.2866  -1.5858  -0.5683 C.3            1 S1                 0.0000
     26 ****         7.2778  -0.0609  -0.6834 C.3            1 S1                 0.0000
     27 ****         5.9090   0.2733  -0.8491 O.3            1 S1                 0.0000
     28 ****        -3.4379   2.1305   2.1660 C.3            1 S1                 0.0000
     29 ****        -4.3562   2.0528   3.2853 N.am           1 S1                 0.0000
     30 ****        -2.3926  -0.0825   4.0113 H              1 S1                 0.0000
     31 ****        -3.6274  -1.0209   3.1730 H              1 S1                 0.0000
     32 ****        -1.7636   0.7840   2.0312 H              1 S1                 0.0000
     33 ****        -2.8478  -1.0300   0.7545 H              1 S1                 0.0000
     34 ****        -5.1907  -0.8196   1.5160 H              1 S1                 0.0000
     35 ****        -5.3524   0.7118   0.7007 H              1 S1                 0.0000
     36 ****        -4.8556  -1.9907  -0.6216 H              1 S1                 0.0000
     37 ****        -6.3408  -1.0652  -0.6702 H              1 S1                 0.0000
     38 ****        -4.9949  -0.7476  -2.7624 H              1 S1                 0.0000
     39 ****        -5.2160   0.7628  -1.9071 H              1 S1                 0.0000
     40 ****        -2.7261  -1.0107  -1.8248 H              1 S1                 0.0000
     41 ****        -2.8653   0.5526  -2.6061 H              1 S1                 0.0000
     42 ****         0.2005   3.7294  -0.8793 H              1 S1                 0.0000
     43 ****         1.3426  -2.5536  -0.0363 H              1 S1                 0.0000
     44 ****         3.5046   0.5581   0.1088 H              1 S1                 0.0000
     45 ****         3.5330  -1.1568   0.4405 H              1 S1                 0.0000
     46 ****         3.4269  -1.6308  -2.0425 H              1 S1                 0.0000
     47 ****         3.6493   1.1458  -2.3012 H              1 S1                 0.0000
     48 ****         5.7073  -0.5677  -2.7103 H              1 S1                 0.0000
     49 ****         5.3252  -2.4339  -0.3531 H              1 S1                 0.0000
     50 ****         6.0460  -2.7733  -1.9221 H              1 S1                 0.0000
     51 ****         7.3651  -1.8973   0.4739 H              1 S1                 0.0000
     52 ****         8.1271  -2.0184  -1.1120 H              1 S1                 0.0000
     53 ****         7.7068   0.4305   0.1903 H              1 S1                 0.0000
     54 ****         7.8350   0.2614  -1.5644 H              1 S1                 0.0000
     55 ****        -2.6537   2.8515   2.4002 H              1 S1                 0.0000
     56 ****        -3.9461   2.4785   1.2667 H              1 S1                 0.0000
     57 ****        -4.9852   2.8056   3.5249 H              1 S1                 0.0000
     58 ****        -5.6418   1.2341   5.2871 LP             1 S1                 0.0000
     59 ****        -4.8471  -0.3035   5.3538 LP             1 S1                 0.0000
     60 ****        -3.3432   1.4707  -0.4489 LP             1 S1                 0.0000
     61 ****        -1.9649   2.9364  -0.8195 LP             1 S1                 0.0000
     62 ****         2.0836   2.3095  -0.6392 LP             1 S1                 0.0000
     63 ****        -1.0913  -1.9963  -0.1478 LP             1 S1                 0.0000
     64 ****         2.3601   0.2829  -2.6554 LP             1 S1                 0.0000
     65 ****         3.7466   0.1031  -3.4992 LP             1 S1                 0.0000
     66 ****         5.4465   0.2767   0.0376 LP             1 S1                 0.0000
     67 ****         5.8245   1.1753  -1.2725 LP             1 S1                 0.0000
@<TRIPOS>BOND
    1    1    2 2     
    2    2   29 am    
    3    2    3 1     
    4    3    4 1     
    5    3   30 1     
    6    3   31 1     
    7    4    5 1     
    8    4   28 1     
    9    4   32 1     
   10    5   10 1     
   11    5    6 1     
   12    5   33 1     
   13    6    7 1     
   14    6   34 1     
   15    6   35 1     
   16    7    8 1     
   17    7   36 1     
   18    7   37 1     
   19    8    9 1     
   20    8   38 1     
   21    8   39 1     
   22    9   10 1     
   23    9   40 1     
   24    9   41 1     
   25   10   11 1     
   26   11   16 ar    
   27   11   12 ar    
   28   12   13 ar    
   29   13   14 ar    
   30   13   42 1     
   31   14   15 ar    
   32   15   19 1     
   33   15   16 ar    
   34   16   17 1     
   35   17   18 2     
   36   18   19 1     
   37   18   43 1     
   38   19   20 1     
   39   20   21 1     
   40   20   44 1     
   41   20   45 1     
   42   21   22 1     
   43   21   23 1     
   44   21   46 1     
   45   22   47 1     
   46   23   27 1     
   47   23   24 1     
   48   23   48 1     
   49   24   25 1     
   50   24   49 1     
   51   24   50 1     
   52   25   26 1     
   53   25   51 1     
   54   25   52 1     
   55   26   27 1     
   56   26   53 1     
   57   26   54 1     
   58   28   29 1     
   59   28   55 1     
   60   28   56 1     
   61   29   57 1     
   62    1   58 1     
   63    1   59 1     
   64   10   60 1     
   65   12   61 1     
   66   14   62 1     
   67   17   63 1     
   68   22   64 1     
   69   22   65 1     
   70   27   66 1     
   71   27   67 1     
@<TRIPOS>SUBSTRUCTURE
      1 S1             1
@<TRIPOS>SET
LONE_PAIRS      STATIC     ATOMS    <user>   **** ""
10 58 59 60 61 62 63 64 65 66 67
DONOR_HYDROGENS      STATIC     ATOMS    <user>   **** ""
2 47 57
ATOM$BLUE        STATIC     ATOMS    COLORGROUP SYSTEM
10 58 59 60 61 62 63 64 65 66 67
ATOM$RED        STATIC     ATOMS    COLORGROUP SYSTEM
2 47 57
