AV-unprocessed.smi:2114|AV-procd|sdf|8620|dock8
  -GOLD-   2272011363D 1   1.00000     0.00000
 Structure written by MMmdl.
 47 48  0  0  0  0  0  0  0  0  1 V2000
  154.2167  133.1286  165.5644 C   0  0  0  0  0  0  0  0  0  0  0  0
  155.1613  133.8996  164.8428 O   0  0  0  0  0  0  0  0  0  0  0  0
  154.5495  134.8937  164.0366 C   0  0  0  0  0  0  0  0  0  0  0  0
  155.6272  135.6319  163.2278 C   0  0  1  0  0  0  0  0  0  0  0  0
  156.3857  134.6727  162.2959 C   0  0  0  0  0  0  0  0  0  0  0  0
  155.0084  136.7036  162.4523 N   0  0  0  0  0  0  0  0  0  0  0  0
  154.3517  136.5437  161.2914 C   0  0  0  0  0  0  0  0  0  0  0  0
  154.2119  135.4553  160.7333 O   0  0  0  0  0  0  0  0  0  0  0  0
  153.8319  137.8029  160.6600 C   0  0  0  0  0  0  0  0  0  0  0  0
  154.3303  139.0751  161.0168 C   0  0  0  0  0  0  0  0  0  0  0  0
  153.7806  140.2215  160.4119 C   0  0  0  0  0  0  0  0  0  0  0  0
  152.7376  140.0715  159.4680 C   0  0  0  0  0  0  0  0  0  0  0  0
  152.1692  141.2084  158.8551 N   0  0  0  0  0  0  0  0  0  0  0  0
  150.7175  141.1856  158.7015 C   0  0  0  0  0  0  0  0  0  0  0  0
  150.2474  142.2893  157.7335 C   0  0  2  0  0  0  0  0  0  0  0  0
  150.5260  141.9649  156.2548 C   0  0  0  0  0  0  0  0  0  0  0  0
  150.7921  143.5527  158.1219 O   0  0  0  0  0  0  0  0  0  0  0  0
  152.2156  143.5858  158.2178 C   0  0  1  0  0  0  0  0  0  0  0  0
  152.6308  144.9983  158.6423 C   0  0  0  0  0  0  0  0  0  0  0  0
  152.6893  142.5220  159.2237 C   0  0  0  0  0  0  0  0  0  0  0  0
  152.2509  138.8505  159.1368 N   0  0  0  0  0  0  0  0  0  0  0  0
  152.7819  137.7542  159.7184 C   0  0  0  0  0  0  0  0  0  0  0  0
  154.7360  132.3873  166.1714 H   0  0  0  0  0  0  0  0  0  0  0  0
  153.5427  132.5988  164.8901 H   0  0  0  0  0  0  0  0  0  0  0  0
  153.6236  133.7549  166.2322 H   0  0  0  0  0  0  0  0  0  0  0  0
  153.8377  134.4206  163.3582 H   0  0  0  0  0  0  0  0  0  0  0  0
  153.9906  135.5956  164.6581 H   0  0  0  0  0  0  0  0  0  0  0  0
  156.3401  136.0635  163.9328 H   0  0  0  0  0  0  0  0  0  0  0  0
  156.8618  133.8716  162.8619 H   0  0  0  0  0  0  0  0  0  0  0  0
  157.1701  135.1919  161.7446 H   0  0  0  0  0  0  0  0  0  0  0  0
  155.7156  134.2131  161.5688 H   0  0  0  0  0  0  0  0  0  0  0  0
  155.0992  137.6395  162.8197 H   0  0  0  0  0  0  0  0  0  0  0  0
  155.1170  139.1845  161.7491 H   0  0  0  0  0  0  0  0  0  0  0  0
  154.1485  141.1976  160.6913 H   0  0  0  0  0  0  0  0  0  0  0  0
  150.3571  140.2190  158.3519 H   0  0  0  0  0  0  0  0  0  0  0  0
  150.2707  141.3473  159.6835 H   0  0  0  0  0  0  0  0  0  0  0  0
  149.1659  142.3818  157.8366 H   0  0  0  0  0  0  0  0  0  0  0  0
  149.9815  141.0720  155.9473 H   0  0  0  0  0  0  0  0  0  0  0  0
  151.5827  141.7794  156.0633 H   0  0  0  0  0  0  0  0  0  0  0  0
  150.2067  142.7838  155.6101 H   0  0  0  0  0  0  0  0  0  0  0  0
  152.6545  143.3857  157.2401 H   0  0  0  0  0  0  0  0  0  0  0  0
  153.7151  145.0819  158.7199 H   0  0  0  0  0  0  0  0  0  0  0  0
  152.2041  145.2609  159.6108 H   0  0  0  0  0  0  0  0  0  0  0  0
  152.2917  145.7383  157.9171 H   0  0  0  0  0  0  0  0  0  0  0  0
  152.3485  142.7735  160.2294 H   0  0  0  0  0  0  0  0  0  0  0  0
  153.7799  142.5050  159.2428 H   0  0  0  0  0  0  0  0  0  0  0  0
  152.3506  136.8109  159.4156 H   0  0  0  0  0  0  0  0  0  0  0  0
  1  2  1  0  0  0  0
  1 23  1  0  0  0  0
  1 24  1  0  0  0  0
  1 25  1  0  0  0  0
  2  3  1  0  0  0  0
  3  4  1  0  0  0  0
  3 26  1  0  0  0  0
  3 27  1  0  0  0  0
  4  5  1  0  0  0  0
  4  6  1  0  0  0  0
  4 28  1  0  0  0  0
  5 29  1  0  0  0  0
  5 30  1  0  0  0  0
  5 31  1  0  0  0  0
  6  7  1  0  0  0  0
  6 32  1  0  0  0  0
  7  8  2  0  0  0  0
  7  9  1  0  0  0  0
  9 22  1  0  0  0  0
  9 10  2  0  0  0  0
 10 11  1  0  0  0  0
 10 33  1  0  0  0  0
 11 12  2  0  0  0  0
 11 34  1  0  0  0  0
 12 13  1  0  0  0  0
 12 21  1  0  0  0  0
 13 20  1  0  0  0  0
 13 14  1  0  0  0  0
 14 15  1  0  0  0  0
 14 35  1  0  0  0  0
 14 36  1  0  0  0  0
 15 16  1  0  0  0  0
 15 17  1  0  0  0  0
 15 37  1  0  0  0  0
 16 38  1  0  0  0  0
 16 39  1  0  0  0  0
 16 40  1  0  0  0  0
 17 18  1  0  0  0  0
 18 19  1  0  0  0  0
 18 20  1  0  0  0  0
 18 41  1  0  0  0  0
 19 42  1  0  0  0  0
 19 43  1  0  0  0  0
 19 44  1  0  0  0  0
 20 45  1  0  0  0  0
 20 46  1  0  0  0  0
 21 22  2  0  0  0  0
 22 47  1  0  0  0  0
M  END
> <s_m_source_file>
AV-unprocessed.smi

> <i_m_source_file_index>
2114

> <i_lp_mmshare_version>
43012

> <i_f3d_flags>
0

> <s_epik_input>
W0NIM11PW0NIMl1bQ0BIXShbQ0gzXSlbTkhdQyg9TyljMVtjSF1bY0hdYyhuW2NIXTEpTjJbQ0gyXVtDQEBIXShbQ0gzXSlPW0NAQEhdKFtDSDNdKVtDSDJdMg==

> <s_epik_cmdline>
J2VwaWtfcHl0aG9uJywgJy1waCcsICc3LjAnLCAnLXRuJywgJzgnLCAnLW1hJywgJzIwMCcsICctbWV0YWxfYmluZGluZycsICctaW1hZScsICc8aW5maWxlLm1hZT4nLCAnLW9tYWUnLCAnPG91dGZpbGUubWFlPic=

> <r_lp_tautomer_probability>
1

> <r_epik_Ionization_Penalty>
1.92915e-05

> <r_epik_Ionization_Penalty_Charging>
0

> <r_epik_Ionization_Penalty_Neutral>
1.92915e-05

> <r_epik_State_Penalty>
-0

> <r_epik_Charging_Adjusted_Penalty>
0

> <i_epik_Tot_Q>
0

> <i_epik_Tot_abs_Q>
0

> <r_epik_Metal_State_Penalty>
-0

> <b_epik_Metal_Only>
0

> <s_lp_Force_Field>
OPLS_2005

> <r_lp_Energy>
21.8338

> <b_lp_Chiralities_Consistent>
1

> <s_lp_Variant>
AV-unprocessed.smi:2114-4

> <Gold.Version>
5.8.1

> <Gold.Id.Protein>
6NUR|6NUR_protein|mol2

> <Gold.PLP.Fitness>
41.1084

> <Gold.PLP.PLP>
-39.4478

> <Gold.PLP.part.hbond>
-0.9719

> <Gold.PLP.part.metal>
0.0000

> <Gold.PLP.part.buried>
-6.3751

> <Gold.PLP.part.nonpolar>
-32.1963

> <Gold.PLP.part.repulsive>
0.2421

> <Gold.PLP.ligand.clash>
0.0000

> <Gold.PLP.ligand.torsion>
0.7143

> <Gold.PLP.Chemscore.Hbond>
0.9100

> <Gold.PLP.Chemscore.CHOScore>
0.0000

> <Gold.PLP.Chemscore.Metal>
0.0000

> <Gold.Chemscore.Hbonds>
donor molecule, donor type, donor heavy atom, donor atom, acceptor molecule, acceptor atom, score
      P1  H  6896  6909       L1     8  0.94

> <Gold.PLP.Chemscore.Internal.Correction>
0.3591

> <Gold.Rescore>
     Score         DG    S(hbond)    S(metal)    S(lipo)     H(rot)  DE(clash)    DE(int)     intcor
     14.92     -17.13       0.98        0.00     104.87       1.52       0.26       1.95       ----

> <Gold.Chemscore.Fitness>
14.9181

> <Gold.Chemscore.DG>
-17.1320

> <Gold.Chemscore.ZeroCoef>
-5.4800

> <Gold.Chemscore.Hbond>
0.9820

> <Gold.Chemscore.Metal>
0.0000

> <Gold.Chemscore.Lipo>
104.8739

> <Gold.Chemscore.Internal_Hbond>
0.0000

> <Gold.Chemscore.DEClash>
0.2608

> <Gold.Chemscore.DEInternal>
1.9532

> <Gold.Chemscore.Rot>
1.5226

> <Gold.Chemscore.Internal.Correction>
   9.000000E+99

> <Gold.Chemscore.Hbonds>
donor molecule, donor type, donor heavy atom, donor atom, acceptor molecule, acceptor atom, score
      P1  H  6896  6909       L1     8  0.89

> <Gold.Chemscore.Hbond.Weighted>
-3.2798

> <Gold.Chemscore.Metal.Weighted>
-0.0000

> <Gold.Chemscore.Lipo.Weighted>
-12.2702

> <Gold.Chemscore.Internal_Hbond.Weighted>
0.0000

> <Gold.Chemscore.DEClash.Weighted>
0.2608

> <Gold.Chemscore.DEInternal.Weighted>
1.9532

> <Gold.Chemscore.Rot.Weighted>
3.8980

> <Gold.Chemscore.Internal.Correction.Weighted>
   9.000000E+99

> <Gold.Protein.RotatedTorsions>
[ 6907 6896 6895 6894 ] final  177.17 input  -60.11 | X-H torsion
[ 7974 7965 7964 7962 ] final -176.49 input  175.53 | X-H torsion
[ 8008 7997 7996 7995 ] final   18.47 input   59.86 | X-H torsion
[ 10167 10162 10161 10158 ] final   16.07 input  -65.29 | X-H torsion
[ 10718 10713 10712 10709 ] final  -17.12 input   66.30 | X-H torsion
[ 10763 10752 10751 10750 ] final  139.68 input  -60.55 | X-H torsion
[ 11005 11000 10999 10996 ] final  113.24 input  -57.11 | X-H torsion

> <Gold.Protein.ActiveResidues>
 VAL166  LYS551  ARG553  GLY616  TRP617  ASP618  TYR619  PRO620  LYS621  CYS622 
 ASP623  PHE694  ASN695  SER759  ASP760  ASP761  ALA762  ILE779  LEU786  VAL792 
 PHE793  MET794  SER795  GLU796  ALA797  LYS798  CYS799  TRP800  GLU811  SER814 

> <Gold.Protein.RotatedAtoms>
  151.7084  133.3312  159.3284 H   0  0  0  0  0  0  0  0  0  0  0  0  # atno 6907 bound_to 6896
  150.7705  134.6554  159.6320 H   0  0  0  0  0  0  0  0  0  0  0  0  # atno 6908 bound_to 6896
  152.3727  134.6713  160.0222 H   0  0  0  0  0  0  0  0  0  0  0  0  # atno 6909 bound_to 6896
  144.7127  140.1162  143.6408 H   0  0  0  0  0  0  0  0  0  0  0  0  # atno 7974 bound_to 7965
  154.9065  140.3008  155.5289 H   0  0  0  0  0  0  0  0  0  0  0  0  # atno 8008 bound_to 7997
  156.3016  140.2397  156.4034 H   0  0  0  0  0  0  0  0  0  0  0  0  # atno 8009 bound_to 7997
  154.8468  140.0411  157.1567 H   0  0  0  0  0  0  0  0  0  0  0  0  # atno 8010 bound_to 7997
  140.5823  143.8957  150.6800 H   0  0  0  0  0  0  0  0  0  0  0  0  # atno 10167 bound_to 10162
  156.5780  130.4766  149.6333 H   0  0  0  0  0  0  0  0  0  0  0  0  # atno 10718 bound_to 10713
  153.9101  135.3012  155.3448 H   0  0  0  0  0  0  0  0  0  0  0  0  # atno 10763 bound_to 10752
  154.7627  135.4926  153.9498 H   0  0  0  0  0  0  0  0  0  0  0  0  # atno 10764 bound_to 10752
  153.1197  135.6779  153.9458 H   0  0  0  0  0  0  0  0  0  0  0  0  # atno 10765 bound_to 10752
  139.8948  134.9546  156.6708 H   0  0  0  0  0  0  0  0  0  0  0  0  # atno 11005 bound_to 11000
  145.9412  139.2670  143.1268 LP  0  0  0  0  0  0  0  0  0  0  0  0  # atno 17320 bound_to 7965
  145.9422  140.8971  143.0302 LP  0  0  0  0  0  0  0  0  0  0  0  0  # atno 17321 bound_to 7965
  140.2459  143.3629  152.1447 LP  0  0  0  0  0  0  0  0  0  0  0  0  # atno 17342 bound_to 10162
  139.5177  144.6995  151.5534 LP  0  0  0  0  0  0  0  0  0  0  0  0  # atno 17343 bound_to 10162
  156.2656  130.6988  151.1770 LP  0  0  0  0  0  0  0  0  0  0  0  0  # atno 17370 bound_to 10713
  157.7333  131.0592  150.5583 LP  0  0  0  0  0  0  0  0  0  0  0  0  # atno 17371 bound_to 10713
  140.7374  133.9007  155.8254 LP  0  0  0  0  0  0  0  0  0  0  0  0  # atno 17394 bound_to 11000
  141.0105  134.1027  157.4226 LP  0  0  0  0  0  0  0  0  0  0  0  0  # atno 17395 bound_to 11000

$$$$
