AV-unprocessed.smi:2036|AV-procd|sdf|8274|dock3
  -GOLD-   2272010543D 1   1.00000     0.00000
 Structure written by MMmdl.
 41 42  0  0  0  0  0  0  0  0  1 V2000
  145.6227  136.3606  151.2988 C   0  0  0  0  0  0  0  0  0  0  0  0
  145.8958  137.0949  152.4790 O   0  0  0  0  0  0  0  0  0  0  0  0
  146.4140  138.3878  152.2071 C   0  0  0  0  0  0  0  0  0  0  0  0
  146.8144  139.0603  153.5215 C   0  0  0  0  0  0  0  0  0  0  0  0
  145.9794  139.2013  154.4144 O   0  0  0  0  0  0  0  0  0  0  0  0
  148.0952  139.4685  153.5957 N   0  0  0  0  0  0  0  0  0  0  0  0
  148.7703  140.1137  154.6683 C   0  0  0  0  0  0  0  0  0  0  0  0
  148.2251  140.3138  155.9582 C   0  0  0  0  0  0  0  0  0  0  0  0
  149.0085  140.9526  156.9386 C   0  0  0  0  0  0  0  0  0  0  0  0
  150.3209  141.3692  156.6146 C   0  0  0  0  0  0  0  0  0  0  0  0
  151.1209  142.0064  157.5871 N   0  0  0  0  0  0  0  0  0  0  0  0
  150.5947  143.2668  158.1036 C   0  0  0  0  0  0  0  0  0  0  0  0
  151.6700  144.0324  158.8997 C   0  0  2  0  0  0  0  0  0  0  0  0
  152.7250  144.7107  158.0077 C   0  0  0  0  0  0  0  0  0  0  0  0
  152.2610  143.1788  159.8822 O   0  0  0  0  0  0  0  0  0  0  0  0
  152.8250  141.9743  159.3651 C   0  0  1  0  0  0  0  0  0  0  0  0
  153.4089  141.1815  160.5391 C   0  0  0  0  0  0  0  0  0  0  0  0
  151.7411  141.1777  158.6173 C   0  0  0  0  0  0  0  0  0  0  0  0
  150.8424  141.1715  155.3792 N   0  0  0  0  0  0  0  0  0  0  0  0
  150.0885  140.5582  154.4430 C   0  0  0  0  0  0  0  0  0  0  0  0
  145.2261  135.3798  151.5612 H   0  0  0  0  0  0  0  0  0  0  0  0
  146.5285  136.2108  150.7096 H   0  0  0  0  0  0  0  0  0  0  0  0
  144.8821  136.8690  150.6802 H   0  0  0  0  0  0  0  0  0  0  0  0
  147.2923  138.3191  151.5638 H   0  0  0  0  0  0  0  0  0  0  0  0
  145.6645  138.9903  151.6903 H   0  0  0  0  0  0  0  0  0  0  0  0
  148.6428  139.3440  152.7566 H   0  0  0  0  0  0  0  0  0  0  0  0
  147.2329  139.9848  156.2228 H   0  0  0  0  0  0  0  0  0  0  0  0
  148.5928  141.1227  157.9206 H   0  0  0  0  0  0  0  0  0  0  0  0
  150.2092  143.9055  157.3098 H   0  0  0  0  0  0  0  0  0  0  0  0
  149.7508  143.0390  158.7562 H   0  0  0  0  0  0  0  0  0  0  0  0
  151.1686  144.8276  159.4519 H   0  0  0  0  0  0  0  0  0  0  0  0
  152.2616  145.4574  157.3626 H   0  0  0  0  0  0  0  0  0  0  0  0
  153.2389  144.0006  157.3604 H   0  0  0  0  0  0  0  0  0  0  0  0
  153.4766  145.2183  158.6124 H   0  0  0  0  0  0  0  0  0  0  0  0
  153.6405  142.2135  158.6823 H   0  0  0  0  0  0  0  0  0  0  0  0
  153.8704  140.2554  160.1956 H   0  0  0  0  0  0  0  0  0  0  0  0
  152.6365  140.9225  161.2637 H   0  0  0  0  0  0  0  0  0  0  0  0
  154.1728  141.7608  161.0583 H   0  0  0  0  0  0  0  0  0  0  0  0
  150.9739  140.8380  159.3146 H   0  0  0  0  0  0  0  0  0  0  0  0
  152.1900  140.2909  158.1680 H   0  0  0  0  0  0  0  0  0  0  0  0
  150.5562  140.4207  153.4788 H   0  0  0  0  0  0  0  0  0  0  0  0
  1  2  1  0  0  0  0
  1 21  1  0  0  0  0
  1 22  1  0  0  0  0
  1 23  1  0  0  0  0
  2  3  1  0  0  0  0
  3  4  1  0  0  0  0
  3 24  1  0  0  0  0
  3 25  1  0  0  0  0
  4  5  2  0  0  0  0
  4  6  1  0  0  0  0
  6  7  1  0  0  0  0
  6 26  1  0  0  0  0
  7 20  1  0  0  0  0
  7  8  2  0  0  0  0
  8  9  1  0  0  0  0
  8 27  1  0  0  0  0
  9 10  2  0  0  0  0
  9 28  1  0  0  0  0
 10 11  1  0  0  0  0
 10 19  1  0  0  0  0
 11 18  1  0  0  0  0
 11 12  1  0  0  0  0
 12 13  1  0  0  0  0
 12 29  1  0  0  0  0
 12 30  1  0  0  0  0
 13 14  1  0  0  0  0
 13 15  1  0  0  0  0
 13 31  1  0  0  0  0
 14 32  1  0  0  0  0
 14 33  1  0  0  0  0
 14 34  1  0  0  0  0
 15 16  1  0  0  0  0
 16 17  1  0  0  0  0
 16 18  1  0  0  0  0
 16 35  1  0  0  0  0
 17 36  1  0  0  0  0
 17 37  1  0  0  0  0
 17 38  1  0  0  0  0
 18 39  1  0  0  0  0
 18 40  1  0  0  0  0
 19 20  2  0  0  0  0
 20 41  1  0  0  0  0
M  END
> <s_m_source_file>
AV-unprocessed.smi

> <i_m_source_file_index>
2036

> <i_lp_mmshare_version>
43012

> <i_f3d_flags>
0

> <s_epik_input>
W0NIM11PW0NIMl1DKD1PKVtOSF1jMVtjSF1bY0hdYyhuW2NIXTEpTjJbQ0gyXVtDQEBIXShbQ0gzXSlPW0NAQEhdKFtDSDNdKVtDSDJdMg==

> <s_epik_cmdline>
J2VwaWtfcHl0aG9uJywgJy1waCcsICc3LjAnLCAnLXRuJywgJzgnLCAnLW1hJywgJzIwMCcsICctbWV0YWxfYmluZGluZycsICctaW1hZScsICc8aW5maWxlLm1hZT4nLCAnLW9tYWUnLCAnPG91dGZpbGUubWFlPic=

> <r_lp_tautomer_probability>
1

> <r_epik_Ionization_Penalty>
0.000662619

> <r_epik_Ionization_Penalty_Charging>
0

> <r_epik_Ionization_Penalty_Neutral>
0.000662619

> <r_epik_State_Penalty>
0.000419321

> <r_epik_Charging_Adjusted_Penalty>
0.000419321

> <i_epik_Tot_Q>
0

> <i_epik_Tot_abs_Q>
0

> <r_epik_Metal_State_Penalty>
-0

> <b_epik_Metal_Only>
0

> <s_lp_Force_Field>
OPLS_2005

> <r_lp_Energy>
27.1062

> <b_lp_Chiralities_Consistent>
1

> <s_lp_Variant>
AV-unprocessed.smi:2036-2

> <Gold.Version>
5.8.1

> <Gold.Id.Protein>
6NUR|6NUR_protein|mol2

> <Gold.PLP.Fitness>
40.9031

> <Gold.PLP.PLP>
-35.0988

> <Gold.PLP.part.hbond>
-2.0000

> <Gold.PLP.part.metal>
0.0000

> <Gold.PLP.part.buried>
-1.2315

> <Gold.PLP.part.nonpolar>
-32.9816

> <Gold.PLP.part.repulsive>
0.4856

> <Gold.PLP.ligand.clash>
0.0000

> <Gold.PLP.ligand.torsion>
0.2607

> <Gold.PLP.Chemscore.Hbond>
1.0000

> <Gold.PLP.Chemscore.CHOScore>
1.0000

> <Gold.PLP.Chemscore.Metal>
0.0000

> <Gold.Chemscore.Hbonds>
donor molecule, donor type, donor heavy atom, donor atom, acceptor molecule, acceptor atom, score
      L1  H     6    26       P1  7957  1.00
      L1  C    20    41       P1  7957  1.00

> <Gold.PLP.Chemscore.Internal.Correction>
0.3258

> <Gold.Rescore>
     Score         DG    S(hbond)    S(metal)    S(lipo)     H(rot)  DE(clash)    DE(int)     intcor
     13.36     -16.93       0.98        0.00     100.52       1.41       2.13       1.44       ----

> <Gold.Chemscore.Fitness>
13.3618

> <Gold.Chemscore.DG>
-16.9264

> <Gold.Chemscore.ZeroCoef>
-5.4800

> <Gold.Chemscore.Hbond>
0.9849

> <Gold.Chemscore.Metal>
0.0000

> <Gold.Chemscore.Lipo>
100.5178

> <Gold.Chemscore.Internal_Hbond>
0.0000

> <Gold.Chemscore.DEClash>
2.1254

> <Gold.Chemscore.DEInternal>
1.4392

> <Gold.Chemscore.Rot>
1.4077

> <Gold.Chemscore.Internal.Correction>
   9.000000E+99

> <Gold.Chemscore.Hbonds>
donor molecule, donor type, donor heavy atom, donor atom, acceptor molecule, acceptor atom, score
      L1  H     6    26       P1  7957  0.94

> <Gold.Chemscore.Hbond.Weighted>
-3.2894

> <Gold.Chemscore.Metal.Weighted>
-0.0000

> <Gold.Chemscore.Lipo.Weighted>
-11.7606

> <Gold.Chemscore.Internal_Hbond.Weighted>
0.0000

> <Gold.Chemscore.DEClash.Weighted>
2.1254

> <Gold.Chemscore.DEInternal.Weighted>
1.4392

> <Gold.Chemscore.Rot.Weighted>
3.6036

> <Gold.Chemscore.Internal.Correction.Weighted>
   9.000000E+99

> <Gold.Protein.RotatedTorsions>
[ 6907 6896 6895 6894 ] final  153.06 input  -60.11 | X-H torsion
[ 7974 7965 7964 7962 ] final   -9.71 input  175.53 | X-H torsion
[ 8008 7997 7996 7995 ] final  -25.66 input   59.86 | X-H torsion
[ 10167 10162 10161 10158 ] final   16.31 input  -65.29 | X-H torsion
[ 10718 10713 10712 10709 ] final   56.36 input   66.30 | X-H torsion
[ 10763 10752 10751 10750 ] final   65.12 input  -60.55 | X-H torsion
[ 11005 11000 10999 10996 ] final -157.24 input  -57.11 | X-H torsion

> <Gold.Protein.ActiveResidues>
 VAL166  LYS551  ARG553  GLY616  TRP617  ASP618  TYR619  PRO620  LYS621  CYS622 
 ASP623  PHE694  ASN695  SER759  ASP760  ASP761  ALA762  ILE779  LEU786  VAL792 
 PHE793  MET794  SER795  GLU796  ALA797  LYS798  CYS799  TRP800  GLU811  SER814 

> <Gold.Protein.RotatedAtoms>
  152.0780  133.4139  159.4488 H   0  0  0  0  0  0  0  0  0  0  0  0  # atno 6907 bound_to 6896
  150.6862  134.3015  159.4717 H   0  0  0  0  0  0  0  0  0  0  0  0  # atno 6908 bound_to 6896
  152.0854  134.9443  160.0623 H   0  0  0  0  0  0  0  0  0  0  0  0  # atno 6909 bound_to 6896
  146.2243  140.2656  142.8354 H   0  0  0  0  0  0  0  0  0  0  0  0  # atno 7974 bound_to 7965
  154.4464  140.1920  156.0654 H   0  0  0  0  0  0  0  0  0  0  0  0  # atno 8008 bound_to 7997
  156.0551  140.3303  155.7369 H   0  0  0  0  0  0  0  0  0  0  0  0  # atno 8009 bound_to 7997
  155.5497  140.0594  157.2843 H   0  0  0  0  0  0  0  0  0  0  0  0  # atno 8010 bound_to 7997
  140.5806  143.8988  150.6786 H   0  0  0  0  0  0  0  0  0  0  0  0  # atno 10167 bound_to 10162
  157.5424  130.8707  149.8841 H   0  0  0  0  0  0  0  0  0  0  0  0  # atno 10718 bound_to 10713
  153.0083  135.5368  154.6618 H   0  0  0  0  0  0  0  0  0  0  0  0  # atno 10763 bound_to 10752
  154.5824  135.2851  155.0721 H   0  0  0  0  0  0  0  0  0  0  0  0  # atno 10764 bound_to 10752
  154.1845  135.6510  153.5095 H   0  0  0  0  0  0  0  0  0  0  0  0  # atno 10765 bound_to 10752
  140.6668  134.4290  157.5233 H   0  0  0  0  0  0  0  0  0  0  0  0  # atno 11005 bound_to 11000
  144.9306  140.7971  143.5691 LP  0  0  0  0  0  0  0  0  0  0  0  0  # atno 17320 bound_to 7965
  145.2599  139.1996  143.4897 LP  0  0  0  0  0  0  0  0  0  0  0  0  # atno 17321 bound_to 7965
  140.2486  143.3610  152.1425 LP  0  0  0  0  0  0  0  0  0  0  0  0  # atno 17342 bound_to 10162
  139.5168  144.6982  151.5570 LP  0  0  0  0  0  0  0  0  0  0  0  0  # atno 17343 bound_to 10162
  156.0507  130.3718  150.1207 LP  0  0  0  0  0  0  0  0  0  0  0  0  # atno 17370 bound_to 10713
  156.9386  130.9737  151.3520 LP  0  0  0  0  0  0  0  0  0  0  0  0  # atno 17371 bound_to 10713
  139.8994  134.8591  156.1959 LP  0  0  0  0  0  0  0  0  0  0  0  0  # atno 17394 bound_to 11000
  141.0423  133.6931  156.1620 LP  0  0  0  0  0  0  0  0  0  0  0  0  # atno 17395 bound_to 11000

$$$$
