#       Name:                AV-unprocessed.smi:2083
#       Creating user name   scv26
#       Creation time:       Fri Mar 27 11:20:34 2020


#       File generated by GOLD software.
#

@<TRIPOS>MOLECULE
AV-unprocessed.smi:2083
    50    51     1
SMALL
NO_CHARGES


@<TRIPOS>ATOM
      1 ****        -3.6004   7.2067   1.9895 C.3            1 S1                 0.0000
      2 ****        -3.1127   5.8330   1.6800 C.2            1 S1                 0.0000
      3 ****        -3.0402   5.1107   0.5222 C.2            1 S1                 0.0000
      4 ****        -2.4772   3.8789   0.9488 C.2            1 S1                 0.0000
      5 ****        -2.2331   2.8317   0.0243 N.am           1 S1                 0.0000
      6 ****        -1.7311   1.6128   0.2847 C.2            1 S1                 0.0000
      7 ****        -1.4101   1.1997   1.3994 O.2            1 S1                 0.0000
      8 ****        -1.6162   0.8804  -0.8327 N.am           1 S1                 0.0000
      9 ****        -1.1138  -0.4901  -0.8816 C.3            1 S1                 0.0000
     10 ****         0.4316  -0.5810  -0.7271 C.3            1 S1                 0.0000
     11 ****         1.1248   0.2780  -1.8091 C.3            1 S1                 0.0000
     12 ****         0.9741  -1.9803  -0.7602 N.4            1 S1                 1.0000
     13 ****         0.0615  -3.0451  -0.2493 C.3            1 S1                 0.0000
     14 ****         0.6612  -4.4484  -0.4389 C.3            1 S1                 0.0000
     15 ****         2.0399  -4.5613   0.2170 C.3            1 S1                 0.0000
     16 ****         2.9627  -3.4576  -0.3188 C.3            1 S1                 0.0000
     17 ****         4.3545  -3.5301   0.3253 C.3            1 S1                 0.0000
     18 ****         2.3111  -2.0774  -0.1044 C.3            1 S1                 0.0000
     19 ****        -2.2251   3.8524   2.2486 N.2            1 S1                 0.0000
     20 ****        -2.6321   5.1046   2.7240 O.3            1 S1                 0.0000
     21 ****        -3.8065   7.7623   1.0747 H              1 S1                 0.0000
     22 ****        -2.8574   7.7621   2.5619 H              1 S1                 0.0000
     23 ****        -4.5190   7.1667   2.5747 H              1 S1                 0.0000
     24 ****        -3.3436   5.4168  -0.4680 H              1 S1                 0.0000
     25 ****        -2.4660   3.0340  -0.9366 H              1 S1                 0.0000
     26 ****        -1.9028   1.2948  -1.7078 H              1 S1                 0.0000
     27 ****        -1.6276  -1.0475  -0.0972 H              1 S1                 0.0000
     28 ****        -1.4228  -0.9247  -1.8329 H              1 S1                 0.0000
     29 ****         0.6793  -0.1635   0.2502 H              1 S1                 0.0000
     30 ****         0.7972   1.3169  -1.7726 H              1 S1                 0.0000
     31 ****         0.9055  -0.0998  -2.8081 H              1 S1                 0.0000
     32 ****         2.2074   0.3018  -1.6983 H              1 S1                 0.0000
     33 ****        -0.1590  -2.8655   0.8044 H              1 S1                 0.0000
     34 ****        -0.8854  -3.0372  -0.7876 H              1 S1                 0.0000
     35 ****        -0.0110  -5.1989  -0.0216 H              1 S1                 0.0000
     36 ****         0.7448  -4.6683  -1.5039 H              1 S1                 0.0000
     37 ****         1.9411  -4.4766   1.3003 H              1 S1                 0.0000
     38 ****         2.4669  -5.5449   0.0172 H              1 S1                 0.0000
     39 ****         3.0897  -3.6096  -1.3919 H              1 S1                 0.0000
     40 ****         4.3012  -3.3806   1.4041 H              1 S1                 0.0000
     41 ****         5.0176  -2.7677  -0.0841 H              1 S1                 0.0000
     42 ****         4.8196  -4.5001   0.1464 H              1 S1                 0.0000
     43 ****         2.9849  -1.3154  -0.4920 H              1 S1                 0.0000
     44 ****         2.2033  -1.8776   0.9632 H              1 S1                 0.0000
     45 ****         1.1140  -2.1953  -1.7370 H              1 S1                 0.0000
     46 ****        -1.5164   1.7886   2.2006 LP             1 S1                 0.0000
     47 ****        -1.0431   0.2753   1.5035 LP             1 S1                 0.0000
     48 ****        -1.8296   3.1006   2.7763 LP             1 S1                 0.0000
     49 ****        -3.3496   4.9868   3.4106 LP             1 S1                 0.0000
     50 ****        -1.8528   5.5783   3.1342 LP             1 S1                 0.0000
@<TRIPOS>BOND
    1    1    2 1     
    2    1   21 1     
    3    1   22 1     
    4    1   23 1     
    5    2   20 1     
    6    2    3 2     
    7    3    4 1     
    8    3   24 1     
    9    4    5 1     
   10    4   19 2     
   11    5    6 am    
   12    5   25 1     
   13    6    7 2     
   14    6    8 am    
   15    8    9 1     
   16    8   26 1     
   17    9   10 1     
   18    9   27 1     
   19    9   28 1     
   20   10   11 1     
   21   10   12 1     
   22   10   29 1     
   23   11   30 1     
   24   11   31 1     
   25   11   32 1     
   26   12   18 1     
   27   12   13 1     
   28   12   45 1     
   29   13   14 1     
   30   13   33 1     
   31   13   34 1     
   32   14   15 1     
   33   14   35 1     
   34   14   36 1     
   35   15   16 1     
   36   15   37 1     
   37   15   38 1     
   38   16   17 1     
   39   16   18 1     
   40   16   39 1     
   41   17   40 1     
   42   17   41 1     
   43   17   42 1     
   44   18   43 1     
   45   18   44 1     
   46   19   20 1     
   47    7   46 1     
   48    7   47 1     
   49   19   48 1     
   50   20   49 1     
   51   20   50 1     
@<TRIPOS>SUBSTRUCTURE
      1 S1             1
@<TRIPOS>SET
LONE_PAIRS      STATIC     ATOMS    <user>   **** ""
5 46 47 48 49 50
DONOR_HYDROGENS      STATIC     ATOMS    <user>   **** ""
3 25 26 45
ATOM$BLUE        STATIC     ATOMS    COLORGROUP SYSTEM
5 46 47 48 49 50
ATOM$RED        STATIC     ATOMS    COLORGROUP SYSTEM
3 25 26 45
