AV-unprocessed.smi:72|AV-procd|sdf|716|dock7
  -GOLD-   2262017 43D 1   1.00000     0.00000
 Structure written by MMmdl.
 28 29  0  0  0  0  0  0  0  0  2 V2000
  153.4798  137.3569  155.9390 N   0  0  0  0  0  0  0  0  0  0  0  0
  152.6184  138.2462  155.7025 C   0  0  0  0  0  0  0  0  0  0  0  0
  151.7825  138.1531  154.5257 N   0  0  0  0  0  0  0  0  0  0  0  0
  150.9103  139.0929  154.3273 C   0  0  0  0  0  0  0  0  0  0  0  0
  150.7600  140.2117  155.2497 N   0  0  0  0  0  0  0  0  0  0  0  0
  149.7422  141.3185  155.0239 C   0  0  1  0  0  0  0  0  0  0  0  0
  149.0913  141.1292  153.7987 O   0  0  0  0  0  0  0  0  0  0  0  0
  147.7420  140.7338  154.0178 C   0  0  2  0  0  0  0  0  0  0  0  0
  146.8746  141.0195  152.7795 C   0  0  0  0  0  0  0  0  0  0  0  0
  146.9176  139.9266  151.8867 O   0  0  0  0  0  0  0  0  0  0  0  0
  147.3629  141.4542  155.3175 C   0  0  2  0  0  0  0  0  0  0  0  0
  147.0003  142.8006  155.0723 O   0  0  0  0  0  0  0  0  0  0  0  0
  148.6530  141.3873  156.1250 C   0  0  1  0  0  0  0  0  0  0  0  0
  148.6226  140.2541  156.9760 O   0  0  0  0  0  0  0  0  0  0  0  0
  151.5952  140.2758  156.3972 C   0  0  0  0  0  0  0  0  0  0  0  0
  151.4494  141.2251  157.1678 O   0  0  0  0  0  0  0  0  0  0  0  0
  152.5122  139.2879  156.5970 N   0  5  0  0  0  0  0  0  0  0  0  0
  150.3244  142.2375  154.9391 H   0  0  0  0  0  0  0  0  0  0  0  0
  147.7416  139.6591  154.2077 H   0  0  0  0  0  0  0  0  0  0  0  0
  146.5253  140.9695  155.8212 H   0  0  0  0  0  0  0  0  0  0  0  0
  148.8059  142.2743  156.7414 H   0  0  0  0  0  0  0  0  0  0  0  0
  153.9947  137.5397  156.7881 H   0  0  0  0  0  0  0  0  0  0  0  0
  150.2446  139.0981  153.4649 H   0  0  0  0  0  0  0  0  0  0  0  0
  145.8408  141.2320  153.0521 H   0  0  0  0  0  0  0  0  0  0  0  0
  147.2516  141.9008  152.2603 H   0  0  0  0  0  0  0  0  0  0  0  0
  147.8211  139.6839  151.7528 H   0  0  0  0  0  0  0  0  0  0  0  0
  147.7150  143.3556  155.3451 H   0  0  0  0  0  0  0  0  0  0  0  0
  149.4168  139.7595  156.8452 H   0  0  0  0  0  0  0  0  0  0  0  0
  1  2  2  0  0  0  0
  1 22  1  0  0  0  0
  2 17  1  0  0  0  0
  2  3  1  0  0  0  0
  3  4  2  0  0  0  0
  4  5  1  0  0  0  0
  4 23  1  0  0  0  0
  5  6  1  0  0  0  0
  5 15  1  0  0  0  0
  6 18  1  0  0  0  0
  6 13  1  0  0  0  0
  6  7  1  0  0  0  0
  7  8  1  0  0  0  0
  8 19  1  0  0  0  0
  8  9  1  0  0  0  0
  8 11  1  0  0  0  0
  9 10  1  0  0  0  0
  9 24  1  0  0  0  0
  9 25  1  0  0  0  0
 10 26  1  0  0  0  0
 11 20  1  0  0  0  0
 11 12  1  0  0  0  0
 11 13  1  0  0  0  0
 12 27  1  0  0  0  0
 13 21  1  0  0  0  0
 13 14  1  0  0  0  0
 14 28  1  0  0  0  0
 15 16  2  0  0  0  0
 15 17  1  0  0  0  0
M  CHG  1  17  -1
M  END
> <s_m_source_file>
AV-unprocessed.smi

> <i_m_source_file_index>
72

> <i_lp_mmshare_version>
43012

> <i_f3d_flags>
0

> <s_epik_input>
W05IMl1jMW5bY0hdbihjKD1PKW4xKVtDQEBIXTJPW0NASF0oW0NIMl1bT0hdKVtDQEBIXShbT0hdKVtDQEhdMltPSF0=

> <s_epik_cmdline>
J2VwaWtfcHl0aG9uJywgJy1waCcsICc3LjAnLCAnLXRuJywgJzgnLCAnLW1hJywgJzIwMCcsICctbWV0YWxfYmluZGluZycsICctaW1hZScsICc8aW5maWxlLm1hZT4nLCAnLW9tYWUnLCAnPG91dGZpbGUubWFlPic=

> <r_lp_tautomer_probability>
7.17554e-07

> <r_epik_Ionization_Penalty>
12.8705

> <r_epik_Ionization_Penalty_Charging>
5.64144

> <r_epik_Ionization_Penalty_Neutral>
7.22905

> <r_epik_State_Penalty>
3.30104

> <r_epik_Charging_Adjusted_Penalty>
8.94249

> <i_epik_Tot_Q>
-1

> <i_epik_Tot_abs_Q>
1

> <r_epik_Metal_State_Penalty>
0.529074

> <b_epik_Metal_Only>
1

> <s_epik_Chemistry_Notes>
This compound contains an acetal/aminal-like group ( X-CH(R)-Y where X, Y are N, S, or O) that may be acid/base labile, releasing an aldehyde.

> <s_lp_Force_Field>
OPLS_2005

> <r_lp_Energy>
37.2706

> <b_lp_Chiralities_Consistent>
1

> <s_lp_Variant>
AV-unprocessed.smi:72-54

> <Gold.Version>
5.8.1

> <Gold.Id.Protein>
6NUR|6NUR_protein|mol2

> <Gold.PLP.Fitness>
41.9982

> <Gold.PLP.PLP>
-23.9228

> <Gold.PLP.part.hbond>
-5.8081

> <Gold.PLP.part.metal>
0.0000

> <Gold.PLP.part.buried>
-1.3675

> <Gold.PLP.part.nonpolar>
-17.3289

> <Gold.PLP.part.repulsive>
1.8653

> <Gold.PLP.ligand.clash>
0.0000

> <Gold.PLP.ligand.torsion>
0.3463

> <Gold.PLP.Chemscore.Hbond>
5.2744

> <Gold.PLP.Chemscore.CHOScore>
0.9700

> <Gold.PLP.Chemscore.Metal>
0.0000

> <Gold.Chemscore.Hbonds>
donor molecule, donor type, donor heavy atom, donor atom, acceptor molecule, acceptor atom, score
      L1  H    10    26       P1  7957  1.00
      L1  H    12    27       P1  8028  1.00
      P1  H  7997  8008       L1    17  2.00
      P1  H  8011  8017       L1     7  0.82
      P1  H 10752 10765       L1     1  0.40
      L1  C     4    23       P1  7957  0.93

> <Gold.PLP.Chemscore.Internal.Correction>
0.0348

> <Gold.Rescore>
     Score         DG    S(hbond)    S(metal)    S(lipo)     H(rot)  DE(clash)    DE(int)     intcor
      6.00      -7.49       2.85        0.00      24.23       4.04       0.98       0.51       ----

> <Gold.Chemscore.Fitness>
5.9971

> <Gold.Chemscore.DG>
-7.4911

> <Gold.Chemscore.ZeroCoef>
-5.4800

> <Gold.Chemscore.Hbond>
2.8502

> <Gold.Chemscore.Metal>
0.0000

> <Gold.Chemscore.Lipo>
24.2267

> <Gold.Chemscore.Internal_Hbond>
0.0000

> <Gold.Chemscore.DEClash>
0.9808

> <Gold.Chemscore.DEInternal>
0.5132

> <Gold.Chemscore.Rot>
4.0403

> <Gold.Chemscore.Internal.Correction>
   9.000000E+99

> <Gold.Chemscore.Hbonds>
donor molecule, donor type, donor heavy atom, donor atom, acceptor molecule, acceptor atom, score
      L1  H    10    26       P1  7957  0.96
      L1  H    12    27       P1  8028  0.30
      P1  H  7997  8008       L1    17  0.23
      P1  H  8011  8017       L1     7  0.64
      P1  H 10752 10765       L1     1  0.35

> <Gold.Chemscore.Hbond.Weighted>
-9.5197

> <Gold.Chemscore.Metal.Weighted>
-0.0000

> <Gold.Chemscore.Lipo.Weighted>
-2.8345

> <Gold.Chemscore.Internal_Hbond.Weighted>
0.0000

> <Gold.Chemscore.DEClash.Weighted>
0.9808

> <Gold.Chemscore.DEInternal.Weighted>
0.5132

> <Gold.Chemscore.Rot.Weighted>
10.3431

> <Gold.Chemscore.Internal.Correction.Weighted>
   9.000000E+99

> <Gold.Protein.RotatedTorsions>
[ 6907 6896 6895 6894 ] final  151.52 input  -60.11 | X-H torsion
[ 7974 7965 7964 7962 ] final   58.18 input  175.53 | X-H torsion
[ 8008 7997 7996 7995 ] final  -55.52 input   59.86 | X-H torsion
[ 10167 10162 10161 10158 ] final  -98.04 input  -65.29 | X-H torsion
[ 10718 10713 10712 10709 ] final  -86.61 input   66.30 | X-H torsion
[ 10763 10752 10751 10750 ] final -129.10 input  -60.55 | X-H torsion
[ 11005 11000 10999 10996 ] final  125.51 input  -57.11 | X-H torsion

> <Gold.Protein.ActiveResidues>
 VAL166  LYS551  ARG553  GLY616  TRP617  ASP618  TYR619  PRO620  LYS621  CYS622 
 ASP623  PHE694  ASN695  SER759  ASP760  ASP761  ALA762  ILE779  LEU786  VAL792 
 PHE793  MET794  SER795  GLU796  ALA797  LYS798  CYS799  TRP800  GLU811  SER814 

> <Gold.Protein.RotatedAtoms>
  152.0995  133.4242  159.4580 H   0  0  0  0  0  0  0  0  0  0  0  0  # atno 6907 bound_to 6896
  150.6864  134.2777  159.4623 H   0  0  0  0  0  0  0  0  0  0  0  0  # atno 6908 bound_to 6896
  152.0636  134.9578  160.0625 H   0  0  0  0  0  0  0  0  0  0  0  0  # atno 6909 bound_to 6896
  145.9210  139.3729  143.0478 H   0  0  0  0  0  0  0  0  0  0  0  0  # atno 7974 bound_to 7965
  154.4198  140.1151  156.5491 H   0  0  0  0  0  0  0  0  0  0  0  0  # atno 8008 bound_to 7997
  155.6429  140.3496  155.4702 H   0  0  0  0  0  0  0  0  0  0  0  0  # atno 8009 bound_to 7997
  155.9856  140.1169  157.0676 H   0  0  0  0  0  0  0  0  0  0  0  0  # atno 8010 bound_to 7997
  140.2771  143.3306  152.0477 H   0  0  0  0  0  0  0  0  0  0  0  0  # atno 10167 bound_to 10162
  155.9989  130.4771  150.4741 H   0  0  0  0  0  0  0  0  0  0  0  0  # atno 10718 bound_to 10713
  154.8757  135.3906  154.3864 H   0  0  0  0  0  0  0  0  0  0  0  0  # atno 10763 bound_to 10752
  153.4605  135.7029  153.6058 H   0  0  0  0  0  0  0  0  0  0  0  0  # atno 10764 bound_to 10752
  153.4559  135.3823  155.2279 H   0  0  0  0  0  0  0  0  0  0  0  0  # atno 10765 bound_to 10752
  139.9410  134.9635  156.8569 H   0  0  0  0  0  0  0  0  0  0  0  0  # atno 11005 bound_to 11000
  145.8550  140.9508  143.0730 LP  0  0  0  0  0  0  0  0  0  0  0  0  # atno 17320 bound_to 7965
  144.6753  140.0456  143.7480 LP  0  0  0  0  0  0  0  0  0  0  0  0  # atno 17321 bound_to 7965
  139.4972  144.6617  151.6450 LP  0  0  0  0  0  0  0  0  0  0  0  0  # atno 17342 bound_to 10162
  140.5842  143.9893  150.6286 LP  0  0  0  0  0  0  0  0  0  0  0  0  # atno 17343 bound_to 10162
  157.2753  131.0595  151.2233 LP  0  0  0  0  0  0  0  0  0  0  0  0  # atno 17370 bound_to 10713
  157.3299  130.6980  149.6318 LP  0  0  0  0  0  0  0  0  0  0  0  0  # atno 17371 bound_to 10713
  140.5952  134.0223  155.7515 LP  0  0  0  0  0  0  0  0  0  0  0  0  # atno 17394 bound_to 11000
  141.1044  133.9717  157.3023 LP  0  0  0  0  0  0  0  0  0  0  0  0  # atno 17395 bound_to 11000

$$$$
