AV-unprocessed.smi:1474|AV-procd|sdf|5975|dock9
  -GOLD-   22720 6 63D 1   1.00000     0.00000
 Structure written by MMmdl.
 43 44  0  0  0  0  0  0  0  0  1 V2000
  146.6529  144.3298  160.8345 C   0  0  0  0  0  0  0  0  0  0  0  0
  147.3334  143.2934  160.1489 O   0  0  0  0  0  0  0  0  0  0  0  0
  147.2893  143.4543  158.7408 C   0  0  0  0  0  0  0  0  0  0  0  0
  145.8658  143.1819  158.2462 C   0  0  0  0  0  0  0  0  0  0  0  0
  145.7915  143.5123  156.8626 O   0  0  0  0  0  0  0  0  0  0  0  0
  146.1688  142.5620  155.9364 C   0  0  0  0  0  0  0  0  0  0  0  0
  146.5010  142.9868  154.6344 C   0  0  0  0  0  0  0  0  0  0  0  0
  146.8828  142.0225  153.6825 C   0  0  0  0  0  0  0  0  0  0  0  0
  146.9152  140.6627  154.0610 C   0  0  0  0  0  0  0  0  0  0  0  0
  147.3239  139.5653  153.0886 C   0  0  0  0  0  0  0  0  0  0  0  0
  148.3321  138.6473  153.6094 N   0  0  0  0  0  0  0  0  0  0  0  0
  149.5573  139.0070  154.0235 C   0  0  0  0  0  0  0  0  0  0  0  0
  149.9543  140.1724  154.0023 O   0  0  0  0  0  0  0  0  0  0  0  0
  150.4567  137.8766  154.5588 C   0  0  1  0  0  0  0  0  0  0  0  0
  151.9303  138.0551  154.1481 C   0  0  0  0  0  0  0  0  0  0  0  0
  152.6261  139.2225  154.8734 C   0  0  0  0  0  0  0  0  0  0  0  0
  152.2969  139.3046  156.3717 C   0  0  0  0  0  0  0  0  0  0  0  0
  153.0020  139.9912  157.1076 O   0  0  0  0  0  0  0  0  0  0  0  0
  151.2163  138.6558  156.8401 N   0  0  0  0  0  0  0  0  0  0  0  0
  150.3711  137.7211  156.0941 C   0  0  0  0  0  0  0  0  0  0  0  0
  146.5713  140.3398  155.3902 C   0  0  0  0  0  0  0  0  0  0  0  0
  146.2053  141.2585  156.3091 N   0  0  0  0  0  0  0  0  0  0  0  0
  146.7185  144.1627  161.9097 H   0  0  0  0  0  0  0  0  0  0  0  0
  145.5971  144.3571  160.5618 H   0  0  0  0  0  0  0  0  0  0  0  0
  147.0961  145.3026  160.6178 H   0  0  0  0  0  0  0  0  0  0  0  0
  147.5730  144.4771  158.4881 H   0  0  0  0  0  0  0  0  0  0  0  0
  147.9974  142.7865  158.2477 H   0  0  0  0  0  0  0  0  0  0  0  0
  145.5979  142.1382  158.4190 H   0  0  0  0  0  0  0  0  0  0  0  0
  145.1689  143.8055  158.8083 H   0  0  0  0  0  0  0  0  0  0  0  0
  146.4651  144.0339  154.3720 H   0  0  0  0  0  0  0  0  0  0  0  0
  147.1454  142.3289  152.6809 H   0  0  0  0  0  0  0  0  0  0  0  0
  146.4357  138.9861  152.8362 H   0  0  0  0  0  0  0  0  0  0  0  0
  147.6775  140.0079  152.1557 H   0  0  0  0  0  0  0  0  0  0  0  0
  148.0798  137.6710  153.6593 H   0  0  0  0  0  0  0  0  0  0  0  0
  150.0945  136.9464  154.1175 H   0  0  0  0  0  0  0  0  0  0  0  0
  152.4711  137.1323  154.3624 H   0  0  0  0  0  0  0  0  0  0  0  0
  152.0062  138.1979  153.0693 H   0  0  0  0  0  0  0  0  0  0  0  0
  153.7062  139.1471  154.7443 H   0  0  0  0  0  0  0  0  0  0  0  0
  152.3294  140.1680  154.4185 H   0  0  0  0  0  0  0  0  0  0  0  0
  151.0020  138.7673  157.8207 H   0  0  0  0  0  0  0  0  0  0  0  0
  149.3412  137.8304  156.4370 H   0  0  0  0  0  0  0  0  0  0  0  0
  150.6754  136.7113  156.3716 H   0  0  0  0  0  0  0  0  0  0  0  0
  146.5878  139.3140  155.7281 H   0  0  0  0  0  0  0  0  0  0  0  0
  1  2  1  0  0  0  0
  1 23  1  0  0  0  0
  1 24  1  0  0  0  0
  1 25  1  0  0  0  0
  2  3  1  0  0  0  0
  3  4  1  0  0  0  0
  3 26  1  0  0  0  0
  3 27  1  0  0  0  0
  4  5  1  0  0  0  0
  4 28  1  0  0  0  0
  4 29  1  0  0  0  0
  5  6  1  0  0  0  0
  6 22  1  0  0  0  0
  6  7  2  0  0  0  0
  7  8  1  0  0  0  0
  7 30  1  0  0  0  0
  8  9  2  0  0  0  0
  8 31  1  0  0  0  0
  9 10  1  0  0  0  0
  9 21  1  0  0  0  0
 10 11  1  0  0  0  0
 10 32  1  0  0  0  0
 10 33  1  0  0  0  0
 11 12  1  0  0  0  0
 11 34  1  0  0  0  0
 12 13  2  0  0  0  0
 12 14  1  0  0  0  0
 14 20  1  0  0  0  0
 14 15  1  0  0  0  0
 14 35  1  0  0  0  0
 15 16  1  0  0  0  0
 15 36  1  0  0  0  0
 15 37  1  0  0  0  0
 16 17  1  0  0  0  0
 16 38  1  0  0  0  0
 16 39  1  0  0  0  0
 17 18  2  0  0  0  0
 17 19  1  0  0  0  0
 19 20  1  0  0  0  0
 19 40  1  0  0  0  0
 20 41  1  0  0  0  0
 20 42  1  0  0  0  0
 21 22  2  0  0  0  0
 21 43  1  0  0  0  0
M  END
> <s_m_source_file>
AV-unprocessed.smi

> <i_m_source_file_index>
1474

> <i_lp_mmshare_version>
43012

> <i_f3d_flags>
0

> <s_epik_input>
W0NIM11PW0NIMl1bQ0gyXU9jMVtjSF1bY0hdYyhbY0hdbjEpW0NIMl1bTkhdQyg9TylbQ0BASF0yW0NIMl1bQ0gyXUMoPU8pW05IXVtDSDJdMg==

> <s_epik_cmdline>
J2VwaWtfcHl0aG9uJywgJy1waCcsICc3LjAnLCAnLXRuJywgJzgnLCAnLW1hJywgJzIwMCcsICctbWV0YWxfYmluZGluZycsICctaW1hZScsICc8aW5maWxlLm1hZT4nLCAnLW9tYWUnLCAnPG91dGZpbGUubWFlPic=

> <r_lp_tautomer_probability>
1

> <r_epik_Ionization_Penalty>
6.19599e-05

> <r_epik_Ionization_Penalty_Charging>
0

> <r_epik_Ionization_Penalty_Neutral>
6.19599e-05

> <r_epik_State_Penalty>
-0

> <r_epik_Charging_Adjusted_Penalty>
0

> <i_epik_Tot_Q>
0

> <i_epik_Tot_abs_Q>
0

> <r_epik_Metal_State_Penalty>
-0

> <b_epik_Metal_Only>
0

> <s_lp_Force_Field>
OPLS_2005

> <r_lp_Energy>
8.64292

> <b_lp_Chiralities_Consistent>
1

> <s_lp_Variant>
AV-unprocessed.smi:1474-2

> <Gold.Version>
5.8.1

> <Gold.Id.Protein>
6NUR|6NUR_protein|mol2

> <Gold.PLP.Fitness>
43.0590

> <Gold.PLP.PLP>
-34.1891

> <Gold.PLP.part.hbond>
-5.8118

> <Gold.PLP.part.metal>
0.0000

> <Gold.PLP.part.buried>
-3.1503

> <Gold.PLP.part.nonpolar>
-25.6565

> <Gold.PLP.part.repulsive>
0.9929

> <Gold.PLP.ligand.clash>
0.0000

> <Gold.PLP.ligand.torsion>
1.2264

> <Gold.PLP.Chemscore.Hbond>
3.7352

> <Gold.PLP.Chemscore.CHOScore>
0.0000

> <Gold.PLP.Chemscore.Metal>
0.0000

> <Gold.Chemscore.Hbonds>
donor molecule, donor type, donor heavy atom, donor atom, acceptor molecule, acceptor atom, score
      P1  H  6933  6944       L1     2  1.00
      P1  H  7989  7998       L1    13  0.85
      P1  H  7997  8010       L1    18  0.83

> <Gold.PLP.Chemscore.Internal.Correction>
0.1171

> <Gold.Rescore>
     Score         DG    S(hbond)    S(metal)    S(lipo)     H(rot)  DE(clash)    DE(int)     intcor
     13.04     -16.96       3.19        0.00      62.16       2.52       1.61       2.31       ----

> <Gold.Chemscore.Fitness>
13.0430

> <Gold.Chemscore.DG>
-16.9598

> <Gold.Chemscore.ZeroCoef>
-5.4800

> <Gold.Chemscore.Hbond>
3.1912

> <Gold.Chemscore.Metal>
0.0000

> <Gold.Chemscore.Lipo>
62.1599

> <Gold.Chemscore.Internal_Hbond>
0.0000

> <Gold.Chemscore.DEClash>
1.6078

> <Gold.Chemscore.DEInternal>
2.3090

> <Gold.Chemscore.Rot>
2.5201

> <Gold.Chemscore.Internal.Correction>
   9.000000E+99

> <Gold.Chemscore.Hbonds>
donor molecule, donor type, donor heavy atom, donor atom, acceptor molecule, acceptor atom, score
      L1  H    11    34       P1  7948  0.01
      P1  H  6933  6944       L1     2  0.67
      P1  H  7989  7998       L1    13  0.83
      P1  H  7997  8010       L1    18  0.64

> <Gold.Chemscore.Hbond.Weighted>
-10.6585

> <Gold.Chemscore.Metal.Weighted>
-0.0000

> <Gold.Chemscore.Lipo.Weighted>
-7.2727

> <Gold.Chemscore.Internal_Hbond.Weighted>
0.0000

> <Gold.Chemscore.DEClash.Weighted>
1.6078

> <Gold.Chemscore.DEInternal.Weighted>
2.3090

> <Gold.Chemscore.Rot.Weighted>
6.4514

> <Gold.Chemscore.Internal.Correction.Weighted>
   9.000000E+99

> <Gold.Protein.RotatedTorsions>
[ 6907 6896 6895 6894 ] final -119.05 input  -60.11 | X-H torsion
[ 7974 7965 7964 7962 ] final -151.78 input  175.53 | X-H torsion
[ 8008 7997 7996 7995 ] final   65.35 input   59.86 | X-H torsion
[ 10167 10162 10161 10158 ] final -135.45 input  -65.29 | X-H torsion
[ 10718 10713 10712 10709 ] final  117.95 input   66.30 | X-H torsion
[ 10763 10752 10751 10750 ] final  -98.08 input  -60.55 | X-H torsion
[ 11005 11000 10999 10996 ] final   51.09 input  -57.11 | X-H torsion

> <Gold.Protein.ActiveResidues>
 VAL166  LYS551  ARG553  GLY616  TRP617  ASP618  TYR619  PRO620  LYS621  CYS622 
 ASP623  PHE694  ASN695  SER759  ASP760  ASP761  ALA762  ILE779  LEU786  VAL792 
 PHE793  MET794  SER795  GLU796  ALA797  LYS798  CYS799  TRP800  GLU811  SER814 

> <Gold.Protein.RotatedAtoms>
  150.8272  133.8152  159.3113 H   0  0  0  0  0  0  0  0  0  0  0  0  # atno 6907 bound_to 6896
  151.5893  135.1052  160.0045 H   0  0  0  0  0  0  0  0  0  0  0  0  # atno 6908 bound_to 6896
  152.4355  133.7312  159.6645 H   0  0  0  0  0  0  0  0  0  0  0  0  # atno 6909 bound_to 6896
  144.7830  140.4751  143.5826 H   0  0  0  0  0  0  0  0  0  0  0  0  # atno 7974 bound_to 7965
  155.6604  140.3497  155.4780 H   0  0  0  0  0  0  0  0  0  0  0  0  # atno 8008 bound_to 7997
  155.9773  140.1167  157.0781 H   0  0  0  0  0  0  0  0  0  0  0  0  # atno 8009 bound_to 7997
  154.4182  140.1145  156.5374 H   0  0  0  0  0  0  0  0  0  0  0  0  # atno 8010 bound_to 7997
  139.8778  143.6877  152.2631 H   0  0  0  0  0  0  0  0  0  0  0  0  # atno 10167 bound_to 10162
  157.6063  131.1043  150.7687 H   0  0  0  0  0  0  0  0  0  0  0  0  # atno 10718 bound_to 10713
  154.7383  135.5023  153.9079 H   0  0  0  0  0  0  0  0  0  0  0  0  # atno 10763 bound_to 10752
  153.1017  135.6687  153.9668 H   0  0  0  0  0  0  0  0  0  0  0  0  # atno 10764 bound_to 10752
  153.9452  135.3063  155.3420 H   0  0  0  0  0  0  0  0  0  0  0  0  # atno 10765 bound_to 10752
  140.0962  134.5142  155.8805 H   0  0  0  0  0  0  0  0  0  0  0  0  # atno 11005 bound_to 11000
  145.5997  139.1502  143.3136 LP  0  0  0  0  0  0  0  0  0  0  0  0  # atno 17320 bound_to 7965
  146.2048  140.6119  142.9086 LP  0  0  0  0  0  0  0  0  0  0  0  0  # atno 17321 bound_to 7965
  139.7224  144.7600  151.0933 LP  0  0  0  0  0  0  0  0  0  0  0  0  # atno 17342 bound_to 10162
  140.7750  143.5191  150.9559 LP  0  0  0  0  0  0  0  0  0  0  0  0  # atno 17343 bound_to 10162
  156.8074  130.4941  149.5361 LP  0  0  0  0  0  0  0  0  0  0  0  0  # atno 17370 bound_to 10713
  156.1150  130.6068  151.0107 LP  0  0  0  0  0  0  0  0  0  0  0  0  # atno 17371 bound_to 10713
  141.2092  133.6682  156.6427 LP  0  0  0  0  0  0  0  0  0  0  0  0  # atno 17394 bound_to 11000
  140.3283  134.7950  157.4306 LP  0  0  0  0  0  0  0  0  0  0  0  0  # atno 17395 bound_to 11000

$$$$
