AV-unprocessed.smi:2034|AV-procd|sdf|8264|dock1
  -GOLD-   2272010533D 1   1.00000     0.00000
 Structure written by MMmdl.
 50 52  0  0  0  0  0  0  0  0  1 V2000
  153.4550  141.2471  160.8374 C   0  0  0  0  0  0  0  0  0  0  0  0
  153.1622  141.8624  159.4651 C   0  0  1  0  0  0  0  0  0  0  0  0
  152.1560  141.0209  158.6577 C   0  0  0  0  0  0  0  0  0  0  0  0
  151.8151  141.6954  157.4080 N   0  0  0  0  0  0  0  0  0  0  0  0
  151.1429  140.9096  156.4464 C   0  0  0  0  0  0  0  0  0  0  0  0
  151.8184  139.8539  155.7897 C   0  0  0  0  0  0  0  0  0  0  0  0
  151.1304  139.0814  154.8347 C   0  0  0  0  0  0  0  0  0  0  0  0
  149.7798  139.3883  154.5482 C   0  0  0  0  0  0  0  0  0  0  0  0
  148.9685  138.6810  153.6188 N   0  0  0  0  0  0  0  0  0  0  0  0
  147.6344  138.7220  153.4586 C   0  0  0  0  0  0  0  0  0  0  0  0
  146.8527  139.3903  154.1343 O   0  0  0  0  0  0  0  0  0  0  0  0
  147.2431  137.9193  152.4595 N   0  0  0  0  0  0  0  0  0  0  0  0
  145.8635  137.7454  152.0196 C   0  0  0  0  0  0  0  0  0  0  0  0
  145.4042  136.2857  152.1678 C   0  0  2  0  0  0  0  0  0  0  0  0
  145.6983  135.4224  150.9427 C   0  0  0  0  0  0  0  0  0  0  0  0
  144.6579  134.3352  151.0812 C   0  0  0  0  0  0  0  0  0  0  0  0
  143.4557  135.1197  151.5981 C   0  0  0  0  0  0  0  0  0  0  0  0
  143.9893  136.2188  152.3326 O   0  0  0  0  0  0  0  0  0  0  0  0
  149.1911  140.4542  155.2570 C   0  0  0  0  0  0  0  0  0  0  0  0
  149.8472  141.1978  156.1721 N   0  0  0  0  0  0  0  0  0  0  0  0
  151.3743  143.0757  157.6000 C   0  0  0  0  0  0  0  0  0  0  0  0
  152.4026  143.8578  158.4389 C   0  0  1  0  0  0  0  0  0  0  0  0
  151.9212  145.2750  158.7664 C   0  0  0  0  0  0  0  0  0  0  0  0
  152.6280  143.1681  159.6652 O   0  0  0  0  0  0  0  0  0  0  0  0
  153.8758  140.2464  160.7370 H   0  0  0  0  0  0  0  0  0  0  0  0
  152.5476  141.1703  161.4370 H   0  0  0  0  0  0  0  0  0  0  0  0
  154.1705  141.8547  161.3918 H   0  0  0  0  0  0  0  0  0  0  0  0
  154.1009  141.9402  158.9136 H   0  0  0  0  0  0  0  0  0  0  0  0
  152.5815  140.0342  158.4819 H   0  0  0  0  0  0  0  0  0  0  0  0
  151.2418  140.8725  159.2344 H   0  0  0  0  0  0  0  0  0  0  0  0
  152.8546  139.6329  155.9964 H   0  0  0  0  0  0  0  0  0  0  0  0
  151.6536  138.2695  154.3551 H   0  0  0  0  0  0  0  0  0  0  0  0
  149.4630  138.0326  153.0236 H   0  0  0  0  0  0  0  0  0  0  0  0
  147.9494  137.4040  151.9550 H   0  0  0  0  0  0  0  0  0  0  0  0
  145.2265  138.4009  152.6140 H   0  0  0  0  0  0  0  0  0  0  0  0
  145.7610  138.0707  150.9829 H   0  0  0  0  0  0  0  0  0  0  0  0
  145.8668  135.8237  153.0417 H   0  0  0  0  0  0  0  0  0  0  0  0
  145.5299  135.9848  150.0231 H   0  0  0  0  0  0  0  0  0  0  0  0
  146.7193  135.0394  150.9286 H   0  0  0  0  0  0  0  0  0  0  0  0
  144.4559  133.8103  150.1472 H   0  0  0  0  0  0  0  0  0  0  0  0
  144.9779  133.6034  151.8241 H   0  0  0  0  0  0  0  0  0  0  0  0
  142.8710  135.5131  150.7661 H   0  0  0  0  0  0  0  0  0  0  0  0
  142.7968  134.5098  152.2163 H   0  0  0  0  0  0  0  0  0  0  0  0
  148.1596  140.7243  155.0838 H   0  0  0  0  0  0  0  0  0  0  0  0
  151.2475  143.5677  156.6348 H   0  0  0  0  0  0  0  0  0  0  0  0
  150.4031  143.0759  158.0972 H   0  0  0  0  0  0  0  0  0  0  0  0
  153.3441  143.9299  157.8911 H   0  0  0  0  0  0  0  0  0  0  0  0
  151.7437  145.8493  157.8569 H   0  0  0  0  0  0  0  0  0  0  0  0
  152.6633  145.8106  159.3587 H   0  0  0  0  0  0  0  0  0  0  0  0
  150.9920  145.2543  159.3365 H   0  0  0  0  0  0  0  0  0  0  0  0
  1  2  1  0  0  0  0
  1 25  1  0  0  0  0
  1 26  1  0  0  0  0
  1 27  1  0  0  0  0
  2 24  1  0  0  0  0
  2  3  1  0  0  0  0
  2 28  1  0  0  0  0
  3  4  1  0  0  0  0
  3 29  1  0  0  0  0
  3 30  1  0  0  0  0
  4  5  1  0  0  0  0
  4 21  1  0  0  0  0
  5 20  1  0  0  0  0
  5  6  2  0  0  0  0
  6  7  1  0  0  0  0
  6 31  1  0  0  0  0
  7  8  2  0  0  0  0
  7 32  1  0  0  0  0
  8  9  1  0  0  0  0
  8 19  1  0  0  0  0
  9 10  1  0  0  0  0
  9 33  1  0  0  0  0
 10 11  2  0  0  0  0
 10 12  1  0  0  0  0
 12 13  1  0  0  0  0
 12 34  1  0  0  0  0
 13 14  1  0  0  0  0
 13 35  1  0  0  0  0
 13 36  1  0  0  0  0
 14 18  1  0  0  0  0
 14 15  1  0  0  0  0
 14 37  1  0  0  0  0
 15 16  1  0  0  0  0
 15 38  1  0  0  0  0
 15 39  1  0  0  0  0
 16 17  1  0  0  0  0
 16 40  1  0  0  0  0
 16 41  1  0  0  0  0
 17 18  1  0  0  0  0
 17 42  1  0  0  0  0
 17 43  1  0  0  0  0
 19 20  2  0  0  0  0
 19 44  1  0  0  0  0
 21 22  1  0  0  0  0
 21 45  1  0  0  0  0
 21 46  1  0  0  0  0
 22 23  1  0  0  0  0
 22 24  1  0  0  0  0
 22 47  1  0  0  0  0
 23 48  1  0  0  0  0
 23 49  1  0  0  0  0
 23 50  1  0  0  0  0
M  END
> <s_m_source_file>
AV-unprocessed.smi

> <i_m_source_file_index>
2034

> <i_lp_mmshare_version>
43012

> <i_f3d_flags>
0

> <s_epik_input>
W0NIM11bQ0BASF0xW0NIMl1OKFtDSDJdW0NASF0oTzEpW0NIM10pYzJbY0hdW2NIXWMoW2NIXW4yKVtOSF1DKD1PKVtOSF1bQ0gyXVtDQEBIXTNbQ0gyXVtDSDJdW0NIMl1PMw==

> <s_epik_cmdline>
J2VwaWtfcHl0aG9uJywgJy1waCcsICc3LjAnLCAnLXRuJywgJzgnLCAnLW1hJywgJzIwMCcsICctbWV0YWxfYmluZGluZycsICctaW1hZScsICc8aW5maWxlLm1hZT4nLCAnLW9tYWUnLCAnPG91dGZpbGUubWFlPic=

> <r_lp_tautomer_probability>
1

> <r_epik_Ionization_Penalty>
0.00268225

> <r_epik_Ionization_Penalty_Charging>
0

> <r_epik_Ionization_Penalty_Neutral>
0.00268225

> <r_epik_State_Penalty>
0.00184408

> <r_epik_Charging_Adjusted_Penalty>
0.00184408

> <i_epik_Tot_Q>
0

> <i_epik_Tot_abs_Q>
0

> <r_epik_Metal_State_Penalty>
-0

> <b_epik_Metal_Only>
0

> <s_lp_Force_Field>
OPLS_2005

> <r_lp_Energy>
33.1724

> <b_lp_Chiralities_Consistent>
1

> <s_lp_Variant>
AV-unprocessed.smi:2034-2

> <Gold.Version>
5.8.1

> <Gold.Id.Protein>
6NUR|6NUR_protein|mol2

> <Gold.PLP.Fitness>
50.8183

> <Gold.PLP.PLP>
-47.7451

> <Gold.PLP.part.hbond>
-2.8559

> <Gold.PLP.part.metal>
0.0000

> <Gold.PLP.part.buried>
-4.5356

> <Gold.PLP.part.nonpolar>
-42.0015

> <Gold.PLP.part.repulsive>
0.4768

> <Gold.PLP.ligand.clash>
0.0000

> <Gold.PLP.ligand.torsion>
0.8101

> <Gold.PLP.Chemscore.Hbond>
1.4441

> <Gold.PLP.Chemscore.CHOScore>
0.0000

> <Gold.PLP.Chemscore.Metal>
0.0000

> <Gold.Chemscore.Hbonds>
donor molecule, donor type, donor heavy atom, donor atom, acceptor molecule, acceptor atom, score
      L1  H     9    33       P1  7948  0.50
      L1  H    12    34       P1  7948  0.98

> <Gold.PLP.Chemscore.Internal.Correction>
0.3610

> <Gold.Rescore>
     Score         DG    S(hbond)    S(metal)    S(lipo)     H(rot)  DE(clash)    DE(int)     intcor
     18.98     -21.00       1.65        0.00     115.31       1.37       0.03       1.99       ----

> <Gold.Chemscore.Fitness>
18.9764

> <Gold.Chemscore.DG>
-20.9971

> <Gold.Chemscore.ZeroCoef>
-5.4800

> <Gold.Chemscore.Hbond>
1.6537

> <Gold.Chemscore.Metal>
0.0000

> <Gold.Chemscore.Lipo>
115.3117

> <Gold.Chemscore.Internal_Hbond>
0.0000

> <Gold.Chemscore.DEClash>
0.0309

> <Gold.Chemscore.DEInternal>
1.9898

> <Gold.Chemscore.Rot>
1.3663

> <Gold.Chemscore.Internal.Correction>
   9.000000E+99

> <Gold.Chemscore.Hbonds>
donor molecule, donor type, donor heavy atom, donor atom, acceptor molecule, acceptor atom, score
      L1  H     9    33       P1  7948  0.46
      L1  H    12    34       P1  7948  0.88

> <Gold.Chemscore.Hbond.Weighted>
-5.5233

> <Gold.Chemscore.Metal.Weighted>
-0.0000

> <Gold.Chemscore.Lipo.Weighted>
-13.4915

> <Gold.Chemscore.Internal_Hbond.Weighted>
0.0000

> <Gold.Chemscore.DEClash.Weighted>
0.0309

> <Gold.Chemscore.DEInternal.Weighted>
1.9898

> <Gold.Chemscore.Rot.Weighted>
3.4977

> <Gold.Chemscore.Internal.Correction.Weighted>
   9.000000E+99

> <Gold.Protein.RotatedTorsions>
[ 6907 6896 6895 6894 ] final  144.89 input  -60.11 | X-H torsion
[ 7974 7965 7964 7962 ] final  -47.60 input  175.53 | X-H torsion
[ 8008 7997 7996 7995 ] final   -9.96 input   59.86 | X-H torsion
[ 10167 10162 10161 10158 ] final -105.41 input  -65.29 | X-H torsion
[ 10718 10713 10712 10709 ] final  -27.61 input   66.30 | X-H torsion
[ 10763 10752 10751 10750 ] final  116.66 input  -60.55 | X-H torsion
[ 11005 11000 10999 10996 ] final   24.47 input  -57.11 | X-H torsion

> <Gold.Protein.ActiveResidues>
 VAL166  LYS551  ARG553  GLY616  TRP617  ASP618  TYR619  PRO620  LYS621  CYS622 
 ASP623  PHE694  ASN695  SER759  ASP760  ASP761  ALA762  ILE779  LEU786  VAL792 
 PHE793  MET794  SER795  GLU796  ALA797  LYS798  CYS799  TRP800  GLU811  SER814 

> <Gold.Protein.RotatedAtoms>
  152.1879  133.4753  159.4992 H   0  0  0  0  0  0  0  0  0  0  0  0  # atno 6907 bound_to 6896
  150.6946  134.1750  159.4235 H   0  0  0  0  0  0  0  0  0  0  0  0  # atno 6908 bound_to 6896
  151.9663  135.0098  160.0601 H   0  0  0  0  0  0  0  0  0  0  0  0  # atno 6909 bound_to 6896
  145.9599  140.7489  142.9462 H   0  0  0  0  0  0  0  0  0  0  0  0  # atno 7974 bound_to 7965
  154.5598  140.2341  155.8353 H   0  0  0  0  0  0  0  0  0  0  0  0  # atno 8008 bound_to 7997
  156.2019  140.3050  155.9505 H   0  0  0  0  0  0  0  0  0  0  0  0  # atno 8009 bound_to 7997
  155.2911  140.0427  157.3013 H   0  0  0  0  0  0  0  0  0  0  0  0  # atno 8010 bound_to 7997
  140.1989  143.3834  152.1146 H   0  0  0  0  0  0  0  0  0  0  0  0  # atno 10167 bound_to 10162
  156.4359  130.4454  149.7085 H   0  0  0  0  0  0  0  0  0  0  0  0  # atno 10718 bound_to 10713
  153.5406  135.3559  155.2717 H   0  0  0  0  0  0  0  0  0  0  0  0  # atno 10763 bound_to 10752
  154.8718  135.4090  154.3048 H   0  0  0  0  0  0  0  0  0  0  0  0  # atno 10764 bound_to 10752
  153.3754  135.7066  153.6674 H   0  0  0  0  0  0  0  0  0  0  0  0  # atno 10765 bound_to 10752
  140.3583  134.2153  155.7674 H   0  0  0  0  0  0  0  0  0  0  0  0  # atno 11005 bound_to 11000
  144.6813  140.2574  143.7323 LP  0  0  0  0  0  0  0  0  0  0  0  0  # atno 17320 bound_to 7965
  145.8054  139.1981  143.2024 LP  0  0  0  0  0  0  0  0  0  0  0  0  # atno 17321 bound_to 7965
  139.5225  144.7060  151.5353 LP  0  0  0  0  0  0  0  0  0  0  0  0  # atno 17342 bound_to 10162
  140.6404  143.8900  150.6687 LP  0  0  0  0  0  0  0  0  0  0  0  0  # atno 17343 bound_to 10162
  156.3969  130.7655  151.2660 LP  0  0  0  0  0  0  0  0  0  0  0  0  # atno 17370 bound_to 10713
  157.7507  131.0251  150.3905 LP  0  0  0  0  0  0  0  0  0  0  0  0  # atno 17371 bound_to 10713
  141.1992  133.8018  157.0549 LP  0  0  0  0  0  0  0  0  0  0  0  0  # atno 17394 bound_to 11000
  140.0647  134.9735  157.1365 LP  0  0  0  0  0  0  0  0  0  0  0  0  # atno 17395 bound_to 11000

$$$$
