#       Name:                AV-unprocessed.smi:1785
#       Creating user name   scv26
#       Creation time:       Fri Mar 27 08:44:16 2020


#       File generated by GOLD software.
#

@<TRIPOS>MOLECULE
AV-unprocessed.smi:1785
    35    36     1
SMALL
NO_CHARGES


@<TRIPOS>ATOM
      1 ****        -1.6733  -2.0614   0.9567 C.3            1 S1                 0.0000
      2 ****        -2.4161  -0.9493   0.2334 C.ar           1 S1                 0.0000
      3 ****        -3.8259  -0.9202   0.2759 C.ar           1 S1                 0.0000
      4 ****        -4.5117   0.1043  -0.3983 C.ar           1 S1                 0.0000
      5 ****        -3.7508   1.0601  -1.0928 C.ar           1 S1                 0.0000
      6 ****        -2.4031   1.0395  -1.1387 N.ar           1 S1                 0.0000
      7 ****        -1.7244   0.0650  -0.4855 C.ar           1 S1                 0.0000
      8 ****        -0.3827   0.0776  -0.5659 N.pl3          1 S1                -1.0000
      9 ****         0.3646   0.7622   0.3387 C.2            1 S1                 0.0000
     10 ****        -0.1075   1.4055   1.2807 O.2            1 S1                 0.0000
     11 ****         1.8098   0.6949   0.1395 C.2            1 S1                 0.0000
     12 ****         2.6448   1.3243   1.0007 C.2            1 S1                 0.0000
     13 ****         4.0106   1.3428   0.8637 O.3            1 S1                 0.0000
     14 ****         4.4865   0.8688  -0.3899 C.3            1 S1                 0.0000
     15 ****         3.6899  -0.3680  -0.8283 C.3            1 S1                 0.0000
     16 ****         2.3042  -0.0551  -0.9055 O.3            1 S1                 0.0000
     17 ****        -2.3636  -2.7832   1.3937 H              1 S1                 0.0000
     18 ****        -1.0624  -1.6483   1.7597 H              1 S1                 0.0000
     19 ****        -1.0204  -2.5963   0.2665 H              1 S1                 0.0000
     20 ****        -4.3782  -1.6743   0.8170 H              1 S1                 0.0000
     21 ****        -5.5902   0.1547  -0.3855 H              1 S1                 0.0000
     22 ****        -4.2366   1.8624  -1.6281 H              1 S1                 0.0000
     23 ****         2.3273   1.9068   1.8536 H              1 S1                 0.0000
     24 ****         4.3958   1.6626  -1.1327 H              1 S1                 0.0000
     25 ****         5.5463   0.6297  -0.3025 H              1 S1                 0.0000
     26 ****         4.0314  -0.7181  -1.8025 H              1 S1                 0.0000
     27 ****         3.8353  -1.1869  -0.1225 H              1 S1                 0.0000
     28 ****        -1.9070   1.7397  -1.6522 LP             1 S1                 0.0000
     29 ****         0.0718  -0.4240  -1.3020 LP             1 S1                 0.0000
     30 ****        -1.0979   1.4444   1.4130 LP             1 S1                 0.0000
     31 ****         0.5005   1.8877   1.9114 LP             1 S1                 0.0000
     32 ****         4.4040   0.7705   1.5832 LP             1 S1                 0.0000
     33 ****         4.3229   2.2857   0.9795 LP             1 S1                 0.0000
     34 ****         2.1495   0.4547  -1.7518 LP             1 S1                 0.0000
     35 ****         1.7948  -0.9150  -0.9366 LP             1 S1                 0.0000
@<TRIPOS>BOND
    1    1    2 1     
    2    1   17 1     
    3    1   18 1     
    4    1   19 1     
    5    2    7 ar    
    6    2    3 ar    
    7    3    4 ar    
    8    3   20 1     
    9    4    5 ar    
   10    4   21 1     
   11    5    6 ar    
   12    5   22 1     
   13    6    7 ar    
   14    7    8 1     
   15    8    9 1     
   16    9   10 2     
   17    9   11 1     
   18   11   16 1     
   19   11   12 2     
   20   12   13 1     
   21   12   23 1     
   22   13   14 1     
   23   14   15 1     
   24   14   24 1     
   25   14   25 1     
   26   15   16 1     
   27   15   26 1     
   28   15   27 1     
   29    6   28 1     
   30    8   29 1     
   31   10   30 1     
   32   10   31 1     
   33   13   32 1     
   34   13   33 1     
   35   16   34 1     
   36   16   35 1     
@<TRIPOS>SUBSTRUCTURE
      1 S1             1
@<TRIPOS>SET
LONE_PAIRS      STATIC     ATOMS    <user>   **** ""
8 28 29 30 31 32 33 34 35
ATOM$BLUE        STATIC     ATOMS    COLORGROUP SYSTEM
8 28 29 30 31 32 33 34 35
