#       Name:                AV-unprocessed.smi:2003
#       Creating user name   scv26
#       Creation time:       Fri Mar 27 10:35:24 2020


#       File generated by GOLD software.
#

@<TRIPOS>MOLECULE
AV-unprocessed.smi:2003
    49    50     1
SMALL
NO_CHARGES


@<TRIPOS>ATOM
      1 ****        -5.6554   4.0350   0.8208 C.3            1 S1                 0.0000
      2 ****        -4.9556   2.7105   0.9008 C.2            1 S1                 0.0000
      3 ****        -3.5560   2.4512   0.8273 C.2            1 S1                 0.0000
      4 ****        -3.4947   1.0903   0.9552 C.2            1 S1                 0.0000
      5 ****        -2.4035   0.2793   0.9563 N.am           1 S1                 0.0000
      6 ****        -1.1075   0.6146   0.8307 C.2            1 S1                 0.0000
      7 ****        -0.6746   1.7603   0.7069 O.2            1 S1                 0.0000
      8 ****        -0.3223  -0.4730   0.8471 N.am           1 S1                 0.0000
      9 ****         1.1352  -0.4679   0.7379 C.3            1 S1                 0.0000
     10 ****         1.6454  -0.9505  -0.6460 C.3            1 S1                 0.0000
     11 ****         1.0321  -0.1028  -1.7882 C.3            1 S1                 0.0000
     12 ****         3.1459  -0.9702  -0.6600 N.4            1 S1                 1.0000
     13 ****         3.7119  -2.1195   0.0981 C.3            1 S1                 0.0000
     14 ****         5.2470  -2.0503   0.1453 C.3            1 S1                 0.0000
     15 ****         5.7607  -2.0323  -1.1780 O.3            1 S1                 0.0000
     16 ****         5.3168  -0.8886  -1.8927 C.3            1 S1                 0.0000
     17 ****         3.7824  -0.9026  -2.0050 C.3            1 S1                 0.0000
     18 ****        -4.7739   0.5983   1.0912 N.pl3          1 S1                 0.0000
     19 ****        -5.2228  -0.7706   1.2565 C.3            1 S1                 0.0000
     20 ****        -5.6740   1.6046   1.0592 N.2            1 S1                 0.0000
     21 ****        -4.9435   4.8489   0.6815 H              1 S1                 0.0000
     22 ****        -6.2169   4.2386   1.7329 H              1 S1                 0.0000
     23 ****        -6.3547   4.0599  -0.0154 H              1 S1                 0.0000
     24 ****        -2.7518   3.1601   0.7014 H              1 S1                 0.0000
     25 ****        -2.6016  -0.7053   1.0557 H              1 S1                 0.0000
     26 ****        -0.7661  -1.3742   0.9501 H              1 S1                 0.0000
     27 ****         1.5402   0.5213   0.9590 H              1 S1                 0.0000
     28 ****         1.4919  -1.1172   1.5352 H              1 S1                 0.0000
     29 ****         1.3003  -1.9742  -0.8020 H              1 S1                 0.0000
     30 ****        -0.0567  -0.1067  -1.7563 H              1 S1                 0.0000
     31 ****         1.2896  -0.4922  -2.7731 H              1 S1                 0.0000
     32 ****         1.3574   0.9365  -1.7330 H              1 S1                 0.0000
     33 ****         3.3379  -2.1417   1.1199 H              1 S1                 0.0000
     34 ****         3.4009  -3.0541  -0.3715 H              1 S1                 0.0000
     35 ****         5.5833  -1.1702   0.6959 H              1 S1                 0.0000
     36 ****         5.6456  -2.9221   0.6645 H              1 S1                 0.0000
     37 ****         5.6628   0.0213  -1.3995 H              1 S1                 0.0000
     38 ****         5.7645  -0.8995  -2.8866 H              1 S1                 0.0000
     39 ****         3.4582  -1.7520  -2.6083 H              1 S1                 0.0000
     40 ****         3.4893   0.0060  -2.5301 H              1 S1                 0.0000
     41 ****        -4.7352  -1.4099   0.5201 H              1 S1                 0.0000
     42 ****        -6.3031  -0.8389   1.1196 H              1 S1                 0.0000
     43 ****        -4.9683  -1.1198   2.2575 H              1 S1                 0.0000
     44 ****         3.4392  -0.1309  -0.1804 H              1 S1                 0.0000
     45 ****        -1.3068   2.5350   0.6939 LP             1 S1                 0.0000
     46 ****         0.3093   1.9163   0.6193 LP             1 S1                 0.0000
     47 ****         5.4533  -2.8545  -1.6572 LP             1 S1                 0.0000
     48 ****         6.7599  -2.0233  -1.1387 LP             1 S1                 0.0000
     49 ****        -6.6683   1.5326   1.1379 LP             1 S1                 0.0000
@<TRIPOS>BOND
    1    1    2 1     
    2    1   21 1     
    3    1   22 1     
    4    1   23 1     
    5    2   20 2     
    6    2    3 1     
    7    3    4 2     
    8    3   24 1     
    9    4    5 1     
   10    4   18 1     
   11    5    6 am    
   12    5   25 1     
   13    6    7 2     
   14    6    8 am    
   15    8    9 1     
   16    8   26 1     
   17    9   10 1     
   18    9   27 1     
   19    9   28 1     
   20   10   11 1     
   21   10   12 1     
   22   10   29 1     
   23   11   30 1     
   24   11   31 1     
   25   11   32 1     
   26   12   17 1     
   27   12   13 1     
   28   12   44 1     
   29   13   14 1     
   30   13   33 1     
   31   13   34 1     
   32   14   15 1     
   33   14   35 1     
   34   14   36 1     
   35   15   16 1     
   36   16   17 1     
   37   16   37 1     
   38   16   38 1     
   39   17   39 1     
   40   17   40 1     
   41   18   19 1     
   42   18   20 1     
   43   19   41 1     
   44   19   42 1     
   45   19   43 1     
   46    7   45 1     
   47    7   46 1     
   48   15   47 1     
   49   15   48 1     
   50   20   49 1     
@<TRIPOS>SUBSTRUCTURE
      1 S1             1
@<TRIPOS>SET
LONE_PAIRS      STATIC     ATOMS    <user>   **** ""
5 45 46 47 48 49
DONOR_HYDROGENS      STATIC     ATOMS    <user>   **** ""
3 25 26 44
ATOM$BLUE        STATIC     ATOMS    COLORGROUP SYSTEM
5 45 46 47 48 49
ATOM$RED        STATIC     ATOMS    COLORGROUP SYSTEM
3 25 26 44
