AV-unprocessed.smi:2153|AV-procd|sdf|8766|dock3
  -GOLD-   2272011543D 1   1.00000     0.00000
 Structure written by MMmdl.
 48 49  0  0  0  0  0  0  0  0  1 V2000
  150.7175  142.4928  157.1556 C   0  0  0  0  0  0  0  0  0  0  0  0
  151.4638  141.9531  158.3866 C   0  0  2  0  0  0  0  0  0  0  0  0
  152.1750  143.0987  159.1353 C   0  0  0  0  0  0  0  0  0  0  0  0
  152.9361  142.5884  160.3680 C   0  0  0  0  0  0  0  0  0  0  0  0
  153.9396  141.4940  159.9803 C   0  0  0  0  0  0  0  0  0  0  0  0
  153.2404  140.3417  159.2450 C   0  0  0  0  0  0  0  0  0  0  0  0
  152.4689  140.8424  158.0051 C   0  0  1  0  0  0  0  0  0  0  0  0
  151.7353  139.7625  157.4409 O   0  0  0  0  0  0  0  0  0  0  0  0
  152.1787  139.3597  156.1529 C   0  0  0  0  0  0  0  0  0  0  0  0
  150.9581  139.1328  155.2551 C   0  0  0  0  0  0  0  0  0  0  0  0
  150.2406  137.9314  155.6586 N   0  0  0  0  0  0  0  0  0  0  0  0
  150.5811  136.6871  155.2967 C   0  0  0  0  0  0  0  0  0  0  0  0
  151.5489  136.4379  154.5763 O   0  0  0  0  0  0  0  0  0  0  0  0
  149.6740  135.5656  155.8227 C   0  0  0  0  0  0  0  0  0  0  0  0
  150.0830  134.2262  155.3788 N   0  0  0  0  0  0  0  0  0  0  0  0
  149.7911  133.8174  154.0901 C   0  0  0  0  0  0  0  0  0  0  0  0
  150.1358  132.6087  153.5952 C   0  0  0  0  0  0  0  0  0  0  0  0
  150.8554  131.6440  154.4167 C   0  0  0  0  0  0  0  0  0  0  0  0
  151.1856  130.5262  154.0177 O   0  0  0  0  0  0  0  0  0  0  0  0
  151.1481  132.0876  155.7266 N   0  0  0  0  0  0  0  0  0  0  0  0
  151.8599  131.1559  156.5769 C   0  0  0  0  0  0  0  0  0  0  0  0
  150.7810  133.3530  156.2421 C   0  0  0  0  0  0  0  0  0  0  0  0
  151.0480  133.7010  157.3946 O   0  0  0  0  0  0  0  0  0  0  0  0
  151.4085  142.9252  156.4315 H   0  0  0  0  0  0  0  0  0  0  0  0
  150.0040  143.2672  157.4382 H   0  0  0  0  0  0  0  0  0  0  0  0
  150.1587  141.7040  156.6514 H   0  0  0  0  0  0  0  0  0  0  0  0
  150.7224  141.5225  159.0613 H   0  0  0  0  0  0  0  0  0  0  0  0
  152.8719  143.6017  158.4633 H   0  0  0  0  0  0  0  0  0  0  0  0
  151.4484  143.8512  159.4433 H   0  0  0  0  0  0  0  0  0  0  0  0
  153.4561  143.4149  160.8533 H   0  0  0  0  0  0  0  0  0  0  0  0
  152.2283  142.1958  161.0993 H   0  0  0  0  0  0  0  0  0  0  0  0
  154.7167  141.9176  159.3429 H   0  0  0  0  0  0  0  0  0  0  0  0
  154.4410  141.1165  160.8719 H   0  0  0  0  0  0  0  0  0  0  0  0
  153.9823  139.5959  158.9612 H   0  0  0  0  0  0  0  0  0  0  0  0
  152.5499  139.8438  159.9270 H   0  0  0  0  0  0  0  0  0  0  0  0
  153.1709  141.2482  157.2734 H   0  0  0  0  0  0  0  0  0  0  0  0
  152.8060  140.1425  155.7243 H   0  0  0  0  0  0  0  0  0  0  0  0
  152.7804  138.4519  156.2048 H   0  0  0  0  0  0  0  0  0  0  0  0
  150.2932  139.9968  155.2979 H   0  0  0  0  0  0  0  0  0  0  0  0
  151.2798  139.0240  154.2183 H   0  0  0  0  0  0  0  0  0  0  0  0
  149.4279  138.0568  156.2447 H   0  0  0  0  0  0  0  0  0  0  0  0
  149.6395  135.6096  156.9128 H   0  0  0  0  0  0  0  0  0  0  0  0
  148.6547  135.7672  155.4900 H   0  0  0  0  0  0  0  0  0  0  0  0
  149.2614  134.5001  153.4415 H   0  0  0  0  0  0  0  0  0  0  0  0
  149.8762  132.3527  152.5784 H   0  0  0  0  0  0  0  0  0  0  0  0
  152.1353  131.6140  157.5260 H   0  0  0  0  0  0  0  0  0  0  0  0
  152.7656  130.8547  156.0474 H   0  0  0  0  0  0  0  0  0  0  0  0
  151.1964  130.3060  156.7455 H   0  0  0  0  0  0  0  0  0  0  0  0
  1  2  1  0  0  0  0
  1 24  1  0  0  0  0
  1 25  1  0  0  0  0
  1 26  1  0  0  0  0
  2  7  1  0  0  0  0
  2  3  1  0  0  0  0
  2 27  1  0  0  0  0
  3  4  1  0  0  0  0
  3 28  1  0  0  0  0
  3 29  1  0  0  0  0
  4  5  1  0  0  0  0
  4 30  1  0  0  0  0
  4 31  1  0  0  0  0
  5  6  1  0  0  0  0
  5 32  1  0  0  0  0
  5 33  1  0  0  0  0
  6  7  1  0  0  0  0
  6 34  1  0  0  0  0
  6 35  1  0  0  0  0
  7  8  1  0  0  0  0
  7 36  1  0  0  0  0
  8  9  1  0  0  0  0
  9 10  1  0  0  0  0
  9 37  1  0  0  0  0
  9 38  1  0  0  0  0
 10 11  1  0  0  0  0
 10 39  1  0  0  0  0
 10 40  1  0  0  0  0
 11 12  1  0  0  0  0
 11 41  1  0  0  0  0
 12 13  2  0  0  0  0
 12 14  1  0  0  0  0
 14 15  1  0  0  0  0
 14 42  1  0  0  0  0
 14 43  1  0  0  0  0
 15 22  1  0  0  0  0
 15 16  1  0  0  0  0
 16 17  2  0  0  0  0
 16 44  1  0  0  0  0
 17 18  1  0  0  0  0
 17 45  1  0  0  0  0
 18 19  2  0  0  0  0
 18 20  1  0  0  0  0
 20 21  1  0  0  0  0
 20 22  1  0  0  0  0
 21 46  1  0  0  0  0
 21 47  1  0  0  0  0
 21 48  1  0  0  0  0
 22 23  2  0  0  0  0
M  END
> <s_m_source_file>
AV-unprocessed.smi

> <i_m_source_file_index>
2153

> <i_lp_mmshare_version>
43012

> <i_f3d_flags>
0

> <s_epik_input>
W0NIM11bQ0BASF0xW0NIMl1bQ0gyXVtDSDJdW0NIMl1bQ0BIXTFPW0NIMl1bQ0gyXVtOSF1DKD1PKVtDSDJdbjJbY0hdW2NIXWMoPU8pbihbQ0gzXSljMj1P

> <s_epik_cmdline>
J2VwaWtfcHl0aG9uJywgJy1waCcsICc3LjAnLCAnLXRuJywgJzgnLCAnLW1hJywgJzIwMCcsICctbWV0YWxfYmluZGluZycsICctaW1hZScsICc8aW5maWxlLm1hZT4nLCAnLW9tYWUnLCAnPG91dGZpbGUubWFlPic=

> <r_lp_tautomer_probability>
1

> <r_epik_Ionization_Penalty>
4.02205e-08

> <r_epik_Ionization_Penalty_Charging>
1.23606e-08

> <r_epik_Ionization_Penalty_Neutral>
2.78599e-08

> <r_epik_State_Penalty>
-0

> <r_epik_Charging_Adjusted_Penalty>
1.23606e-08

> <i_epik_Tot_Q>
0

> <i_epik_Tot_abs_Q>
0

> <r_epik_Metal_State_Penalty>
-0

> <b_epik_Metal_Only>
0

> <s_lp_Force_Field>
OPLS_2005

> <r_lp_Energy>
20.2875

> <b_lp_Chiralities_Consistent>
1

> <s_lp_Variant>
AV-unprocessed.smi:2153-1

> <Gold.Version>
5.8.1

> <Gold.Id.Protein>
6NUR|6NUR_protein|mol2

> <Gold.PLP.Fitness>
47.2842

> <Gold.PLP.PLP>
-41.5146

> <Gold.PLP.part.hbond>
-2.0000

> <Gold.PLP.part.metal>
0.0000

> <Gold.PLP.part.buried>
-5.2612

> <Gold.PLP.part.nonpolar>
-33.9419

> <Gold.PLP.part.repulsive>
0.2396

> <Gold.PLP.ligand.clash>
0.0000

> <Gold.PLP.ligand.torsion>
1.4728

> <Gold.PLP.Chemscore.Hbond>
1.8960

> <Gold.PLP.Chemscore.CHOScore>
0.9870

> <Gold.PLP.Chemscore.Metal>
0.0000

> <Gold.Chemscore.Hbonds>
donor molecule, donor type, donor heavy atom, donor atom, acceptor molecule, acceptor atom, score
      P1  H  6896  6908       L1    23  0.61
      P1  H 10752 10763       L1    13  1.00
      L1  C    16    44       P1  7948  0.52

> <Gold.PLP.Chemscore.Internal.Correction>
0.0662

> <Gold.Rescore>
     Score         DG    S(hbond)    S(metal)    S(lipo)     H(rot)  DE(clash)    DE(int)     intcor
     16.17     -17.62       1.91        0.00      97.28       2.20       0.01       1.43       ----

> <Gold.Chemscore.Fitness>
16.1737

> <Gold.Chemscore.DG>
-17.6154

> <Gold.Chemscore.ZeroCoef>
-5.4800

> <Gold.Chemscore.Hbond>
1.9092

> <Gold.Chemscore.Metal>
0.0000

> <Gold.Chemscore.Lipo>
97.2844

> <Gold.Chemscore.Internal_Hbond>
0.0000

> <Gold.Chemscore.DEClash>
0.0078

> <Gold.Chemscore.DEInternal>
1.4339

> <Gold.Chemscore.Rot>
2.1968

> <Gold.Chemscore.Internal.Correction>
   9.000000E+99

> <Gold.Chemscore.Hbonds>
donor molecule, donor type, donor heavy atom, donor atom, acceptor molecule, acceptor atom, score
      P1  H  6896  6908       L1    23  0.60
      P1  H 10752 10763       L1    13  0.99

> <Gold.Chemscore.Hbond.Weighted>
-6.3769

> <Gold.Chemscore.Metal.Weighted>
-0.0000

> <Gold.Chemscore.Lipo.Weighted>
-11.3823

> <Gold.Chemscore.Internal_Hbond.Weighted>
0.0000

> <Gold.Chemscore.DEClash.Weighted>
0.0078

> <Gold.Chemscore.DEInternal.Weighted>
1.4339

> <Gold.Chemscore.Rot.Weighted>
5.6238

> <Gold.Chemscore.Internal.Correction.Weighted>
   9.000000E+99

> <Gold.Protein.RotatedTorsions>
[ 6907 6896 6895 6894 ] final  106.81 input  -60.11 | X-H torsion
[ 7974 7965 7964 7962 ] final -142.98 input  175.53 | X-H torsion
[ 8008 7997 7996 7995 ] final  -36.99 input   59.86 | X-H torsion
[ 10167 10162 10161 10158 ] final -135.98 input  -65.29 | X-H torsion
[ 10718 10713 10712 10709 ] final    6.69 input   66.30 | X-H torsion
[ 10763 10752 10751 10750 ] final   49.75 input  -60.55 | X-H torsion
[ 11005 11000 10999 10996 ] final -168.79 input  -57.11 | X-H torsion

> <Gold.Protein.ActiveResidues>
 VAL166  LYS551  ARG553  GLY616  TRP617  ASP618  TYR619  PRO620  LYS621  CYS622 
 ASP623  PHE694  ASN695  SER759  ASP760  ASP761  ALA762  ILE779  LEU786  VAL792 
 PHE793  MET794  SER795  GLU796  ALA797  LYS798  CYS799  TRP800  GLU811  SER814 

> <Gold.Protein.RotatedAtoms>
  152.5179  133.9327  159.7588 H   0  0  0  0  0  0  0  0  0  0  0  0  # atno 6907 bound_to 6896
  150.9674  133.6372  159.2751 H   0  0  0  0  0  0  0  0  0  0  0  0  # atno 6908 bound_to 6896
  151.3595  135.0906  159.9482 H   0  0  0  0  0  0  0  0  0  0  0  0  # atno 6909 bound_to 6896
  144.8403  140.5891  143.5457 H   0  0  0  0  0  0  0  0  0  0  0  0  # atno 7974 bound_to 7965
  154.4062  140.1616  156.2464 H   0  0  0  0  0  0  0  0  0  0  0  0  # atno 8008 bound_to 7997
  155.9156  140.3424  155.6110 H   0  0  0  0  0  0  0  0  0  0  0  0  # atno 8009 bound_to 7997
  155.7283  140.0777  157.2291 H   0  0  0  0  0  0  0  0  0  0  0  0  # atno 8010 bound_to 7997
  139.8724  143.6940  152.2638 H   0  0  0  0  0  0  0  0  0  0  0  0  # atno 10167 bound_to 10162
  156.9259  130.5808  149.5648 H   0  0  0  0  0  0  0  0  0  0  0  0  # atno 10718 bound_to 10713
  152.9786  135.5901  154.4139 H   0  0  0  0  0  0  0  0  0  0  0  0  # atno 10763 bound_to 10752
  154.3771  135.2767  155.2234 H   0  0  0  0  0  0  0  0  0  0  0  0  # atno 10764 bound_to 10752
  154.4164  135.6069  153.6038 H   0  0  0  0  0  0  0  0  0  0  0  0  # atno 10765 bound_to 10752
  140.5381  134.5550  157.5092 H   0  0  0  0  0  0  0  0  0  0  0  0  # atno 11005 bound_to 11000
  145.4708  139.1503  143.3815 LP  0  0  0  0  0  0  0  0  0  0  0  0  # atno 17320 bound_to 7965
  146.2696  140.4841  142.8820 LP  0  0  0  0  0  0  0  0  0  0  0  0  # atno 17321 bound_to 7965
  139.7271  144.7590  151.0861 LP  0  0  0  0  0  0  0  0  0  0  0  0  # atno 17342 bound_to 10162
  140.7758  143.5134  150.9624 LP  0  0  0  0  0  0  0  0  0  0  0  0  # atno 17343 bound_to 10162
  156.0469  130.5544  150.8902 LP  0  0  0  0  0  0  0  0  0  0  0  0  # atno 17370 bound_to 10713
  157.5878  131.0945  150.9168 LP  0  0  0  0  0  0  0  0  0  0  0  0  # atno 17371 bound_to 10713
  139.9518  134.7603  156.0430 LP  0  0  0  0  0  0  0  0  0  0  0  0  # atno 17394 bound_to 11000
  141.1243  133.6604  156.3296 LP  0  0  0  0  0  0  0  0  0  0  0  0  # atno 17395 bound_to 11000

$$$$
