AV-unprocessed.smi:1421|AV-procd|sdf|5790|dock5
  -GOLD-   22720 5433D 1   1.00000     0.00000
 Structure written by MMmdl.
 45 46  0  0  0  0  0  0  0  0  1 V2000
  146.1199  135.5791  159.5352 C   0  0  0  0  0  0  0  0  0  0  0  0
  147.6396  135.7910  160.5465 S   0  0  0  0  0  0  0  0  0  0  0  0
  147.7912  137.2193  160.8627 O   0  0  0  0  0  0  0  0  0  0  0  0
  147.6399  134.7921  161.6258 O   0  0  0  0  0  0  0  0  0  0  0  0
  148.8863  135.3516  159.4355 N   0  0  0  0  0  0  0  0  0  0  0  0
  149.0528  136.1369  158.2111 C   0  0  0  0  0  0  0  0  0  0  0  0
  149.6920  135.2911  157.0937 C   0  0  0  0  0  0  0  0  0  0  0  0
  150.1422  136.1316  155.8953 C   0  0  0  0  0  0  0  0  0  0  0  0
  151.3248  136.1458  155.5535 O   0  0  0  0  0  0  0  0  0  0  0  0
  149.1800  136.8165  155.2574 N   0  0  0  0  0  0  0  0  0  0  0  0
  149.3632  137.6332  154.0609 C   0  0  0  0  0  0  0  0  0  0  0  0
  148.9140  139.0744  154.2663 C   0  0  0  0  0  0  0  0  0  0  0  0
  147.8253  139.5744  153.5199 C   0  0  0  0  0  0  0  0  0  0  0  0
  147.4209  140.9094  153.7020 C   0  0  0  0  0  0  0  0  0  0  0  0
  148.1253  141.6984  154.6291 C   0  0  0  0  0  0  0  0  0  0  0  0
  149.1665  141.2362  155.3516 N   0  0  0  0  0  0  0  0  0  0  0  0
  149.5597  139.9504  155.1788 C   0  0  0  0  0  0  0  0  0  0  0  0
  150.6316  139.4929  155.9633 N   0  0  0  0  0  0  0  0  0  0  0  0
  151.7962  139.0115  155.2301 C   0  0  0  0  0  0  0  0  0  0  0  0
  152.8020  138.3811  156.2079 C   0  0  0  0  0  0  0  0  0  0  0  0
  153.1515  139.3340  157.2078 O   0  0  0  0  0  0  0  0  0  0  0  0
  152.0220  139.7519  157.9699 C   0  0  0  0  0  0  0  0  0  0  0  0
  150.9792  140.4043  157.0448 C   0  0  0  0  0  0  0  0  0  0  0  0
  145.2466  135.8289  160.1374 H   0  0  0  0  0  0  0  0  0  0  0  0
  146.0441  134.5449  159.2006 H   0  0  0  0  0  0  0  0  0  0  0  0
  146.1626  136.2393  158.6692 H   0  0  0  0  0  0  0  0  0  0  0  0
  149.7780  135.2436  159.9185 H   0  0  0  0  0  0  0  0  0  0  0  0
  148.0852  136.5344  157.9010 H   0  0  0  0  0  0  0  0  0  0  0  0
  149.6880  136.9925  158.4428 H   0  0  0  0  0  0  0  0  0  0  0  0
  150.5626  134.7614  157.4818 H   0  0  0  0  0  0  0  0  0  0  0  0
  148.9923  134.5292  156.7502 H   0  0  0  0  0  0  0  0  0  0  0  0
  148.2383  136.7458  155.6146 H   0  0  0  0  0  0  0  0  0  0  0  0
  150.4219  137.6115  153.8013 H   0  0  0  0  0  0  0  0  0  0  0  0
  148.8381  137.2196  153.1989 H   0  0  0  0  0  0  0  0  0  0  0  0
  147.3054  138.9456  152.8121 H   0  0  0  0  0  0  0  0  0  0  0  0
  146.5922  141.3186  153.1433 H   0  0  0  0  0  0  0  0  0  0  0  0
  147.8453  142.7281  154.7960 H   0  0  0  0  0  0  0  0  0  0  0  0
  151.4854  138.2776  154.4858 H   0  0  0  0  0  0  0  0  0  0  0  0
  152.2691  139.8376  154.6971 H   0  0  0  0  0  0  0  0  0  0  0  0
  152.3862  137.4849  156.6718 H   0  0  0  0  0  0  0  0  0  0  0  0
  153.7035  138.0767  155.6763 H   0  0  0  0  0  0  0  0  0  0  0  0
  151.5947  138.8994  158.4993 H   0  0  0  0  0  0  0  0  0  0  0  0
  152.3485  140.4638  158.7279 H   0  0  0  0  0  0  0  0  0  0  0  0
  151.3789  141.3278  156.6240 H   0  0  0  0  0  0  0  0  0  0  0  0
  150.0877  140.6691  157.6145 H   0  0  0  0  0  0  0  0  0  0  0  0
  1  2  1  0  0  0  0
  1 24  1  0  0  0  0
  1 25  1  0  0  0  0
  1 26  1  0  0  0  0
  2  3  2  0  0  0  0
  2  4  2  0  0  0  0
  2  5  1  0  0  0  0
  5  6  1  0  0  0  0
  5 27  1  0  0  0  0
  6  7  1  0  0  0  0
  6 28  1  0  0  0  0
  6 29  1  0  0  0  0
  7  8  1  0  0  0  0
  7 30  1  0  0  0  0
  7 31  1  0  0  0  0
  8  9  2  0  0  0  0
  8 10  1  0  0  0  0
 10 11  1  0  0  0  0
 10 32  1  0  0  0  0
 11 12  1  0  0  0  0
 11 33  1  0  0  0  0
 11 34  1  0  0  0  0
 12 17  1  0  0  0  0
 12 13  2  0  0  0  0
 13 14  1  0  0  0  0
 13 35  1  0  0  0  0
 14 15  2  0  0  0  0
 14 36  1  0  0  0  0
 15 16  1  0  0  0  0
 15 37  1  0  0  0  0
 16 17  2  0  0  0  0
 17 18  1  0  0  0  0
 18 23  1  0  0  0  0
 18 19  1  0  0  0  0
 19 20  1  0  0  0  0
 19 38  1  0  0  0  0
 19 39  1  0  0  0  0
 20 21  1  0  0  0  0
 20 40  1  0  0  0  0
 20 41  1  0  0  0  0
 21 22  1  0  0  0  0
 22 23  1  0  0  0  0
 22 42  1  0  0  0  0
 22 43  1  0  0  0  0
 23 44  1  0  0  0  0
 23 45  1  0  0  0  0
M  END
> <s_m_source_file>
AV-unprocessed.smi

> <i_m_source_file_index>
1421

> <i_lp_mmshare_version>
43012

> <i_f3d_flags>
0

> <s_epik_input>
W0NIM11TKD1PKSg9TylbTkhdW0NIMl1bQ0gyXUMoPU8pW05IXVtDSDJdYzFbY0hdW2NIXVtjSF1uYzFOMltDSDJdW0NIMl1PW0NIMl1bQ0gyXTI=

> <s_epik_cmdline>
J2VwaWtfcHl0aG9uJywgJy1waCcsICc3LjAnLCAnLXRuJywgJzgnLCAnLW1hJywgJzIwMCcsICctbWV0YWxfYmluZGluZycsICctaW1hZScsICc8aW5maWxlLm1hZT4nLCAnLW9tYWUnLCAnPG91dGZpbGUubWFlPic=

> <r_lp_tautomer_probability>
1

> <r_epik_Ionization_Penalty>
0.00479902

> <r_epik_Ionization_Penalty_Charging>
0

> <r_epik_Ionization_Penalty_Neutral>
0.00479902

> <r_epik_State_Penalty>
0.00346804

> <r_epik_Charging_Adjusted_Penalty>
0.00346804

> <i_epik_Tot_Q>
0

> <i_epik_Tot_abs_Q>
0

> <r_epik_Metal_State_Penalty>
0.0135183

> <b_epik_Metal_Only>
0

> <s_lp_Force_Field>
OPLS_2005

> <r_lp_Energy>
16.2215

> <b_lp_Chiralities_Consistent>
1

> <s_lp_Variant>
AV-unprocessed.smi:1421-1

> <Gold.Version>
5.8.1

> <Gold.Id.Protein>
6NUR|6NUR_protein|mol2

> <Gold.PLP.Fitness>
40.6755

> <Gold.PLP.PLP>
-26.9229

> <Gold.PLP.part.hbond>
-5.0000

> <Gold.PLP.part.metal>
0.0000

> <Gold.PLP.part.buried>
0.5469

> <Gold.PLP.part.nonpolar>
-23.4500

> <Gold.PLP.part.repulsive>
0.1914

> <Gold.PLP.ligand.clash>
0.0000

> <Gold.PLP.ligand.torsion>
0.3857

> <Gold.PLP.Chemscore.Hbond>
3.7280

> <Gold.PLP.Chemscore.CHOScore>
1.0000

> <Gold.PLP.Chemscore.Metal>
0.0000

> <Gold.Chemscore.Hbonds>
donor molecule, donor type, donor heavy atom, donor atom, acceptor molecule, acceptor atom, score
      P1  H  6931  6943       L1     3  0.85
      P1  H  6934  6947       L1     3  0.85
      P1  H  7997  8010       L1    21  0.99
      P1  H 10752 10764       L1     9  1.00
      L1  C    15    37       P1  8028  1.00

> <Gold.PLP.Chemscore.Internal.Correction>
0.3401

> <Gold.Rescore>
     Score         DG    S(hbond)    S(metal)    S(lipo)     H(rot)  DE(clash)    DE(int)     intcor
     14.41     -16.89       3.43        0.00      63.01       2.90       1.66       0.82       ----

> <Gold.Chemscore.Fitness>
14.4076

> <Gold.Chemscore.DG>
-16.8936

> <Gold.Chemscore.ZeroCoef>
-5.4800

> <Gold.Chemscore.Hbond>
3.4339

> <Gold.Chemscore.Metal>
0.0000

> <Gold.Chemscore.Lipo>
63.0119

> <Gold.Chemscore.Internal_Hbond>
0.0000

> <Gold.Chemscore.DEClash>
1.6622

> <Gold.Chemscore.DEInternal>
0.8239

> <Gold.Chemscore.Rot>
2.9015

> <Gold.Chemscore.Internal.Correction>
   9.000000E+99

> <Gold.Chemscore.Hbonds>
donor molecule, donor type, donor heavy atom, donor atom, acceptor molecule, acceptor atom, score
      P1  H  6931  6943       L1     3  0.85
      P1  H  6934  6947       L1     3  0.85
      P1  H  7997  8010       L1    21  0.85
      P1  H 10752 10764       L1     9  1.00

> <Gold.Chemscore.Hbond.Weighted>
-11.4691

> <Gold.Chemscore.Metal.Weighted>
-0.0000

> <Gold.Chemscore.Lipo.Weighted>
-7.3724

> <Gold.Chemscore.Internal_Hbond.Weighted>
0.0000

> <Gold.Chemscore.DEClash.Weighted>
1.6622

> <Gold.Chemscore.DEInternal.Weighted>
0.8239

> <Gold.Chemscore.Rot.Weighted>
7.4278

> <Gold.Chemscore.Internal.Correction.Weighted>
   9.000000E+99

> <Gold.Protein.RotatedTorsions>
[ 6907 6896 6895 6894 ] final  -80.08 input  -60.11 | X-H torsion
[ 7974 7965 7964 7962 ] final  -60.55 input  175.53 | X-H torsion
[ 8008 7997 7996 7995 ] final   33.02 input   59.86 | X-H torsion
[ 10167 10162 10161 10158 ] final -177.80 input  -65.29 | X-H torsion
[ 10718 10713 10712 10709 ] final  154.66 input   66.30 | X-H torsion
[ 10763 10752 10751 10750 ] final  -50.90 input  -60.55 | X-H torsion
[ 11005 11000 10999 10996 ] final  -28.03 input  -57.11 | X-H torsion

> <Gold.Protein.ActiveResidues>
 VAL166  LYS551  ARG553  GLY616  TRP617  ASP618  TYR619  PRO620  LYS621  CYS622 
 ASP623  PHE694  ASN695  SER759  ASP760  ASP761  ALA762  ILE779  LEU786  VAL792 
 PHE793  MET794  SER795  GLU796  ALA797  LYS798  CYS799  TRP800  GLU811  SER814 

> <Gold.Protein.RotatedAtoms>
  150.6936  134.4024  159.5124 H   0  0  0  0  0  0  0  0  0  0  0  0  # atno 6907 bound_to 6896
  152.1795  134.8763  160.0537 H   0  0  0  0  0  0  0  0  0  0  0  0  # atno 6908 bound_to 6896
  151.9759  133.3706  159.4126 H   0  0  0  0  0  0  0  0  0  0  0  0  # atno 6909 bound_to 6896
  145.8141  140.8580  143.0166 H   0  0  0  0  0  0  0  0  0  0  0  0  # atno 7974 bound_to 7965
  155.1318  140.3258  155.4472 H   0  0  0  0  0  0  0  0  0  0  0  0  # atno 8008 bound_to 7997
  156.2632  140.2009  156.6386 H   0  0  0  0  0  0  0  0  0  0  0  0  # atno 8009 bound_to 7997
  154.6607  140.0547  157.0045 H   0  0  0  0  0  0  0  0  0  0  0  0  # atno 8010 bound_to 7997
  139.5463  144.2227  152.0994 H   0  0  0  0  0  0  0  0  0  0  0  0  # atno 10167 bound_to 10162
  157.2287  131.0734  151.1867 H   0  0  0  0  0  0  0  0  0  0  0  0  # atno 10718 bound_to 10713
  154.1179  135.6539  153.4897 H   0  0  0  0  0  0  0  0  0  0  0  0  # atno 10763 bound_to 10752
  153.0235  135.5263  154.7126 H   0  0  0  0  0  0  0  0  0  0  0  0  # atno 10764 bound_to 10752
  154.6325  135.2978  155.0169 H   0  0  0  0  0  0  0  0  0  0  0  0  # atno 10765 bound_to 10752
  140.9172  133.7422  156.0751 H   0  0  0  0  0  0  0  0  0  0  0  0  # atno 11005 bound_to 11000
  144.6754  140.0439  143.7480 LP  0  0  0  0  0  0  0  0  0  0  0  0  # atno 17320 bound_to 7965
  145.9745  139.2894  143.1079 LP  0  0  0  0  0  0  0  0  0  0  0  0  # atno 17321 bound_to 7965
  140.1714  144.4932  150.6577 LP  0  0  0  0  0  0  0  0  0  0  0  0  # atno 17342 bound_to 10162
  140.6712  143.2286  151.5621 LP  0  0  0  0  0  0  0  0  0  0  0  0  # atno 17343 bound_to 10162
  157.3501  130.7077  149.6435 LP  0  0  0  0  0  0  0  0  0  0  0  0  # atno 17370 bound_to 10713
  155.9677  130.4255  150.4656 LP  0  0  0  0  0  0  0  0  0  0  0  0  # atno 17371 bound_to 10713
  140.8034  134.3482  157.5433 LP  0  0  0  0  0  0  0  0  0  0  0  0  # atno 17394 bound_to 11000
  139.8768  134.9211  156.3268 LP  0  0  0  0  0  0  0  0  0  0  0  0  # atno 17395 bound_to 11000

$$$$
