AV-unprocessed.smi:3184|AV-procd|sdf|12161|dock4
  -GOLD-   2272017593D 1   1.00000     0.00000
 Structure written by MMmdl.
 35 36  0  0  0  0  0  0  0  0  2 V2000
  151.0843  139.4217  155.6132 C   0  0  0  0  0  0  0  0  0  0  0  0
  150.0537  140.5499  155.7517 C   0  0  2  0  0  0  0  0  0  0  0  0
  149.6201  141.0835  154.3695 C   0  0  0  0  0  0  0  0  0  0  0  0
  148.1727  141.2985  154.2686 N   0  0  0  0  0  0  0  0  0  0  0  0
  147.4082  142.1574  155.0157 C   0  0  0  0  0  0  0  0  0  0  0  0
  146.1207  142.0296  154.5623 C   0  0  0  0  0  0  0  0  0  0  0  0
  146.1528  141.0959  153.5615 N   0  3  0  0  0  0  0  0  0  0  0  0
  147.4006  140.6484  153.3878 C   0  0  0  0  0  0  0  0  0  0  0  0
  150.6299  141.6159  156.5701 N   0  0  0  0  0  0  0  0  0  0  0  0
  151.1640  141.4701  157.7960 C   0  0  0  0  0  0  0  0  0  0  0  0
  151.2211  140.3855  158.3767 O   0  0  0  0  0  0  0  0  0  0  0  0
  151.6205  142.6195  158.3386 N   0  0  0  0  0  0  0  0  0  0  0  0
  151.6528  143.9371  157.6964 C   0  0  0  0  0  0  0  0  0  0  0  0
  152.0142  144.9294  158.8019 C   0  0  0  0  0  0  0  0  0  0  0  0
  152.7714  144.0917  159.8222 C   0  0  0  0  0  0  0  0  0  0  0  0
  152.1502  142.7005  159.6986 C   0  0  0  0  0  0  0  0  0  0  0  0
  150.6794  138.5893  155.0369 H   0  0  0  0  0  0  0  0  0  0  0  0
  151.3751  139.0324  156.5897 H   0  0  0  0  0  0  0  0  0  0  0  0
  151.9878  139.7667  155.1091 H   0  0  0  0  0  0  0  0  0  0  0  0
  149.1827  140.1286  156.2572 H   0  0  0  0  0  0  0  0  0  0  0  0
  150.1318  142.0177  154.1318 H   0  0  0  0  0  0  0  0  0  0  0  0
  149.8891  140.3704  153.5892 H   0  0  0  0  0  0  0  0  0  0  0  0
  147.8280  142.7842  155.7891 H   0  0  0  0  0  0  0  0  0  0  0  0
  145.2086  142.5214  154.8678 H   0  0  0  0  0  0  0  0  0  0  0  0
  147.7222  139.9165  152.6684 H   0  0  0  0  0  0  0  0  0  0  0  0
  150.6313  142.5425  156.1691 H   0  0  0  0  0  0  0  0  0  0  0  0
  152.4189  143.9357  156.9195 H   0  0  0  0  0  0  0  0  0  0  0  0
  150.6990  144.1983  157.2354 H   0  0  0  0  0  0  0  0  0  0  0  0
  152.5937  145.7775  158.4368 H   0  0  0  0  0  0  0  0  0  0  0  0
  151.1020  145.3189  159.2559 H   0  0  0  0  0  0  0  0  0  0  0  0
  153.8258  144.0466  159.5468 H   0  0  0  0  0  0  0  0  0  0  0  0
  152.7071  144.4954  160.8331 H   0  0  0  0  0  0  0  0  0  0  0  0
  151.3284  142.5837  160.4068 H   0  0  0  0  0  0  0  0  0  0  0  0
  152.8853  141.9197  159.9003 H   0  0  0  0  0  0  0  0  0  0  0  0
  145.3498  140.7885  153.0271 H   0  0  0  0  0  0  0  0  0  0  0  0
  1  2  1  0  0  0  0
  1 17  1  0  0  0  0
  1 18  1  0  0  0  0
  1 19  1  0  0  0  0
  2  3  1  0  0  0  0
  2  9  1  0  0  0  0
  2 20  1  0  0  0  0
  3  4  1  0  0  0  0
  3 21  1  0  0  0  0
  3 22  1  0  0  0  0
  4  8  1  0  0  0  0
  4  5  1  0  0  0  0
  5  6  2  0  0  0  0
  5 23  1  0  0  0  0
  6  7  1  0  0  0  0
  6 24  1  0  0  0  0
  7  8  2  0  0  0  0
  7 35  1  0  0  0  0
  8 25  1  0  0  0  0
  9 10  1  0  0  0  0
  9 26  1  0  0  0  0
 10 11  2  0  0  0  0
 10 12  1  0  0  0  0
 12 16  1  0  0  0  0
 12 13  1  0  0  0  0
 13 14  1  0  0  0  0
 13 27  1  0  0  0  0
 13 28  1  0  0  0  0
 14 15  1  0  0  0  0
 14 29  1  0  0  0  0
 14 30  1  0  0  0  0
 15 16  1  0  0  0  0
 15 31  1  0  0  0  0
 15 32  1  0  0  0  0
 16 33  1  0  0  0  0
 16 34  1  0  0  0  0
M  CHG  1   7   1
M  END
> <s_m_source_file>
AV-unprocessed.smi

> <i_m_source_file_index>
3184

> <i_lp_mmshare_version>
43012

> <i_f3d_flags>
0

> <s_epik_input>
W2NIXTFuW2NIXVtjSF1uMVtDSDJdW0NAQEhdKFtDSDNdKVtOSF1DKD1PKU4yW0NIMl1bQ0gyXVtDSDJdW0NIMl0y

> <s_epik_cmdline>
J2VwaWtfcHl0aG9uJywgJy1waCcsICc3LjAnLCAnLXRuJywgJzgnLCAnLW1hJywgJzIwMCcsICctbWV0YWxfYmluZGluZycsICctaW1hZScsICc8aW5maWxlLm1hZT4nLCAnLW9tYWUnLCAnPG91dGZpbGUubWFlPic=

> <r_lp_tautomer_probability>
1

> <r_epik_Ionization_Penalty>
0.25331

> <r_epik_Ionization_Penalty_Charging>
0

> <r_epik_Ionization_Penalty_Neutral>
0.25331

> <r_epik_State_Penalty>
0.244676

> <r_epik_Charging_Adjusted_Penalty>
0.244676

> <i_epik_Tot_Q>
1

> <i_epik_Tot_abs_Q>
1

> <r_epik_Metal_State_Penalty>
0.535078

> <b_epik_Metal_Only>
0

> <s_lp_Force_Field>
OPLS_2005

> <r_lp_Energy>
36.6247

> <b_lp_Chiralities_Consistent>
1

> <s_lp_Variant>
AV-unprocessed.smi:3184-1

> <Gold.Version>
5.8.1

> <Gold.Id.Protein>
6NUR|6NUR_protein|mol2

> <Gold.PLP.Fitness>
46.7806

> <Gold.PLP.PLP>
-36.2109

> <Gold.PLP.part.hbond>
-1.0000

> <Gold.PLP.part.metal>
0.0000

> <Gold.PLP.part.buried>
-1.8532

> <Gold.PLP.part.nonpolar>
-34.0148

> <Gold.PLP.part.repulsive>
0.0717

> <Gold.PLP.ligand.clash>
0.0000

> <Gold.PLP.ligand.torsion>
0.6439

> <Gold.PLP.Chemscore.Hbond>
2.0000

> <Gold.PLP.Chemscore.CHOScore>
1.9449

> <Gold.PLP.Chemscore.Metal>
0.0000

> <Gold.Chemscore.Hbonds>
donor molecule, donor type, donor heavy atom, donor atom, acceptor molecule, acceptor atom, score
      L1  H     7    35       P1 10175  2.00
      L1  C     5    23       P1  8028  1.00
      L1  C     8    25       P1  7957  0.97

> <Gold.PLP.Chemscore.Internal.Correction>
0.0227

> <Gold.Rescore>
     Score         DG    S(hbond)    S(metal)    S(lipo)     H(rot)  DE(clash)    DE(int)     intcor
     12.10     -13.84       0.98        0.00      79.52       1.65       0.03       1.72       ----

> <Gold.Chemscore.Fitness>
12.0971

> <Gold.Chemscore.DG>
-13.8446

> <Gold.Chemscore.ZeroCoef>
-5.4800

> <Gold.Chemscore.Hbond>
0.9843

> <Gold.Chemscore.Metal>
0.0000

> <Gold.Chemscore.Lipo>
79.5235

> <Gold.Chemscore.Internal_Hbond>
0.0000

> <Gold.Chemscore.DEClash>
0.0285

> <Gold.Chemscore.DEInternal>
1.7190

> <Gold.Chemscore.Rot>
1.6513

> <Gold.Chemscore.Internal.Correction>
   9.000000E+99

> <Gold.Chemscore.Hbonds>
donor molecule, donor type, donor heavy atom, donor atom, acceptor molecule, acceptor atom, score
      L1  H     7    35       P1 10175  0.60

> <Gold.Chemscore.Hbond.Weighted>
-3.2876

> <Gold.Chemscore.Metal.Weighted>
-0.0000

> <Gold.Chemscore.Lipo.Weighted>
-9.3042

> <Gold.Chemscore.Internal_Hbond.Weighted>
0.0000

> <Gold.Chemscore.DEClash.Weighted>
0.0285

> <Gold.Chemscore.DEInternal.Weighted>
1.7190

> <Gold.Chemscore.Rot.Weighted>
4.2273

> <Gold.Chemscore.Internal.Correction.Weighted>
   9.000000E+99

> <Gold.Protein.RotatedTorsions>
[ 6907 6896 6895 6894 ] final   10.31 input  -60.11 | X-H torsion
[ 7974 7965 7964 7962 ] final  -61.54 input  175.53 | X-H torsion
[ 8008 7997 7996 7995 ] final   27.13 input   59.86 | X-H torsion
[ 10167 10162 10161 10158 ] final   28.47 input  -65.29 | X-H torsion
[ 10718 10713 10712 10709 ] final  169.51 input   66.30 | X-H torsion
[ 10763 10752 10751 10750 ] final  -24.07 input  -60.55 | X-H torsion
[ 11005 11000 10999 10996 ] final  -20.79 input  -57.11 | X-H torsion

> <Gold.Protein.ActiveResidues>
 VAL166  LYS551  ARG553  GLY616  TRP617  ASP618  TYR619  PRO620  LYS621  CYS622 
 ASP623  PHE694  ASN695  SER759  ASP760  ASP761  ALA762  ILE779  LEU786  VAL792 
 PHE793  MET794  SER795  GLU796  ALA797  LYS798  CYS799  TRP800  GLU811  SER814 

> <Gold.Protein.RotatedAtoms>
  151.7363  135.0864  160.0308 H   0  0  0  0  0  0  0  0  0  0  0  0  # atno 6907 bound_to 6896
  152.3509  133.6174  159.5952 H   0  0  0  0  0  0  0  0  0  0  0  0  # atno 6908 bound_to 6896
  150.7539  133.9492  159.3522 H   0  0  0  0  0  0  0  0  0  0  0  0  # atno 6909 bound_to 6896
  145.8022  140.8648  143.0225 H   0  0  0  0  0  0  0  0  0  0  0  0  # atno 7974 bound_to 7965
  155.0381  140.3166  155.4734 H   0  0  0  0  0  0  0  0  0  0  0  0  # atno 8008 bound_to 7997
  156.2860  140.2168  156.5447 H   0  0  0  0  0  0  0  0  0  0  0  0  # atno 8009 bound_to 7997
  154.7313  140.0481  157.0717 H   0  0  0  0  0  0  0  0  0  0  0  0  # atno 8010 bound_to 7997
  140.4849  144.0558  150.6277 H   0  0  0  0  0  0  0  0  0  0  0  0  # atno 10167 bound_to 10162
  157.0216  131.0233  151.2773 H   0  0  0  0  0  0  0  0  0  0  0  0  # atno 10718 bound_to 10713
  153.6779  135.6968  153.5127 H   0  0  0  0  0  0  0  0  0  0  0  0  # atno 10763 bound_to 10752
  153.2507  135.4276  155.0794 H   0  0  0  0  0  0  0  0  0  0  0  0  # atno 10764 bound_to 10752
  154.8408  135.3530  154.6323 H   0  0  0  0  0  0  0  0  0  0  0  0  # atno 10765 bound_to 10752
  140.8498  133.7865  155.9954 H   0  0  0  0  0  0  0  0  0  0  0  0  # atno 11005 bound_to 11000
  144.6767  140.0276  143.7483 LP  0  0  0  0  0  0  0  0  0  0  0  0  # atno 17320 bound_to 7965
  145.9865  139.2982  143.1010 LP  0  0  0  0  0  0  0  0  0  0  0  0  # atno 17321 bound_to 7965
  140.3810  143.2802  152.0170 LP  0  0  0  0  0  0  0  0  0  0  0  0  # atno 17342 bound_to 10162
  139.4840  144.6154  151.7355 LP  0  0  0  0  0  0  0  0  0  0  0  0  # atno 17343 bound_to 10162
  157.5245  130.8019  149.7846 LP  0  0  0  0  0  0  0  0  0  0  0  0  # atno 17370 bound_to 10713
  156.0100  130.3837  150.2297 LP  0  0  0  0  0  0  0  0  0  0  0  0  # atno 17371 bound_to 10713
  140.8802  134.2620  157.5148 LP  0  0  0  0  0  0  0  0  0  0  0  0  # atno 17394 bound_to 11000
  139.8704  134.9611  156.4386 LP  0  0  0  0  0  0  0  0  0  0  0  0  # atno 17395 bound_to 11000

$$$$
