#       Name:                AV-unprocessed.smi:72
#       Creating user name   scv26
#       Creation time:       Thu Mar 26 17:08:52 2020


#       File generated by GOLD software.
#

@<TRIPOS>MOLECULE
AV-unprocessed.smi:72
    41    42     1
SMALL
NO_CHARGES


@<TRIPOS>ATOM
      1 ****        -5.0771  -0.0744  -0.1267 N.pl3          1 S1                 0.0000
      2 ****        -3.7225  -0.3228  -0.1934 C.2            1 S1                 0.0000
      3 ****        -2.9483   0.6258  -0.8743 N.2            1 S1                 0.0000
      4 ****        -1.6732   0.4048  -0.9264 C.2            1 S1                 0.0000
      5 ****        -1.0774  -0.7564  -0.2826 N.am           1 S1                 0.0000
      6 ****         0.4125  -1.0610  -0.3473 C.3            1 S1                 0.0000
      7 ****         1.0764  -0.0905  -1.1007 O.3            1 S1                 0.0000
      8 ****         1.5724   0.9263  -0.2387 C.3            1 S1                 0.0000
      9 ****         2.6808   1.7193  -0.9468 C.3            1 S1                 0.0000
     10 ****         2.1101   2.7097  -1.7753 O.3            1 S1                 0.0000
     11 ****         2.0653   0.1142   0.9600 C.3            1 S1                 0.0000
     12 ****         2.0370   0.9034   2.1322 O.3            1 S1                 0.0000
     13 ****         1.0587  -1.0315   1.0565 C.3            1 S1                 0.0000
     14 ****         1.7273  -2.2422   1.3462 O.3            1 S1                 0.0000
     15 ****        -1.9348  -1.7045   0.3440 C.2            1 S1                 0.0000
     16 ****        -1.4671  -2.7341   0.8305 O.2            1 S1                 0.0000
     17 ****        -3.3034  -1.4139   0.3793 N.2            1 S1                 0.0000
     18 ****         0.4725  -2.0264  -0.8533 H              1 S1                 0.0000
     19 ****         0.7589   1.5847   0.0723 H              1 S1                 0.0000
     20 ****         3.0736  -0.2601   0.7740 H              1 S1                 0.0000
     21 ****         0.3016  -0.8339   1.8172 H              1 S1                 0.0000
     22 ****        -5.7321  -0.6885   0.3351 H              1 S1                 0.0000
     23 ****        -5.5146   0.7368  -0.5387 H              1 S1                 0.0000
     24 ****        -0.9860   1.0678  -1.4519 H              1 S1                 0.0000
     25 ****         3.3055   2.2280  -0.2119 H              1 S1                 0.0000
     26 ****         3.3304   1.0641  -1.5277 H              1 S1                 0.0000
     27 ****         2.8078   3.1952  -2.1883 H              1 S1                 0.0000
     28 ****         2.2833   0.3590   2.8646 H              1 S1                 0.0000
     29 ****         2.3615  -2.4050   0.6647 H              1 S1                 0.0000
     30 ****        -3.3594   1.4326  -1.2986 LP             1 S1                 0.0000
     31 ****         0.4405   0.3123  -1.7590 LP             1 S1                 0.0000
     32 ****         1.8392  -0.5133  -1.5900 LP             1 S1                 0.0000
     33 ****         1.5495   3.3279  -1.2244 LP             1 S1                 0.0000
     34 ****         1.5407   2.2772  -2.4744 LP             1 S1                 0.0000
     35 ****         1.1151   1.2639   2.2744 LP             1 S1                 0.0000
     36 ****         2.6818   1.6626   2.0438 LP             1 S1                 0.0000
     37 ****         1.0671  -2.9926   1.3789 LP             1 S1                 0.0000
     38 ****         2.1918  -2.1682   2.2286 LP             1 S1                 0.0000
     39 ****        -0.4830  -2.9059   0.7860 LP             1 S1                 0.0000
     40 ****        -2.0713  -3.3987   1.2701 LP             1 S1                 0.0000
     41 ****        -3.9452  -2.0310   0.8345 LP             1 S1                 0.0000
@<TRIPOS>BOND
    1    1    2 1     
    2    1   22 1     
    3    1   23 1     
    4    2   17 2     
    5    2    3 1     
    6    3    4 2     
    7    4    5 1     
    8    4   24 1     
    9    5    6 1     
   10    5   15 am    
   11    6   18 1     
   12    6   13 1     
   13    6    7 1     
   14    7    8 1     
   15    8   19 1     
   16    8    9 1     
   17    8   11 1     
   18    9   10 1     
   19    9   25 1     
   20    9   26 1     
   21   10   27 1     
   22   11   20 1     
   23   11   12 1     
   24   11   13 1     
   25   12   28 1     
   26   13   21 1     
   27   13   14 1     
   28   14   29 1     
   29   15   16 2     
   30   15   17 1     
   31    3   30 1     
   32    7   31 1     
   33    7   32 1     
   34   10   33 1     
   35   10   34 1     
   36   12   35 1     
   37   12   36 1     
   38   14   37 1     
   39   14   38 1     
   40   16   39 1     
   41   16   40 1     
   42   17   41 1     
@<TRIPOS>SUBSTRUCTURE
      1 S1             1
@<TRIPOS>SET
LONE_PAIRS      STATIC     ATOMS    <user>   **** ""
12 30 31 32 33 34 35 36 37 38 39 40 41
DONOR_HYDROGENS      STATIC     ATOMS    <user>   **** ""
5 22 23 27 28 29
ATOM$BLUE        STATIC     ATOMS    COLORGROUP SYSTEM
12 30 31 32 33 34 35 36 37 38 39 40 41
ATOM$RED        STATIC     ATOMS    COLORGROUP SYSTEM
5 22 23 27 28 29
