AV-unprocessed.smi:160|AV-procd|sdf|1366|dock10
  -GOLD-   2262019 83D 1   1.00000     0.00000
 Structure written by MMmdl.
 28 29  0  0  0  0  0  0  0  0  2 V2000
  152.9200  136.8151  160.2463 N   0  5  0  0  0  0  0  0  0  0  0  0
  153.4720  137.6955  159.3828 C   0  0  0  0  0  0  0  0  0  0  0  0
  154.6672  137.9741  159.2916 O   0  0  0  0  0  0  0  0  0  0  0  0
  152.4847  138.3724  158.4623 C   0  0  0  0  0  0  0  0  0  0  0  0
  151.1638  138.0181  158.4719 N   0  0  0  0  0  0  0  0  0  0  0  0
  150.7132  138.8558  157.5477 C   0  0  0  0  0  0  0  0  0  0  0  0
  151.6529  139.6397  157.0106 N   0  0  0  0  0  0  0  0  0  0  0  0
  151.5230  140.7150  155.9708 C   0  0  1  0  0  0  0  0  0  0  0  0
  151.0216  140.1222  154.8131 O   0  0  0  0  0  0  0  0  0  0  0  0
  149.6468  140.4553  154.6086 C   0  0  1  0  0  0  0  0  0  0  0  0
  148.8179  139.1757  154.4053 C   0  0  0  0  0  0  0  0  0  0  0  0
  149.2205  138.5169  153.2232 O   0  0  0  0  0  0  0  0  0  0  0  0
  149.2156  141.2744  155.8380 C   0  0  2  0  0  0  0  0  0  0  0  0
  148.3611  142.3321  155.4489 O   0  0  0  0  0  0  0  0  0  0  0  0
  150.5322  141.8192  156.3727 C   0  0  1  0  0  0  0  0  0  0  0  0
  150.4748  142.0618  157.7667 O   0  0  0  0  0  0  0  0  0  0  0  0
  152.8320  139.3402  157.6091 N   0  0  0  0  0  0  0  0  0  0  0  0
  152.5425  141.0742  155.8273 H   0  0  0  0  0  0  0  0  0  0  0  0
  149.5977  141.0864  153.7189 H   0  0  0  0  0  0  0  0  0  0  0  0
  148.7214  140.6420  156.5773 H   0  0  0  0  0  0  0  0  0  0  0  0
  150.8190  142.7287  155.8424 H   0  0  0  0  0  0  0  0  0  0  0  0
  153.0646  136.9615  161.2524 H   0  0  0  0  0  0  0  0  0  0  0  0
  149.6742  138.8992  157.2568 H   0  0  0  0  0  0  0  0  0  0  0  0
  148.9004  138.5034  155.2593 H   0  0  0  0  0  0  0  0  0  0  0  0
  147.7626  139.4261  154.2934 H   0  0  0  0  0  0  0  0  0  0  0  0
  149.6548  139.1442  152.6657 H   0  0  0  0  0  0  0  0  0  0  0  0
  148.8179  143.1492  155.5773 H   0  0  0  0  0  0  0  0  0  0  0  0
  150.7551  142.9489  157.9309 H   0  0  0  0  0  0  0  0  0  0  0  0
  1  2  1  0  0  0  0
  1 22  1  0  0  0  0
  2  3  2  0  0  0  0
  2  4  1  0  0  0  0
  4 17  2  0  0  0  0
  4  5  1  0  0  0  0
  5  6  2  0  0  0  0
  6  7  1  0  0  0  0
  6 23  1  0  0  0  0
  7  8  1  0  0  0  0
  7 17  1  0  0  0  0
  8 18  1  0  0  0  0
  8 15  1  0  0  0  0
  8  9  1  0  0  0  0
  9 10  1  0  0  0  0
 10 19  1  0  0  0  0
 10 11  1  0  0  0  0
 10 13  1  0  0  0  0
 11 12  1  0  0  0  0
 11 24  1  0  0  0  0
 11 25  1  0  0  0  0
 12 26  1  0  0  0  0
 13 20  1  0  0  0  0
 13 14  1  0  0  0  0
 13 15  1  0  0  0  0
 14 27  1  0  0  0  0
 15 21  1  0  0  0  0
 15 16  1  0  0  0  0
 16 28  1  0  0  0  0
M  CHG  1   1  -1
M  END
> <s_m_source_file>
AV-unprocessed.smi

> <i_m_source_file_index>
160

> <i_lp_mmshare_version>
43012

> <i_f3d_flags>
0

> <s_epik_input>
W05IMl1DKD1PKWMxbltjSF1uKG4xKVtDQEBIXTJPW0NASF0oW0NIMl1bT0hdKVtDQEBIXShbT0hdKVtDQEhdMltPSF0=

> <s_epik_cmdline>
J2VwaWtfcHl0aG9uJywgJy1waCcsICc3LjAnLCAnLXRuJywgJzgnLCAnLW1hJywgJzIwMCcsICctbWV0YWxfYmluZGluZycsICctaW1hZScsICc8aW5maWxlLm1hZT4nLCAnLW9tYWUnLCAnPG91dGZpbGUubWFlPic=

> <r_lp_tautomer_probability>
1

> <r_epik_Ionization_Penalty>
6.6993

> <r_epik_Ionization_Penalty_Charging>
6.6993

> <r_epik_Ionization_Penalty_Neutral>
6.01698e-06

> <r_epik_State_Penalty>
6.69929

> <r_epik_Charging_Adjusted_Penalty>
13.3986

> <i_epik_Tot_Q>
-1

> <i_epik_Tot_abs_Q>
1

> <r_epik_Metal_State_Penalty>
2.62798

> <b_epik_Metal_Only>
1

> <s_epik_Chemistry_Notes>
This compound contains an acetal/aminal-like group ( X-CH(R)-Y where X, Y are N, S, or O) that may be acid/base labile, releasing an aldehyde.

> <s_lp_Force_Field>
OPLS_2005

> <r_lp_Energy>
43.6415

> <b_lp_Chiralities_Consistent>
1

> <s_lp_Variant>
AV-unprocessed.smi:160-24

> <Gold.Version>
5.8.1

> <Gold.Id.Protein>
6NUR|6NUR_protein|mol2

> <Gold.PLP.Fitness>
42.0539

> <Gold.PLP.PLP>
-24.0882

> <Gold.PLP.part.hbond>
-5.7729

> <Gold.PLP.part.metal>
0.0000

> <Gold.PLP.part.buried>
-4.3723

> <Gold.PLP.part.nonpolar>
-13.4105

> <Gold.PLP.part.repulsive>
0.0719

> <Gold.PLP.ligand.clash>
0.0000

> <Gold.PLP.ligand.torsion>
0.0234

> <Gold.PLP.Chemscore.Hbond>
6.0000

> <Gold.PLP.Chemscore.CHOScore>
0.0000

> <Gold.PLP.Chemscore.Metal>
0.0000

> <Gold.Chemscore.Hbonds>
donor molecule, donor type, donor heavy atom, donor atom, acceptor molecule, acceptor atom, score
      L1  H    12    26       P1  7957  0.93
      L1  H    14    27       P1  8028  1.00
      P1  H  6896  6907       L1     1  2.00
      P1  H  7989  7998       L1     9  0.90
      P1  H  7997  8008       L1    17  1.00

> <Gold.PLP.Chemscore.Internal.Correction>
0.0126

> <Gold.Rescore>
     Score         DG    S(hbond)    S(metal)    S(lipo)     H(rot)  DE(clash)    DE(int)     intcor
     11.15     -11.34       3.98        0.00      24.81       4.04       0.00       0.19       ----

> <Gold.Chemscore.Fitness>
11.1465

> <Gold.Chemscore.DG>
-11.3434

> <Gold.Chemscore.ZeroCoef>
-5.4800

> <Gold.Chemscore.Hbond>
3.9833

> <Gold.Chemscore.Metal>
0.0000

> <Gold.Chemscore.Lipo>
24.8055

> <Gold.Chemscore.Internal_Hbond>
0.0000

> <Gold.Chemscore.DEClash>
0.0048

> <Gold.Chemscore.DEInternal>
0.1921

> <Gold.Chemscore.Rot>
4.0403

> <Gold.Chemscore.Internal.Correction>
   9.000000E+99

> <Gold.Chemscore.Hbonds>
donor molecule, donor type, donor heavy atom, donor atom, acceptor molecule, acceptor atom, score
      L1  H    12    26       P1  7957  0.86
      L1  H    14    27       P1  8028  0.93
      P1  H  6896  6907       L1     1  0.59
      P1  H  7989  7998       L1     9  0.13
      P1  H  7997  8008       L1    17  0.75

> <Gold.Chemscore.Hbond.Weighted>
-13.3042

> <Gold.Chemscore.Metal.Weighted>
-0.0000

> <Gold.Chemscore.Lipo.Weighted>
-2.9022

> <Gold.Chemscore.Internal_Hbond.Weighted>
0.0000

> <Gold.Chemscore.DEClash.Weighted>
0.0048

> <Gold.Chemscore.DEInternal.Weighted>
0.1921

> <Gold.Chemscore.Rot.Weighted>
10.3431

> <Gold.Chemscore.Internal.Correction.Weighted>
   9.000000E+99

> <Gold.Protein.RotatedTorsions>
[ 6907 6896 6895 6894 ] final   20.90 input  -60.11 | X-H torsion
[ 7974 7965 7964 7962 ] final   49.05 input  175.53 | X-H torsion
[ 8008 7997 7996 7995 ] final  -55.10 input   59.86 | X-H torsion
[ 10167 10162 10161 10158 ] final -118.16 input  -65.29 | X-H torsion
[ 10718 10713 10712 10709 ] final   15.83 input   66.30 | X-H torsion
[ 10763 10752 10751 10750 ] final  145.90 input  -60.55 | X-H torsion
[ 11005 11000 10999 10996 ] final -149.31 input  -57.11 | X-H torsion

> <Gold.Protein.ActiveResidues>
 VAL166  LYS551  ARG553  GLY616  TRP617  ASP618  TYR619  PRO620  LYS621  CYS622 
 ASP623  PHE694  ASN695  SER759  ASP760  ASP761  ALA762  ILE779  LEU786  VAL792 
 PHE793  MET794  SER795  GLU796  ALA797  LYS798  CYS799  TRP800  GLU811  SER814 

> <Gold.Protein.RotatedAtoms>
  151.9034  135.0369  160.0508 H   0  0  0  0  0  0  0  0  0  0  0  0  # atno 6907 bound_to 6896
  152.2339  133.5076  159.5240 H   0  0  0  0  0  0  0  0  0  0  0  0  # atno 6908 bound_to 6896
  150.7033  134.1096  159.4038 H   0  0  0  0  0  0  0  0  0  0  0  0  # atno 6909 bound_to 6896
  146.0146  139.4581  142.9935 H   0  0  0  0  0  0  0  0  0  0  0  0  # atno 7974 bound_to 7965
  154.4184  140.1160  156.5423 H   0  0  0  0  0  0  0  0  0  0  0  0  # atno 8008 bound_to 7997
  155.6495  140.3496  155.4724 H   0  0  0  0  0  0  0  0  0  0  0  0  # atno 8009 bound_to 7997
  155.9804  140.1159  157.0721 H   0  0  0  0  0  0  0  0  0  0  0  0  # atno 8010 bound_to 7997
  140.0606  143.4972  152.2034 H   0  0  0  0  0  0  0  0  0  0  0  0  # atno 10167 bound_to 10162
  157.0592  130.6302  149.5782 H   0  0  0  0  0  0  0  0  0  0  0  0  # atno 10718 bound_to 10713
  154.0130  135.2913  155.3390 H   0  0  0  0  0  0  0  0  0  0  0  0  # atno 10763 bound_to 10752
  154.7092  135.5156  153.8644 H   0  0  0  0  0  0  0  0  0  0  0  0  # atno 10764 bound_to 10752
  153.0715  135.6649  154.0359 H   0  0  0  0  0  0  0  0  0  0  0  0  # atno 10765 bound_to 10752
  140.7521  134.3395  157.5123 H   0  0  0  0  0  0  0  0  0  0  0  0  # atno 11005 bound_to 11000
  145.7289  141.0049  143.1362 LP  0  0  0  0  0  0  0  0  0  0  0  0  # atno 17320 bound_to 7965
  144.6966  139.8960  143.7456 LP  0  0  0  0  0  0  0  0  0  0  0  0  # atno 17321 bound_to 7965
  139.5896  144.7545  151.3433 LP  0  0  0  0  0  0  0  0  0  0  0  0  # atno 17342 bound_to 10162
  140.7174  143.7230  150.7681 LP  0  0  0  0  0  0  0  0  0  0  0  0  # atno 17343 bound_to 10162
  155.9984  130.5057  150.7568 LP  0  0  0  0  0  0  0  0  0  0  0  0  # atno 17370 bound_to 10713
  157.4968  131.0915  151.0361 LP  0  0  0  0  0  0  0  0  0  0  0  0  # atno 17371 bound_to 10713
  139.8786  134.9148  156.3116 LP  0  0  0  0  0  0  0  0  0  0  0  0  # atno 17394 bound_to 11000
  140.9741  133.7308  156.0577 LP  0  0  0  0  0  0  0  0  0  0  0  0  # atno 17395 bound_to 11000

$$$$
