AV-unprocessed.smi:3196|AV-procd|sdf|12223|dock1
  -GOLD-   2272018 53D 1   1.00000     0.00000
 Structure written by MMmdl.
 33 34  0  0  0  0  0  0  0  0  1 V2000
  154.0089  141.5398  160.5080 C   0  0  0  0  0  0  0  0  0  0  0  0
  152.7925  142.2997  161.0474 C   0  0  0  0  0  0  0  0  0  0  0  0
  151.9089  142.8657  159.9275 C   0  0  0  0  0  0  0  0  0  0  0  0
  152.5741  144.0161  159.1924 C   0  0  2  0  0  0  0  0  0  0  0  0
  151.8320  145.2991  158.9291 C   0  0  0  0  0  0  0  0  0  0  0  0
  152.2017  144.3934  157.7718 C   0  0  2  0  0  0  0  0  0  0  0  0
  151.1313  143.6972  157.1205 N   0  0  0  0  0  0  0  0  0  0  0  0
  150.9586  142.3682  157.0091 C   0  0  0  0  0  0  0  0  0  0  0  0
  151.7885  141.5852  157.4652 O   0  0  0  0  0  0  0  0  0  0  0  0
  149.8468  142.0125  156.3344 N   0  0  0  0  0  0  0  0  0  0  0  0
  149.3439  140.7205  156.0140 C   0  0  0  0  0  0  0  0  0  0  0  0
  149.5886  139.5452  156.7666 C   0  0  0  0  0  0  0  0  0  0  0  0
  149.0193  138.3322  156.3292 C   0  0  0  0  0  0  0  0  0  0  0  0
  148.2451  138.2260  155.2289 N   0  0  0  0  0  0  0  0  0  0  0  0
  148.0087  139.3480  154.5173 C   0  0  0  0  0  0  0  0  0  0  0  0
  148.5304  140.6098  154.8659 C   0  0  0  0  0  0  0  0  0  0  0  0
  148.2519  141.6967  154.1060 F   0  0  0  0  0  0  0  0  0  0  0  0
  154.6170  141.1505  161.3247 H   0  0  0  0  0  0  0  0  0  0  0  0
  154.6414  142.1888  159.9019 H   0  0  0  0  0  0  0  0  0  0  0  0
  153.7029  140.6961  159.8891 H   0  0  0  0  0  0  0  0  0  0  0  0
  152.2021  141.6331  161.6769 H   0  0  0  0  0  0  0  0  0  0  0  0
  153.1330  143.1117  161.6911 H   0  0  0  0  0  0  0  0  0  0  0  0
  151.6768  142.0833  159.2043 H   0  0  0  0  0  0  0  0  0  0  0  0
  150.9588  143.1998  160.3461 H   0  0  0  0  0  0  0  0  0  0  0  0
  153.6310  144.1197  159.4311 H   0  0  0  0  0  0  0  0  0  0  0  0
  150.7853  145.3474  159.2244 H   0  0  0  0  0  0  0  0  0  0  0  0
  152.3870  146.2287  159.0377 H   0  0  0  0  0  0  0  0  0  0  0  0
  153.0059  144.7706  157.1419 H   0  0  0  0  0  0  0  0  0  0  0  0
  150.4602  144.2788  156.6398 H   0  0  0  0  0  0  0  0  0  0  0  0
  149.2883  142.7793  155.9884 H   0  0  0  0  0  0  0  0  0  0  0  0
  150.1877  139.5394  157.6625 H   0  0  0  0  0  0  0  0  0  0  0  0
  149.1897  137.4203  156.8823 H   0  0  0  0  0  0  0  0  0  0  0  0
  147.3835  139.2373  153.6438 H   0  0  0  0  0  0  0  0  0  0  0  0
  1  2  1  0  0  0  0
  1 18  1  0  0  0  0
  1 19  1  0  0  0  0
  1 20  1  0  0  0  0
  2  3  1  0  0  0  0
  2 21  1  0  0  0  0
  2 22  1  0  0  0  0
  3  4  1  0  0  0  0
  3 23  1  0  0  0  0
  3 24  1  0  0  0  0
  4  6  1  0  0  0  0
  4  5  1  0  0  0  0
  4 25  1  0  0  0  0
  5  6  1  0  0  0  0
  5 26  1  0  0  0  0
  5 27  1  0  0  0  0
  6  7  1  0  0  0  0
  6 28  1  0  0  0  0
  7  8  1  0  0  0  0
  7 29  1  0  0  0  0
  8  9  2  0  0  0  0
  8 10  1  0  0  0  0
 10 11  1  0  0  0  0
 10 30  1  0  0  0  0
 11 16  1  0  0  0  0
 11 12  2  0  0  0  0
 12 13  1  0  0  0  0
 12 31  1  0  0  0  0
 13 14  2  0  0  0  0
 13 32  1  0  0  0  0
 14 15  1  0  0  0  0
 15 16  2  0  0  0  0
 15 33  1  0  0  0  0
 16 17  1  0  0  0  0
M  END
> <s_m_source_file>
AV-unprocessed.smi

> <i_m_source_file_index>
3196

> <i_lp_mmshare_version>
43012

> <i_f3d_flags>
0

> <s_epik_input>
W0NIM11bQ0gyXVtDSDJdW0NAQEhdMVtDSDJdW0NASF0xW05IXUMoPU8pW05IXWMyW2NIXVtjSF1uW2NIXWMyRg==

> <s_epik_cmdline>
J2VwaWtfcHl0aG9uJywgJy1waCcsICc3LjAnLCAnLXRuJywgJzgnLCAnLW1hJywgJzIwMCcsICctbWV0YWxfYmluZGluZycsICctaW1hZScsICc8aW5maWxlLm1hZT4nLCAnLW9tYWUnLCAnPG91dGZpbGUubWFlPic=

> <r_epik_Ionization_Penalty>
0.00341997

> <r_epik_Ionization_Penalty_Charging>
0

> <r_epik_Ionization_Penalty_Neutral>
0.00341997

> <r_epik_State_Penalty>
0.00239198

> <r_epik_Charging_Adjusted_Penalty>
0.00239198

> <i_epik_Tot_Q>
0

> <i_epik_Tot_abs_Q>
0

> <r_epik_Metal_State_Penalty>
-0

> <b_epik_Metal_Only>
0

> <s_lp_Force_Field>
OPLS_2005

> <r_lp_Energy>
35.1312

> <b_lp_Chiralities_Consistent>
1

> <s_lp_Variant>
AV-unprocessed.smi:3196-3

> <Gold.Version>
5.8.1

> <Gold.Id.Protein>
6NUR|6NUR_protein|mol2

> <Gold.PLP.Fitness>
42.0893

> <Gold.PLP.PLP>
-36.8734

> <Gold.PLP.part.hbond>
-2.0000

> <Gold.PLP.part.metal>
0.0000

> <Gold.PLP.part.buried>
-3.1304

> <Gold.PLP.part.nonpolar>
-31.5988

> <Gold.PLP.part.repulsive>
0.1671

> <Gold.PLP.ligand.clash>
0.0000

> <Gold.PLP.ligand.torsion>
0.6909

> <Gold.PLP.Chemscore.Hbond>
2.0000

> <Gold.PLP.Chemscore.CHOScore>
0.0000

> <Gold.PLP.Chemscore.Metal>
0.0000

> <Gold.Chemscore.Hbonds>
donor molecule, donor type, donor heavy atom, donor atom, acceptor molecule, acceptor atom, score
      L1  H     7    29       P1  8028  1.00
      L1  H    10    30       P1  8028  1.00

> <Gold.PLP.Chemscore.Internal.Correction>
0.5978

> <Gold.Rescore>
     Score         DG    S(hbond)    S(metal)    S(lipo)     H(rot)  DE(clash)    DE(int)     intcor
     18.18     -19.18       1.95        0.00      91.80       1.39       0.21       0.79       ----

> <Gold.Chemscore.Fitness>
18.1758

> <Gold.Chemscore.DG>
-19.1794

> <Gold.Chemscore.ZeroCoef>
-5.4800

> <Gold.Chemscore.Hbond>
1.9476

> <Gold.Chemscore.Metal>
0.0000

> <Gold.Chemscore.Lipo>
91.7990

> <Gold.Chemscore.Internal_Hbond>
0.0000

> <Gold.Chemscore.DEClash>
0.2096

> <Gold.Chemscore.DEInternal>
0.7939

> <Gold.Chemscore.Rot>
1.3852

> <Gold.Chemscore.Internal.Correction>
   9.000000E+99

> <Gold.Chemscore.Hbonds>
donor molecule, donor type, donor heavy atom, donor atom, acceptor molecule, acceptor atom, score
      L1  H     7    29       P1  8028  0.99
      L1  H    10    30       P1  8028  0.93

> <Gold.Chemscore.Hbond.Weighted>
-6.5049

> <Gold.Chemscore.Metal.Weighted>
-0.0000

> <Gold.Chemscore.Lipo.Weighted>
-10.7405

> <Gold.Chemscore.Internal_Hbond.Weighted>
0.0000

> <Gold.Chemscore.DEClash.Weighted>
0.2096

> <Gold.Chemscore.DEInternal.Weighted>
0.7939

> <Gold.Chemscore.Rot.Weighted>
3.5460

> <Gold.Chemscore.Internal.Correction.Weighted>
   9.000000E+99

> <Gold.Protein.RotatedTorsions>
[ 6907 6896 6895 6894 ] final -138.53 input  -60.11 | X-H torsion
[ 7974 7965 7964 7962 ] final  -23.50 input  175.53 | X-H torsion
[ 8008 7997 7996 7995 ] final  -55.25 input   59.86 | X-H torsion
[ 10167 10162 10161 10158 ] final  -45.72 input  -65.29 | X-H torsion
[ 10718 10713 10712 10709 ] final -133.44 input   66.30 | X-H torsion
[ 10763 10752 10751 10750 ] final  -55.90 input  -60.55 | X-H torsion
[ 11005 11000 10999 10996 ] final -127.55 input  -57.11 | X-H torsion

> <Gold.Protein.ActiveResidues>
 VAL166  LYS551  ARG553  GLY616  TRP617  ASP618  TYR619  PRO620  LYS621  CYS622 
 ASP623  PHE694  ASN695  SER759  ASP760  ASP761  ALA762  ILE779  LEU786  VAL792 
 PHE793  MET794  SER795  GLU796  ALA797  LYS798  CYS799  TRP800  GLU811  SER814 

> <Gold.Protein.RotatedAtoms>
  151.0362  133.5746  159.2655 H   0  0  0  0  0  0  0  0  0  0  0  0  # atno 6907 bound_to 6896
  151.2810  135.0713  159.9179 H   0  0  0  0  0  0  0  0  0  0  0  0  # atno 6908 bound_to 6896
  152.5355  134.0076  159.7977 H   0  0  0  0  0  0  0  0  0  0  0  0  # atno 6909 bound_to 6896
  146.1612  140.4624  142.8570 H   0  0  0  0  0  0  0  0  0  0  0  0  # atno 7974 bound_to 7965
  154.4188  140.1157  156.5446 H   0  0  0  0  0  0  0  0  0  0  0  0  # atno 8008 bound_to 7997
  155.6473  140.3496  155.4716 H   0  0  0  0  0  0  0  0  0  0  0  0  # atno 8009 bound_to 7997
  155.9822  140.1162  157.0706 H   0  0  0  0  0  0  0  0  0  0  0  0  # atno 8010 bound_to 7997
  140.6847  143.2866  151.3679 H   0  0  0  0  0  0  0  0  0  0  0  0  # atno 10167 bound_to 10162
  156.2450  130.7119  151.0995 H   0  0  0  0  0  0  0  0  0  0  0  0  # atno 10718 bound_to 10713
  154.1981  135.6415  153.5079 H   0  0  0  0  0  0  0  0  0  0  0  0  # atno 10763 bound_to 10752
  153.0018  135.5445  154.6344 H   0  0  0  0  0  0  0  0  0  0  0  0  # atno 10764 bound_to 10752
  154.5750  135.2920  155.0763 H   0  0  0  0  0  0  0  0  0  0  0  0  # atno 10765 bound_to 10752
  140.9590  134.0962  157.3987 H   0  0  0  0  0  0  0  0  0  0  0  0  # atno 11005 bound_to 11000
  144.8030  140.6248  143.6465 LP  0  0  0  0  0  0  0  0  0  0  0  0  # atno 17320 bound_to 7965
  145.4583  139.1515  143.3880 LP  0  0  0  0  0  0  0  0  0  0  0  0  # atno 17321 bound_to 7965
  139.6195  144.0935  152.2378 LP  0  0  0  0  0  0  0  0  0  0  0  0  # atno 17342 bound_to 10162
  140.0375  144.6033  150.7438 LP  0  0  0  0  0  0  0  0  0  0  0  0  # atno 17343 bound_to 10162
  157.7191  131.0692  150.6208 LP  0  0  0  0  0  0  0  0  0  0  0  0  # atno 17370 bound_to 10713
  156.6284  130.4425  149.5796 LP  0  0  0  0  0  0  0  0  0  0  0  0  # atno 17371 bound_to 10713
  139.8872  135.0087  156.6543 LP  0  0  0  0  0  0  0  0  0  0  0  0  # atno 17394 bound_to 11000
  140.7495  133.8909  155.8336 LP  0  0  0  0  0  0  0  0  0  0  0  0  # atno 17395 bound_to 11000

$$$$
