AV-unprocessed.smi:2477|AV-procd|sdf|9761|dock5
  -GOLD-   2272013403D 1   1.00000     0.00000
 Structure written by MMmdl.
 51 53  0  0  0  0  0  0  0  0  1 V2000
  145.8647  131.2987  150.9900 C   0  0  0  0  0  0  0  0  0  0  0  0
  145.4235  132.6819  150.7922 N   0  0  0  0  0  0  0  0  0  0  0  0
  144.2902  132.8940  149.9897 C   0  0  0  0  0  0  0  0  0  0  0  0
  143.8166  134.1252  149.7539 C   0  0  0  0  0  0  0  0  0  0  0  0
  144.5001  135.2495  150.3467 C   0  0  0  0  0  0  0  0  0  0  0  0
  145.5975  135.0683  151.1249 C   0  0  0  0  0  0  0  0  0  0  0  0
  146.3299  136.0976  151.7440 N   0  0  0  0  0  0  0  0  0  0  0  0
  145.9027  137.1899  152.4038 C   0  0  0  0  0  0  0  0  0  0  0  0
  144.7307  137.5116  152.5955 O   0  0  0  0  0  0  0  0  0  0  0  0
  146.9419  137.9054  152.8554 N   0  0  0  0  0  0  0  0  0  0  0  0
  146.8466  139.1330  153.6406 C   0  0  2  0  0  0  0  0  0  0  0  0
  147.1259  140.3521  152.7412 C   0  0  0  0  0  0  0  0  0  0  0  0
  147.0495  141.6644  153.5369 C   0  0  0  0  0  0  0  0  0  0  0  0
  148.0063  141.6420  154.7385 C   0  0  0  0  0  0  0  0  0  0  0  0
  147.7397  140.4267  155.6424 C   0  0  0  0  0  0  0  0  0  0  0  0
  147.7989  139.1011  154.8606 C   0  0  2  0  0  0  0  0  0  0  0  0
  149.1407  138.9121  154.4196 O   0  0  0  0  0  0  0  0  0  0  0  0
  149.9298  138.0466  155.2275 C   0  0  0  0  0  0  0  0  0  0  0  0
  150.4047  138.7683  156.4928 C   0  0  0  0  0  0  0  0  0  0  0  0
  151.5810  139.6367  156.0350 C   0  0  0  0  0  0  0  0  0  0  0  0
  152.1345  138.9735  154.7641 C   0  0  0  0  0  0  0  0  0  0  0  0
  151.2326  137.7660  154.4792 C   0  0  0  0  0  0  0  0  0  0  0  0
  146.1113  133.7072  151.3774 C   0  0  0  0  0  0  0  0  0  0  0  0
  147.1050  133.4904  152.0756 O   0  0  0  0  0  0  0  0  0  0  0  0
  145.2151  130.5742  150.4978 H   0  0  0  0  0  0  0  0  0  0  0  0
  145.8819  131.0489  152.0520 H   0  0  0  0  0  0  0  0  0  0  0  0
  146.8702  131.1579  150.5909 H   0  0  0  0  0  0  0  0  0  0  0  0
  143.8348  132.0031  149.5818 H   0  0  0  0  0  0  0  0  0  0  0  0
  142.9444  134.2732  149.1344 H   0  0  0  0  0  0  0  0  0  0  0  0
  144.0966  136.2258  150.1382 H   0  0  0  0  0  0  0  0  0  0  0  0
  147.3314  135.9831  151.6847 H   0  0  0  0  0  0  0  0  0  0  0  0
  147.8724  137.5674  152.6583 H   0  0  0  0  0  0  0  0  0  0  0  0
  145.8222  139.2241  154.0076 H   0  0  0  0  0  0  0  0  0  0  0  0
  148.1132  140.2610  152.2861 H   0  0  0  0  0  0  0  0  0  0  0  0
  146.4096  140.3816  151.9193 H   0  0  0  0  0  0  0  0  0  0  0  0
  147.2880  142.5071  152.8875 H   0  0  0  0  0  0  0  0  0  0  0  0
  146.0280  141.8216  153.8855 H   0  0  0  0  0  0  0  0  0  0  0  0
  149.0377  141.6167  154.3843 H   0  0  0  0  0  0  0  0  0  0  0  0
  147.9015  142.5622  155.3138 H   0  0  0  0  0  0  0  0  0  0  0  0
  148.4579  140.4092  156.4626 H   0  0  0  0  0  0  0  0  0  0  0  0
  146.7552  140.5294  156.1004 H   0  0  0  0  0  0  0  0  0  0  0  0
  147.4936  138.2998  155.5364 H   0  0  0  0  0  0  0  0  0  0  0  0
  149.3963  137.1207  155.4469 H   0  0  0  0  0  0  0  0  0  0  0  0
  149.6227  139.3465  156.9847 H   0  0  0  0  0  0  0  0  0  0  0  0
  150.7615  138.0301  157.2121 H   0  0  0  0  0  0  0  0  0  0  0  0
  151.2290  140.6419  155.7993 H   0  0  0  0  0  0  0  0  0  0  0  0
  152.3384  139.7300  156.8138 H   0  0  0  0  0  0  0  0  0  0  0  0
  152.0946  139.6788  153.9331 H   0  0  0  0  0  0  0  0  0  0  0  0
  153.1747  138.6689  154.8841 H   0  0  0  0  0  0  0  0  0  0  0  0
  151.6956  136.8674  154.8892 H   0  0  0  0  0  0  0  0  0  0  0  0
  151.0786  137.5960  153.4130 H   0  0  0  0  0  0  0  0  0  0  0  0
  1  2  1  0  0  0  0
  1 25  1  0  0  0  0
  1 26  1  0  0  0  0
  1 27  1  0  0  0  0
  2 23  1  0  0  0  0
  2  3  1  0  0  0  0
  3  4  2  0  0  0  0
  3 28  1  0  0  0  0
  4  5  1  0  0  0  0
  4 29  1  0  0  0  0
  5  6  2  0  0  0  0
  5 30  1  0  0  0  0
  6  7  1  0  0  0  0
  6 23  1  0  0  0  0
  7  8  1  0  0  0  0
  7 31  1  0  0  0  0
  8  9  2  0  0  0  0
  8 10  1  0  0  0  0
 10 11  1  0  0  0  0
 10 32  1  0  0  0  0
 11 16  1  0  0  0  0
 11 12  1  0  0  0  0
 11 33  1  0  0  0  0
 12 13  1  0  0  0  0
 12 34  1  0  0  0  0
 12 35  1  0  0  0  0
 13 14  1  0  0  0  0
 13 36  1  0  0  0  0
 13 37  1  0  0  0  0
 14 15  1  0  0  0  0
 14 38  1  0  0  0  0
 14 39  1  0  0  0  0
 15 16  1  0  0  0  0
 15 40  1  0  0  0  0
 15 41  1  0  0  0  0
 16 17  1  0  0  0  0
 16 42  1  0  0  0  0
 17 18  1  0  0  0  0
 18 22  1  0  0  0  0
 18 19  1  0  0  0  0
 18 43  1  0  0  0  0
 19 20  1  0  0  0  0
 19 44  1  0  0  0  0
 19 45  1  0  0  0  0
 20 21  1  0  0  0  0
 20 46  1  0  0  0  0
 20 47  1  0  0  0  0
 21 22  1  0  0  0  0
 21 48  1  0  0  0  0
 21 49  1  0  0  0  0
 22 50  1  0  0  0  0
 22 51  1  0  0  0  0
 23 24  2  0  0  0  0
M  END
> <s_m_source_file>
AV-unprocessed.smi

> <i_m_source_file_index>
2477

> <i_lp_mmshare_version>
43012

> <i_f3d_flags>
0

> <s_epik_input>
W0NIM11uMVtjSF1bY0hdW2NIXWMoYzE9TylbTkhdQyg9TylbTkhdW0NAQEhdMltDSDJdW0NIMl1bQ0gyXVtDSDJdW0NASF0yT1tDSF0zW0NIMl1bQ0gyXVtDSDJdW0NIMl0z

> <s_epik_cmdline>
J2VwaWtfcHl0aG9uJywgJy1waCcsICc3LjAnLCAnLXRuJywgJzgnLCAnLW1hJywgJzIwMCcsICctbWV0YWxfYmluZGluZycsICctaW1hZScsICc8aW5maWxlLm1hZT4nLCAnLW9tYWUnLCAnPG91dGZpbGUubWFlPic=

> <r_lp_tautomer_probability>
1

> <r_epik_Ionization_Penalty>
2.40753e-05

> <r_epik_Ionization_Penalty_Charging>
4.84018e-06

> <r_epik_Ionization_Penalty_Neutral>
1.92352e-05

> <r_epik_State_Penalty>
-0

> <r_epik_Charging_Adjusted_Penalty>
4.84018e-06

> <i_epik_Tot_Q>
0

> <i_epik_Tot_abs_Q>
0

> <r_epik_Metal_State_Penalty>
-0

> <b_epik_Metal_Only>
0

> <s_lp_Force_Field>
OPLS_2005

> <r_lp_Energy>
42.349

> <b_lp_Chiralities_Consistent>
1

> <s_lp_Variant>
AV-unprocessed.smi:2477-3

> <Gold.Version>
5.8.1

> <Gold.Id.Protein>
6NUR|6NUR_protein|mol2

> <Gold.PLP.Fitness>
42.8305

> <Gold.PLP.PLP>
-39.2993

> <Gold.PLP.part.hbond>
-2.0000

> <Gold.PLP.part.metal>
0.0000

> <Gold.PLP.part.buried>
-2.1639

> <Gold.PLP.part.nonpolar>
-34.9862

> <Gold.PLP.part.repulsive>
0.6778

> <Gold.PLP.ligand.clash>
0.0000

> <Gold.PLP.ligand.torsion>
1.1912

> <Gold.PLP.Chemscore.Hbond>
1.9600

> <Gold.PLP.Chemscore.CHOScore>
0.0000

> <Gold.PLP.Chemscore.Metal>
0.0000

> <Gold.Chemscore.Hbonds>
donor molecule, donor type, donor heavy atom, donor atom, acceptor molecule, acceptor atom, score
      L1  H     7    31       P1  7948  1.00
      L1  H    10    32       P1  7948  0.96

> <Gold.PLP.Chemscore.Internal.Correction>
0.0337

> <Gold.Rescore>
     Score         DG    S(hbond)    S(metal)    S(lipo)     H(rot)  DE(clash)    DE(int)     intcor
     18.07     -20.87       1.93        0.00     106.10       1.36       1.57       1.23       ----

> <Gold.Chemscore.Fitness>
18.0668

> <Gold.Chemscore.DG>
-20.8659

> <Gold.Chemscore.ZeroCoef>
-5.4800

> <Gold.Chemscore.Hbond>
1.9294

> <Gold.Chemscore.Metal>
0.0000

> <Gold.Chemscore.Lipo>
106.1040

> <Gold.Chemscore.Internal_Hbond>
0.0000

> <Gold.Chemscore.DEClash>
1.5654

> <Gold.Chemscore.DEInternal>
1.2337

> <Gold.Chemscore.Rot>
1.3564

> <Gold.Chemscore.Internal.Correction>
   9.000000E+99

> <Gold.Chemscore.Hbonds>
donor molecule, donor type, donor heavy atom, donor atom, acceptor molecule, acceptor atom, score
      L1  H     7    31       P1  7948  0.99
      L1  H    10    32       P1  7948  0.92

> <Gold.Chemscore.Hbond.Weighted>
-6.4441

> <Gold.Chemscore.Metal.Weighted>
-0.0000

> <Gold.Chemscore.Lipo.Weighted>
-12.4142

> <Gold.Chemscore.Internal_Hbond.Weighted>
0.0000

> <Gold.Chemscore.DEClash.Weighted>
1.5654

> <Gold.Chemscore.DEInternal.Weighted>
1.2337

> <Gold.Chemscore.Rot.Weighted>
3.4724

> <Gold.Chemscore.Internal.Correction.Weighted>
   9.000000E+99

> <Gold.Protein.RotatedTorsions>
[ 6907 6896 6895 6894 ] final  116.41 input  -60.11 | X-H torsion
[ 7974 7965 7964 7962 ] final  -90.60 input  175.53 | X-H torsion
[ 8008 7997 7996 7995 ] final   21.54 input   59.86 | X-H torsion
[ 10167 10162 10161 10158 ] final -122.46 input  -65.29 | X-H torsion
[ 10718 10713 10712 10709 ] final  158.61 input   66.30 | X-H torsion
[ 10763 10752 10751 10750 ] final -169.19 input  -60.55 | X-H torsion
[ 11005 11000 10999 10996 ] final  178.45 input  -57.11 | X-H torsion

> <Gold.Protein.ActiveResidues>
 VAL166  LYS551  ARG553  GLY616  TRP617  ASP618  TYR619  PRO620  LYS621  CYS622 
 ASP623  PHE694  ASN695  SER759  ASP760  ASP761  ALA762  ILE779  LEU786  VAL792 
 PHE793  MET794  SER795  GLU796  ALA797  LYS798  CYS799  TRP800  GLU811  SER814 

> <Gold.Protein.RotatedAtoms>
  152.4679  133.7964  159.6929 H   0  0  0  0  0  0  0  0  0  0  0  0  # atno 6907 bound_to 6896
  150.8653  133.7574  159.2985 H   0  0  0  0  0  0  0  0  0  0  0  0  # atno 6908 bound_to 6896
  151.5126  135.1068  159.9910 H   0  0  0  0  0  0  0  0  0  0  0  0  # atno 6909 bound_to 6896
  145.4243  140.9553  143.2163 H   0  0  0  0  0  0  0  0  0  0  0  0  # atno 7974 bound_to 7965
  154.9521  140.3067  155.5070 H   0  0  0  0  0  0  0  0  0  0  0  0  # atno 8008 bound_to 7997
  156.2986  140.2317  156.4538 H   0  0  0  0  0  0  0  0  0  0  0  0  # atno 8009 bound_to 7997
  154.8044  140.0432  157.1285 H   0  0  0  0  0  0  0  0  0  0  0  0  # atno 8010 bound_to 7997
  140.0141  143.5412  152.2250 H   0  0  0  0  0  0  0  0  0  0  0  0  # atno 10167 bound_to 10162
  157.1756  131.0620  151.2160 H   0  0  0  0  0  0  0  0  0  0  0  0  # atno 10718 bound_to 10713
  154.6549  135.2916  154.9940 H   0  0  0  0  0  0  0  0  0  0  0  0  # atno 10763 bound_to 10752
  154.1020  135.6575  153.4874 H   0  0  0  0  0  0  0  0  0  0  0  0  # atno 10764 bound_to 10752
  153.0397  135.5245  154.7473 H   0  0  0  0  0  0  0  0  0  0  0  0  # atno 10765 bound_to 10752
  140.3953  134.6826  157.4531 H   0  0  0  0  0  0  0  0  0  0  0  0  # atno 11005 bound_to 11000
  144.8224  139.5768  143.6981 LP  0  0  0  0  0  0  0  0  0  0  0  0  # atno 17320 bound_to 7965
  146.2640  139.6476  142.9342 LP  0  0  0  0  0  0  0  0  0  0  0  0  # atno 17321 bound_to 7965
  139.6185  144.7624  151.2793 LP  0  0  0  0  0  0  0  0  0  0  0  0  # atno 17342 bound_to 10162
  140.7369  143.6692  150.8096 LP  0  0  0  0  0  0  0  0  0  0  0  0  # atno 17343 bound_to 10162
  157.4002  130.7329  149.6761 LP  0  0  0  0  0  0  0  0  0  0  0  0  # atno 17370 bound_to 10713
  155.9732  130.4123  150.4024 LP  0  0  0  0  0  0  0  0  0  0  0  0  # atno 17371 bound_to 10713
  140.0376  134.6314  155.9022 LP  0  0  0  0  0  0  0  0  0  0  0  0  # atno 17394 bound_to 11000
  141.1876  133.6560  156.5290 LP  0  0  0  0  0  0  0  0  0  0  0  0  # atno 17395 bound_to 11000

$$$$
