AV-unprocessed.smi:2438|AV-procd|sdf|9599|dock9
  -GOLD-   2272013233D 1   1.00000     0.00000
 Structure written by MMmdl.
 44 45  0  0  0  0  0  0  0  0  2 V2000
  150.9851  137.6317  156.1867 C   0  0  0  0  0  0  0  0  0  0  0  0
  151.1715  138.5612  155.0793 N   0  0  0  0  0  0  0  0  0  0  0  0
  152.4356  139.2851  155.0545 C   0  0  0  0  0  0  0  0  0  0  0  0
  150.0573  139.3435  154.7144 C   0  0  0  0  0  0  0  0  0  0  0  0
  150.1744  140.6897  154.7823 N   0  0  0  0  0  0  0  0  0  0  0  0
  149.1456  141.4657  154.4259 C   0  0  0  0  0  0  0  0  0  0  0  0
  147.9748  140.9725  154.0015 N   0  3  0  0  0  0  0  0  0  0  0  0
  147.8038  139.6319  153.9189 C   0  0  0  0  0  0  0  0  0  0  0  0
  148.8528  138.7487  154.2673 C   0  0  0  0  0  0  0  0  0  0  0  0
  148.7212  137.3317  154.2397 N   0  0  0  0  0  0  0  0  0  0  0  0
  147.6362  136.5965  154.5311 C   0  0  0  0  0  0  0  0  0  0  0  0
  146.5660  137.0445  154.9418 O   0  0  0  0  0  0  0  0  0  0  0  0
  147.8552  135.2960  154.2932 N   0  0  0  0  0  0  0  0  0  0  0  0
  146.8681  134.2278  154.4441 C   0  0  2  0  0  0  0  0  0  0  0  0
  147.3972  132.9218  153.8211 C   0  0  0  0  0  0  0  0  0  0  0  0
  147.4497  132.9917  152.2851 C   0  0  0  0  0  0  0  0  0  0  0  0
  146.0855  133.3810  151.6932 C   0  0  0  0  0  0  0  0  0  0  0  0
  145.5678  134.7112  152.2798 C   0  0  1  0  0  0  0  0  0  0  0  0
  144.2108  135.1246  151.6753 C   0  0  0  0  0  0  0  0  0  0  0  0
  143.8337  136.3209  152.1272 F   0  0  0  0  0  0  0  0  0  0  0  0
  144.3002  135.1734  150.3461 F   0  0  0  0  0  0  0  0  0  0  0  0
  143.2775  134.2282  151.9955 F   0  0  0  0  0  0  0  0  0  0  0  0
  145.5099  134.6206  153.8214 C   0  0  0  0  0  0  0  0  0  0  0  0
  150.0531  137.0761  156.0765 H   0  0  0  0  0  0  0  0  0  0  0  0
  150.9655  138.1596  157.1408 H   0  0  0  0  0  0  0  0  0  0  0  0
  151.8026  136.9108  156.2148 H   0  0  0  0  0  0  0  0  0  0  0  0
  152.5044  139.9685  154.2080 H   0  0  0  0  0  0  0  0  0  0  0  0
  153.2683  138.5843  154.9862 H   0  0  0  0  0  0  0  0  0  0  0  0
  152.5561  139.8678  155.9684 H   0  0  0  0  0  0  0  0  0  0  0  0
  149.2307  142.5411  154.4775 H   0  0  0  0  0  0  0  0  0  0  0  0
  146.8219  139.3250  153.5920 H   0  0  0  0  0  0  0  0  0  0  0  0
  149.5060  136.8317  153.8468 H   0  0  0  0  0  0  0  0  0  0  0  0
  148.7677  135.0217  153.9595 H   0  0  0  0  0  0  0  0  0  0  0  0
  146.7243  134.0535  155.5120 H   0  0  0  0  0  0  0  0  0  0  0  0
  148.3843  132.6843  154.2195 H   0  0  0  0  0  0  0  0  0  0  0  0
  146.7465  132.0974  154.1157 H   0  0  0  0  0  0  0  0  0  0  0  0
  148.2034  133.7155  151.9731 H   0  0  0  0  0  0  0  0  0  0  0  0
  147.7658  132.0289  151.8827 H   0  0  0  0  0  0  0  0  0  0  0  0
  146.1719  133.4569  150.6090 H   0  0  0  0  0  0  0  0  0  0  0  0
  145.3652  132.5858  151.8892 H   0  0  0  0  0  0  0  0  0  0  0  0
  146.2844  135.4904  152.0156 H   0  0  0  0  0  0  0  0  0  0  0  0
  144.7637  133.8790  154.1092 H   0  0  0  0  0  0  0  0  0  0  0  0
  145.1647  135.5656  154.2416 H   0  0  0  0  0  0  0  0  0  0  0  0
  147.2079  141.5951  153.7460 H   0  0  0  0  0  0  0  0  0  0  0  0
  1  2  1  0  0  0  0
  1 24  1  0  0  0  0
  1 25  1  0  0  0  0
  1 26  1  0  0  0  0
  2  3  1  0  0  0  0
  2  4  1  0  0  0  0
  3 27  1  0  0  0  0
  3 28  1  0  0  0  0
  3 29  1  0  0  0  0
  4  9  1  0  0  0  0
  4  5  2  0  0  0  0
  5  6  1  0  0  0  0
  6  7  2  0  0  0  0
  6 30  1  0  0  0  0
  7  8  1  0  0  0  0
  7 44  1  0  0  0  0
  8  9  2  0  0  0  0
  8 31  1  0  0  0  0
  9 10  1  0  0  0  0
 10 11  1  0  0  0  0
 10 32  1  0  0  0  0
 11 12  2  0  0  0  0
 11 13  1  0  0  0  0
 13 14  1  0  0  0  0
 13 33  1  0  0  0  0
 14 23  1  0  0  0  0
 14 15  1  0  0  0  0
 14 34  1  0  0  0  0
 15 16  1  0  0  0  0
 15 35  1  0  0  0  0
 15 36  1  0  0  0  0
 16 17  1  0  0  0  0
 16 37  1  0  0  0  0
 16 38  1  0  0  0  0
 17 18  1  0  0  0  0
 17 39  1  0  0  0  0
 17 40  1  0  0  0  0
 18 19  1  0  0  0  0
 18 23  1  0  0  0  0
 18 41  1  0  0  0  0
 19 20  1  0  0  0  0
 19 21  1  0  0  0  0
 19 22  1  0  0  0  0
 23 42  1  0  0  0  0
 23 43  1  0  0  0  0
M  CHG  1   7   1
M  END
> <s_m_source_file>
AV-unprocessed.smi

> <i_m_source_file_index>
2438

> <i_lp_mmshare_version>
43012

> <i_f3d_flags>
0

> <s_epik_input>
W0NIM11OKFtDSDNdKWMxbltjSF1uW2NIXWMxW05IXUMoPU8pW05IXVtDQEBIXTJbQ0gyXVtDSDJdW0NIMl1bQ0BASF0oQyhGKShGKUYpW0NIMl0y

> <s_epik_cmdline>
J2VwaWtfcHl0aG9uJywgJy1waCcsICc3LjAnLCAnLXRuJywgJzgnLCAnLW1hJywgJzIwMCcsICctbWV0YWxfYmluZGluZycsICctaW1hZScsICc8aW5maWxlLm1hZT4nLCAnLW9tYWUnLCAnPG91dGZpbGUubWFlPic=

> <r_lp_tautomer_probability>
0.999336

> <r_epik_Ionization_Penalty>
2.11643

> <r_epik_Ionization_Penalty_Charging>
2.11639

> <r_epik_Ionization_Penalty_Neutral>
4.47523e-05

> <r_epik_State_Penalty>
2.25369

> <r_epik_Charging_Adjusted_Penalty>
4.37008

> <i_epik_Tot_Q>
1

> <i_epik_Tot_abs_Q>
1

> <r_epik_Metal_State_Penalty>
2.27019

> <b_epik_Metal_Only>
0

> <s_lp_Force_Field>
OPLS_2005

> <r_lp_Energy>
15.0376

> <b_lp_Chiralities_Consistent>
1

> <s_lp_Variant>
AV-unprocessed.smi:2438-5

> <Gold.Version>
5.8.1

> <Gold.Id.Protein>
6NUR|6NUR_protein|mol2

> <Gold.PLP.Fitness>
37.6424

> <Gold.PLP.PLP>
-32.8482

> <Gold.PLP.part.hbond>
-3.0000

> <Gold.PLP.part.metal>
0.0000

> <Gold.PLP.part.buried>
-0.8624

> <Gold.PLP.part.nonpolar>
-28.4592

> <Gold.PLP.part.repulsive>
0.3534

> <Gold.PLP.ligand.clash>
0.0000

> <Gold.PLP.ligand.torsion>
0.7049

> <Gold.PLP.Chemscore.Hbond>
0.9358

> <Gold.PLP.Chemscore.CHOScore>
1.0000

> <Gold.PLP.Chemscore.Metal>
0.0000

> <Gold.Chemscore.Hbonds>
donor molecule, donor type, donor heavy atom, donor atom, acceptor molecule, acceptor atom, score
      L1  H    10    32       P1  7948  0.14
      L1  H    13    33       P1  7948  0.01
      P1  H  7989  7998       L1     5  0.76
      L1  C     6    30       P1  8028  1.00

> <Gold.PLP.Chemscore.Internal.Correction>
0.3965

> <Gold.Rescore>
     Score         DG    S(hbond)    S(metal)    S(lipo)     H(rot)  DE(clash)    DE(int)     intcor
      6.60      -9.94       0.58        0.00      50.17       1.31       0.53       2.81       ----

> <Gold.Chemscore.Fitness>
6.5970

> <Gold.Chemscore.DG>
-9.9390

> <Gold.Chemscore.ZeroCoef>
-5.4800

> <Gold.Chemscore.Hbond>
0.5800

> <Gold.Chemscore.Metal>
0.0000

> <Gold.Chemscore.Lipo>
50.1692

> <Gold.Chemscore.Internal_Hbond>
0.0000

> <Gold.Chemscore.DEClash>
0.5350

> <Gold.Chemscore.DEInternal>
2.8070

> <Gold.Chemscore.Rot>
1.3078

> <Gold.Chemscore.Internal.Correction>
   9.000000E+99

> <Gold.Chemscore.Hbonds>
donor molecule, donor type, donor heavy atom, donor atom, acceptor molecule, acceptor atom, score
      L1  H    10    32       P1  7948  0.13
      L1  H    13    33       P1  7948  0.01
      P1  H  7989  7998       L1     5  0.10

> <Gold.Chemscore.Hbond.Weighted>
-1.9373

> <Gold.Chemscore.Metal.Weighted>
-0.0000

> <Gold.Chemscore.Lipo.Weighted>
-5.8698

> <Gold.Chemscore.Internal_Hbond.Weighted>
0.0000

> <Gold.Chemscore.DEClash.Weighted>
0.5350

> <Gold.Chemscore.DEInternal.Weighted>
2.8070

> <Gold.Chemscore.Rot.Weighted>
3.3481

> <Gold.Chemscore.Internal.Correction.Weighted>
   9.000000E+99

> <Gold.Protein.RotatedTorsions>
[ 6907 6896 6895 6894 ] final   54.45 input  -60.11 | X-H torsion
[ 7974 7965 7964 7962 ] final  -73.72 input  175.53 | X-H torsion
[ 8008 7997 7996 7995 ] final -149.96 input   59.86 | X-H torsion
[ 10167 10162 10161 10158 ] final  142.99 input  -65.29 | X-H torsion
[ 10718 10713 10712 10709 ] final  -15.74 input   66.30 | X-H torsion
[ 10763 10752 10751 10750 ] final  -64.59 input  -60.55 | X-H torsion
[ 11005 11000 10999 10996 ] final  -28.78 input  -57.11 | X-H torsion

> <Gold.Protein.ActiveResidues>
 VAL166  LYS551  ARG553  GLY616  TRP617  ASP618  TYR619  PRO620  LYS621  CYS622 
 ASP623  PHE694  ASN695  SER759  ASP760  ASP761  ALA762  ILE779  LEU786  VAL792 
 PHE793  MET794  SER795  GLU796  ALA797  LYS798  CYS799  TRP800  GLU811  SER814 

> <Gold.Protein.RotatedAtoms>
  152.3440  134.7096  160.0255 H   0  0  0  0  0  0  0  0  0  0  0  0  # atno 6907 bound_to 6896
  151.7472  133.3320  159.3389 H   0  0  0  0  0  0  0  0  0  0  0  0  # atno 6908 bound_to 6896
  150.7497  134.6158  159.6154 H   0  0  0  0  0  0  0  0  0  0  0  0  # atno 6909 bound_to 6896
  145.6485  140.9290  143.0997 H   0  0  0  0  0  0  0  0  0  0  0  0  # atno 7974 bound_to 7965
  155.6159  140.0676  157.2692 H   0  0  0  0  0  0  0  0  0  0  0  0  # atno 8008 bound_to 7997
  154.4241  140.1793  156.1369 H   0  0  0  0  0  0  0  0  0  0  0  0  # atno 8009 bound_to 7997
  156.0048  140.3332  155.6884 H   0  0  0  0  0  0  0  0  0  0  0  0  # atno 8010 bound_to 7997
  139.4980  144.6070  151.6355 H   0  0  0  0  0  0  0  0  0  0  0  0  # atno 10167 bound_to 10162
  156.5975  130.4815  149.6253 H   0  0  0  0  0  0  0  0  0  0  0  0  # atno 10718 bound_to 10713
  154.3324  135.6174  153.5557 H   0  0  0  0  0  0  0  0  0  0  0  0  # atno 10763 bound_to 10752
  152.9810  135.5750  154.4947 H   0  0  0  0  0  0  0  0  0  0  0  0  # atno 10764 bound_to 10752
  154.4636  135.2857  155.1672 H   0  0  0  0  0  0  0  0  0  0  0  0  # atno 10765 bound_to 10752
  140.9239  133.7381  156.0840 H   0  0  0  0  0  0  0  0  0  0  0  0  # atno 11005 bound_to 11000
  144.7131  139.8296  143.7408 LP  0  0  0  0  0  0  0  0  0  0  0  0  # atno 17320 bound_to 7965
  146.1223  139.4243  143.0221 LP  0  0  0  0  0  0  0  0  0  0  0  0  # atno 17321 bound_to 7965
  140.5735  144.0068  150.6229 LP  0  0  0  0  0  0  0  0  0  0  0  0  # atno 17342 bound_to 10162
  140.3194  143.3147  152.0799 LP  0  0  0  0  0  0  0  0  0  0  0  0  # atno 17343 bound_to 10162
  156.2497  130.6900  151.1633 LP  0  0  0  0  0  0  0  0  0  0  0  0  # atno 17370 bound_to 10713
  157.7288  131.0629  150.5804 LP  0  0  0  0  0  0  0  0  0  0  0  0  # atno 17371 bound_to 10713
  140.7952  134.3572  157.5454 LP  0  0  0  0  0  0  0  0  0  0  0  0  # atno 17394 bound_to 11000
  139.8781  134.9164  156.3154 LP  0  0  0  0  0  0  0  0  0  0  0  0  # atno 17395 bound_to 11000

$$$$
