AV-unprocessed.smi:798|AV-procd|sdf|3776|dock1
  -GOLD-   22720 1203D 1   1.00000     0.00000
 Structure written by MMmdl.
 34 36  0  0  0  0  0  0  0  0  1 V2000
  145.7646  137.5870  154.7702 O   0  0  0  0  0  0  0  0  0  0  0  0
  146.6556  137.2817  153.9770 C   0  0  0  0  0  0  0  0  0  0  0  0
  146.5184  136.4405  152.9369 N   0  0  0  0  0  0  0  0  0  0  0  0
  145.3534  135.7488  152.5120 C   0  0  0  0  0  0  0  0  0  0  0  0
  144.2163  135.6977  153.2236 N   0  0  0  0  0  0  0  0  0  0  0  0
  143.2328  134.9583  152.5791 N   0  0  0  0  0  0  0  0  0  0  0  0
  143.6665  134.4811  151.4090 C   0  0  0  0  0  0  0  0  0  0  0  0
  145.3194  134.8868  150.9805 S   0  0  0  0  0  0  0  0  0  0  0  0
  147.9052  137.7603  154.0506 N   0  0  0  0  0  0  0  0  0  0  0  0
  148.3744  138.7180  155.0497 C   0  0  1  0  0  0  0  0  0  0  0  0
  149.4909  138.1612  155.9690 C   0  0  1  0  0  0  0  0  0  0  0  0
  150.6465  137.5484  155.1488 C   0  0  0  0  0  0  0  0  0  0  0  0
  151.2985  138.7876  154.5079 C   0  0  0  0  0  0  0  0  0  0  0  0
  150.4490  139.9466  155.0651 C   0  0  2  0  0  0  0  0  0  0  0  0
  150.1380  139.4456  156.4711 C   0  0  0  0  0  0  0  0  0  0  0  0
  149.0609  139.9398  154.3833 C   0  0  2  0  0  0  0  0  0  0  0  0
  148.2909  141.2594  154.5815 C   0  0  0  0  0  0  0  0  0  0  0  0
  149.0381  142.3416  154.0672 O   0  0  0  0  0  0  0  0  0  0  0  0
  147.3420  136.2869  152.3741 H   0  0  0  0  0  0  0  0  0  0  0  0
  143.0084  133.8856  150.7939 H   0  0  0  0  0  0  0  0  0  0  0  0
  148.5759  137.4587  153.3591 H   0  0  0  0  0  0  0  0  0  0  0  0
  147.5309  139.0455  155.6610 H   0  0  0  0  0  0  0  0  0  0  0  0
  149.1198  137.5023  156.7547 H   0  0  0  0  0  0  0  0  0  0  0  0
  151.3560  137.0465  155.8080 H   0  0  0  0  0  0  0  0  0  0  0  0
  150.3177  136.8167  154.4110 H   0  0  0  0  0  0  0  0  0  0  0  0
  152.3378  138.8795  154.8261 H   0  0  0  0  0  0  0  0  0  0  0  0
  151.2866  138.7482  153.4180 H   0  0  0  0  0  0  0  0  0  0  0  0
  150.9580  140.9101  155.0217 H   0  0  0  0  0  0  0  0  0  0  0  0
  149.4523  140.0878  157.0256 H   0  0  0  0  0  0  0  0  0  0  0  0
  151.0293  139.2736  157.0773 H   0  0  0  0  0  0  0  0  0  0  0  0
  149.1931  139.7857  153.3105 H   0  0  0  0  0  0  0  0  0  0  0  0
  147.3163  141.2320  154.0939 H   0  0  0  0  0  0  0  0  0  0  0  0
  148.1154  141.4386  155.6424 H   0  0  0  0  0  0  0  0  0  0  0  0
  149.1263  142.9950  154.7444 H   0  0  0  0  0  0  0  0  0  0  0  0
  1  2  2  0  0  0  0
  2  3  1  0  0  0  0
  2  9  1  0  0  0  0
  3  4  1  0  0  0  0
  3 19  1  0  0  0  0
  4  8  1  0  0  0  0
  4  5  2  0  0  0  0
  5  6  1  0  0  0  0
  6  7  2  0  0  0  0
  7  8  1  0  0  0  0
  7 20  1  0  0  0  0
  9 10  1  0  0  0  0
  9 21  1  0  0  0  0
 10 16  1  0  0  0  0
 10 11  1  0  0  0  0
 10 22  1  0  0  0  0
 11 15  1  0  0  0  0
 11 12  1  0  0  0  0
 11 23  1  0  0  0  0
 12 13  1  0  0  0  0
 12 24  1  0  0  0  0
 12 25  1  0  0  0  0
 13 14  1  0  0  0  0
 13 26  1  0  0  0  0
 13 27  1  0  0  0  0
 14 15  1  0  0  0  0
 14 16  1  0  0  0  0
 14 28  1  0  0  0  0
 15 29  1  0  0  0  0
 15 30  1  0  0  0  0
 16 17  1  0  0  0  0
 16 31  1  0  0  0  0
 17 18  1  0  0  0  0
 17 32  1  0  0  0  0
 17 33  1  0  0  0  0
 18 34  1  0  0  0  0
M  END
> <s_m_source_file>
AV-unprocessed.smi

> <i_m_source_file_index>
798

> <i_lp_mmshare_version>
43012

> <i_f3d_flags>
0

> <s_epik_input>
W0NIMl0xW0NIMl1bQ0BASF0oW0NIMl0yKVtDQEBIXShbQ0gyXVtPSF0pW0NAQEhdKFtDQEhdMTIpW05IXUMoPU8pW05IXWMzbm5bY0hdczM=

> <s_epik_cmdline>
J2VwaWtfcHl0aG9uJywgJy1waCcsICc3LjAnLCAnLXRuJywgJzgnLCAnLW1hJywgJzIwMCcsICctbWV0YWxfYmluZGluZycsICctaW1hZScsICc8aW5maWxlLm1hZT4nLCAnLW9tYWUnLCAnPG91dGZpbGUubWFlPic=

> <r_lp_tautomer_probability>
1

> <r_epik_Ionization_Penalty>
0.000329046

> <r_epik_Ionization_Penalty_Charging>
0

> <r_epik_Ionization_Penalty_Neutral>
0.000329046

> <r_epik_State_Penalty>
-0

> <r_epik_Charging_Adjusted_Penalty>
0

> <i_epik_Tot_Q>
0

> <i_epik_Tot_abs_Q>
0

> <r_epik_Metal_State_Penalty>
0.173433

> <b_epik_Metal_Only>
0

> <s_lp_Force_Field>
OPLS_2005

> <r_lp_Energy>
48.2964

> <b_lp_Chiralities_Consistent>
1

> <s_lp_Variant>
AV-unprocessed.smi:798-8

> <Gold.Version>
5.8.1

> <Gold.Id.Protein>
6NUR|6NUR_protein|mol2

> <Gold.PLP.Fitness>
36.0221

> <Gold.PLP.PLP>
-23.6603

> <Gold.PLP.part.hbond>
-4.0000

> <Gold.PLP.part.metal>
0.0000

> <Gold.PLP.part.buried>
-2.0309

> <Gold.PLP.part.nonpolar>
-17.1841

> <Gold.PLP.part.repulsive>
0.2698

> <Gold.PLP.ligand.clash>
0.0000

> <Gold.PLP.ligand.torsion>
0.0576

> <Gold.PLP.Chemscore.Hbond>
3.1520

> <Gold.PLP.Chemscore.CHOScore>
1.0000

> <Gold.PLP.Chemscore.Metal>
0.0000

> <Gold.Chemscore.Hbonds>
donor molecule, donor type, donor heavy atom, donor atom, acceptor molecule, acceptor atom, score
      L1  H     3    19       P1  7948  1.00
      L1  H     9    21       P1  7948  0.94
      L1  H    18    34       P1  8028  1.00
      P1  H  8011  8017       L1    18  0.22
      L1  C     7    20       P1 10186  1.00

> <Gold.PLP.Chemscore.Internal.Correction>
0.0210

> <Gold.Rescore>
     Score         DG    S(hbond)    S(metal)    S(lipo)     H(rot)  DE(clash)    DE(int)     intcor
     15.88     -17.36       3.15        0.00      54.28       1.94       0.19       1.30       ----

> <Gold.Chemscore.Fitness>
15.8773

> <Gold.Chemscore.DG>
-17.3624

> <Gold.Chemscore.ZeroCoef>
-5.4800

> <Gold.Chemscore.Hbond>
3.1462

> <Gold.Chemscore.Metal>
0.0000

> <Gold.Chemscore.Lipo>
54.2829

> <Gold.Chemscore.Internal_Hbond>
0.0000

> <Gold.Chemscore.DEClash>
0.1866

> <Gold.Chemscore.DEInternal>
1.2986

> <Gold.Chemscore.Rot>
1.9442

> <Gold.Chemscore.Internal.Correction>
   9.000000E+99

> <Gold.Chemscore.Hbonds>
donor molecule, donor type, donor heavy atom, donor atom, acceptor molecule, acceptor atom, score
      L1  H     3    19       P1  7948  1.00
      L1  H     9    21       P1  7948  0.90
      L1  H    18    34       P1  8028  0.98
      P1  H  8011  8017       L1    18  0.22

> <Gold.Chemscore.Hbond.Weighted>
-10.5084

> <Gold.Chemscore.Metal.Weighted>
-0.0000

> <Gold.Chemscore.Lipo.Weighted>
-6.3511

> <Gold.Chemscore.Internal_Hbond.Weighted>
0.0000

> <Gold.Chemscore.DEClash.Weighted>
0.1866

> <Gold.Chemscore.DEInternal.Weighted>
1.2986

> <Gold.Chemscore.Rot.Weighted>
4.9771

> <Gold.Chemscore.Internal.Correction.Weighted>
   9.000000E+99

> <Gold.Protein.RotatedTorsions>
[ 6907 6896 6895 6894 ] final  178.85 input  -60.11 | X-H torsion
[ 7974 7965 7964 7962 ] final  -64.08 input  175.53 | X-H torsion
[ 8008 7997 7996 7995 ] final -122.62 input   59.86 | X-H torsion
[ 10167 10162 10161 10158 ] final  -38.73 input  -65.29 | X-H torsion
[ 10718 10713 10712 10709 ] final  176.20 input   66.30 | X-H torsion
[ 10763 10752 10751 10750 ] final -179.48 input  -60.55 | X-H torsion
[ 11005 11000 10999 10996 ] final   40.71 input  -57.11 | X-H torsion

> <Gold.Protein.ActiveResidues>
 VAL166  LYS551  ARG553  GLY616  TRP617  ASP618  TYR619  PRO620  LYS621  CYS622 
 ASP623  PHE694  ASN695  SER759  ASP760  ASP761  ALA762  ILE779  LEU786  VAL792 
 PHE793  MET794  SER795  GLU796  ALA797  LYS798  CYS799  TRP800  GLU811  SER814 

> <Gold.Protein.RotatedAtoms>
  151.6811  133.3312  159.3219 H   0  0  0  0  0  0  0  0  0  0  0  0  # atno 6907 bound_to 6896
  150.7822  134.6780  159.6437 H   0  0  0  0  0  0  0  0  0  0  0  0  # atno 6908 bound_to 6896
  152.3883  134.6485  160.0169 H   0  0  0  0  0  0  0  0  0  0  0  0  # atno 6909 bound_to 6896
  145.7712  140.8812  143.0379 H   0  0  0  0  0  0  0  0  0  0  0  0  # atno 7974 bound_to 7965
  155.1672  140.0407  157.2855 H   0  0  0  0  0  0  0  0  0  0  0  0  # atno 8008 bound_to 7997
  154.6295  140.2520  155.7424 H   0  0  0  0  0  0  0  0  0  0  0  0  # atno 8009 bound_to 7997
  156.2477  140.2878  156.0640 H   0  0  0  0  0  0  0  0  0  0  0  0  # atno 8010 bound_to 7997
  140.7084  143.3258  151.2683 H   0  0  0  0  0  0  0  0  0  0  0  0  # atno 10167 bound_to 10162
  156.9236  130.9948  151.3000 H   0  0  0  0  0  0  0  0  0  0  0  0  # atno 10718 bound_to 10713
  154.5345  135.2802  155.1151 H   0  0  0  0  0  0  0  0  0  0  0  0  # atno 10763 bound_to 10752
  154.2658  135.6313  153.5295 H   0  0  0  0  0  0  0  0  0  0  0  0  # atno 10764 bound_to 10752
  152.9964  135.5616  154.5867 H   0  0  0  0  0  0  0  0  0  0  0  0  # atno 10765 bound_to 10752
  140.1904  134.3994  155.8150 H   0  0  0  0  0  0  0  0  0  0  0  0  # atno 11005 bound_to 11000
  144.6812  139.9858  143.7484 LP  0  0  0  0  0  0  0  0  0  0  0  0  # atno 17320 bound_to 7965
  146.0168  139.3217  143.0837 LP  0  0  0  0  0  0  0  0  0  0  0  0  # atno 17321 bound_to 7965
  139.6726  143.9993  152.2762 LP  0  0  0  0  0  0  0  0  0  0  0  0  # atno 17342 bound_to 10162
  139.9597  144.6566  150.8091 LP  0  0  0  0  0  0  0  0  0  0  0  0  # atno 17343 bound_to 10162
  157.5892  130.8431  149.8634 LP  0  0  0  0  0  0  0  0  0  0  0  0  # atno 17370 bound_to 10713
  156.0479  130.3724  150.1271 LP  0  0  0  0  0  0  0  0  0  0  0  0  # atno 17371 bound_to 10713
  141.2226  133.7043  156.8085 LP  0  0  0  0  0  0  0  0  0  0  0  0  # atno 17394 bound_to 11000
  140.2166  134.8788  157.3332 LP  0  0  0  0  0  0  0  0  0  0  0  0  # atno 17395 bound_to 11000

$$$$
