AV-unprocessed.smi:788|AV-procd|sdf|3736|dock5
  -GOLD-   22720 1173D 1   1.00000     0.00000
 Structure written by MMmdl.
 34 35  0  0  0  0  0  0  0  0  2 V2000
  149.1905  137.9919  155.9934 C   0  0  0  0  0  0  0  0  0  0  0  0
  150.4256  138.7338  156.5321 C   0  0  1  0  0  0  0  0  0  0  0  0
  150.1299  140.2301  156.7618 C   0  0  0  0  0  0  0  0  0  0  0  0
  151.3785  140.9834  157.2455 C   0  0  0  0  0  0  0  0  0  0  0  0
  151.9707  140.3388  158.5082 C   0  0  0  0  0  0  0  0  0  0  0  0
  152.2759  138.8424  158.2899 C   0  0  1  0  0  0  0  0  0  0  0  0
  152.9131  138.2106  159.5399 C   0  0  0  0  0  0  0  0  0  0  0  0
  151.0180  138.0781  157.8054 C   0  0  1  0  0  0  0  0  0  0  0  0
  150.0185  138.0110  158.8743 N   0  0  0  0  0  0  0  0  0  0  0  0
  149.3847  136.9198  159.3466 C   0  0  0  0  0  0  0  0  0  0  0  0
  149.6167  135.8231  158.8407 O   0  0  0  0  0  0  0  0  0  0  0  0
  148.5105  137.0984  160.3721 N   0  5  0  0  0  0  0  0  0  0  0  0
  147.9309  136.0657  161.0123 C   0  0  0  0  0  0  0  0  0  0  0  0
  147.5392  134.9509  160.3745 N   0  0  0  0  0  0  0  0  0  0  0  0
  146.9480  134.0196  161.2170 N   0  0  0  0  0  0  0  0  0  0  0  0
  146.9191  134.4533  162.4769 C   0  0  0  0  0  0  0  0  0  0  0  0
  147.6092  136.0394  162.7485 S   0  0  0  0  0  0  0  0  0  0  0  0
  148.3451  138.0656  156.6782 H   0  0  0  0  0  0  0  0  0  0  0  0
  149.4046  136.9337  155.8416 H   0  0  0  0  0  0  0  0  0  0  0  0
  148.8735  138.4047  155.0356 H   0  0  0  0  0  0  0  0  0  0  0  0
  151.1893  138.6703  155.7555 H   0  0  0  0  0  0  0  0  0  0  0  0
  149.7673  140.6839  155.8388 H   0  0  0  0  0  0  0  0  0  0  0  0
  149.3285  140.3443  157.4934 H   0  0  0  0  0  0  0  0  0  0  0  0
  152.1287  140.9909  156.4540 H   0  0  0  0  0  0  0  0  0  0  0  0
  151.1286  142.0260  157.4438 H   0  0  0  0  0  0  0  0  0  0  0  0
  152.8819  140.8667  158.7913 H   0  0  0  0  0  0  0  0  0  0  0  0
  151.2759  140.4613  159.3404 H   0  0  0  0  0  0  0  0  0  0  0  0
  153.0180  138.7758  157.4930 H   0  0  0  0  0  0  0  0  0  0  0  0
  152.2622  138.2929  160.4111 H   0  0  0  0  0  0  0  0  0  0  0  0
  153.8556  138.6994  159.7873 H   0  0  0  0  0  0  0  0  0  0  0  0
  153.1228  137.1526  159.3804 H   0  0  0  0  0  0  0  0  0  0  0  0
  151.3359  137.0689  157.5392 H   0  0  0  0  0  0  0  0  0  0  0  0
  149.7867  138.8900  159.3127 H   0  0  0  0  0  0  0  0  0  0  0  0
  146.4895  133.8353  163.2510 H   0  0  0  0  0  0  0  0  0  0  0  0
  1  2  1  0  0  0  0
  1 18  1  0  0  0  0
  1 19  1  0  0  0  0
  1 20  1  0  0  0  0
  2  8  1  0  0  0  0
  2  3  1  0  0  0  0
  2 21  1  0  0  0  0
  3  4  1  0  0  0  0
  3 22  1  0  0  0  0
  3 23  1  0  0  0  0
  4  5  1  0  0  0  0
  4 24  1  0  0  0  0
  4 25  1  0  0  0  0
  5  6  1  0  0  0  0
  5 26  1  0  0  0  0
  5 27  1  0  0  0  0
  6  7  1  0  0  0  0
  6  8  1  0  0  0  0
  6 28  1  0  0  0  0
  7 29  1  0  0  0  0
  7 30  1  0  0  0  0
  7 31  1  0  0  0  0
  8  9  1  0  0  0  0
  8 32  1  0  0  0  0
  9 10  1  0  0  0  0
  9 33  1  0  0  0  0
 10 11  2  0  0  0  0
 10 12  1  0  0  0  0
 12 13  1  0  0  0  0
 13 17  1  0  0  0  0
 13 14  2  0  0  0  0
 14 15  1  0  0  0  0
 15 16  2  0  0  0  0
 16 17  1  0  0  0  0
 16 34  1  0  0  0  0
M  CHG  1  12  -1
M  END
> <s_m_source_file>
AV-unprocessed.smi

> <i_m_source_file_index>
788

> <i_lp_mmshare_version>
43012

> <i_f3d_flags>
0

> <s_epik_input>
W0NIM11bQ0BASF0xW0NIMl1bQ0gyXVtDSDJdW0NAQEhdKFtDSDNdKVtDQEhdMVtOSF1DKD1PKVtOSF1jMm5uW2NIXXMy

> <s_epik_cmdline>
J2VwaWtfcHl0aG9uJywgJy1waCcsICc3LjAnLCAnLXRuJywgJzgnLCAnLW1hJywgJzIwMCcsICctbWV0YWxfYmluZGluZycsICctaW1hZScsICc8aW5maWxlLm1hZT4nLCAnLW9tYWUnLCAnPG91dGZpbGUubWFlPic=

> <r_lp_tautomer_probability>
1

> <r_epik_Ionization_Penalty>
4.58638

> <r_epik_Ionization_Penalty_Charging>
4.53816

> <r_epik_Ionization_Penalty_Neutral>
0.048215

> <r_epik_State_Penalty>
4.53788

> <r_epik_Charging_Adjusted_Penalty>
9.07605

> <i_epik_Tot_Q>
-1

> <i_epik_Tot_abs_Q>
1

> <r_epik_Metal_State_Penalty>
0.838628

> <b_epik_Metal_Only>
1

> <s_lp_Force_Field>
OPLS_2005

> <r_lp_Energy>
10.1282

> <b_lp_Chiralities_Consistent>
1

> <s_lp_Variant>
AV-unprocessed.smi:788-6

> <Gold.Version>
5.8.1

> <Gold.Id.Protein>
6NUR|6NUR_protein|mol2

> <Gold.PLP.Fitness>
34.5153

> <Gold.PLP.PLP>
-26.9761

> <Gold.PLP.part.hbond>
-3.0000

> <Gold.PLP.part.metal>
0.0000

> <Gold.PLP.part.buried>
-4.6147

> <Gold.PLP.part.nonpolar>
-19.8202

> <Gold.PLP.part.repulsive>
0.2128

> <Gold.PLP.ligand.clash>
0.0000

> <Gold.PLP.ligand.torsion>
0.3833

> <Gold.PLP.Chemscore.Hbond>
2.7650

> <Gold.PLP.Chemscore.CHOScore>
0.0000

> <Gold.PLP.Chemscore.Metal>
0.0000

> <Gold.Chemscore.Hbonds>
donor molecule, donor type, donor heavy atom, donor atom, acceptor molecule, acceptor atom, score
      P1  H  6896  6907       L1    11  1.00
      P1  H  6931  6943       L1    12  1.44
      P1  H  6934  6947       L1    12  0.11

> <Gold.PLP.Chemscore.Internal.Correction>
0.0109

> <Gold.Rescore>
     Score         DG    S(hbond)    S(metal)    S(lipo)     H(rot)  DE(clash)    DE(int)     intcor
     12.86     -14.63       1.66        0.00      52.74       1.00       0.00       1.76       ----

> <Gold.Chemscore.Fitness>
12.8644

> <Gold.Chemscore.DG>
-14.6273

> <Gold.Chemscore.ZeroCoef>
-5.4800

> <Gold.Chemscore.Hbond>
1.6576

> <Gold.Chemscore.Metal>
0.0000

> <Gold.Chemscore.Lipo>
52.7415

> <Gold.Chemscore.Internal_Hbond>
0.0000

> <Gold.Chemscore.DEClash>
0.0004

> <Gold.Chemscore.DEInternal>
1.7625

> <Gold.Chemscore.Rot>
1.0000

> <Gold.Chemscore.Internal.Correction>
   9.000000E+99

> <Gold.Chemscore.Hbonds>
donor molecule, donor type, donor heavy atom, donor atom, acceptor molecule, acceptor atom, score
      P1  H  6896  6907       L1    11  0.99
      P1  H  6931  6943       L1    12  0.23
      P1  H  6934  6947       L1    12  0.04

> <Gold.Chemscore.Hbond.Weighted>
-5.5365

> <Gold.Chemscore.Metal.Weighted>
-0.0000

> <Gold.Chemscore.Lipo.Weighted>
-6.1708

> <Gold.Chemscore.Internal_Hbond.Weighted>
0.0000

> <Gold.Chemscore.DEClash.Weighted>
0.0004

> <Gold.Chemscore.DEInternal.Weighted>
1.7625

> <Gold.Chemscore.Rot.Weighted>
2.5600

> <Gold.Chemscore.Internal.Correction.Weighted>
   9.000000E+99

> <Gold.Protein.RotatedTorsions>
[ 6907 6896 6895 6894 ] final  -72.65 input  -60.11 | X-H torsion
[ 7974 7965 7964 7962 ] final  -89.42 input  175.53 | X-H torsion
[ 8008 7997 7996 7995 ] final  131.15 input   59.86 | X-H torsion
[ 10167 10162 10161 10158 ] final -169.76 input  -65.29 | X-H torsion
[ 10718 10713 10712 10709 ] final -108.67 input   66.30 | X-H torsion
[ 10763 10752 10751 10750 ] final -171.61 input  -60.55 | X-H torsion
[ 11005 11000 10999 10996 ] final  -74.33 input  -57.11 | X-H torsion

> <Gold.Protein.ActiveResidues>
 VAL166  LYS551  ARG553  GLY616  TRP617  ASP618  TYR619  PRO620  LYS621  CYS622 
 ASP623  PHE694  ASN695  SER759  ASP760  ASP761  ALA762  ILE779  LEU786  VAL792 
 PHE793  MET794  SER795  GLU796  ALA797  LYS798  CYS799  TRP800  GLU811  SER814 

> <Gold.Protein.RotatedAtoms>
  150.7161  134.5131  159.5616 H   0  0  0  0  0  0  0  0  0  0  0  0  # atno 6907 bound_to 6896
  152.2703  134.7936  160.0424 H   0  0  0  0  0  0  0  0  0  0  0  0  # atno 6908 bound_to 6896
  151.8619  133.3423  159.3743 H   0  0  0  0  0  0  0  0  0  0  0  0  # atno 6909 bound_to 6896
  145.4401  140.9558  143.2080 H   0  0  0  0  0  0  0  0  0  0  0  0  # atno 7974 bound_to 7965
  156.2966  140.2578  156.2878 H   0  0  0  0  0  0  0  0  0  0  0  0  # atno 8008 bound_to 7997
  154.9539  140.0394  157.2176 H   0  0  0  0  0  0  0  0  0  0  0  0  # atno 8009 bound_to 7997
  154.8010  140.2828  155.5926 H   0  0  0  0  0  0  0  0  0  0  0  0  # atno 8010 bound_to 7997
  139.5903  144.1228  152.1626 H   0  0  0  0  0  0  0  0  0  0  0  0  # atno 10167 bound_to 10162
  156.0498  130.5725  150.7994 H   0  0  0  0  0  0  0  0  0  0  0  0  # atno 10718 bound_to 10713
  154.6286  135.2884  155.0243 H   0  0  0  0  0  0  0  0  0  0  0  0  # atno 10763 bound_to 10752
  154.1412  135.6518  153.4946 H   0  0  0  0  0  0  0  0  0  0  0  0  # atno 10764 bound_to 10752
  153.0269  135.5333  154.7104 H   0  0  0  0  0  0  0  0  0  0  0  0  # atno 10765 bound_to 10752
  141.1634  133.6908  156.7348 H   0  0  0  0  0  0  0  0  0  0  0  0  # atno 11005 bound_to 11000
  144.8127  139.5932  143.7022 LP  0  0  0  0  0  0  0  0  0  0  0  0  # atno 17320 bound_to 7965
  146.2561  139.6305  142.9394 LP  0  0  0  0  0  0  0  0  0  0  0  0  # atno 17321 bound_to 7965
  140.0801  144.5708  150.7128 LP  0  0  0  0  0  0  0  0  0  0  0  0  # atno 17342 bound_to 10162
  140.7167  143.2551  151.4411 LP  0  0  0  0  0  0  0  0  0  0  0  0  # atno 17343 bound_to 10162
  157.5411  131.0941  150.9825 LP  0  0  0  0  0  0  0  0  0  0  0  0  # atno 17370 bound_to 10713
  157.0108  130.5636  149.5320 LP  0  0  0  0  0  0  0  0  0  0  0  0  # atno 17371 bound_to 10713
  140.2718  134.8386  157.3854 LP  0  0  0  0  0  0  0  0  0  0  0  0  # atno 17394 bound_to 11000
  140.1514  134.4844  155.7958 LP  0  0  0  0  0  0  0  0  0  0  0  0  # atno 17395 bound_to 11000

$$$$
