AV-unprocessed.smi:554|AV-procd|sdf|2907|dock3
  -GOLD-   2262023403D 1   1.00000     0.00000
 Structure written by MMmdl.
 27 28  0  0  0  0  0  0  0  0  1 V2000
  152.6276  142.5250  161.9901 C   0  0  0  0  0  0  0  0  0  0  0  0
  151.6102  143.5470  161.5237 C   0  0  1  0  0  0  0  0  0  0  0  0
  152.0293  144.6951  160.6357 C   0  0  0  0  0  0  0  0  0  0  0  0
  151.1051  143.6293  160.0948 C   0  0  1  0  0  0  0  0  0  0  0  0
  151.5724  142.7157  158.9753 C   0  0  0  0  0  0  0  0  0  0  0  0
  150.7243  142.7293  157.7898 N   0  0  0  0  0  0  0  0  0  0  0  0
  150.4049  141.6573  157.0511 C   0  0  0  0  0  0  0  0  0  0  0  0
  150.8240  140.5224  157.2792 O   0  0  0  0  0  0  0  0  0  0  0  0
  149.5784  141.9915  156.0444 N   0  0  0  0  0  0  0  0  0  0  0  0
  149.0119  141.1449  155.0557 C   0  0  0  0  0  0  0  0  0  0  0  0
  147.8952  141.4229  154.3730 N   0  0  0  0  0  0  0  0  0  0  0  0
  147.5704  140.4123  153.4645 C   0  0  0  0  0  0  0  0  0  0  0  0
  148.4574  139.3649  153.4683 C   0  0  0  0  0  0  0  0  0  0  0  0
  149.7431  139.6069  154.6207 S   0  0  0  0  0  0  0  0  0  0  0  0
  153.4068  142.3669  161.2452 H   0  0  0  0  0  0  0  0  0  0  0  0
  152.1364  141.5731  162.1917 H   0  0  0  0  0  0  0  0  0  0  0  0
  153.1017  142.8680  162.9096 H   0  0  0  0  0  0  0  0  0  0  0  0
  150.8704  143.7832  162.2862 H   0  0  0  0  0  0  0  0  0  0  0  0
  151.6007  145.6734  160.8435 H   0  0  0  0  0  0  0  0  0  0  0  0
  153.0556  144.7055  160.2735 H   0  0  0  0  0  0  0  0  0  0  0  0
  150.0655  143.9329  159.9846 H   0  0  0  0  0  0  0  0  0  0  0  0
  152.5606  143.0535  158.6636 H   0  0  0  0  0  0  0  0  0  0  0  0
  151.7157  141.7004  159.3460 H   0  0  0  0  0  0  0  0  0  0  0  0
  150.3371  143.6221  157.5220 H   0  0  0  0  0  0  0  0  0  0  0  0
  149.3193  142.9648  155.9811 H   0  0  0  0  0  0  0  0  0  0  0  0
  146.6874  140.5204  152.8525 H   0  0  0  0  0  0  0  0  0  0  0  0
  148.4320  138.4693  152.8655 H   0  0  0  0  0  0  0  0  0  0  0  0
  1  2  1  0  0  0  0
  1 15  1  0  0  0  0
  1 16  1  0  0  0  0
  1 17  1  0  0  0  0
  2  4  1  0  0  0  0
  2  3  1  0  0  0  0
  2 18  1  0  0  0  0
  3  4  1  0  0  0  0
  3 19  1  0  0  0  0
  3 20  1  0  0  0  0
  4  5  1  0  0  0  0
  4 21  1  0  0  0  0
  5  6  1  0  0  0  0
  5 22  1  0  0  0  0
  5 23  1  0  0  0  0
  6  7  1  0  0  0  0
  6 24  1  0  0  0  0
  7  8  2  0  0  0  0
  7  9  1  0  0  0  0
  9 10  1  0  0  0  0
  9 25  1  0  0  0  0
 10 14  1  0  0  0  0
 10 11  2  0  0  0  0
 11 12  1  0  0  0  0
 12 13  2  0  0  0  0
 12 26  1  0  0  0  0
 13 14  1  0  0  0  0
 13 27  1  0  0  0  0
M  END
> <s_m_source_file>
AV-unprocessed.smi

> <i_m_source_file_index>
554

> <i_lp_mmshare_version>
43012

> <i_f3d_flags>
0

> <s_epik_input>
W0NIM11bQ0BASF0xW0NIMl1bQ0BIXTFbQ0gyXVtOSF1DKD1PKVtOSF1jMm5bY0hdW2NIXXMy

> <s_epik_cmdline>
J2VwaWtfcHl0aG9uJywgJy1waCcsICc3LjAnLCAnLXRuJywgJzgnLCAnLW1hJywgJzIwMCcsICctbWV0YWxfYmluZGluZycsICctaW1hZScsICc8aW5maWxlLm1hZT4nLCAnLW9tYWUnLCAnPG91dGZpbGUubWFlPic=

> <r_lp_tautomer_probability>
0.999

> <r_epik_Ionization_Penalty>
0.00042678

> <r_epik_Ionization_Penalty_Charging>
0

> <r_epik_Ionization_Penalty_Neutral>
0.00042678

> <r_epik_State_Penalty>
0.000177984

> <r_epik_Charging_Adjusted_Penalty>
0.000177984

> <i_epik_Tot_Q>
0

> <i_epik_Tot_abs_Q>
0

> <r_epik_Metal_State_Penalty>
-0

> <b_epik_Metal_Only>
0

> <s_lp_Force_Field>
OPLS_2005

> <r_lp_Energy>
14.702

> <b_lp_Chiralities_Consistent>
1

> <s_lp_Variant>
AV-unprocessed.smi:554-2

> <Gold.Version>
5.8.1

> <Gold.Id.Protein>
6NUR|6NUR_protein|mol2

> <Gold.PLP.Fitness>
42.2668

> <Gold.PLP.PLP>
-31.5546

> <Gold.PLP.part.hbond>
-2.0000

> <Gold.PLP.part.metal>
0.0000

> <Gold.PLP.part.buried>
-4.2174

> <Gold.PLP.part.nonpolar>
-26.3232

> <Gold.PLP.part.repulsive>
0.3955

> <Gold.PLP.ligand.clash>
0.0000

> <Gold.PLP.ligand.torsion>
0.6880

> <Gold.PLP.Chemscore.Hbond>
1.8560

> <Gold.PLP.Chemscore.CHOScore>
2.0000

> <Gold.PLP.Chemscore.Metal>
0.0000

> <Gold.Chemscore.Hbonds>
donor molecule, donor type, donor heavy atom, donor atom, acceptor molecule, acceptor atom, score
      L1  H     9    25       P1  8028  1.00
      L1  C    13    27       P1  7948  1.00
      L1  C    13    27       P1  7957  0.05

> <Gold.PLP.Chemscore.Internal.Correction>
0.5200

> <Gold.Rescore>
     Score         DG    S(hbond)    S(metal)    S(lipo)     H(rot)  DE(clash)    DE(int)     intcor
     16.39     -17.98       1.91        0.00      80.35       1.28       0.02       1.57       ----

> <Gold.Chemscore.Fitness>
16.3920

> <Gold.Chemscore.DG>
-17.9816

> <Gold.Chemscore.ZeroCoef>
-5.4800

> <Gold.Chemscore.Hbond>
1.9085

> <Gold.Chemscore.Metal>
0.0000

> <Gold.Chemscore.Lipo>
80.3517

> <Gold.Chemscore.Internal_Hbond>
0.0000

> <Gold.Chemscore.DEClash>
0.0231

> <Gold.Chemscore.DEInternal>
1.5664

> <Gold.Chemscore.Rot>
1.2788

> <Gold.Chemscore.Internal.Correction>
   9.000000E+99

> <Gold.Chemscore.Hbonds>
donor molecule, donor type, donor heavy atom, donor atom, acceptor molecule, acceptor atom, score
      L1  H     9    25       P1  8028  1.00

> <Gold.Chemscore.Hbond.Weighted>
-6.3743

> <Gold.Chemscore.Metal.Weighted>
-0.0000

> <Gold.Chemscore.Lipo.Weighted>
-9.4012

> <Gold.Chemscore.Internal_Hbond.Weighted>
0.0000

> <Gold.Chemscore.DEClash.Weighted>
0.0231

> <Gold.Chemscore.DEInternal.Weighted>
1.5664

> <Gold.Chemscore.Rot.Weighted>
3.2738

> <Gold.Chemscore.Internal.Correction.Weighted>
   9.000000E+99

> <Gold.Protein.RotatedTorsions>
[ 6907 6896 6895 6894 ] final  170.01 input  -60.11 | X-H torsion
[ 7974 7965 7964 7962 ] final   95.79 input  175.53 | X-H torsion
[ 8008 7997 7996 7995 ] final   73.66 input   59.86 | X-H torsion
[ 10167 10162 10161 10158 ] final -137.47 input  -65.29 | X-H torsion
[ 10718 10713 10712 10709 ] final  161.00 input   66.30 | X-H torsion
[ 10763 10752 10751 10750 ] final  -69.63 input  -60.55 | X-H torsion
[ 11005 11000 10999 10996 ] final  170.21 input  -57.11 | X-H torsion

> <Gold.Protein.ActiveResidues>
 VAL166  LYS551  ARG553  GLY616  TRP617  ASP618  TYR619  PRO620  LYS621  CYS622 
 ASP623  PHE694  ASN695  SER759  ASP760  ASP761  ALA762  ILE779  LEU786  VAL792 
 PHE793  MET794  SER795  GLU796  ALA797  LYS798  CYS799  TRP800  GLU811  SER814 

> <Gold.Protein.RotatedAtoms>
  151.8228  133.3397  159.3589 H   0  0  0  0  0  0  0  0  0  0  0  0  # atno 6907 bound_to 6896
  150.7289  134.5557  159.5826 H   0  0  0  0  0  0  0  0  0  0  0  0  # atno 6908 bound_to 6896
  152.2993  134.7631  160.0412 H   0  0  0  0  0  0  0  0  0  0  0  0  # atno 6909 bound_to 6896
  145.4475  139.2296  143.3058 H   0  0  0  0  0  0  0  0  0  0  0  0  # atno 7974 bound_to 7965
  155.7869  140.3480  155.5328 H   0  0  0  0  0  0  0  0  0  0  0  0  # atno 8008 bound_to 7997
  155.8672  140.0981  157.1595 H   0  0  0  0  0  0  0  0  0  0  0  0  # atno 8009 bound_to 7997
  154.4015  140.1347  156.4021 H   0  0  0  0  0  0  0  0  0  0  0  0  # atno 8010 bound_to 7997
  139.8574  143.7120  152.2653 H   0  0  0  0  0  0  0  0  0  0  0  0  # atno 10167 bound_to 10162
  157.1426  131.0544  151.2319 H   0  0  0  0  0  0  0  0  0  0  0  0  # atno 10718 bound_to 10713
  154.4061  135.6020  153.5925 H   0  0  0  0  0  0  0  0  0  0  0  0  # atno 10763 bound_to 10752
  152.9789  135.5918  154.4126 H   0  0  0  0  0  0  0  0  0  0  0  0  # atno 10764 bound_to 10752
  154.3931  135.2842  155.2120 H   0  0  0  0  0  0  0  0  0  0  0  0  # atno 10765 bound_to 10752
  140.3059  134.7557  157.3953 H   0  0  0  0  0  0  0  0  0  0  0  0  # atno 11005 bound_to 11000
  146.2522  140.5230  142.8888 LP  0  0  0  0  0  0  0  0  0  0  0  0  # atno 17320 bound_to 7965
  144.8082  140.6338  143.6432 LP  0  0  0  0  0  0  0  0  0  0  0  0  # atno 17321 bound_to 7965
  139.7406  144.7560  151.0658 LP  0  0  0  0  0  0  0  0  0  0  0  0  # atno 17342 bound_to 10162
  140.7779  143.4977  150.9812 LP  0  0  0  0  0  0  0  0  0  0  0  0  # atno 17343 bound_to 10162
  157.4293  130.7481  149.6977 LP  0  0  0  0  0  0  0  0  0  0  0  0  # atno 17370 bound_to 10713
  155.9785  130.4050  150.3641 LP  0  0  0  0  0  0  0  0  0  0  0  0  # atno 17371 bound_to 10713
  140.1067  134.5399  155.8302 LP  0  0  0  0  0  0  0  0  0  0  0  0  # atno 17394 bound_to 11000
  141.2118  133.6711  156.6613 LP  0  0  0  0  0  0  0  0  0  0  0  0  # atno 17395 bound_to 11000

$$$$
