#       Name:                AV-unprocessed.smi:1645
#       Creating user name   scv26
#       Creation time:       Fri Mar 27 07:32:21 2020


#       File generated by GOLD software.
#

@<TRIPOS>MOLECULE
AV-unprocessed.smi:1645
    58    61     1
SMALL
NO_CHARGES


@<TRIPOS>ATOM
      1 ****        -0.5338   1.7556  -0.3069 O.2            1 S1                 0.0000
      2 ****        -1.0107   0.6220  -0.1795 C.2            1 S1                 0.0000
      3 ****        -0.2015  -0.4407  -0.0233 N.am           1 S1                 0.0000
      4 ****         1.2171  -0.4951  -0.0666 C.ar           1 S1                 0.0000
      5 ****         2.0160   0.3899  -0.8291 C.ar           1 S1                 0.0000
      6 ****         3.4174   0.2366  -0.8302 C.ar           1 S1                 0.0000
      7 ****         4.0178  -0.8046  -0.0778 C.ar           1 S1                 0.0000
      8 ****         5.4111  -1.0389  -0.0274 N.pl3          1 S1                 0.0000
      9 ****         5.9685  -1.3627   1.2900 C.3            1 S1                 0.0000
     10 ****         7.3620  -2.0035   1.1711 C.3            1 S1                 0.0000
     11 ****         8.3011  -1.1340   0.3240 C.3            1 S1                 0.0000
     12 ****         7.6681  -0.8709  -1.0488 C.3            1 S1                 0.0000
     13 ****         6.2708  -0.2436  -0.9065 C.3            1 S1                 0.0000
     14 ****         3.2047  -1.6338   0.6213 N.pl3          1 S1                 1.0000
     15 ****         1.8591  -1.5241   0.6492 C.ar           1 S1                 0.0000
     16 ****        -2.3254   0.2743  -0.1542 N.pl3          1 S1                -1.0000
     17 ****        -3.4394   1.2144  -0.2965 C.3            1 S1                 0.0000
     18 ****        -3.6864   1.5959  -1.7694 C.3            1 S1                 0.0000
     19 ****        -5.2143   1.7374  -1.9096 C.3            1 S1                 0.0000
     20 ****        -5.7651   1.4205  -0.5777 N.4            1 S1                 1.0000
     21 ****        -7.1344   0.8625  -0.5263 C.3            1 S1                 0.0000
     22 ****        -7.5659   0.7084   0.9462 C.3            1 S1                 0.0000
     23 ****        -6.5374  -0.0992   1.7652 C.3            1 S1                 0.0000
     24 ****        -5.1172   0.4791   1.6045 C.3            1 S1                 0.0000
     25 ****        -4.7733   0.5724   0.1034 C.3            1 S1                 0.0000
     26 ****        -0.6654  -1.3103   0.1950 H              1 S1                 0.0000
     27 ****         1.5778   1.1756  -1.4254 H              1 S1                 0.0000
     28 ****         4.0047   0.9310  -1.4112 H              1 S1                 0.0000
     29 ****         6.0312  -0.4446   1.8753 H              1 S1                 0.0000
     30 ****         5.3240  -2.0441   1.8446 H              1 S1                 0.0000
     31 ****         7.7870  -2.1562   2.1636 H              1 S1                 0.0000
     32 ****         7.2722  -2.9919   0.7181 H              1 S1                 0.0000
     33 ****         8.4902  -0.1877   0.8322 H              1 S1                 0.0000
     34 ****         9.2671  -1.6262   0.2066 H              1 S1                 0.0000
     35 ****         8.3113  -0.2175  -1.6387 H              1 S1                 0.0000
     36 ****         7.5916  -1.8095  -1.5996 H              1 S1                 0.0000
     37 ****         5.8292  -0.1675  -1.9005 H              1 S1                 0.0000
     38 ****         6.3520   0.7677  -0.5058 H              1 S1                 0.0000
     39 ****         1.3394  -2.2593   1.2465 H              1 S1                 0.0000
     40 ****        -3.3028   2.1257   0.2885 H              1 S1                 0.0000
     41 ****        -3.1647   2.5165  -2.0328 H              1 S1                 0.0000
     42 ****        -3.3340   0.8169  -2.4478 H              1 S1                 0.0000
     43 ****        -5.5119   2.7418  -2.2133 H              1 S1                 0.0000
     44 ****        -5.5902   1.0346  -2.6556 H              1 S1                 0.0000
     45 ****        -7.8209   1.5266  -1.0524 H              1 S1                 0.0000
     46 ****        -7.1612  -0.1016  -1.0365 H              1 S1                 0.0000
     47 ****        -7.6813   1.6973   1.3921 H              1 S1                 0.0000
     48 ****        -8.5449   0.2314   1.0005 H              1 S1                 0.0000
     49 ****        -6.8210  -0.1110   2.8179 H              1 S1                 0.0000
     50 ****        -6.5448  -1.1376   1.4319 H              1 S1                 0.0000
     51 ****        -5.0707   1.4615   2.0785 H              1 S1                 0.0000
     52 ****        -4.4011  -0.1567   2.1283 H              1 S1                 0.0000
     53 ****        -4.8282  -0.4273  -0.3351 H              1 S1                 0.0000
     54 ****        -5.7766   2.2917  -0.0669 H              1 S1                 0.0000
     55 ****         3.6331  -2.3895   1.1556 H              1 S1                 0.0000
     56 ****         0.4577   1.8853  -0.2940 LP             1 S1                 0.0000
     57 ****        -1.1396   2.5428  -0.4228 LP             1 S1                 0.0000
     58 ****        -2.5473  -0.6927  -0.0294 LP             1 S1                 0.0000
@<TRIPOS>BOND
    1    1    2 2     
    2    2    3 am    
    3    2   16 1     
    4    3    4 1     
    5    3   26 1     
    6    4   15 ar    
    7    4    5 ar    
    8    5    6 ar    
    9    5   27 1     
   10    6    7 ar    
   11    6   28 1     
   12    7    8 1     
   13    7   14 ar    
   14    8   13 1     
   15    8    9 1     
   16    9   10 1     
   17    9   29 1     
   18    9   30 1     
   19   10   11 1     
   20   10   31 1     
   21   10   32 1     
   22   11   12 1     
   23   11   33 1     
   24   11   34 1     
   25   12   13 1     
   26   12   35 1     
   27   12   36 1     
   28   13   37 1     
   29   13   38 1     
   30   14   15 ar    
   31   14   55 1     
   32   15   39 1     
   33   16   17 1     
   34   17   25 1     
   35   17   18 1     
   36   17   40 1     
   37   18   19 1     
   38   18   41 1     
   39   18   42 1     
   40   19   20 1     
   41   19   43 1     
   42   19   44 1     
   43   20   25 1     
   44   20   21 1     
   45   20   54 1     
   46   21   22 1     
   47   21   45 1     
   48   21   46 1     
   49   22   23 1     
   50   22   47 1     
   51   22   48 1     
   52   23   24 1     
   53   23   49 1     
   54   23   50 1     
   55   24   25 1     
   56   24   51 1     
   57   24   52 1     
   58   25   53 1     
   59    1   56 1     
   60    1   57 1     
   61   16   58 1     
@<TRIPOS>SUBSTRUCTURE
      1 S1             1
@<TRIPOS>SET
LONE_PAIRS      STATIC     ATOMS    <user>   **** ""
3 56 57 58
DONOR_HYDROGENS      STATIC     ATOMS    <user>   **** ""
3 26 55 54
ATOM$BLUE        STATIC     ATOMS    COLORGROUP SYSTEM
3 56 57 58
ATOM$RED        STATIC     ATOMS    COLORGROUP SYSTEM
3 26 55 54
