AV-unprocessed.smi:1978|AV-procd|sdf|8000|dock7
  -GOLD-   2272010183D 1   1.00000     0.00000
 Structure written by MMmdl.
 44 45  0  0  0  0  0  0  0  0  3 V2000
  146.2524  135.0276  162.5141 C   0  0  0  0  0  0  0  0  0  0  0  0
  147.0871  135.4300  161.3466 C   0  0  0  0  0  0  0  0  0  0  0  0
  147.8767  134.7245  160.4835 C   0  0  0  0  0  0  0  0  0  0  0  0
  148.3742  135.7263  159.6057 C   0  0  0  0  0  0  0  0  0  0  0  0
  149.2137  135.5300  158.5773 N   0  5  0  0  0  0  0  0  0  0  0  0
  148.9134  136.0158  157.3517 C   0  0  0  0  0  0  0  0  0  0  0  0
  148.5637  137.1683  157.0859 O   0  0  0  0  0  0  0  0  0  0  0  0
  149.0203  135.1077  156.3710 N   0  0  0  0  0  0  0  0  0  0  0  0
  148.7455  135.3468  154.9572 C   0  0  0  0  0  0  0  0  0  0  0  0
  148.1219  134.1139  154.2393 C   0  0  2  0  0  0  0  0  0  0  0  0
  149.2360  133.0863  153.9178 C   0  0  0  0  0  0  0  0  0  0  0  0
  147.3463  134.4836  153.0043 N   0  3  1  0  0  0  0  0  0  0  0  0
  147.1430  133.3416  152.0607 C   0  0  0  0  0  0  0  0  0  0  0  0
  146.5430  133.7992  150.7213 C   0  0  0  0  0  0  0  0  0  0  0  0
  145.2260  134.5483  150.9275 C   0  0  0  0  0  0  0  0  0  0  0  0
  145.4494  135.7082  151.9026 C   0  0  0  0  0  0  0  0  0  0  0  0
  146.0698  135.2407  153.2363 C   0  0  1  0  0  0  0  0  0  0  0  0
  145.0516  134.4757  154.1119 C   0  0  0  0  0  0  0  0  0  0  0  0
  147.9399  136.9351  159.9202 N   0  0  0  0  0  0  0  0  0  0  0  0
  147.1089  136.7532  161.0321 O   0  0  0  0  0  0  0  0  0  0  0  0
  146.8681  134.5671  163.2867 H   0  0  0  0  0  0  0  0  0  0  0  0
  145.4908  134.3080  162.2135 H   0  0  0  0  0  0  0  0  0  0  0  0
  145.7486  135.8889  162.9534 H   0  0  0  0  0  0  0  0  0  0  0  0
  148.0653  133.6615  160.4772 H   0  0  0  0  0  0  0  0  0  0  0  0
  149.3160  134.1777  156.6307 H   0  0  0  0  0  0  0  0  0  0  0  0
  148.1010  136.2237  154.9149 H   0  0  0  0  0  0  0  0  0  0  0  0
  149.6816  135.6267  154.4735 H   0  0  0  0  0  0  0  0  0  0  0  0
  147.4254  133.6366  154.9297 H   0  0  0  0  0  0  0  0  0  0  0  0
  149.8700  132.8831  154.7801 H   0  0  0  0  0  0  0  0  0  0  0  0
  149.8838  133.4439  153.1169 H   0  0  0  0  0  0  0  0  0  0  0  0
  148.8407  132.1145  153.6284 H   0  0  0  0  0  0  0  0  0  0  0  0
  148.0839  132.8523  151.8224 H   0  0  0  0  0  0  0  0  0  0  0  0
  146.5106  132.5828  152.5225 H   0  0  0  0  0  0  0  0  0  0  0  0
  147.2548  134.4450  150.2047 H   0  0  0  0  0  0  0  0  0  0  0  0
  146.3816  132.9377  150.0725 H   0  0  0  0  0  0  0  0  0  0  0  0
  144.8541  134.9248  149.9740 H   0  0  0  0  0  0  0  0  0  0  0  0
  144.4642  133.8694  151.3115 H   0  0  0  0  0  0  0  0  0  0  0  0
  146.1111  136.4406  151.4375 H   0  0  0  0  0  0  0  0  0  0  0  0
  144.5079  136.2277  152.0849 H   0  0  0  0  0  0  0  0  0  0  0  0
  146.3111  136.1691  153.7509 H   0  0  0  0  0  0  0  0  0  0  0  0
  144.1568  135.0772  154.2736 H   0  0  0  0  0  0  0  0  0  0  0  0
  145.4522  134.2392  155.0970 H   0  0  0  0  0  0  0  0  0  0  0  0
  144.7325  133.5394  153.6559 H   0  0  0  0  0  0  0  0  0  0  0  0
  147.9424  135.1329  152.5115 H   0  0  0  0  0  0  0  0  0  0  0  0
  1  2  1  0  0  0  0
  1 21  1  0  0  0  0
  1 22  1  0  0  0  0
  1 23  1  0  0  0  0
  2 20  1  0  0  0  0
  2  3  2  0  0  0  0
  3  4  1  0  0  0  0
  3 24  1  0  0  0  0
  4  5  1  0  0  0  0
  4 19  2  0  0  0  0
  5  6  1  0  0  0  0
  6  7  2  0  0  0  0
  6  8  1  0  0  0  0
  8  9  1  0  0  0  0
  8 25  1  0  0  0  0
  9 10  1  0  0  0  0
  9 26  1  0  0  0  0
  9 27  1  0  0  0  0
 10 11  1  0  0  0  0
 10 12  1  0  0  0  0
 10 28  1  0  0  0  0
 11 29  1  0  0  0  0
 11 30  1  0  0  0  0
 11 31  1  0  0  0  0
 12 17  1  0  0  0  0
 12 13  1  0  0  0  0
 12 44  1  0  0  0  0
 13 14  1  0  0  0  0
 13 32  1  0  0  0  0
 13 33  1  0  0  0  0
 14 15  1  0  0  0  0
 14 34  1  0  0  0  0
 14 35  1  0  0  0  0
 15 16  1  0  0  0  0
 15 36  1  0  0  0  0
 15 37  1  0  0  0  0
 16 17  1  0  0  0  0
 16 38  1  0  0  0  0
 16 39  1  0  0  0  0
 17 18  1  0  0  0  0
 17 40  1  0  0  0  0
 18 41  1  0  0  0  0
 18 42  1  0  0  0  0
 18 43  1  0  0  0  0
 19 20  1  0  0  0  0
M  CHG  1   5  -1
M  CHG  1  12   1
M  END
> <s_m_source_file>
AV-unprocessed.smi

> <i_m_source_file_index>
1978

> <i_lp_mmshare_version>
43012

> <i_f3d_flags>
0

> <s_epik_input>
W0NIM11jMVtjSF1jKG5vMSlbTkhdQyg9TylbTkhdW0NIMl1bQ0BIXShbQ0gzXSlOMltDSDJdW0NIMl1bQ0gyXVtDSDJdW0NASF0yW0NIM10=

> <s_epik_cmdline>
J2VwaWtfcHl0aG9uJywgJy1waCcsICc3LjAnLCAnLXRuJywgJzgnLCAnLW1hJywgJzIwMCcsICctbWV0YWxfYmluZGluZycsICctaW1hZScsICc8aW5maWxlLm1hZT4nLCAnLW9tYWUnLCAnPG91dGZpbGUubWFlPic=

> <r_epik_Ionization_Penalty>
6.22372

> <r_epik_Ionization_Penalty_Charging>
6.22362

> <r_epik_Ionization_Penalty_Neutral>
9.65074e-05

> <r_epik_State_Penalty>
6.22363

> <r_epik_Charging_Adjusted_Penalty>
12.4472

> <i_epik_Tot_Q>
0

> <i_epik_Tot_abs_Q>
2

> <r_epik_Metal_State_Penalty>
2.16675

> <b_epik_Metal_Only>
1

> <s_lp_Force_Field>
OPLS_2005

> <r_lp_Energy>
12.8084

> <b_lp_Chiralities_Consistent>
1

> <s_lp_Variant>
AV-unprocessed.smi:1978-9

> <Gold.Version>
5.8.1

> <Gold.Id.Protein>
6NUR|6NUR_protein|mol2

> <Gold.PLP.Fitness>
43.4954

> <Gold.PLP.PLP>
-30.2780

> <Gold.PLP.part.hbond>
-4.9167

> <Gold.PLP.part.metal>
0.0000

> <Gold.PLP.part.buried>
-3.2773

> <Gold.PLP.part.nonpolar>
-22.2431

> <Gold.PLP.part.repulsive>
0.0307

> <Gold.PLP.ligand.clash>
0.0000

> <Gold.PLP.ligand.torsion>
1.5543

> <Gold.PLP.Chemscore.Hbond>
5.4104

> <Gold.PLP.Chemscore.CHOScore>
0.0000

> <Gold.PLP.Chemscore.Metal>
0.0000

> <Gold.Chemscore.Hbonds>
donor molecule, donor type, donor heavy atom, donor atom, acceptor molecule, acceptor atom, score
      L1  H    12    44       P1  7948  2.00
      P1  H  6896  6909       L1     5  1.92

> <Gold.PLP.Chemscore.Internal.Correction>
0.0948

> <Gold.Rescore>
     Score         DG    S(hbond)    S(metal)    S(lipo)     H(rot)  DE(clash)    DE(int)     intcor
     14.08     -17.55       2.73        0.00      58.55       1.52       0.17       3.29       ----

> <Gold.Chemscore.Fitness>
14.0794

> <Gold.Chemscore.DG>
-17.5471

> <Gold.Chemscore.ZeroCoef>
-5.4800

> <Gold.Chemscore.Hbond>
2.7261

> <Gold.Chemscore.Metal>
0.0000

> <Gold.Chemscore.Lipo>
58.5508

> <Gold.Chemscore.Internal_Hbond>
0.0000

> <Gold.Chemscore.DEClash>
0.1746

> <Gold.Chemscore.DEInternal>
3.2932

> <Gold.Chemscore.Rot>
1.5190

> <Gold.Chemscore.Internal.Correction>
   9.000000E+99

> <Gold.Chemscore.Hbonds>
donor molecule, donor type, donor heavy atom, donor atom, acceptor molecule, acceptor atom, score
      L1  H    12    44       P1  7948  0.94
      P1  H  6896  6909       L1     5  0.27

> <Gold.Chemscore.Hbond.Weighted>
-9.1053

> <Gold.Chemscore.Metal.Weighted>
-0.0000

> <Gold.Chemscore.Lipo.Weighted>
-6.8504

> <Gold.Chemscore.Internal_Hbond.Weighted>
0.0000

> <Gold.Chemscore.DEClash.Weighted>
0.1746

> <Gold.Chemscore.DEInternal.Weighted>
3.2932

> <Gold.Chemscore.Rot.Weighted>
3.8886

> <Gold.Chemscore.Internal.Correction.Weighted>
   9.000000E+99

> <Gold.Protein.RotatedTorsions>
[ 6907 6896 6895 6894 ] final   33.30 input  -60.11 | X-H torsion
[ 7974 7965 7964 7962 ] final   76.33 input  175.53 | X-H torsion
[ 8008 7997 7996 7995 ] final -164.03 input   59.86 | X-H torsion
[ 10167 10162 10161 10158 ] final  175.88 input  -65.29 | X-H torsion
[ 10718 10713 10712 10709 ] final   24.54 input   66.30 | X-H torsion
[ 10763 10752 10751 10750 ] final   46.42 input  -60.55 | X-H torsion
[ 11005 11000 10999 10996 ] final  177.25 input  -57.11 | X-H torsion

> <Gold.Protein.ActiveResidues>
 VAL166  LYS551  ARG553  GLY616  TRP617  ASP618  TYR619  PRO620  LYS621  CYS622 
 ASP623  PHE694  ASN695  SER759  ASP760  ASP761  ALA762  ILE779  LEU786  VAL792 
 PHE793  MET794  SER795  GLU796  ALA797  LYS798  CYS799  TRP800  GLU811  SER814 

> <Gold.Protein.RotatedAtoms>
  152.0866  134.9435  160.0572 H   0  0  0  0  0  0  0  0  0  0  0  0  # atno 6907 bound_to 6896
  152.0703  133.4098  159.4464 H   0  0  0  0  0  0  0  0  0  0  0  0  # atno 6908 bound_to 6896
  150.6836  134.3019  159.4753 H   0  0  0  0  0  0  0  0  0  0  0  0  # atno 6909 bound_to 6896
  145.7042  139.2593  143.1688 H   0  0  0  0  0  0  0  0  0  0  0  0  # atno 7974 bound_to 7965
  155.8297  140.0932  157.1800 H   0  0  0  0  0  0  0  0  0  0  0  0  # atno 8008 bound_to 7997
  154.3979  140.1421  156.3660 H   0  0  0  0  0  0  0  0  0  0  0  0  # atno 8009 bound_to 7997
  155.8179  140.3447  155.5499 H   0  0  0  0  0  0  0  0  0  0  0  0  # atno 8010 bound_to 7997
  139.5193  144.2980  152.0404 H   0  0  0  0  0  0  0  0  0  0  0  0  # atno 10167 bound_to 10162
  157.1812  130.6803  149.6114 H   0  0  0  0  0  0  0  0  0  0  0  0  # atno 10718 bound_to 10713
  152.9811  135.6008  154.3597 H   0  0  0  0  0  0  0  0  0  0  0  0  # atno 10763 bound_to 10752
  154.3279  135.2769  155.2488 H   0  0  0  0  0  0  0  0  0  0  0  0  # atno 10764 bound_to 10752
  154.4625  135.5962  153.6321 H   0  0  0  0  0  0  0  0  0  0  0  0  # atno 10765 bound_to 10752
  140.3820  134.6938  157.4457 H   0  0  0  0  0  0  0  0  0  0  0  0  # atno 11005 bound_to 11000
  146.0770  140.7806  142.9660 LP  0  0  0  0  0  0  0  0  0  0  0  0  # atno 17320 bound_to 7965
  144.6960  140.3430  143.7195 LP  0  0  0  0  0  0  0  0  0  0  0  0  # atno 17321 bound_to 7965
  140.2429  144.4250  150.6253 LP  0  0  0  0  0  0  0  0  0  0  0  0  # atno 17342 bound_to 10162
  140.6278  143.2183  151.6559 LP  0  0  0  0  0  0  0  0  0  0  0  0  # atno 17343 bound_to 10162
  155.9724  130.4646  150.6223 LP  0  0  0  0  0  0  0  0  0  0  0  0  # atno 17370 bound_to 10713
  157.3951  131.0801  151.1359 LP  0  0  0  0  0  0  0  0  0  0  0  0  # atno 17371 bound_to 10713
  140.0471  134.6184  155.8908 LP  0  0  0  0  0  0  0  0  0  0  0  0  # atno 17394 bound_to 11000
  141.1920  133.6573  156.5482 LP  0  0  0  0  0  0  0  0  0  0  0  0  # atno 17395 bound_to 11000

$$$$
