AV-unprocessed.smi:468|AV-procd|sdf|2652|dock9
  -GOLD-   2262023 63D 1   1.00000     0.00000
 Structure written by MMmdl.
 49 50  0  0  0  0  0  0  0  0  2 V2000
  147.9830  135.5572  160.5553 C   0  0  0  0  0  0  0  0  0  0  0  0
  147.9950  136.2224  159.3056 O   0  0  0  0  0  0  0  0  0  0  0  0
  148.8107  135.5718  158.3459 C   0  0  0  0  0  0  0  0  0  0  0  0
  148.7096  136.3133  157.0028 C   0  0  0  0  0  0  0  0  0  0  0  0
  149.7189  135.8626  156.0301 N   0  0  0  0  0  0  0  0  0  0  0  0
  150.6901  136.7056  155.5891 C   0  0  0  0  0  0  0  0  0  0  0  0
  151.5987  136.3180  154.8519 O   0  0  0  0  0  0  0  0  0  0  0  0
  150.6328  138.2002  155.9825 C   0  0  0  0  0  0  0  0  0  0  0  0
  150.7189  139.2096  154.8190 C   0  0  0  0  0  0  0  0  0  0  0  0
  151.6970  140.0312  155.6628 C   0  0  0  0  0  0  0  0  0  0  0  0
  151.9727  138.7670  156.4807 C   0  0  0  0  0  0  0  0  0  0  0  0
  149.6526  134.5166  155.6238 C   0  0  0  0  0  0  0  0  0  0  0  0
  148.8869  134.1047  154.5779 C   0  0  0  0  0  0  0  0  0  0  0  0
  148.1163  135.0068  153.8582 N   0  0  0  0  0  0  0  0  0  0  0  0
  148.8619  132.7318  154.2121 N   0  0  0  0  0  0  0  0  0  0  0  0
  148.0074  132.3129  153.0766 C   0  0  0  0  0  0  0  0  0  0  0  0
  146.6543  131.7035  153.5197 C   0  0  0  0  0  0  0  0  0  0  0  0
  146.8145  130.4765  154.4332 C   0  0  0  0  0  0  0  0  0  0  0  0
  145.7965  131.3529  152.2951 C   0  0  0  0  0  0  0  0  0  0  0  0
  149.6117  131.8134  154.8979 C   0  0  0  0  0  0  0  0  0  0  0  0
  149.5680  130.6279  154.5667 O   0  0  0  0  0  0  0  0  0  0  0  0
  150.3868  132.2336  155.9384 N   0  5  0  0  0  0  0  0  0  0  0  0
  150.4583  133.5275  156.3473 C   0  0  0  0  0  0  0  0  0  0  0  0
  151.1733  133.8805  157.2856 O   0  0  0  0  0  0  0  0  0  0  0  0
  147.3401  136.0982  161.2496 H   0  0  0  0  0  0  0  0  0  0  0  0
  148.9834  135.5139  160.9878 H   0  0  0  0  0  0  0  0  0  0  0  0
  147.5974  134.5418  160.4585 H   0  0  0  0  0  0  0  0  0  0  0  0
  149.8460  135.5205  158.6862 H   0  0  0  0  0  0  0  0  0  0  0  0
  148.4605  134.5464  158.2202 H   0  0  0  0  0  0  0  0  0  0  0  0
  147.7115  136.1752  156.5837 H   0  0  0  0  0  0  0  0  0  0  0  0
  148.7967  137.3871  157.1765 H   0  0  0  0  0  0  0  0  0  0  0  0
  149.8038  138.4582  156.6434 H   0  0  0  0  0  0  0  0  0  0  0  0
  151.1814  138.8316  153.9060 H   0  0  0  0  0  0  0  0  0  0  0  0
  149.7828  139.7248  154.6024 H   0  0  0  0  0  0  0  0  0  0  0  0
  152.5582  140.4177  155.1169 H   0  0  0  0  0  0  0  0  0  0  0  0
  151.2014  140.8099  156.2448 H   0  0  0  0  0  0  0  0  0  0  0  0
  152.0168  138.9365  157.5570 H   0  0  0  0  0  0  0  0  0  0  0  0
  152.8438  138.2127  156.1267 H   0  0  0  0  0  0  0  0  0  0  0  0
  148.1063  135.9886  154.0941 H   0  0  0  0  0  0  0  0  0  0  0  0
  147.3715  134.6882  153.2554 H   0  0  0  0  0  0  0  0  0  0  0  0
  147.8311  133.1692  152.4246 H   0  0  0  0  0  0  0  0  0  0  0  0
  148.5192  131.6063  152.4220 H   0  0  0  0  0  0  0  0  0  0  0  0
  146.1056  132.4557  154.0866 H   0  0  0  0  0  0  0  0  0  0  0  0
  147.3979  129.6942  153.9469 H   0  0  0  0  0  0  0  0  0  0  0  0
  145.8448  130.0538  154.6970 H   0  0  0  0  0  0  0  0  0  0  0  0
  147.3147  130.7355  155.3664 H   0  0  0  0  0  0  0  0  0  0  0  0
  146.2757  130.5889  151.6819 H   0  0  0  0  0  0  0  0  0  0  0  0
  145.6309  132.2289  151.6673 H   0  0  0  0  0  0  0  0  0  0  0  0
  144.8184  130.9751  152.5942 H   0  0  0  0  0  0  0  0  0  0  0  0
  1  2  1  0  0  0  0
  1 25  1  0  0  0  0
  1 26  1  0  0  0  0
  1 27  1  0  0  0  0
  2  3  1  0  0  0  0
  3  4  1  0  0  0  0
  3 28  1  0  0  0  0
  3 29  1  0  0  0  0
  4  5  1  0  0  0  0
  4 30  1  0  0  0  0
  4 31  1  0  0  0  0
  5  6  1  0  0  0  0
  5 12  1  0  0  0  0
  6  7  2  0  0  0  0
  6  8  1  0  0  0  0
  8 11  1  0  0  0  0
  8  9  1  0  0  0  0
  8 32  1  0  0  0  0
  9 10  1  0  0  0  0
  9 33  1  0  0  0  0
  9 34  1  0  0  0  0
 10 11  1  0  0  0  0
 10 35  1  0  0  0  0
 10 36  1  0  0  0  0
 11 37  1  0  0  0  0
 11 38  1  0  0  0  0
 12 23  1  0  0  0  0
 12 13  2  0  0  0  0
 13 14  1  0  0  0  0
 13 15  1  0  0  0  0
 14 39  1  0  0  0  0
 14 40  1  0  0  0  0
 15 16  1  0  0  0  0
 15 20  1  0  0  0  0
 16 17  1  0  0  0  0
 16 41  1  0  0  0  0
 16 42  1  0  0  0  0
 17 18  1  0  0  0  0
 17 19  1  0  0  0  0
 17 43  1  0  0  0  0
 18 44  1  0  0  0  0
 18 45  1  0  0  0  0
 18 46  1  0  0  0  0
 19 47  1  0  0  0  0
 19 48  1  0  0  0  0
 19 49  1  0  0  0  0
 20 21  2  0  0  0  0
 20 22  1  0  0  0  0
 22 23  1  0  0  0  0
 23 24  2  0  0  0  0
M  CHG  1  22  -1
M  END
> <s_m_source_file>
AV-unprocessed.smi

> <i_m_source_file_index>
468

> <i_lp_mmshare_version>
43012

> <i_f3d_flags>
0

> <s_epik_input>
W0NIMl0xW0NIMl1bQ0gyXVtDSF0xQyg9TylOKFtDSDJdW0NIMl1PW0NIM10pYzJjKFtOSDJdKW4oW0NIMl1bQ0hdKFtDSDNdKVtDSDNdKWMoPU8pW25IXWMyPU8=

> <s_epik_cmdline>
J2VwaWtfcHl0aG9uJywgJy1waCcsICc3LjAnLCAnLXRuJywgJzgnLCAnLW1hJywgJzIwMCcsICctbWV0YWxfYmluZGluZycsICctaW1hZScsICc8aW5maWxlLm1hZT4nLCAnLW9tYWUnLCAnPG91dGZpbGUubWFlPic=

> <r_lp_tautomer_probability>
1

> <r_epik_Ionization_Penalty>
5.91772

> <r_epik_Ionization_Penalty_Charging>
1.97379e-07

> <r_epik_Ionization_Penalty_Neutral>
5.91772

> <r_epik_State_Penalty>
5.91769

> <r_epik_Charging_Adjusted_Penalty>
5.91769

> <i_epik_Tot_Q>
-1

> <i_epik_Tot_abs_Q>
1

> <r_epik_Metal_State_Penalty>
1.85156

> <b_epik_Metal_Only>
1

> <s_lp_Force_Field>
OPLS_2005

> <r_lp_Energy>
46.8311

> <b_lp_Chiralities_Consistent>
1

> <s_lp_Variant>
AV-unprocessed.smi:468-2

> <Gold.Version>
5.8.1

> <Gold.Id.Protein>
6NUR|6NUR_protein|mol2

> <Gold.PLP.Fitness>
36.8124

> <Gold.PLP.PLP>
-33.7774

> <Gold.PLP.part.hbond>
-2.5475

> <Gold.PLP.part.metal>
0.0000

> <Gold.PLP.part.buried>
-3.7823

> <Gold.PLP.part.nonpolar>
-27.9626

> <Gold.PLP.part.repulsive>
0.2047

> <Gold.PLP.ligand.clash>
0.0000

> <Gold.PLP.ligand.torsion>
2.0499

> <Gold.PLP.Chemscore.Hbond>
1.4680

> <Gold.PLP.Chemscore.CHOScore>
0.0000

> <Gold.PLP.Chemscore.Metal>
0.0000

> <Gold.Chemscore.Hbonds>
donor molecule, donor type, donor heavy atom, donor atom, acceptor molecule, acceptor atom, score
      P1  H  6896  6909       L1    24  0.48
      P1  H 10752 10764       L1     7  1.00

> <Gold.PLP.Chemscore.Internal.Correction>
2.7309

> <Gold.Rescore>
     Score         DG    S(hbond)    S(metal)    S(lipo)     H(rot)  DE(clash)    DE(int)     intcor
     11.03     -13.20       1.94        0.00      55.15       2.04       0.00       2.17       ----

> <Gold.Chemscore.Fitness>
11.0322

> <Gold.Chemscore.DG>
-13.2025

> <Gold.Chemscore.ZeroCoef>
-5.4800

> <Gold.Chemscore.Hbond>
1.9408

> <Gold.Chemscore.Metal>
0.0000

> <Gold.Chemscore.Lipo>
55.1529

> <Gold.Chemscore.Internal_Hbond>
0.0000

> <Gold.Chemscore.DEClash>
0.0009

> <Gold.Chemscore.DEInternal>
2.1695

> <Gold.Chemscore.Rot>
2.0362

> <Gold.Chemscore.Internal.Correction>
   9.000000E+99

> <Gold.Chemscore.Hbonds>
donor molecule, donor type, donor heavy atom, donor atom, acceptor molecule, acceptor atom, score
      P1  H  6896  6909       L1    24  0.48
      P1  H 10752 10764       L1     7  0.97

> <Gold.Chemscore.Hbond.Weighted>
-6.4822

> <Gold.Chemscore.Metal.Weighted>
-0.0000

> <Gold.Chemscore.Lipo.Weighted>
-6.4529

> <Gold.Chemscore.Internal_Hbond.Weighted>
0.0000

> <Gold.Chemscore.DEClash.Weighted>
0.0009

> <Gold.Chemscore.DEInternal.Weighted>
2.1695

> <Gold.Chemscore.Rot.Weighted>
5.2126

> <Gold.Chemscore.Internal.Correction.Weighted>
   9.000000E+99

> <Gold.Protein.RotatedTorsions>
[ 6907 6896 6895 6894 ] final  -23.88 input  -60.11 | X-H torsion
[ 7974 7965 7964 7962 ] final    0.11 input  175.53 | X-H torsion
[ 8008 7997 7996 7995 ] final  162.47 input   59.86 | X-H torsion
[ 10167 10162 10161 10158 ] final    5.88 input  -65.29 | X-H torsion
[ 10718 10713 10712 10709 ] final  131.63 input   66.30 | X-H torsion
[ 10763 10752 10751 10750 ] final  -50.67 input  -60.55 | X-H torsion
[ 11005 11000 10999 10996 ] final -176.36 input  -57.11 | X-H torsion

> <Gold.Protein.ActiveResidues>
 VAL166  LYS551  ARG553  GLY616  TRP617  ASP618  TYR619  PRO620  LYS621  CYS622 
 ASP623  PHE694  ASN695  SER759  ASP760  ASP761  ALA762  ILE779  LEU786  VAL792 
 PHE793  MET794  SER795  GLU796  ALA797  LYS798  CYS799  TRP800  GLU811  SER814 

> <Gold.Protein.RotatedAtoms>
  151.1976  135.0429  159.8858 H   0  0  0  0  0  0  0  0  0  0  0  0  # atno 6907 bound_to 6896
  152.5435  134.0886  159.8277 H   0  0  0  0  0  0  0  0  0  0  0  0  # atno 6908 bound_to 6896
  151.1022  133.5187  159.2641 H   0  0  0  0  0  0  0  0  0  0  0  0  # atno 6909 bound_to 6896
  146.2432  140.1187  142.8341 H   0  0  0  0  0  0  0  0  0  0  0  0  # atno 7974 bound_to 7965
  156.2029  140.1749  156.7862 H   0  0  0  0  0  0  0  0  0  0  0  0  # atno 8008 bound_to 7997
  154.5616  140.0698  156.8858 H   0  0  0  0  0  0  0  0  0  0  0  0  # atno 8009 bound_to 7997
  155.2838  140.3351  155.4259 H   0  0  0  0  0  0  0  0  0  0  0  0  # atno 8010 bound_to 7997
  140.6458  143.7665  150.7497 H   0  0  0  0  0  0  0  0  0  0  0  0  # atno 10167 bound_to 10162
  157.4949  131.1092  150.9507 H   0  0  0  0  0  0  0  0  0  0  0  0  # atno 10718 bound_to 10713
  154.1142  135.6544  153.4890 H   0  0  0  0  0  0  0  0  0  0  0  0  # atno 10763 bound_to 10752
  153.0246  135.5255  154.7161 H   0  0  0  0  0  0  0  0  0  0  0  0  # atno 10764 bound_to 10752
  154.6350  135.2981  155.0141 H   0  0  0  0  0  0  0  0  0  0  0  0  # atno 10765 bound_to 10752
  140.4530  134.6326  157.4809 H   0  0  0  0  0  0  0  0  0  0  0  0  # atno 11005 bound_to 11000
  145.0425  140.8956  143.5044 LP  0  0  0  0  0  0  0  0  0  0  0  0  # atno 17320 bound_to 7965
  145.1270  139.2656  143.5559 LP  0  0  0  0  0  0  0  0  0  0  0  0  # atno 17321 bound_to 7965
  140.1306  143.4530  152.2257 LP  0  0  0  0  0  0  0  0  0  0  0  0  # atno 17342 bound_to 10162
  139.5669  144.7440  151.3998 LP  0  0  0  0  0  0  0  0  0  0  0  0  # atno 17343 bound_to 10162
  157.0197  130.5669  149.5330 LP  0  0  0  0  0  0  0  0  0  0  0  0  # atno 17370 bound_to 10713
  156.0194  130.5289  150.8232 LP  0  0  0  0  0  0  0  0  0  0  0  0  # atno 17371 bound_to 10713
  139.9995  134.6859  155.9554 LP  0  0  0  0  0  0  0  0  0  0  0  0  # atno 17394 bound_to 11000
  141.1656  133.6537  156.4467 LP  0  0  0  0  0  0  0  0  0  0  0  0  # atno 17395 bound_to 11000

$$$$
