AV-unprocessed.smi:2916|AV-procd|sdf|11188|dock6
  -GOLD-   2272016 83D 1   1.00000     0.00000
 Structure written by MMmdl.
 38 39  0  0  0  0  0  0  0  0  2 V2000
  144.2758  136.3889  151.5128 N   0  0  0  0  0  0  0  0  0  0  0  0
  144.2305  135.1788  150.9448 C   0  0  0  0  0  0  0  0  0  0  0  0
  144.0583  135.0553  149.7337 O   0  0  0  0  0  0  0  0  0  0  0  0
  144.4482  133.9395  151.8538 C   0  0  0  0  0  0  0  0  0  0  0  0
  143.6076  134.1095  153.0708 N   0  3  0  0  0  0  0  0  0  0  0  0
  142.1866  134.4997  152.8933 C   0  0  0  0  0  0  0  0  0  0  0  0
  141.6335  135.1603  154.1676 C   0  0  0  0  0  0  0  0  0  0  0  0
  141.1406  136.5075  153.9355 N   0  0  0  0  0  0  0  0  0  0  0  0
  139.8713  137.0024  154.1499 C   0  0  0  0  0  0  0  0  0  0  0  0
  139.8773  138.3145  153.7724 C   0  0  0  0  0  0  0  0  0  0  0  0
  141.2089  138.5310  153.3207 C   0  0  0  0  0  0  0  0  0  0  0  0
  141.9607  137.4464  153.4154 N   0  0  0  0  0  0  0  0  0  0  0  0
  143.9729  132.6386  151.1454 C   0  0  0  0  0  0  0  0  0  0  0  0
  144.8514  132.2311  149.9486 C   0  0  0  0  0  0  0  0  0  0  0  0
  146.3105  132.0445  150.3831 C   0  0  0  0  0  0  0  0  0  0  0  0
  146.8453  133.3086  151.0686 C   0  0  0  0  0  0  0  0  0  0  0  0
  145.9457  133.7410  152.2448 C   0  0  0  0  0  0  0  0  0  0  0  0
  144.1124  137.2098  150.9469 H   0  0  0  0  0  0  0  0  0  0  0  0
  144.4470  136.4834  152.5033 H   0  0  0  0  0  0  0  0  0  0  0  0
  143.6299  133.2403  153.5838 H   0  0  0  0  0  0  0  0  0  0  0  0
  142.0803  135.1877  152.0551 H   0  0  0  0  0  0  0  0  0  0  0  0
  141.5829  133.6227  152.6598 H   0  0  0  0  0  0  0  0  0  0  0  0
  140.8151  134.5644  154.5732 H   0  0  0  0  0  0  0  0  0  0  0  0
  142.4055  135.1977  154.9374 H   0  0  0  0  0  0  0  0  0  0  0  0
  139.0783  136.3884  154.5509 H   0  0  0  0  0  0  0  0  0  0  0  0
  139.0538  139.0124  153.8081 H   0  0  0  0  0  0  0  0  0  0  0  0
  141.6479  139.4365  152.9284 H   0  0  0  0  0  0  0  0  0  0  0  0
  143.9786  131.8187  151.8656 H   0  0  0  0  0  0  0  0  0  0  0  0
  142.9351  132.7224  150.8204 H   0  0  0  0  0  0  0  0  0  0  0  0
  144.4765  131.3033  149.5155 H   0  0  0  0  0  0  0  0  0  0  0  0
  144.7915  132.9820  149.1601 H   0  0  0  0  0  0  0  0  0  0  0  0
  146.3827  131.1988  151.0685 H   0  0  0  0  0  0  0  0  0  0  0  0
  146.9294  131.7969  149.5201 H   0  0  0  0  0  0  0  0  0  0  0  0
  147.8586  133.1289  151.4287 H   0  0  0  0  0  0  0  0  0  0  0  0
  146.9254  134.1125  150.3368 H   0  0  0  0  0  0  0  0  0  0  0  0
  146.3644  134.6505  152.6768 H   0  0  0  0  0  0  0  0  0  0  0  0
  146.0139  132.9842  153.0280 H   0  0  0  0  0  0  0  0  0  0  0  0
  144.0410  134.8230  153.6398 H   0  0  0  0  0  0  0  0  0  0  0  0
  1  2  1  0  0  0  0
  1 18  1  0  0  0  0
  1 19  1  0  0  0  0
  2  3  2  0  0  0  0
  2  4  1  0  0  0  0
  4 17  1  0  0  0  0
  4  5  1  0  0  0  0
  4 13  1  0  0  0  0
  5  6  1  0  0  0  0
  5 20  1  0  0  0  0
  5 38  1  0  0  0  0
  6  7  1  0  0  0  0
  6 21  1  0  0  0  0
  6 22  1  0  0  0  0
  7  8  1  0  0  0  0
  7 23  1  0  0  0  0
  7 24  1  0  0  0  0
  8 12  1  0  0  0  0
  8  9  1  0  0  0  0
  9 10  2  0  0  0  0
  9 25  1  0  0  0  0
 10 11  1  0  0  0  0
 10 26  1  0  0  0  0
 11 12  2  0  0  0  0
 11 27  1  0  0  0  0
 13 14  1  0  0  0  0
 13 28  1  0  0  0  0
 13 29  1  0  0  0  0
 14 15  1  0  0  0  0
 14 30  1  0  0  0  0
 14 31  1  0  0  0  0
 15 16  1  0  0  0  0
 15 32  1  0  0  0  0
 15 33  1  0  0  0  0
 16 17  1  0  0  0  0
 16 34  1  0  0  0  0
 16 35  1  0  0  0  0
 17 36  1  0  0  0  0
 17 37  1  0  0  0  0
M  CHG  1   5   1
M  END
> <s_m_source_file>
AV-unprocessed.smi

> <i_m_source_file_index>
2916

> <i_lp_mmshare_version>
43012

> <i_f3d_flags>
0

> <s_epik_input>
W0NIMl0xW0NIMl1bQ0gyXVtDSDJdW0NIMl1DMShDKD1PKVtOSDJdKVtOSF1bQ0gyXVtDSDJdbjJbY0hdW2NIXVtjSF1uMg==

> <s_epik_cmdline>
J2VwaWtfcHl0aG9uJywgJy1waCcsICc3LjAnLCAnLXRuJywgJzgnLCAnLW1hJywgJzIwMCcsICctbWV0YWxfYmluZGluZycsICctaW1hZScsICc8aW5maWxlLm1hZT4nLCAnLW9tYWUnLCAnPG91dGZpbGUubWFlPic=

> <r_lp_tautomer_probability>
1

> <r_epik_Ionization_Penalty>
0.147888

> <r_epik_Ionization_Penalty_Charging>
0.147883

> <r_epik_Ionization_Penalty_Neutral>
4.65475e-06

> <r_epik_State_Penalty>
0.137176

> <r_epik_Charging_Adjusted_Penalty>
0.285059

> <i_epik_Tot_Q>
1

> <i_epik_Tot_abs_Q>
1

> <r_epik_Metal_State_Penalty>
0.137393

> <b_epik_Metal_Only>
0

> <s_lp_Force_Field>
OPLS_2005

> <r_lp_Energy>
14.4928

> <b_lp_Chiralities_Consistent>
1

> <s_lp_Variant>
AV-unprocessed.smi:2916-1

> <Gold.Version>
5.8.1

> <Gold.Id.Protein>
6NUR|6NUR_protein|mol2

> <Gold.PLP.Fitness>
43.9841

> <Gold.PLP.PLP>
-31.8906

> <Gold.PLP.part.hbond>
-2.0000

> <Gold.PLP.part.metal>
0.0000

> <Gold.PLP.part.buried>
-2.4593

> <Gold.PLP.part.nonpolar>
-30.0581

> <Gold.PLP.part.repulsive>
2.0325

> <Gold.PLP.ligand.clash>
0.0000

> <Gold.PLP.ligand.torsion>
1.1952

> <Gold.PLP.Chemscore.Hbond>
3.0000

> <Gold.PLP.Chemscore.CHOScore>
1.8166

> <Gold.PLP.Chemscore.Metal>
0.0000

> <Gold.Chemscore.Hbonds>
donor molecule, donor type, donor heavy atom, donor atom, acceptor molecule, acceptor atom, score
      L1  H     1    18       P1 10171  1.00
      L1  H     5    20       P1 10957  1.50
      L1  C    11    27       P1 10160  0.61
      L1  C    11    27       P1 10175  1.00

> <Gold.PLP.Chemscore.Internal.Correction>
0.0340

> <Gold.Rescore>
     Score         DG    S(hbond)    S(metal)    S(lipo)     H(rot)  DE(clash)    DE(int)     intcor
     11.18     -15.48       1.93        0.00      79.78       2.26       1.74       2.57       ----

> <Gold.Chemscore.Fitness>
11.1756

> <Gold.Chemscore.DG>
-15.4799

> <Gold.Chemscore.ZeroCoef>
-5.4800

> <Gold.Chemscore.Hbond>
1.9328

> <Gold.Chemscore.Metal>
0.0000

> <Gold.Chemscore.Lipo>
79.7837

> <Gold.Chemscore.Internal_Hbond>
0.0000

> <Gold.Chemscore.DEClash>
1.7385

> <Gold.Chemscore.DEInternal>
2.5659

> <Gold.Chemscore.Rot>
2.2619

> <Gold.Chemscore.Internal.Correction>
   9.000000E+99

> <Gold.Chemscore.Hbonds>
donor molecule, donor type, donor heavy atom, donor atom, acceptor molecule, acceptor atom, score
      L1  H     1    18       P1 10171  1.00
      L1  H     5    20       P1 10957  0.69

> <Gold.Chemscore.Hbond.Weighted>
-6.4556

> <Gold.Chemscore.Metal.Weighted>
-0.0000

> <Gold.Chemscore.Lipo.Weighted>
-9.3347

> <Gold.Chemscore.Internal_Hbond.Weighted>
0.0000

> <Gold.Chemscore.DEClash.Weighted>
1.7385

> <Gold.Chemscore.DEInternal.Weighted>
2.5659

> <Gold.Chemscore.Rot.Weighted>
5.7904

> <Gold.Chemscore.Internal.Correction.Weighted>
   9.000000E+99

> <Gold.Protein.RotatedTorsions>
[ 6907 6896 6895 6894 ] final  -99.95 input  -60.11 | X-H torsion
[ 7974 7965 7964 7962 ] final  148.55 input  175.53 | X-H torsion
[ 8008 7997 7996 7995 ] final -164.28 input   59.86 | X-H torsion
[ 10167 10162 10161 10158 ] final  -23.57 input  -65.29 | X-H torsion
[ 10718 10713 10712 10709 ] final   81.16 input   66.30 | X-H torsion
[ 10763 10752 10751 10750 ] final   38.45 input  -60.55 | X-H torsion
[ 11005 11000 10999 10996 ] final -126.76 input  -57.11 | X-H torsion

> <Gold.Protein.ActiveResidues>
 VAL166  LYS551  ARG553  GLY616  TRP617  ASP618  TYR619  PRO620  LYS621  CYS622 
 ASP623  PHE694  ASN695  SER759  ASP760  ASP761  ALA762  ILE779  LEU786  VAL792 
 PHE793  MET794  SER795  GLU796  ALA797  LYS798  CYS799  TRP800  GLU811  SER814 

> <Gold.Protein.RotatedAtoms>
  150.7098  134.0962  159.3948 H   0  0  0  0  0  0  0  0  0  0  0  0  # atno 6907 bound_to 6896
  151.8947  135.0400  160.0510 H   0  0  0  0  0  0  0  0  0  0  0  0  # atno 6908 bound_to 6896
  152.2463  133.5141  159.5335 H   0  0  0  0  0  0  0  0  0  0  0  0  # atno 6909 bound_to 6896
  144.8505  139.6168  143.5976 H   0  0  0  0  0  0  0  0  0  0  0  0  # atno 7974 bound_to 7965
  155.8333  140.0937  157.1779 H   0  0  0  0  0  0  0  0  0  0  0  0  # atno 8008 bound_to 7997
  154.3980  140.1415  156.3701 H   0  0  0  0  0  0  0  0  0  0  0  0  # atno 8009 bound_to 7997
  155.8142  140.3448  155.5478 H   0  0  0  0  0  0  0  0  0  0  0  0  # atno 8010 bound_to 7997
  140.7288  143.4431  151.0627 H   0  0  0  0  0  0  0  0  0  0  0  0  # atno 10167 bound_to 10162
  157.6825  130.9991  150.2186 H   0  0  0  0  0  0  0  0  0  0  0  0  # atno 10718 bound_to 10713
  153.0000  135.6249  154.2307 H   0  0  0  0  0  0  0  0  0  0  0  0  # atno 10763 bound_to 10752
  154.2049  135.2802  155.2980 H   0  0  0  0  0  0  0  0  0  0  0  0  # atno 10764 bound_to 10752
  154.5654  135.5692  153.7104 H   0  0  0  0  0  0  0  0  0  0  0  0  # atno 10765 bound_to 10752
  140.9655  134.0877  157.3924 H   0  0  0  0  0  0  0  0  0  0  0  0  # atno 11005 bound_to 11000
  146.2781  139.6805  142.9249 LP  0  0  0  0  0  0  0  0  0  0  0  0  # atno 17320 bound_to 7965
  145.4509  141.0428  143.2805 LP  0  0  0  0  0  0  0  0  0  0  0  0  # atno 17321 bound_to 7965
  139.8100  143.7964  152.3170 LP  0  0  0  0  0  0  0  0  0  0  0  0  # atno 17342 bound_to 10162
  139.8010  144.7374  150.9824 LP  0  0  0  0  0  0  0  0  0  0  0  0  # atno 17343 bound_to 10162
  156.2842  130.3737  149.7905 LP  0  0  0  0  0  0  0  0  0  0  0  0  # atno 17370 bound_to 10713
  156.5584  130.8373  151.3321 LP  0  0  0  0  0  0  0  0  0  0  0  0  # atno 17371 bound_to 10713
  139.8893  135.0104  156.6671 LP  0  0  0  0  0  0  0  0  0  0  0  0  # atno 17394 bound_to 11000
  140.7405  133.8981  155.8275 LP  0  0  0  0  0  0  0  0  0  0  0  0  # atno 17395 bound_to 11000

$$$$
