#       Name:                AV-unprocessed.smi:256
#       Creating user name   scv26
#       Creation time:       Thu Mar 26 21:10:04 2020


#       File generated by GOLD software.
#

@<TRIPOS>MOLECULE
AV-unprocessed.smi:256
    71    74     1
SMALL
NO_CHARGES


@<TRIPOS>ATOM
      1 ****        -0.5285  -0.5769  -1.9264 C.3            1 S1                 0.0000
      2 ****        -1.1315   0.8164  -1.6949 C.3            1 S1                 0.0000
      3 ****        -2.5159   0.8069  -0.9911 C.3            1 S1                 0.0000
      4 ****        -2.5137   0.0974   0.3857 C.3            1 S1                 0.0000
      5 ****        -1.8752   0.9092   1.4202 N.pl3          1 S1                 0.0000
      6 ****        -0.5389   0.7327   1.6057 C.ar           1 S1                 0.0000
      7 ****         0.2966   1.8043   1.5429 N.ar           1 S1                 0.0000
      8 ****         1.6157   1.6459   1.6787 C.ar           1 S1                 0.0000
      9 ****         2.3025   0.5215   1.8827 N.ar           1 S1                 0.0000
     10 ****         1.4728  -0.5566   1.9678 C.ar           1 S1                 0.0000
     11 ****         0.0537  -0.5396   1.8520 C.ar           1 S1                 0.0000
     12 ****        -0.4453  -1.8267   2.0159 N.2            1 S1                 0.0000
     13 ****         0.6166  -2.5625   2.1984 C.2            1 S1                 0.0000
     14 ****         1.8129  -1.8830   2.1687 N.pl3          1 S1                 0.0000
     15 ****         3.1428  -2.4517   2.3303 C.3            1 S1                 0.0000
     16 ****         3.7015  -3.1242   1.0461 C.3            1 S1                 0.0000
     17 ****         2.8692  -4.2300   0.7476 O.3            1 S1                 0.0000
     18 ****         3.7125  -2.2046  -0.1947 C.3            1 S1                 0.0000
     19 ****         4.8254  -1.1468  -0.0980 C.3            1 S1                 0.0000
     20 ****         6.0864  -1.7856   0.0687 O.3            1 S1                 0.0000
     21 ****         6.1731  -2.5414   1.2720 C.3            1 S1                 0.0000
     22 ****         5.1268  -3.6709   1.2614 C.3            1 S1                 0.0000
     23 ****        -2.4500   2.2453   1.5592 C.3            1 S1                 0.0000
     24 ****        -2.4688   2.9891   0.2115 C.3            1 S1                 0.0000
     25 ****        -3.1175   2.1717  -0.8479 N.4            1 S1                 1.0000
     26 ****        -3.3212   2.9429  -2.1047 C.3            1 S1                 0.0000
     27 ****        -4.2131   2.2200  -3.1334 C.3            1 S1                 0.0000
     28 ****        -5.4585   1.8208  -2.5757 O.3            1 S1                 0.0000
     29 ****        -6.3882   2.8787  -2.4017 C.3            1 S1                 0.0000
     30 ****         0.3876  -0.5048  -2.5129 H              1 S1                 0.0000
     31 ****        -1.2190  -1.2218  -2.4703 H              1 S1                 0.0000
     32 ****        -0.2696  -1.0707  -0.9907 H              1 S1                 0.0000
     33 ****        -0.4175   1.4239  -1.1410 H              1 S1                 0.0000
     34 ****        -1.2214   1.2853  -2.6737 H              1 S1                 0.0000
     35 ****        -3.1857   0.2206  -1.6193 H              1 S1                 0.0000
     36 ****        -3.5456  -0.0673   0.6987 H              1 S1                 0.0000
     37 ****        -2.0815  -0.8972   0.3065 H              1 S1                 0.0000
     38 ****         2.2058   2.5481   1.6088 H              1 S1                 0.0000
     39 ****         0.5572  -3.6302   2.3529 H              1 S1                 0.0000
     40 ****         3.8074  -1.6581   2.6706 H              1 S1                 0.0000
     41 ****         3.1028  -3.1745   3.1464 H              1 S1                 0.0000
     42 ****         3.2051  -4.6586  -0.0248 H              1 S1                 0.0000
     43 ****         3.8929  -2.8028  -1.0893 H              1 S1                 0.0000
     44 ****         2.7450  -1.7265  -0.3484 H              1 S1                 0.0000
     45 ****         4.8526  -0.5510  -1.0105 H              1 S1                 0.0000
     46 ****         4.6476  -0.4539   0.7246 H              1 S1                 0.0000
     47 ****         7.1748  -2.9646   1.3457 H              1 S1                 0.0000
     48 ****         6.0471  -1.8877   2.1357 H              1 S1                 0.0000
     49 ****         5.1832  -4.2474   2.1855 H              1 S1                 0.0000
     50 ****         5.3813  -4.3607   0.4550 H              1 S1                 0.0000
     51 ****        -3.4711   2.1334   1.9259 H              1 S1                 0.0000
     52 ****        -1.9229   2.8271   2.3164 H              1 S1                 0.0000
     53 ****        -3.0081   3.9290   0.3342 H              1 S1                 0.0000
     54 ****        -1.4561   3.2518  -0.0956 H              1 S1                 0.0000
     55 ****        -3.7792   3.8998  -1.8542 H              1 S1                 0.0000
     56 ****        -2.3607   3.1961  -2.5530 H              1 S1                 0.0000
     57 ****        -4.3761   2.8539  -4.0064 H              1 S1                 0.0000
     58 ****        -3.7074   1.3310  -3.5094 H              1 S1                 0.0000
     59 ****        -7.3298   2.4741  -2.0309 H              1 S1                 0.0000
     60 ****        -6.5920   3.3866  -3.3451 H              1 S1                 0.0000
     61 ****        -6.0374   3.6124  -1.6761 H              1 S1                 0.0000
     62 ****        -4.0502   2.0001  -0.5000 H              1 S1                 0.0000
     63 ****        -0.0802   2.7186   1.3937 LP             1 S1                 0.0000
     64 ****         3.2982   0.4751   1.9629 LP             1 S1                 0.0000
     65 ****        -1.4007  -2.1215   1.9980 LP             1 S1                 0.0000
     66 ****         1.9357  -3.9136   0.5787 LP             1 S1                 0.0000
     67 ****         2.8703  -4.8700   1.5159 LP             1 S1                 0.0000
     68 ****         6.7994  -1.0846   0.0807 LP             1 S1                 0.0000
     69 ****         6.2367  -2.4006  -0.7054 LP             1 S1                 0.0000
     70 ****        -5.2832   1.4082  -1.6819 LP             1 S1                 0.0000
     71 ****        -5.8691   1.1401  -3.1823 LP             1 S1                 0.0000
@<TRIPOS>BOND
    1    1    2 1     
    2    1   30 1     
    3    1   31 1     
    4    1   32 1     
    5    2    3 1     
    6    2   33 1     
    7    2   34 1     
    8    3   25 1     
    9    3    4 1     
   10    3   35 1     
   11    4    5 1     
   12    4   36 1     
   13    4   37 1     
   14    5    6 1     
   15    5   23 1     
   16    6   11 ar    
   17    6    7 ar    
   18    7    8 ar    
   19    8    9 ar    
   20    8   38 1     
   21    9   10 ar    
   22   10   14 1     
   23   10   11 ar    
   24   11   12 1     
   25   12   13 2     
   26   13   14 1     
   27   13   39 1     
   28   14   15 1     
   29   15   16 1     
   30   15   40 1     
   31   15   41 1     
   32   16   22 1     
   33   16   17 1     
   34   16   18 1     
   35   17   42 1     
   36   18   19 1     
   37   18   43 1     
   38   18   44 1     
   39   19   20 1     
   40   19   45 1     
   41   19   46 1     
   42   20   21 1     
   43   21   22 1     
   44   21   47 1     
   45   21   48 1     
   46   22   49 1     
   47   22   50 1     
   48   23   24 1     
   49   23   51 1     
   50   23   52 1     
   51   24   25 1     
   52   24   53 1     
   53   24   54 1     
   54   25   26 1     
   55   25   62 1     
   56   26   27 1     
   57   26   55 1     
   58   26   56 1     
   59   27   28 1     
   60   27   57 1     
   61   27   58 1     
   62   28   29 1     
   63   29   59 1     
   64   29   60 1     
   65   29   61 1     
   66    7   63 1     
   67    9   64 1     
   68   12   65 1     
   69   17   66 1     
   70   17   67 1     
   71   20   68 1     
   72   20   69 1     
   73   28   70 1     
   74   28   71 1     
@<TRIPOS>SUBSTRUCTURE
      1 S1             1
@<TRIPOS>SET
LONE_PAIRS      STATIC     ATOMS    <user>   **** ""
9 63 64 65 66 67 68 69 70 71
DONOR_HYDROGENS      STATIC     ATOMS    <user>   **** ""
2 42 62
ATOM$BLUE        STATIC     ATOMS    COLORGROUP SYSTEM
9 63 64 65 66 67 68 69 70 71
ATOM$RED        STATIC     ATOMS    COLORGROUP SYSTEM
2 42 62
