#       Name:                AV-unprocessed.smi:706
#       Creating user name   scv26
#       Creation time:       Fri Mar 27 00:43:50 2020


#       File generated by GOLD software.
#

@<TRIPOS>MOLECULE
AV-unprocessed.smi:706
    33    33     1
SMALL
NO_CHARGES


@<TRIPOS>ATOM
      1 ****        -4.2073  -1.7262  -0.4465 C.3            1 S1                 0.0000
      2 ****        -3.0791  -0.7000  -0.3207 C.3            1 S1                 0.0000
      3 ****        -1.9110  -1.2289  -0.9308 O.3            1 S1                 0.0000
      4 ****        -0.7981  -0.3465  -0.9159 C.3            1 S1                 0.0000
      5 ****        -0.1037  -0.3356   0.4586 C.3            1 S1                 0.0000
      6 ****         1.1026   0.4648   0.4612 N.am           1 S1                 0.0000
      7 ****         2.3752  -0.0468   0.1943 C.2            1 S1                 0.0000
      8 ****         2.5178  -1.3918  -0.0975 N.pl3          1 S1                 0.0000
      9 ****         3.4758   0.7477   0.2001 C.2            1 S1                 0.0000
     10 ****         3.3821   2.1765   0.4790 C.2            1 S1                 0.0000
     11 ****         4.3314   2.9563   0.5105 O.2            1 S1                 0.0000
     12 ****         2.0869   2.6364   0.7166 N.am           1 S1                 0.0000
     13 ****         0.9366   1.8502   0.7101 C.2            1 S1                 0.0000
     14 ****        -0.1581   2.3769   0.9132 O.2            1 S1                 0.0000
     15 ****         1.9725   3.6223   0.9019 H              1 S1                 0.0000
     16 ****        -5.1246  -1.3556   0.0113 H              1 S1                 0.0000
     17 ****        -3.9418  -2.6616   0.0464 H              1 S1                 0.0000
     18 ****        -4.4210  -1.9466  -1.4928 H              1 S1                 0.0000
     19 ****        -3.3705   0.2307  -0.8096 H              1 S1                 0.0000
     20 ****        -2.9022  -0.4790   0.7318 H              1 S1                 0.0000
     21 ****        -0.0927  -0.7029  -1.6673 H              1 S1                 0.0000
     22 ****        -1.0949   0.6572  -1.2245 H              1 S1                 0.0000
     23 ****        -0.7471   0.0334   1.2584 H              1 S1                 0.0000
     24 ****         0.1807  -1.3419   0.7638 H              1 S1                 0.0000
     25 ****         1.7263  -2.0189  -0.1238 H              1 S1                 0.0000
     26 ****         3.4223  -1.8062  -0.2721 H              1 S1                 0.0000
     27 ****         4.4494   0.3259  -0.0083 H              1 S1                 0.0000
     28 ****        -2.1256  -1.4476  -1.8827 LP             1 S1                 0.0000
     29 ****        -1.6550  -2.0653  -0.4462 LP             1 S1                 0.0000
     30 ****         5.2580   2.6232   0.3363 LP             1 S1                 0.0000
     31 ****         4.1772   3.9239   0.7104 LP             1 S1                 0.0000
     32 ****        -0.9893   1.8209   0.9077 LP             1 S1                 0.0000
     33 ****        -0.2158   3.3606   1.0836 LP             1 S1                 0.0000
@<TRIPOS>BOND
    1    1    2 1     
    2    1   16 1     
    3    1   17 1     
    4    1   18 1     
    5    2    3 1     
    6    2   19 1     
    7    2   20 1     
    8    3    4 1     
    9    4    5 1     
   10    4   21 1     
   11    4   22 1     
   12    5    6 1     
   13    5   23 1     
   14    5   24 1     
   15    6   13 1     
   16    6    7 1     
   17    7    8 1     
   18    7    9 2     
   19    8   25 1     
   20    8   26 1     
   21    9   10 1     
   22    9   27 1     
   23   10   11 2     
   24   10   12 1     
   25   12   15 1     
   26   12   13 1     
   27   13   14 2     
   28    3   28 1     
   29    3   29 1     
   30   11   30 1     
   31   11   31 1     
   32   14   32 1     
   33   14   33 1     
@<TRIPOS>SUBSTRUCTURE
      1 S1             1
@<TRIPOS>SET
LONE_PAIRS      STATIC     ATOMS    <user>   **** ""
6 28 29 30 31 32 33
DONOR_HYDROGENS      STATIC     ATOMS    <user>   **** ""
3 25 26 15
ATOM$BLUE        STATIC     ATOMS    COLORGROUP SYSTEM
6 28 29 30 31 32 33
ATOM$RED        STATIC     ATOMS    COLORGROUP SYSTEM
3 25 26 15
