AV-unprocessed.smi:101|AV-procd|sdf|917|dock2
  -GOLD-   2262017423D 1   1.00000     0.00000
 Structure written by MMmdl.
 44 46  0  0  0  0  0  0  0  0  1 V2000
  146.0395  139.1781  157.6704 C   0  0  0  0  0  0  0  0  0  0  0  0
  147.0251  138.0225  157.7386 C   0  0  0  0  0  0  0  0  0  0  0  0
  148.2451  138.0723  157.1456 C   0  0  0  0  0  0  0  0  0  0  0  0
  149.1691  137.0317  157.1837 N   0  0  0  0  0  0  0  0  0  0  0  0
  150.5453  137.1307  156.5428 C   0  0  2  0  0  0  0  0  0  0  0  0
  151.2034  138.2636  157.0180 O   0  0  0  0  0  0  0  0  0  0  0  0
  150.9345  139.3499  156.1437 C   0  0  1  0  0  0  0  0  0  0  0  0
  151.9198  140.4886  156.4175 C   0  0  0  0  0  0  0  0  0  0  0  0
  151.6764  140.9564  157.7335 O   0  0  0  0  0  0  0  0  0  0  0  0
  152.6444  140.9113  158.6652 C   0  0  0  0  0  0  0  0  0  0  0  0
  153.5367  140.0614  158.6829 O   0  0  0  0  0  0  0  0  0  0  0  0
  152.5194  142.0006  159.6767 C   0  0  0  0  0  0  0  0  0  0  0  0
  153.0236  141.7962  160.9822 C   0  0  0  0  0  0  0  0  0  0  0  0
  152.9179  142.8063  161.9580 C   0  0  0  0  0  0  0  0  0  0  0  0
  152.3071  144.0334  161.6402 C   0  0  0  0  0  0  0  0  0  0  0  0
  151.8014  144.2493  160.3451 C   0  0  0  0  0  0  0  0  0  0  0  0
  151.9057  143.2404  159.3678 C   0  0  0  0  0  0  0  0  0  0  0  0
  151.0755  138.6879  154.7759 C   0  0  2  0  0  0  0  0  0  0  0  0
  150.3507  139.4122  153.8021 O   0  0  0  0  0  0  0  0  0  0  0  0
  150.4543  137.3096  155.0060 C   0  0  1  0  0  0  0  0  0  0  0  0
  151.1912  136.3194  154.3179 O   0  0  0  0  0  0  0  0  0  0  0  0
  148.8633  135.8763  157.9337 C   0  0  0  0  0  0  0  0  0  0  0  0
  149.6529  134.9423  158.0689 O   0  0  0  0  0  0  0  0  0  0  0  0
  147.6083  135.8212  158.5367 N   0  0  0  0  0  0  0  0  0  0  0  0
  146.6376  136.8238  158.4865 C   0  0  0  0  0  0  0  0  0  0  0  0
  145.5604  136.6556  159.0553 O   0  0  0  0  0  0  0  0  0  0  0  0
  147.3842  134.9886  159.0623 H   0  0  0  0  0  0  0  0  0  0  0  0
  146.4326  140.0151  157.0920 H   0  0  0  0  0  0  0  0  0  0  0  0
  145.8108  139.5432  158.6722 H   0  0  0  0  0  0  0  0  0  0  0  0
  145.1086  138.8576  157.2012 H   0  0  0  0  0  0  0  0  0  0  0  0
  148.4916  138.9851  156.6249 H   0  0  0  0  0  0  0  0  0  0  0  0
  151.0693  136.2301  156.8696 H   0  0  0  0  0  0  0  0  0  0  0  0
  149.9080  139.6957  156.2823 H   0  0  0  0  0  0  0  0  0  0  0  0
  152.9494  140.1459  156.3050 H   0  0  0  0  0  0  0  0  0  0  0  0
  151.7586  141.3053  155.7128 H   0  0  0  0  0  0  0  0  0  0  0  0
  153.4961  140.8618  161.2498 H   0  0  0  0  0  0  0  0  0  0  0  0
  153.3064  142.6386  162.9518 H   0  0  0  0  0  0  0  0  0  0  0  0
  152.2268  144.8078  162.3886 H   0  0  0  0  0  0  0  0  0  0  0  0
  151.3323  145.1907  160.0994 H   0  0  0  0  0  0  0  0  0  0  0  0
  151.5068  143.4397  158.3837 H   0  0  0  0  0  0  0  0  0  0  0  0
  152.1284  138.6104  154.4991 H   0  0  0  0  0  0  0  0  0  0  0  0
  150.0817  138.8121  153.1230 H   0  0  0  0  0  0  0  0  0  0  0  0
  149.4124  137.2886  154.6832 H   0  0  0  0  0  0  0  0  0  0  0  0
  151.1667  136.5195  153.3943 H   0  0  0  0  0  0  0  0  0  0  0  0
  1  2  1  0  0  0  0
  1 28  1  0  0  0  0
  1 29  1  0  0  0  0
  1 30  1  0  0  0  0
  2 25  1  0  0  0  0
  2  3  2  0  0  0  0
  3  4  1  0  0  0  0
  3 31  1  0  0  0  0
  4  5  1  0  0  0  0
  4 22  1  0  0  0  0
  5 20  1  0  0  0  0
  5  6  1  0  0  0  0
  5 32  1  0  0  0  0
  6  7  1  0  0  0  0
  7  8  1  0  0  0  0
  7 18  1  0  0  0  0
  7 33  1  0  0  0  0
  8  9  1  0  0  0  0
  8 34  1  0  0  0  0
  8 35  1  0  0  0  0
  9 10  1  0  0  0  0
 10 11  2  0  0  0  0
 10 12  1  0  0  0  0
 12 17  1  0  0  0  0
 12 13  2  0  0  0  0
 13 14  1  0  0  0  0
 13 36  1  0  0  0  0
 14 15  2  0  0  0  0
 14 37  1  0  0  0  0
 15 16  1  0  0  0  0
 15 38  1  0  0  0  0
 16 17  2  0  0  0  0
 16 39  1  0  0  0  0
 17 40  1  0  0  0  0
 18 19  1  0  0  0  0
 18 20  1  0  0  0  0
 18 41  1  0  0  0  0
 19 42  1  0  0  0  0
 20 21  1  0  0  0  0
 20 43  1  0  0  0  0
 21 44  1  0  0  0  0
 22 23  2  0  0  0  0
 22 24  1  0  0  0  0
 24 27  1  0  0  0  0
 24 25  1  0  0  0  0
 25 26  2  0  0  0  0
M  END
> <s_m_source_file>
AV-unprocessed.smi

> <i_m_source_file_index>
101

> <i_lp_mmshare_version>
43012

> <i_f3d_flags>
0

> <s_epik_input>
Tz1jMVtuSF1jKD1PKW4oW2NIXWMxW0NIM10pW0NAQEhdMk9bQ0BIXShbQ0BASF0oW09IXSlbQ0BIXTJbT0hdKVtDSDJdT0MoPU8pYzNbY0hdW2NIXVtjSF1bY0hdW2NIXTM=

> <s_epik_cmdline>
J2VwaWtfcHl0aG9uJywgJy1waCcsICc3LjAnLCAnLXRuJywgJzgnLCAnLW1hJywgJzIwMCcsICctbWV0YWxfYmluZGluZycsICctaW1hZScsICc8aW5maWxlLm1hZT4nLCAnLW9tYWUnLCAnPG91dGZpbGUubWFlPic=

> <r_lp_tautomer_probability>
0.999537

> <r_epik_Ionization_Penalty>
0.00263537

> <r_epik_Ionization_Penalty_Charging>
0.00263428

> <r_epik_Ionization_Penalty_Neutral>
1.09111e-06

> <r_epik_State_Penalty>
0.00183335

> <r_epik_Charging_Adjusted_Penalty>
0.00446763

> <i_epik_Tot_Q>
0

> <i_epik_Tot_abs_Q>
0

> <r_epik_Metal_State_Penalty>
1.00528

> <b_epik_Metal_Only>
0

> <s_epik_Chemistry_Notes>
This compound has an ester and may undergo hydrolysis at high or low pH. This compound contains an acetal/aminal-like group ( X-CH(R)-Y where X, Y are N, S, or O) that may be acid/base labile, releasing an aldehyde.

> <s_lp_Force_Field>
OPLS_2005

> <r_lp_Energy>
27.5612

> <b_lp_Chiralities_Consistent>
1

> <s_lp_Variant>
AV-unprocessed.smi:101-5

> <Gold.Version>
5.8.1

> <Gold.Id.Protein>
6NUR|6NUR_protein|mol2

> <Gold.PLP.Fitness>
53.3623

> <Gold.PLP.PLP>
-40.4493

> <Gold.PLP.part.hbond>
-6.1927

> <Gold.PLP.part.metal>
0.0000

> <Gold.PLP.part.buried>
-4.8775

> <Gold.PLP.part.nonpolar>
-29.2413

> <Gold.PLP.part.repulsive>
0.0268

> <Gold.PLP.ligand.clash>
0.0000

> <Gold.PLP.ligand.torsion>
1.1021

> <Gold.PLP.Chemscore.Hbond>
5.0179

> <Gold.PLP.Chemscore.CHOScore>
0.0000

> <Gold.PLP.Chemscore.Metal>
0.0000

> <Gold.Chemscore.Hbonds>
donor molecule, donor type, donor heavy atom, donor atom, acceptor molecule, acceptor atom, score
      L1  H    19    42       P1  7957  0.04
      L1  H    21    44       P1  7949  1.00
      P1  H  6896  6908       L1    23  1.00
      P1  H  7989  7998       L1    19  0.99
      P1  H  7997  8010       L1    11  1.00
      P1  H 10752 10764       L1    21  1.00

> <Gold.PLP.Chemscore.Internal.Correction>
0.0635

> <Gold.Rescore>
     Score         DG    S(hbond)    S(metal)    S(lipo)     H(rot)  DE(clash)    DE(int)     intcor
     17.42     -19.18       3.45        0.00      91.16       3.32       0.66       1.10       ----

> <Gold.Chemscore.Fitness>
17.4204

> <Gold.Chemscore.DG>
-19.1830

> <Gold.Chemscore.ZeroCoef>
-5.4800

> <Gold.Chemscore.Hbond>
3.4519

> <Gold.Chemscore.Metal>
0.0000

> <Gold.Chemscore.Lipo>
91.1606

> <Gold.Chemscore.Internal_Hbond>
0.0000

> <Gold.Chemscore.DEClash>
0.6638

> <Gold.Chemscore.DEInternal>
1.0987

> <Gold.Chemscore.Rot>
3.3172

> <Gold.Chemscore.Internal.Correction>
   9.000000E+99

> <Gold.Chemscore.Hbonds>
donor molecule, donor type, donor heavy atom, donor atom, acceptor molecule, acceptor atom, score
      L1  H    19    42       P1  7957  0.03
      L1  H    21    44       P1  7949  0.42
      P1  H  6896  6908       L1    23  0.95
      P1  H  7989  7998       L1    19  0.24
      P1  H  7997  8010       L1    11  0.88
      P1  H 10752 10764       L1    21  0.49

> <Gold.Chemscore.Hbond.Weighted>
-11.5292

> <Gold.Chemscore.Metal.Weighted>
-0.0000

> <Gold.Chemscore.Lipo.Weighted>
-10.6658

> <Gold.Chemscore.Internal_Hbond.Weighted>
0.0000

> <Gold.Chemscore.DEClash.Weighted>
0.6638

> <Gold.Chemscore.DEInternal.Weighted>
1.0987

> <Gold.Chemscore.Rot.Weighted>
8.4920

> <Gold.Chemscore.Internal.Correction.Weighted>
   9.000000E+99

> <Gold.Protein.RotatedTorsions>
[ 6907 6896 6895 6894 ] final  142.11 input  -60.11 | X-H torsion
[ 7974 7965 7964 7962 ] final   78.16 input  175.53 | X-H torsion
[ 8008 7997 7996 7995 ] final   23.51 input   59.86 | X-H torsion
[ 10167 10162 10161 10158 ] final  136.96 input  -65.29 | X-H torsion
[ 10718 10713 10712 10709 ] final  135.28 input   66.30 | X-H torsion
[ 10763 10752 10751 10750 ] final  -56.07 input  -60.55 | X-H torsion
[ 11005 11000 10999 10996 ] final   53.43 input  -57.11 | X-H torsion

> <Gold.Protein.ActiveResidues>
 VAL166  LYS551  ARG553  GLY616  TRP617  ASP618  TYR619  PRO620  LYS621  CYS622 
 ASP623  PHE694  ASN695  SER759  ASP760  ASP761  ALA762  ILE779  LEU786  VAL792 
 PHE793  MET794  SER795  GLU796  ALA797  LYS798  CYS799  TRP800  GLU811  SER814 

> <Gold.Protein.RotatedAtoms>
  152.2227  133.4996  159.5171 H   0  0  0  0  0  0  0  0  0  0  0  0  # atno 6907 bound_to 6896
  150.7017  134.1321  159.4082 H   0  0  0  0  0  0  0  0  0  0  0  0  # atno 6908 bound_to 6896
  151.9242  135.0285  160.0575 H   0  0  0  0  0  0  0  0  0  0  0  0  # atno 6909 bound_to 6896
  145.6807  139.2523  143.1815 H   0  0  0  0  0  0  0  0  0  0  0  0  # atno 7974 bound_to 7965
  154.9821  140.3103  155.4942 H   0  0  0  0  0  0  0  0  0  0  0  0  # atno 8008 bound_to 7997
  156.2952  140.2264  156.4860 H   0  0  0  0  0  0  0  0  0  0  0  0  # atno 8009 bound_to 7997
  154.7780  140.0448  157.1093 H   0  0  0  0  0  0  0  0  0  0  0  0  # atno 8010 bound_to 7997
  139.5161  144.6436  151.5502 H   0  0  0  0  0  0  0  0  0  0  0  0  # atno 10167 bound_to 10162
  157.4586  131.1072  150.9947 H   0  0  0  0  0  0  0  0  0  0  0  0  # atno 10718 bound_to 10713
  154.2008  135.6411  153.5086 H   0  0  0  0  0  0  0  0  0  0  0  0  # atno 10763 bound_to 10752
  153.0012  135.5451  154.6317 H   0  0  0  0  0  0  0  0  0  0  0  0  # atno 10764 bound_to 10752
  154.5730  135.2918  155.0782 H   0  0  0  0  0  0  0  0  0  0  0  0  # atno 10765 bound_to 10752
  140.0767  134.5394  155.8989 H   0  0  0  0  0  0  0  0  0  0  0  0  # atno 11005 bound_to 11000
  146.0966  140.7593  142.9569 LP  0  0  0  0  0  0  0  0  0  0  0  0  # atno 17320 bound_to 7965
  144.7027  140.3721  143.7143 LP  0  0  0  0  0  0  0  0  0  0  0  0  # atno 17321 bound_to 7965
  140.6212  143.9255  150.6528 LP  0  0  0  0  0  0  0  0  0  0  0  0  # atno 17342 bound_to 10162
  140.2529  143.3580  152.1390 LP  0  0  0  0  0  0  0  0  0  0  0  0  # atno 17343 bound_to 10162
  157.0752  130.5880  149.5410 LP  0  0  0  0  0  0  0  0  0  0  0  0  # atno 17370 bound_to 10713
  156.0018  130.5099  150.7692 LP  0  0  0  0  0  0  0  0  0  0  0  0  # atno 17371 bound_to 10713
  141.2032  133.6630  156.6050 LP  0  0  0  0  0  0  0  0  0  0  0  0  # atno 17394 bound_to 11000
  140.3547  134.7739  157.4492 LP  0  0  0  0  0  0  0  0  0  0  0  0  # atno 17395 bound_to 11000

$$$$
