AV-unprocessed.smi:740|AV-procd|sdf|3552|dock4
  -GOLD-   22720 0543D 1   1.00000     0.00000
 Structure written by MMmdl.
 45 47  0  0  0  0  0  0  0  0  2 V2000
  151.8708  145.0288  160.4244 C   0  0  0  0  0  0  0  0  0  0  0  0
  151.7431  143.8442  159.4819 C   0  0  0  0  0  0  0  0  0  0  0  0
  151.0741  144.0308  158.2515 C   0  0  0  0  0  0  0  0  0  0  0  0
  150.9716  142.9284  157.4117 C   0  0  0  0  0  0  0  0  0  0  0  0
  150.3791  142.7904  156.1550 N   0  3  0  0  0  0  0  0  0  0  0  0
  150.5290  141.5088  155.7206 C   0  0  0  0  0  0  0  0  0  0  0  0
  151.2113  140.8265  156.6798 N   0  0  0  0  0  0  0  0  0  0  0  0
  151.6298  139.4177  156.7034 C   0  0  0  0  0  0  0  0  0  0  0  0
  150.4379  138.4429  156.7690 C   0  0  2  0  0  0  0  0  0  0  0  0
  149.6579  138.5961  155.5993 O   0  0  0  0  0  0  0  0  0  0  0  0
  149.5492  138.7158  158.0005 C   0  0  0  0  0  0  0  0  0  0  0  0
  148.5628  137.6511  158.2166 N   0  0  0  0  0  0  0  0  0  0  0  0
  148.8759  136.3574  158.3705 C   0  0  0  0  0  0  0  0  0  0  0  0
  150.0087  135.8765  158.3613 O   0  0  0  0  0  0  0  0  0  0  0  0
  147.6245  135.5113  158.5583 C   0  0  0  0  0  0  0  0  0  0  0  0
  146.4865  136.5398  158.4757 C   0  0  2  0  0  0  0  0  0  0  0  0
  145.4787  136.2590  157.3488 C   0  0  0  0  0  0  0  0  0  0  0  0
  147.2376  137.8509  158.2511 C   0  0  0  0  0  0  0  0  0  0  0  0
  146.6638  138.9321  158.1189 O   0  0  0  0  0  0  0  0  0  0  0  0
  151.5086  141.6723  157.7556 C   0  0  0  0  0  0  0  0  0  0  0  0
  152.1718  141.4722  158.9643 C   0  0  0  0  0  0  0  0  0  0  0  0
  152.2834  142.5804  159.8344 C   0  0  0  0  0  0  0  0  0  0  0  0
  152.9973  142.3895  161.1620 C   0  0  0  0  0  0  0  0  0  0  0  0
  151.4444  145.9328  159.9887 H   0  0  0  0  0  0  0  0  0  0  0  0
  152.9183  145.2306  160.6493 H   0  0  0  0  0  0  0  0  0  0  0  0
  151.3470  144.8303  161.3598 H   0  0  0  0  0  0  0  0  0  0  0  0
  150.6582  144.9892  157.9768 H   0  0  0  0  0  0  0  0  0  0  0  0
  150.1713  141.1059  154.7840 H   0  0  0  0  0  0  0  0  0  0  0  0
  152.1967  139.2446  155.7878 H   0  0  0  0  0  0  0  0  0  0  0  0
  152.3259  139.2568  157.5270 H   0  0  0  0  0  0  0  0  0  0  0  0
  150.8217  137.4223  156.8000 H   0  0  0  0  0  0  0  0  0  0  0  0
  149.4809  139.5159  155.4740 H   0  0  0  0  0  0  0  0  0  0  0  0
  150.1744  138.7788  158.8930 H   0  0  0  0  0  0  0  0  0  0  0  0
  149.0696  139.6933  157.9212 H   0  0  0  0  0  0  0  0  0  0  0  0
  147.5625  134.7546  157.7751 H   0  0  0  0  0  0  0  0  0  0  0  0
  147.6463  135.0085  159.5257 H   0  0  0  0  0  0  0  0  0  0  0  0
  145.9646  136.5941  159.4320 H   0  0  0  0  0  0  0  0  0  0  0  0
  144.6711  136.9917  157.3509 H   0  0  0  0  0  0  0  0  0  0  0  0
  145.0273  135.2738  157.4683 H   0  0  0  0  0  0  0  0  0  0  0  0
  145.9540  136.2886  156.3673 H   0  0  0  0  0  0  0  0  0  0  0  0
  152.5811  140.5107  159.2357 H   0  0  0  0  0  0  0  0  0  0  0  0
  153.3048  141.3531  161.3050 H   0  0  0  0  0  0  0  0  0  0  0  0
  152.3440  142.6585  161.9923 H   0  0  0  0  0  0  0  0  0  0  0  0
  153.8910  143.0122  161.2076 H   0  0  0  0  0  0  0  0  0  0  0  0
  149.9062  143.5154  155.6305 H   0  0  0  0  0  0  0  0  0  0  0  0
  1  2  1  0  0  0  0
  1 24  1  0  0  0  0
  1 25  1  0  0  0  0
  1 26  1  0  0  0  0
  2 22  1  0  0  0  0
  2  3  2  0  0  0  0
  3  4  1  0  0  0  0
  3 27  1  0  0  0  0
  4 20  2  0  0  0  0
  4  5  1  0  0  0  0
  5  6  2  0  0  0  0
  5 45  1  0  0  0  0
  6  7  1  0  0  0  0
  6 28  1  0  0  0  0
  7  8  1  0  0  0  0
  7 20  1  0  0  0  0
  8  9  1  0  0  0  0
  8 29  1  0  0  0  0
  8 30  1  0  0  0  0
  9 10  1  0  0  0  0
  9 11  1  0  0  0  0
  9 31  1  0  0  0  0
 10 32  1  0  0  0  0
 11 12  1  0  0  0  0
 11 33  1  0  0  0  0
 11 34  1  0  0  0  0
 12 18  1  0  0  0  0
 12 13  1  0  0  0  0
 13 14  2  0  0  0  0
 13 15  1  0  0  0  0
 15 16  1  0  0  0  0
 15 35  1  0  0  0  0
 15 36  1  0  0  0  0
 16 17  1  0  0  0  0
 16 18  1  0  0  0  0
 16 37  1  0  0  0  0
 17 38  1  0  0  0  0
 17 39  1  0  0  0  0
 17 40  1  0  0  0  0
 18 19  2  0  0  0  0
 20 21  1  0  0  0  0
 21 22  2  0  0  0  0
 21 41  1  0  0  0  0
 22 23  1  0  0  0  0
 23 42  1  0  0  0  0
 23 43  1  0  0  0  0
 23 44  1  0  0  0  0
M  CHG  1   5   1
M  END
> <s_m_source_file>
AV-unprocessed.smi

> <i_m_source_file_index>
740

> <i_lp_mmshare_version>
43012

> <i_f3d_flags>
0

> <s_epik_input>
W0NIM11jKFtjSF0xKWMoW0NIM10pW2NIXWMoYzEyKW4oW2NIXW4yKVtDSDJdW0NASF0oW09IXSlbQ0gyXU4zQyg9TylbQ0gyXVtDQEBIXShbQ0gzXSlDMz1P

> <s_epik_cmdline>
J2VwaWtfcHl0aG9uJywgJy1waCcsICc3LjAnLCAnLXRuJywgJzgnLCAnLW1hJywgJzIwMCcsICctbWV0YWxfYmluZGluZycsICctaW1hZScsICc8aW5maWxlLm1hZT4nLCAnLW9tYWUnLCAnPG91dGZpbGUubWFlPic=

> <r_lp_tautomer_probability>
1

> <r_epik_Ionization_Penalty>
1.08202

> <r_epik_Ionization_Penalty_Charging>
1.08202

> <r_epik_Ionization_Penalty_Neutral>
1.16605e-06

> <r_epik_State_Penalty>
1.13754

> <r_epik_Charging_Adjusted_Penalty>
2.21956

> <i_epik_Tot_Q>
1

> <i_epik_Tot_abs_Q>
1

> <r_epik_Metal_State_Penalty>
5.13645

> <b_epik_Metal_Only>
0

> <s_lp_Force_Field>
OPLS_2005

> <r_lp_Energy>
22.2654

> <b_lp_Chiralities_Consistent>
1

> <s_lp_Variant>
AV-unprocessed.smi:740-7

> <Gold.Version>
5.8.1

> <Gold.Id.Protein>
6NUR|6NUR_protein|mol2

> <Gold.PLP.Fitness>
48.6936

> <Gold.PLP.PLP>
-39.9004

> <Gold.PLP.part.hbond>
-2.8726

> <Gold.PLP.part.metal>
0.0000

> <Gold.PLP.part.buried>
-5.6583

> <Gold.PLP.part.nonpolar>
-32.3470

> <Gold.PLP.part.repulsive>
0.1126

> <Gold.PLP.ligand.clash>
0.0000

> <Gold.PLP.ligand.torsion>
0.1082

> <Gold.PLP.Chemscore.Hbond>
2.9920

> <Gold.PLP.Chemscore.CHOScore>
0.0000

> <Gold.PLP.Chemscore.Metal>
0.0000

> <Gold.Chemscore.Hbonds>
donor molecule, donor type, donor heavy atom, donor atom, acceptor molecule, acceptor atom, score
      L1  H     5    45       P1  8028  1.92
      P1  H  6896  6908       L1    14  0.98

> <Gold.PLP.Chemscore.Internal.Correction>
0.0337

> <Gold.Rescore>
     Score         DG    S(hbond)    S(metal)    S(lipo)     H(rot)  DE(clash)    DE(int)     intcor
     17.51     -17.68       1.96        0.00     100.10       2.37       0.03       0.14       ----

> <Gold.Chemscore.Fitness>
17.5065

> <Gold.Chemscore.DG>
-17.6788

> <Gold.Chemscore.ZeroCoef>
-5.4800

> <Gold.Chemscore.Hbond>
1.9641

> <Gold.Chemscore.Metal>
0.0000

> <Gold.Chemscore.Lipo>
100.1037

> <Gold.Chemscore.Internal_Hbond>
0.0000

> <Gold.Chemscore.DEClash>
0.0310

> <Gold.Chemscore.DEInternal>
0.1413

> <Gold.Chemscore.Rot>
2.3724

> <Gold.Chemscore.Internal.Correction>
   9.000000E+99

> <Gold.Chemscore.Hbonds>
donor molecule, donor type, donor heavy atom, donor atom, acceptor molecule, acceptor atom, score
      L1  H     5    45       P1  8028  0.90
      P1  H  6896  6908       L1    14  0.93

> <Gold.Chemscore.Hbond.Weighted>
-6.5601

> <Gold.Chemscore.Metal.Weighted>
-0.0000

> <Gold.Chemscore.Lipo.Weighted>
-11.7121

> <Gold.Chemscore.Internal_Hbond.Weighted>
0.0000

> <Gold.Chemscore.DEClash.Weighted>
0.0310

> <Gold.Chemscore.DEInternal.Weighted>
0.1413

> <Gold.Chemscore.Rot.Weighted>
6.0734

> <Gold.Chemscore.Internal.Correction.Weighted>
   9.000000E+99

> <Gold.Protein.RotatedTorsions>
[ 6907 6896 6895 6894 ] final -169.68 input  -60.11 | X-H torsion
[ 7974 7965 7964 7962 ] final  -52.47 input  175.53 | X-H torsion
[ 8008 7997 7996 7995 ] final   80.52 input   59.86 | X-H torsion
[ 10167 10162 10161 10158 ] final -158.84 input  -65.29 | X-H torsion
[ 10718 10713 10712 10709 ] final  -56.75 input   66.30 | X-H torsion
[ 10763 10752 10751 10750 ] final  -20.40 input  -60.55 | X-H torsion
[ 11005 11000 10999 10996 ] final  -67.31 input  -57.11 | X-H torsion

> <Gold.Protein.ActiveResidues>
 VAL166  LYS551  ARG553  GLY616  TRP617  ASP618  TYR619  PRO620  LYS621  CYS622 
 ASP623  PHE694  ASN695  SER759  ASP760  ASP761  ALA762  ILE779  LEU786  VAL792 
 PHE793  MET794  SER795  GLU796  ALA797  LYS798  CYS799  TRP800  GLU811  SER814 

> <Gold.Protein.RotatedAtoms>
  151.4955  133.3515  159.2860 H   0  0  0  0  0  0  0  0  0  0  0  0  # atno 6907 bound_to 6896
  150.8806  134.8199  159.7233 H   0  0  0  0  0  0  0  0  0  0  0  0  # atno 6908 bound_to 6896
  152.4760  134.4852  159.9730 H   0  0  0  0  0  0  0  0  0  0  0  0  # atno 6909 bound_to 6896
  145.9076  140.7942  142.9712 H   0  0  0  0  0  0  0  0  0  0  0  0  # atno 7974 bound_to 7965
  155.8846  140.3442  155.5912 H   0  0  0  0  0  0  0  0  0  0  0  0  # atno 8008 bound_to 7997
  155.7681  140.0841  157.2141 H   0  0  0  0  0  0  0  0  0  0  0  0  # atno 8009 bound_to 7997
  154.4027  140.1523  156.2897 H   0  0  0  0  0  0  0  0  0  0  0  0  # atno 8010 bound_to 7997
  139.6661  143.9827  152.2255 H   0  0  0  0  0  0  0  0  0  0  0  0  # atno 10167 bound_to 10162
  156.1264  130.4162  150.0347 H   0  0  0  0  0  0  0  0  0  0  0  0  # atno 10718 bound_to 10713
  153.6198  135.6993  153.5315 H   0  0  0  0  0  0  0  0  0  0  0  0  # atno 10763 bound_to 10752
  153.2947  135.4146  155.1198 H   0  0  0  0  0  0  0  0  0  0  0  0  # atno 10764 bound_to 10752
  154.8546  135.3634  154.5738 H   0  0  0  0  0  0  0  0  0  0  0  0  # atno 10765 bound_to 10752
  141.1505  133.6716  156.6274 H   0  0  0  0  0  0  0  0  0  0  0  0  # atno 11005 bound_to 11000
  144.6740  140.1774  143.7409 LP  0  0  0  0  0  0  0  0  0  0  0  0  # atno 17320 bound_to 7965
  145.8713  139.2273  143.1659 LP  0  0  0  0  0  0  0  0  0  0  0  0  # atno 17321 bound_to 7965
  139.9579  144.6577  150.8108 LP  0  0  0  0  0  0  0  0  0  0  0  0  # atno 17342 bound_to 10162
  140.7600  143.3141  151.2775 LP  0  0  0  0  0  0  0  0  0  0  0  0  # atno 17343 bound_to 10162
  156.8271  130.9379  151.3639 LP  0  0  0  0  0  0  0  0  0  0  0  0  # atno 17370 bound_to 10713
  157.6445  130.8833  149.9512 LP  0  0  0  0  0  0  0  0  0  0  0  0  # atno 17371 bound_to 10713
  140.3493  134.7782  157.4455 LP  0  0  0  0  0  0  0  0  0  0  0  0  # atno 17394 bound_to 11000
  140.0873  134.5648  155.8479 LP  0  0  0  0  0  0  0  0  0  0  0  0  # atno 17395 bound_to 11000

$$$$
