#       Name:                AV-unprocessed.smi:1715
#       Creating user name   scv26
#       Creation time:       Fri Mar 27 08:11:57 2020


#       File generated by GOLD software.
#

@<TRIPOS>MOLECULE
AV-unprocessed.smi:1715
    46    47     1
SMALL
NO_CHARGES


@<TRIPOS>ATOM
      1 ****        -4.0788  -2.4796  -2.2780 C.3            1 S1                 0.0000
      2 ****        -3.5225  -1.6807  -1.0947 C.3            1 S1                 0.0000
      3 ****        -1.9942  -1.5178  -1.1768 C.3            1 S1                 0.0000
      4 ****        -1.5023  -0.6667  -0.0689 N.4            1 S1                 1.0000
      5 ****        -0.0218  -0.5678  -0.0492 C.3            1 S1                 0.0000
      6 ****         0.5215  -0.1107   1.3189 C.3            1 S1                 0.0000
      7 ****         1.9794  -0.0882   1.3370 N.am           1 S1                 0.0000
      8 ****         2.7404   0.8510   0.7574 C.2            1 S1                 0.0000
      9 ****         2.2800   1.8072   0.1331 O.2            1 S1                 0.0000
     10 ****         4.0472   0.6069   0.9472 N.am           1 S1                 0.0000
     11 ****         5.1434   1.3696   0.4709 C.2            1 S1                 0.0000
     12 ****         6.5096   1.0627   0.7154 C.2            1 S1                 0.0000
     13 ****         7.3137   1.9491   0.1461 N.2            1 S1                 0.0000
     14 ****         6.4737   2.8183  -0.4602 N.pl3          1 S1                 0.0000
     15 ****         5.1432   2.5052  -0.2895 C.2            1 S1                 0.0000
     16 ****        -2.1859   0.6503  -0.0921 C.3            1 S1                 0.0000
     17 ****        -3.7178   0.4819  -0.0631 C.3            1 S1                 0.0000
     18 ****        -4.2628   0.0557   1.3118 C.3            1 S1                 0.0000
     19 ****        -4.1380  -0.3955  -1.1077 O.3            1 S1                 0.0000
     20 ****         6.8194   3.6119  -0.9809 H              1 S1                 0.0000
     21 ****        -3.6515  -3.4820  -2.3117 H              1 S1                 0.0000
     22 ****        -3.8564  -1.9885  -3.2259 H              1 S1                 0.0000
     23 ****        -5.1616  -2.5827  -2.2032 H              1 S1                 0.0000
     24 ****        -3.7869  -2.2072  -0.1774 H              1 S1                 0.0000
     25 ****        -1.5208  -2.4993  -1.1277 H              1 S1                 0.0000
     26 ****        -1.7092  -1.0722  -2.1316 H              1 S1                 0.0000
     27 ****         0.4035  -1.5478  -0.2710 H              1 S1                 0.0000
     28 ****         0.3083   0.0986  -0.8475 H              1 S1                 0.0000
     29 ****         0.1501   0.8784   1.5878 H              1 S1                 0.0000
     30 ****         0.1841  -0.7927   2.0996 H              1 S1                 0.0000
     31 ****         2.4423  -0.8371   1.8315 H              1 S1                 0.0000
     32 ****         4.2849  -0.2122   1.4872 H              1 S1                 0.0000
     33 ****         6.9357   0.2430   1.2751 H              1 S1                 0.0000
     34 ****         4.3497   3.1027  -0.7131 H              1 S1                 0.0000
     35 ****        -1.8738   1.2675   0.7494 H              1 S1                 0.0000
     36 ****        -1.8950   1.1855  -0.9975 H              1 S1                 0.0000
     37 ****        -4.1617   1.4519  -0.2892 H              1 S1                 0.0000
     38 ****        -4.0438   0.8129   2.0649 H              1 S1                 0.0000
     39 ****        -3.8269  -0.8805   1.6596 H              1 S1                 0.0000
     40 ****        -5.3450  -0.0708   1.2787 H              1 S1                 0.0000
     41 ****        -1.7739  -1.1293   0.7871 H              1 S1                 0.0000
     42 ****         1.2901   1.9125   0.0383 LP             1 S1                 0.0000
     43 ****         2.8960   2.4784  -0.2792 LP             1 S1                 0.0000
     44 ****         8.3134   1.9703   0.1613 LP             1 S1                 0.0000
     45 ****        -5.1265  -0.5235  -1.0273 LP             1 S1                 0.0000
     46 ****        -3.9285   0.0405  -1.9829 LP             1 S1                 0.0000
@<TRIPOS>BOND
    1    1    2 1     
    2    1   21 1     
    3    1   22 1     
    4    1   23 1     
    5    2   19 1     
    6    2    3 1     
    7    2   24 1     
    8    3    4 1     
    9    3   25 1     
   10    3   26 1     
   11    4    5 1     
   12    4   16 1     
   13    4   41 1     
   14    5    6 1     
   15    5   27 1     
   16    5   28 1     
   17    6    7 1     
   18    6   29 1     
   19    6   30 1     
   20    7    8 am    
   21    7   31 1     
   22    8    9 2     
   23    8   10 am    
   24   10   11 1     
   25   10   32 1     
   26   11   15 2     
   27   11   12 1     
   28   12   13 2     
   29   12   33 1     
   30   13   14 1     
   31   14   20 1     
   32   14   15 1     
   33   15   34 1     
   34   16   17 1     
   35   16   35 1     
   36   16   36 1     
   37   17   18 1     
   38   17   19 1     
   39   17   37 1     
   40   18   38 1     
   41   18   39 1     
   42   18   40 1     
   43    9   42 1     
   44    9   43 1     
   45   13   44 1     
   46   19   45 1     
   47   19   46 1     
@<TRIPOS>SUBSTRUCTURE
      1 S1             1
@<TRIPOS>SET
LONE_PAIRS      STATIC     ATOMS    <user>   **** ""
5 42 43 44 45 46
DONOR_HYDROGENS      STATIC     ATOMS    <user>   **** ""
4 41 31 32 20
ATOM$BLUE        STATIC     ATOMS    COLORGROUP SYSTEM
5 42 43 44 45 46
ATOM$RED        STATIC     ATOMS    COLORGROUP SYSTEM
4 41 31 32 20
