AV-unprocessed.smi:2851|AV-procd|sdf|10971|dock4
  -GOLD-   2272015423D 1   1.00000     0.00000
 Structure written by MMmdl.
 43 44  0  0  0  0  0  0  0  0  2 V2000
  153.1792  140.6176  159.4746 C   0  0  0  0  0  0  0  0  0  0  0  0
  152.9160  141.9402  160.1356 C   0  0  0  0  0  0  0  0  0  0  0  0
  153.2196  142.1005  161.4132 N   0  0  0  0  0  0  0  0  0  0  0  0
  152.8819  143.3765  161.6890 N   0  0  0  0  0  0  0  0  0  0  0  0
  153.0984  143.8958  163.0252 C   0  0  0  0  0  0  0  0  0  0  0  0
  152.3519  144.0192  160.5873 C   0  0  0  0  0  0  0  0  0  0  0  0
  151.9032  145.4447  160.6367 C   0  0  0  0  0  0  0  0  0  0  0  0
  152.3578  143.1171  159.5561 C   0  0  0  0  0  0  0  0  0  0  0  0
  151.9007  143.3048  158.1313 C   0  0  0  0  0  0  0  0  0  0  0  0
  150.9407  142.1775  157.7529 C   0  0  0  0  0  0  0  0  0  0  0  0
  149.9309  141.9943  158.4302 O   0  0  0  0  0  0  0  0  0  0  0  0
  151.3119  141.4411  156.6894 N   0  0  0  0  0  0  0  0  0  0  0  0
  150.7140  140.2718  156.0242 C   0  0  0  0  0  0  0  0  0  0  0  0
  151.9220  139.3895  155.6200 C   0  0  0  0  0  0  0  0  0  0  0  0
  152.6876  138.9874  156.5246 O   0  0  0  0  0  0  0  0  0  0  0  0
  152.0967  139.1629  154.4007 O   0  5  0  0  0  0  0  0  0  0  0  0
  149.7011  139.4328  156.8720 C   0  0  0  0  0  0  0  0  0  0  0  0
  148.3359  140.1168  157.0887 C   0  0  0  0  0  0  0  0  0  0  0  0
  147.7076  140.5555  155.7623 C   0  0  0  0  0  0  0  0  0  0  0  0
  148.6664  141.4698  154.9926 C   0  0  0  0  0  0  0  0  0  0  0  0
  150.0089  140.7682  154.7282 C   0  0  0  0  0  0  0  0  0  0  0  0
  152.2481  140.0792  159.2983 H   0  0  0  0  0  0  0  0  0  0  0  0
  153.8226  139.9812  160.0832 H   0  0  0  0  0  0  0  0  0  0  0  0
  153.6697  140.7555  158.5108 H   0  0  0  0  0  0  0  0  0  0  0  0
  152.1390  144.0286  163.5253 H   0  0  0  0  0  0  0  0  0  0  0  0
  153.6074  144.8582  162.9677 H   0  0  0  0  0  0  0  0  0  0  0  0
  153.7123  143.2096  163.6102 H   0  0  0  0  0  0  0  0  0  0  0  0
  151.3244  145.7087  159.7521 H   0  0  0  0  0  0  0  0  0  0  0  0
  152.7609  146.1157  160.6868 H   0  0  0  0  0  0  0  0  0  0  0  0
  151.2771  145.6284  161.5097 H   0  0  0  0  0  0  0  0  0  0  0  0
  151.3934  144.2608  157.9987 H   0  0  0  0  0  0  0  0  0  0  0  0
  152.7424  143.3149  157.4378 H   0  0  0  0  0  0  0  0  0  0  0  0
  152.1882  141.7228  156.2751 H   0  0  0  0  0  0  0  0  0  0  0  0
  149.5067  138.4922  156.3535 H   0  0  0  0  0  0  0  0  0  0  0  0
  150.1274  139.1380  157.8311 H   0  0  0  0  0  0  0  0  0  0  0  0
  147.6624  139.4338  157.6069 H   0  0  0  0  0  0  0  0  0  0  0  0
  148.4405  140.9859  157.7363 H   0  0  0  0  0  0  0  0  0  0  0  0
  147.4677  139.6794  155.1588 H   0  0  0  0  0  0  0  0  0  0  0  0
  146.7663  141.0731  155.9492 H   0  0  0  0  0  0  0  0  0  0  0  0
  148.2133  141.7663  154.0463 H   0  0  0  0  0  0  0  0  0  0  0  0
  148.8333  142.3887  155.5561 H   0  0  0  0  0  0  0  0  0  0  0  0
  150.6558  141.4497  154.1729 H   0  0  0  0  0  0  0  0  0  0  0  0
  149.8252  139.9226  154.0627 H   0  0  0  0  0  0  0  0  0  0  0  0
  1  2  1  0  0  0  0
  1 22  1  0  0  0  0
  1 23  1  0  0  0  0
  1 24  1  0  0  0  0
  2  8  1  0  0  0  0
  2  3  2  0  0  0  0
  3  4  1  0  0  0  0
  4  5  1  0  0  0  0
  4  6  1  0  0  0  0
  5 25  1  0  0  0  0
  5 26  1  0  0  0  0
  5 27  1  0  0  0  0
  6  7  1  0  0  0  0
  6  8  2  0  0  0  0
  7 28  1  0  0  0  0
  7 29  1  0  0  0  0
  7 30  1  0  0  0  0
  8  9  1  0  0  0  0
  9 10  1  0  0  0  0
  9 31  1  0  0  0  0
  9 32  1  0  0  0  0
 10 11  2  0  0  0  0
 10 12  1  0  0  0  0
 12 13  1  0  0  0  0
 12 33  1  0  0  0  0
 13 21  1  0  0  0  0
 13 14  1  0  0  0  0
 13 17  1  0  0  0  0
 14 15  2  0  0  0  0
 14 16  1  0  0  0  0
 17 18  1  0  0  0  0
 17 34  1  0  0  0  0
 17 35  1  0  0  0  0
 18 19  1  0  0  0  0
 18 36  1  0  0  0  0
 18 37  1  0  0  0  0
 19 20  1  0  0  0  0
 19 38  1  0  0  0  0
 19 39  1  0  0  0  0
 20 21  1  0  0  0  0
 20 40  1  0  0  0  0
 20 41  1  0  0  0  0
 21 42  1  0  0  0  0
 21 43  1  0  0  0  0
M  CHG  1  16  -1
M  END
> <s_m_source_file>
AV-unprocessed.smi

> <i_m_source_file_index>
2851

> <i_lp_mmshare_version>
43012

> <i_f3d_flags>
0

> <s_epik_input>
W0NIM11jMW5uKFtDSDNdKWMoW0NIM10pYzFbQ0gyXUMoPU8pW05IXUMyKEMoPU8pW09IXSlbQ0gyXVtDSDJdW0NIMl1bQ0gyXVtDSDJdMg==

> <s_epik_cmdline>
J2VwaWtfcHl0aG9uJywgJy1waCcsICc3LjAnLCAnLXRuJywgJzgnLCAnLW1hJywgJzIwMCcsICctbWV0YWxfYmluZGluZycsICctaW1hZScsICc8aW5maWxlLm1hZT4nLCAnLW9tYWUnLCAnPG91dGZpbGUubWFlPic=

> <r_lp_tautomer_probability>
1

> <r_epik_Ionization_Penalty>
0.00398412

> <r_epik_Ionization_Penalty_Charging>
0.000391215

> <r_epik_Ionization_Penalty_Neutral>
0.0035929

> <r_epik_State_Penalty>
-0

> <r_epik_Charging_Adjusted_Penalty>
0.000391215

> <i_epik_Tot_Q>
-1

> <i_epik_Tot_abs_Q>
1

> <r_epik_Metal_State_Penalty>
-0

> <b_epik_Metal_Only>
0

> <s_lp_Force_Field>
OPLS_2005

> <r_lp_Energy>
3.24008

> <b_lp_Chiralities_Consistent>
1

> <s_lp_Variant>
AV-unprocessed.smi:2851-1

> <Gold.Version>
5.8.1

> <Gold.Id.Protein>
6NUR|6NUR_protein|mol2

> <Gold.PLP.Fitness>
47.9088

> <Gold.PLP.PLP>
-40.4631

> <Gold.PLP.part.hbond>
-2.0000

> <Gold.PLP.part.metal>
0.0000

> <Gold.PLP.part.buried>
-1.3076

> <Gold.PLP.part.nonpolar>
-36.8754

> <Gold.PLP.part.repulsive>
0.2858

> <Gold.PLP.ligand.clash>
0.0000

> <Gold.PLP.ligand.torsion>
0.5574

> <Gold.PLP.Chemscore.Hbond>
2.8320

> <Gold.PLP.Chemscore.CHOScore>
0.0000

> <Gold.PLP.Chemscore.Metal>
0.0000

> <Gold.Chemscore.Hbonds>
donor molecule, donor type, donor heavy atom, donor atom, acceptor molecule, acceptor atom, score
      P1  H  7989  7998       L1    16  0.82
      P1  H  7997  8008       L1    15  2.00

> <Gold.PLP.Chemscore.Internal.Correction>
0.0645

> <Gold.Rescore>
     Score         DG    S(hbond)    S(metal)    S(lipo)     H(rot)  DE(clash)    DE(int)     intcor
     13.72     -18.55       1.75        0.00     102.96       1.88       1.85       2.97       ----

> <Gold.Chemscore.Fitness>
13.7228

> <Gold.Chemscore.DG>
-18.5461

> <Gold.Chemscore.ZeroCoef>
-5.4800

> <Gold.Chemscore.Hbond>
1.7469

> <Gold.Chemscore.Metal>
0.0000

> <Gold.Chemscore.Lipo>
102.9641

> <Gold.Chemscore.Internal_Hbond>
0.0000

> <Gold.Chemscore.DEClash>
1.8549

> <Gold.Chemscore.DEInternal>
2.9685

> <Gold.Chemscore.Rot>
1.8809

> <Gold.Chemscore.Internal.Correction>
   9.000000E+99

> <Gold.Chemscore.Hbonds>
donor molecule, donor type, donor heavy atom, donor atom, acceptor molecule, acceptor atom, score
      P1  H  7989  7998       L1    16  0.44
      P1  H  7997  8008       L1    15  0.68

> <Gold.Chemscore.Hbond.Weighted>
-5.8345

> <Gold.Chemscore.Metal.Weighted>
-0.0000

> <Gold.Chemscore.Lipo.Weighted>
-12.0468

> <Gold.Chemscore.Internal_Hbond.Weighted>
0.0000

> <Gold.Chemscore.DEClash.Weighted>
1.8549

> <Gold.Chemscore.DEInternal.Weighted>
2.9685

> <Gold.Chemscore.Rot.Weighted>
4.8152

> <Gold.Chemscore.Internal.Correction.Weighted>
   9.000000E+99

> <Gold.Protein.RotatedTorsions>
[ 6907 6896 6895 6894 ] final  145.73 input  -60.11 | X-H torsion
[ 7974 7965 7964 7962 ] final  -54.59 input  175.53 | X-H torsion
[ 8008 7997 7996 7995 ] final  -51.84 input   59.86 | X-H torsion
[ 10167 10162 10161 10158 ] final  -45.21 input  -65.29 | X-H torsion
[ 10718 10713 10712 10709 ] final  144.81 input   66.30 | X-H torsion
[ 10763 10752 10751 10750 ] final -149.16 input  -60.55 | X-H torsion
[ 11005 11000 10999 10996 ] final  -59.55 input  -57.11 | X-H torsion

> <Gold.Protein.ActiveResidues>
 VAL166  LYS551  ARG553  GLY616  TRP617  ASP618  TYR619  PRO620  LYS621  CYS622 
 ASP623  PHE694  ASN695  SER759  ASP760  ASP761  ALA762  ILE779  LEU786  VAL792 
 PHE793  MET794  SER795  GLU796  ALA797  LYS798  CYS799  TRP800  GLU811  SER814 

> <Gold.Protein.RotatedAtoms>
  152.1771  133.4682  159.4938 H   0  0  0  0  0  0  0  0  0  0  0  0  # atno 6907 bound_to 6896
  150.6928  134.1880  159.4283 H   0  0  0  0  0  0  0  0  0  0  0  0  # atno 6908 bound_to 6896
  151.9789  135.0038  160.0607 H   0  0  0  0  0  0  0  0  0  0  0  0  # atno 6909 bound_to 6896
  145.8838  140.8124  142.9826 H   0  0  0  0  0  0  0  0  0  0  0  0  # atno 7974 bound_to 7965
  154.4092  140.1238  156.4894 H   0  0  0  0  0  0  0  0  0  0  0  0  # atno 8008 bound_to 7997
  155.7005  140.3495  155.4911 H   0  0  0  0  0  0  0  0  0  0  0  0  # atno 8009 bound_to 7997
  155.9389  140.1083  157.1062 H   0  0  0  0  0  0  0  0  0  0  0  0  # atno 8010 bound_to 7997
  140.6867  143.2891  151.3607 H   0  0  0  0  0  0  0  0  0  0  0  0  # atno 10167 bound_to 10162
  157.3528  131.0953  151.0985 H   0  0  0  0  0  0  0  0  0  0  0  0  # atno 10718 bound_to 10713
  154.8193  135.3316  154.7085 H   0  0  0  0  0  0  0  0  0  0  0  0  # atno 10763 bound_to 10752
  153.7720  135.6925  153.4909 H   0  0  0  0  0  0  0  0  0  0  0  0  # atno 10764 bound_to 10752
  153.2038  135.4506  155.0247 H   0  0  0  0  0  0  0  0  0  0  0  0  # atno 10765 bound_to 10752
  141.1253  133.6617  156.5089 H   0  0  0  0  0  0  0  0  0  0  0  0  # atno 11005 bound_to 11000
  144.6728  140.1424  143.7436 LP  0  0  0  0  0  0  0  0  0  0  0  0  # atno 17320 bound_to 7965
  145.8991  139.2420  143.1504 LP  0  0  0  0  0  0  0  0  0  0  0  0  # atno 17321 bound_to 7965
  139.6231  144.0867  152.2410 LP  0  0  0  0  0  0  0  0  0  0  0  0  # atno 17342 bound_to 10162
  140.0318  144.6075  150.7482 LP  0  0  0  0  0  0  0  0  0  0  0  0  # atno 17343 bound_to 10162
  157.2154  130.6457  149.5790 LP  0  0  0  0  0  0  0  0  0  0  0  0  # atno 17370 bound_to 10713
  155.9724  130.4646  150.6224 LP  0  0  0  0  0  0  0  0  0  0  0  0  # atno 17371 bound_to 10713
  140.4385  134.7037  157.4979 LP  0  0  0  0  0  0  0  0  0  0  0  0  # atno 17394 bound_to 11000
  140.0245  134.6497  155.9192 LP  0  0  0  0  0  0  0  0  0  0  0  0  # atno 17395 bound_to 11000

$$$$
