AV-unprocessed.smi:679|AV-procd|sdf|3321|dock2
  -GOLD-   22720 0283D 1   1.00000     0.00000
 Structure written by MMmdl.
 41 43  0  0  0  0  0  0  0  0  1 V2000
  147.4214  140.8777  153.6515 C   0  0  0  0  0  0  0  0  0  0  0  0
  148.5052  141.6631  154.3930 C   0  0  0  0  0  0  0  0  0  0  0  0
  149.0286  140.8508  155.4294 O   0  0  0  0  0  0  0  0  0  0  0  0
  150.1207  140.0496  155.0069 C   0  0  2  0  0  0  0  0  0  0  0  0
  149.7769  139.0191  153.9268 C   0  0  0  0  0  0  0  0  0  0  0  0
  150.7420  138.0873  154.6623 C   0  0  2  0  0  0  0  0  0  0  0  0
  150.2876  136.7031  154.6674 N   0  0  0  0  0  0  0  0  0  0  0  0
  150.7398  135.7590  155.5052 C   0  0  0  0  0  0  0  0  0  0  0  0
  151.6660  135.9373  156.2957 O   0  0  0  0  0  0  0  0  0  0  0  0
  150.0099  134.4176  155.4701 C   0  0  0  0  0  0  0  0  0  0  0  0
  150.5650  133.5164  156.4626 N   0  0  0  0  0  0  0  0  0  0  0  0
  151.0173  132.2652  156.3547 C   0  0  0  0  0  0  0  0  0  0  0  0
  151.4759  131.8103  157.5108 N   0  0  0  0  0  0  0  0  0  0  0  0
  151.2776  132.8781  158.3706 N   0  0  0  0  0  0  0  0  0  0  0  0
  150.7376  133.8934  157.7543 N   0  0  0  0  0  0  0  0  0  0  0  0
  150.4274  138.8705  155.9637 C   0  0  0  0  0  0  0  0  0  0  0  0
  151.5518  139.0764  156.9738 C   0  0  0  0  0  0  0  0  0  0  0  0
  150.9092  139.5308  158.2900 C   0  0  0  0  0  0  0  0  0  0  0  0
  149.4248  139.1665  158.1854 C   0  0  0  0  0  0  0  0  0  0  0  0
  149.2886  138.3909  156.8751 C   0  0  0  0  0  0  0  0  0  0  0  0
  146.9910  141.4726  152.8459 H   0  0  0  0  0  0  0  0  0  0  0  0
  146.6138  140.5939  154.3266 H   0  0  0  0  0  0  0  0  0  0  0  0
  147.8292  139.9661  153.2142 H   0  0  0  0  0  0  0  0  0  0  0  0
  149.2962  141.9506  153.6991 H   0  0  0  0  0  0  0  0  0  0  0  0
  148.0823  142.5780  154.8106 H   0  0  0  0  0  0  0  0  0  0  0  0
  151.0137  140.6313  154.7655 H   0  0  0  0  0  0  0  0  0  0  0  0
  148.7352  138.6937  153.9595 H   0  0  0  0  0  0  0  0  0  0  0  0
  150.0854  139.2950  152.9182 H   0  0  0  0  0  0  0  0  0  0  0  0
  151.7731  138.2228  154.3264 H   0  0  0  0  0  0  0  0  0  0  0  0
  149.5244  136.4683  154.0490 H   0  0  0  0  0  0  0  0  0  0  0  0
  148.9446  134.5601  155.6583 H   0  0  0  0  0  0  0  0  0  0  0  0
  150.1088  133.9602  154.4849 H   0  0  0  0  0  0  0  0  0  0  0  0
  151.0199  131.6975  155.4357 H   0  0  0  0  0  0  0  0  0  0  0  0
  152.0796  138.1359  157.1361 H   0  0  0  0  0  0  0  0  0  0  0  0
  152.2951  139.7952  156.6280 H   0  0  0  0  0  0  0  0  0  0  0  0
  151.3839  139.0463  159.1439 H   0  0  0  0  0  0  0  0  0  0  0  0
  151.0204  140.6079  158.4206 H   0  0  0  0  0  0  0  0  0  0  0  0
  149.0783  138.5850  159.0402 H   0  0  0  0  0  0  0  0  0  0  0  0
  148.8258  140.0769  158.1418 H   0  0  0  0  0  0  0  0  0  0  0  0
  148.3009  138.5225  156.4320 H   0  0  0  0  0  0  0  0  0  0  0  0
  149.3939  137.3282  157.0952 H   0  0  0  0  0  0  0  0  0  0  0  0
  1  2  1  0  0  0  0
  1 21  1  0  0  0  0
  1 22  1  0  0  0  0
  1 23  1  0  0  0  0
  2  3  1  0  0  0  0
  2 24  1  0  0  0  0
  2 25  1  0  0  0  0
  3  4  1  0  0  0  0
  4 16  1  0  0  0  0
  4  5  1  0  0  0  0
  4 26  1  0  0  0  0
  5  6  1  0  0  0  0
  5 27  1  0  0  0  0
  5 28  1  0  0  0  0
  6  7  1  0  0  0  0
  6 16  1  0  0  0  0
  6 29  1  0  0  0  0
  7  8  1  0  0  0  0
  7 30  1  0  0  0  0
  8  9  2  0  0  0  0
  8 10  1  0  0  0  0
 10 11  1  0  0  0  0
 10 31  1  0  0  0  0
 10 32  1  0  0  0  0
 11 15  1  0  0  0  0
 11 12  1  0  0  0  0
 12 13  2  0  0  0  0
 12 33  1  0  0  0  0
 13 14  1  0  0  0  0
 14 15  2  0  0  0  0
 16 20  1  0  0  0  0
 16 17  1  0  0  0  0
 17 18  1  0  0  0  0
 17 34  1  0  0  0  0
 17 35  1  0  0  0  0
 18 19  1  0  0  0  0
 18 36  1  0  0  0  0
 18 37  1  0  0  0  0
 19 20  1  0  0  0  0
 19 38  1  0  0  0  0
 19 39  1  0  0  0  0
 20 40  1  0  0  0  0
 20 41  1  0  0  0  0
M  END
> <s_m_source_file>
AV-unprocessed.smi

> <i_m_source_file_index>
679

> <i_lp_mmshare_version>
43012

> <i_f3d_flags>
0

> <s_epik_input>
W0NIMl0xW0NIMl1bQ0gyXVtDSDJdQzEyW0NASF0oT1tDSDJdW0NIM10pW0NIMl1bQ0BIXTJbTkhdQyg9TylbQ0gyXW4zW2NIXW5ubjM=

> <s_epik_cmdline>
J2VwaWtfcHl0aG9uJywgJy1waCcsICc3LjAnLCAnLXRuJywgJzgnLCAnLW1hJywgJzIwMCcsICctbWV0YWxfYmluZGluZycsICctaW1hZScsICc8aW5maWxlLm1hZT4nLCAnLW9tYWUnLCAnPG91dGZpbGUubWFlPic=

> <r_lp_tautomer_probability>
1

> <r_epik_Ionization_Penalty>
7.96741e-07

> <r_epik_Ionization_Penalty_Charging>
0

> <r_epik_Ionization_Penalty_Neutral>
7.96741e-07

> <r_epik_State_Penalty>
-0

> <r_epik_Charging_Adjusted_Penalty>
0

> <i_epik_Tot_Q>
0

> <i_epik_Tot_abs_Q>
0

> <r_epik_Metal_State_Penalty>
-0

> <b_epik_Metal_Only>
0

> <s_lp_Force_Field>
OPLS_2005

> <r_lp_Energy>
37

> <b_lp_Chiralities_Consistent>
1

> <s_lp_Variant>
AV-unprocessed.smi:679-3

> <Gold.Version>
5.8.1

> <Gold.Id.Protein>
6NUR|6NUR_protein|mol2

> <Gold.PLP.Fitness>
37.0927

> <Gold.PLP.PLP>
-28.7562

> <Gold.PLP.part.hbond>
-4.9350

> <Gold.PLP.part.metal>
0.0000

> <Gold.PLP.part.buried>
-0.4583

> <Gold.PLP.part.nonpolar>
-22.7503

> <Gold.PLP.part.repulsive>
0.1815

> <Gold.PLP.ligand.clash>
0.0000

> <Gold.PLP.ligand.torsion>
0.4607

> <Gold.PLP.Chemscore.Hbond>
2.9600

> <Gold.PLP.Chemscore.CHOScore>
0.0000

> <Gold.PLP.Chemscore.Metal>
0.0000

> <Gold.Chemscore.Hbonds>
donor molecule, donor type, donor heavy atom, donor atom, acceptor molecule, acceptor atom, score
      L1  H     7    30       P1  7948  0.39
      P1  H 10752 10763       L1     9  0.80

> <Gold.PLP.Chemscore.Internal.Correction>
0.3778

> <Gold.Rescore>
     Score         DG    S(hbond)    S(metal)    S(lipo)     H(rot)  DE(clash)    DE(int)     intcor
      9.38     -12.61       1.98        0.00      57.06       2.41       1.04       2.19       ----

> <Gold.Chemscore.Fitness>
9.3772

> <Gold.Chemscore.DG>
-12.6106

> <Gold.Chemscore.ZeroCoef>
-5.4800

> <Gold.Chemscore.Hbond>
1.9823

> <Gold.Chemscore.Metal>
0.0000

> <Gold.Chemscore.Lipo>
57.0631

> <Gold.Chemscore.Internal_Hbond>
0.0000

> <Gold.Chemscore.DEClash>
1.0406

> <Gold.Chemscore.DEInternal>
2.1928

> <Gold.Chemscore.Rot>
2.4089

> <Gold.Chemscore.Internal.Correction>
   9.000000E+99

> <Gold.Chemscore.Hbonds>
donor molecule, donor type, donor heavy atom, donor atom, acceptor molecule, acceptor atom, score
      L1  H     7    30       P1  7948  0.30
      P1  H 10752 10763       L1     9  0.11

> <Gold.Chemscore.Hbond.Weighted>
-6.6210

> <Gold.Chemscore.Metal.Weighted>
-0.0000

> <Gold.Chemscore.Lipo.Weighted>
-6.6764

> <Gold.Chemscore.Internal_Hbond.Weighted>
0.0000

> <Gold.Chemscore.DEClash.Weighted>
1.0406

> <Gold.Chemscore.DEInternal.Weighted>
2.1928

> <Gold.Chemscore.Rot.Weighted>
6.1668

> <Gold.Chemscore.Internal.Correction.Weighted>
   9.000000E+99

> <Gold.Protein.RotatedTorsions>
[ 6907 6896 6895 6894 ] final   62.50 input  -60.11 | X-H torsion
[ 7974 7965 7964 7962 ] final    1.04 input  175.53 | X-H torsion
[ 8008 7997 7996 7995 ] final   37.17 input   59.86 | X-H torsion
[ 10167 10162 10161 10158 ] final   -6.46 input  -65.29 | X-H torsion
[ 10718 10713 10712 10709 ] final  152.03 input   66.30 | X-H torsion
[ 10763 10752 10751 10750 ] final   86.72 input  -60.55 | X-H torsion
[ 11005 11000 10999 10996 ] final    4.50 input  -57.11 | X-H torsion

> <Gold.Protein.ActiveResidues>
 VAL166  LYS551  ARG553  GLY616  TRP617  ASP618  TYR619  PRO620  LYS621  CYS622 
 ASP623  PHE694  ASN695  SER759  ASP760  ASP761  ALA762  ILE779  LEU786  VAL792 
 PHE793  MET794  SER795  GLU796  ALA797  LYS798  CYS799  TRP800  GLU811  SER814 

> <Gold.Protein.RotatedAtoms>
  152.4177  134.6011  160.0000 H   0  0  0  0  0  0  0  0  0  0  0  0  # atno 6907 bound_to 6896
  151.6170  133.3336  159.3087 H   0  0  0  0  0  0  0  0  0  0  0  0  # atno 6908 bound_to 6896
  150.8066  134.7233  159.6715 H   0  0  0  0  0  0  0  0  0  0  0  0  # atno 6909 bound_to 6896
  146.2438  140.1047  142.8346 H   0  0  0  0  0  0  0  0  0  0  0  0  # atno 7974 bound_to 7965
  155.1994  140.3314  155.4345 H   0  0  0  0  0  0  0  0  0  0  0  0  # atno 8008 bound_to 7997
  156.2412  140.1896  156.7032 H   0  0  0  0  0  0  0  0  0  0  0  0  # atno 8009 bound_to 7997
  154.6151  140.0603  156.9530 H   0  0  0  0  0  0  0  0  0  0  0  0  # atno 8010 bound_to 7997
  140.6997  143.6192  150.8629 H   0  0  0  0  0  0  0  0  0  0  0  0  # atno 10167 bound_to 10162
  157.2631  131.0802  151.1652 H   0  0  0  0  0  0  0  0  0  0  0  0  # atno 10718 bound_to 10713
  153.1598  135.4570  154.9756 H   0  0  0  0  0  0  0  0  0  0  0  0  # atno 10763 bound_to 10752
  154.7889  135.3213  154.7825 H   0  0  0  0  0  0  0  0  0  0  0  0  # atno 10764 bound_to 10752
  153.8317  135.6938  153.4868 H   0  0  0  0  0  0  0  0  0  0  0  0  # atno 10765 bound_to 10752
  140.5812  134.0011  155.8048 H   0  0  0  0  0  0  0  0  0  0  0  0  # atno 11005 bound_to 11000
  145.0538  140.9038  143.4979 LP  0  0  0  0  0  0  0  0  0  0  0  0  # atno 17320 bound_to 7965
  145.1149  139.2732  143.5618 LP  0  0  0  0  0  0  0  0  0  0  0  0  # atno 17321 bound_to 7965
  139.9913  143.5844  152.2909 LP  0  0  0  0  0  0  0  0  0  0  0  0  # atno 17342 bound_to 10162
  139.6500  144.7660  151.2167 LP  0  0  0  0  0  0  0  0  0  0  0  0  # atno 17343 bound_to 10162
  157.3154  130.6910  149.6239 LP  0  0  0  0  0  0  0  0  0  0  0  0  # atno 17370 bound_to 10713
  155.9664  130.4351  150.5078 LP  0  0  0  0  0  0  0  0  0  0  0  0  # atno 17371 bound_to 10713
  141.0995  133.9791  157.3104 LP  0  0  0  0  0  0  0  0  0  0  0  0  # atno 17394 bound_to 11000
  139.9316  135.0199  156.8419 LP  0  0  0  0  0  0  0  0  0  0  0  0  # atno 17395 bound_to 11000

$$$$
