AV-unprocessed.smi:3112|AV-procd|sdf|11849|dock5
  -GOLD-   2272017233D 1   1.00000     0.00000
 Structure written by MMmdl.
 36 36  0  0  0  0  0  0  0  0  1 V2000
  145.8239  142.3734  154.6567 C   0  0  0  0  0  0  0  0  0  0  0  0
  147.1160  142.4229  153.8304 C   0  0  0  0  0  0  0  0  0  0  0  0
  148.0998  141.2854  154.1693 C   0  0  1  0  0  0  0  0  0  0  0  0
  149.2088  141.2981  153.2923 O   0  0  0  0  0  0  0  0  0  0  0  0
  148.6036  141.2985  155.6249 C   0  0  0  0  0  0  0  0  0  0  0  0
  149.7399  142.2028  155.8066 N   0  0  0  0  0  0  0  0  0  0  0  0
  150.9923  141.6034  156.2897 C   0  0  2  0  0  0  0  0  0  0  0  0
  151.1433  140.2224  155.6302 C   0  0  0  0  0  0  0  0  0  0  0  0
  151.1192  141.5039  157.8417 C   0  0  1  0  0  0  0  0  0  0  0  0
  152.1348  140.4506  158.3315 C   0  0  0  0  0  0  0  0  0  0  0  0
  151.2640  142.7993  158.5041 N   0  0  0  0  0  0  0  0  0  0  0  0
  151.2316  144.0535  157.9279 C   0  0  0  0  0  0  0  0  0  0  0  0
  151.4461  144.9691  158.9176 C   0  0  0  0  0  0  0  0  0  0  0  0
  151.6101  144.1718  160.0836 C   0  0  0  0  0  0  0  0  0  0  0  0
  151.5007  142.8779  159.8343 N   0  0  0  0  0  0  0  0  0  0  0  0
  145.1736  143.2124  154.4092 H   0  0  0  0  0  0  0  0  0  0  0  0
  146.0367  142.4235  155.7248 H   0  0  0  0  0  0  0  0  0  0  0  0
  145.2656  141.4565  154.4675 H   0  0  0  0  0  0  0  0  0  0  0  0
  146.8661  142.4046  152.7692 H   0  0  0  0  0  0  0  0  0  0  0  0
  147.6045  143.3808  154.0123 H   0  0  0  0  0  0  0  0  0  0  0  0
  147.5909  140.3337  154.0121 H   0  0  0  0  0  0  0  0  0  0  0  0
  149.1092  140.5923  152.6722 H   0  0  0  0  0  0  0  0  0  0  0  0
  147.7855  141.6081  156.2757 H   0  0  0  0  0  0  0  0  0  0  0  0
  148.8649  140.2823  155.9108 H   0  0  0  0  0  0  0  0  0  0  0  0
  149.4688  142.9628  156.4219 H   0  0  0  0  0  0  0  0  0  0  0  0
  151.8269  142.2030  155.9247 H   0  0  0  0  0  0  0  0  0  0  0  0
  152.0851  139.7496  155.9091 H   0  0  0  0  0  0  0  0  0  0  0  0
  151.1330  140.3050  154.5429 H   0  0  0  0  0  0  0  0  0  0  0  0
  150.3343  139.5492  155.9150 H   0  0  0  0  0  0  0  0  0  0  0  0
  150.1645  141.1117  158.1961 H   0  0  0  0  0  0  0  0  0  0  0  0
  151.9233  139.4755  157.8927 H   0  0  0  0  0  0  0  0  0  0  0  0
  152.0779  140.3365  159.4145 H   0  0  0  0  0  0  0  0  0  0  0  0
  153.1652  140.7001  158.0893 H   0  0  0  0  0  0  0  0  0  0  0  0
  151.0621  144.1887  156.8699 H   0  0  0  0  0  0  0  0  0  0  0  0
  151.4859  146.0440  158.8220 H   0  0  0  0  0  0  0  0  0  0  0  0
  151.8058  144.4921  161.0964 H   0  0  0  0  0  0  0  0  0  0  0  0
  1  2  1  0  0  0  0
  1 16  1  0  0  0  0
  1 17  1  0  0  0  0
  1 18  1  0  0  0  0
  2  3  1  0  0  0  0
  2 19  1  0  0  0  0
  2 20  1  0  0  0  0
  3  4  1  0  0  0  0
  3  5  1  0  0  0  0
  3 21  1  0  0  0  0
  4 22  1  0  0  0  0
  5  6  1  0  0  0  0
  5 23  1  0  0  0  0
  5 24  1  0  0  0  0
  6  7  1  0  0  0  0
  6 25  1  0  0  0  0
  7  8  1  0  0  0  0
  7  9  1  0  0  0  0
  7 26  1  0  0  0  0
  8 27  1  0  0  0  0
  8 28  1  0  0  0  0
  8 29  1  0  0  0  0
  9 10  1  0  0  0  0
  9 11  1  0  0  0  0
  9 30  1  0  0  0  0
 10 31  1  0  0  0  0
 10 32  1  0  0  0  0
 10 33  1  0  0  0  0
 11 15  1  0  0  0  0
 11 12  1  0  0  0  0
 12 13  2  0  0  0  0
 12 34  1  0  0  0  0
 13 14  1  0  0  0  0
 13 35  1  0  0  0  0
 14 15  2  0  0  0  0
 14 36  1  0  0  0  0
M  END
> <s_m_source_file>
AV-unprocessed.smi

> <i_m_source_file_index>
3112

> <i_lp_mmshare_version>
43012

> <i_f3d_flags>
0

> <s_epik_input>
W0NIM11bQ0gyXVtDQEhdKFtPSF0pW0NIMl1bTkhdW0NASF0oW0NIM10pW0NASF0oW0NIM10pbjFbY0hdW2NIXVtjSF1uMQ==

> <s_epik_cmdline>
J2VwaWtfcHl0aG9uJywgJy1waCcsICc3LjAnLCAnLXRuJywgJzgnLCAnLW1hJywgJzIwMCcsICctbWV0YWxfYmluZGluZycsICctaW1hZScsICc8aW5maWxlLm1hZT4nLCAnLW9tYWUnLCAnPG91dGZpbGUubWFlPic=

> <r_lp_tautomer_probability>
1

> <r_epik_Ionization_Penalty>
2.16876

> <r_epik_Ionization_Penalty_Charging>
0

> <r_epik_Ionization_Penalty_Neutral>
2.16876

> <r_epik_State_Penalty>
2.30854

> <r_epik_Charging_Adjusted_Penalty>
2.30854

> <i_epik_Tot_Q>
0

> <i_epik_Tot_abs_Q>
0

> <r_epik_Metal_State_Penalty>
2.3073

> <b_epik_Metal_Only>
0

> <s_lp_Force_Field>
OPLS_2005

> <r_lp_Energy>
23.5049

> <b_lp_Chiralities_Consistent>
1

> <s_lp_Variant>
AV-unprocessed.smi:3112-14

> <Gold.Version>
5.8.1

> <Gold.Id.Protein>
6NUR|6NUR_protein|mol2

> <Gold.PLP.Fitness>
45.4065

> <Gold.PLP.PLP>
-38.2491

> <Gold.PLP.part.hbond>
-3.9277

> <Gold.PLP.part.metal>
0.0000

> <Gold.PLP.part.buried>
-5.9951

> <Gold.PLP.part.nonpolar>
-28.7499

> <Gold.PLP.part.repulsive>
0.0084

> <Gold.PLP.ligand.clash>
0.0000

> <Gold.PLP.ligand.torsion>
1.4252

> <Gold.PLP.Chemscore.Hbond>
2.2491

> <Gold.PLP.Chemscore.CHOScore>
0.9780

> <Gold.PLP.Chemscore.Metal>
0.0000

> <Gold.Chemscore.Hbonds>
donor molecule, donor type, donor heavy atom, donor atom, acceptor molecule, acceptor atom, score
      L1  H     4    22       P1  7957  0.86
      L1  H     6    25       P1  8028  0.42
      P1  H  8011  8017       L1     4  0.95
      L1  C    12    34       P1  8028  0.98

> <Gold.PLP.Chemscore.Internal.Correction>
0.3266

> <Gold.Rescore>
     Score         DG    S(hbond)    S(metal)    S(lipo)     H(rot)  DE(clash)    DE(int)     intcor
     14.69     -16.35       1.91        0.00      88.99       2.31       0.20       1.45       ----

> <Gold.Chemscore.Fitness>
14.6940

> <Gold.Chemscore.DG>
-16.3492

> <Gold.Chemscore.ZeroCoef>
-5.4800

> <Gold.Chemscore.Hbond>
1.9081

> <Gold.Chemscore.Metal>
0.0000

> <Gold.Chemscore.Lipo>
88.9899

> <Gold.Chemscore.Internal_Hbond>
0.0000

> <Gold.Chemscore.DEClash>
0.2009

> <Gold.Chemscore.DEInternal>
1.4543

> <Gold.Chemscore.Rot>
2.3108

> <Gold.Chemscore.Internal.Correction>
   9.000000E+99

> <Gold.Chemscore.Hbonds>
donor molecule, donor type, donor heavy atom, donor atom, acceptor molecule, acceptor atom, score
      L1  H     4    22       P1  7957  0.85
      L1  H     6    25       P1  8028  0.40
      P1  H  8011  8017       L1     4  0.20

> <Gold.Chemscore.Hbond.Weighted>
-6.3731

> <Gold.Chemscore.Metal.Weighted>
-0.0000

> <Gold.Chemscore.Lipo.Weighted>
-10.4118

> <Gold.Chemscore.Internal_Hbond.Weighted>
0.0000

> <Gold.Chemscore.DEClash.Weighted>
0.2009

> <Gold.Chemscore.DEInternal.Weighted>
1.4543

> <Gold.Chemscore.Rot.Weighted>
5.9157

> <Gold.Chemscore.Internal.Correction.Weighted>
   9.000000E+99

> <Gold.Protein.RotatedTorsions>
[ 6907 6896 6895 6894 ] final  -89.98 input  -60.11 | X-H torsion
[ 7974 7965 7964 7962 ] final -172.66 input  175.53 | X-H torsion
[ 8008 7997 7996 7995 ] final   52.29 input   59.86 | X-H torsion
[ 10167 10162 10161 10158 ] final -153.81 input  -65.29 | X-H torsion
[ 10718 10713 10712 10709 ] final   50.91 input   66.30 | X-H torsion
[ 10763 10752 10751 10750 ] final  118.78 input  -60.55 | X-H torsion
[ 11005 11000 10999 10996 ] final  171.21 input  -57.11 | X-H torsion

> <Gold.Protein.ActiveResidues>
 VAL166  LYS551  ARG553  GLY616  TRP617  ASP618  TYR619  PRO620  LYS621  CYS622 
 ASP623  PHE694  ASN695  SER759  ASP760  ASP761  ALA762  ILE779  LEU786  VAL792 
 PHE793  MET794  SER795  GLU796  ALA797  LYS798  CYS799  TRP800  GLU811  SER814 

> <Gold.Protein.RotatedAtoms>
  150.6878  134.2503  159.4507 H   0  0  0  0  0  0  0  0  0  0  0  0  # atno 6907 bound_to 6896
  152.0441  134.9691  160.0583 H   0  0  0  0  0  0  0  0  0  0  0  0  # atno 6908 bound_to 6896
  152.1181  133.4303  159.4699 H   0  0  0  0  0  0  0  0  0  0  0  0  # atno 6909 bound_to 6896
  144.7144  140.1739  143.6365 H   0  0  0  0  0  0  0  0  0  0  0  0  # atno 7974 bound_to 7965
  155.4494  140.3457  155.4299 H   0  0  0  0  0  0  0  0  0  0  0  0  # atno 8008 bound_to 7997
  156.1230  140.1492  156.9207 H   0  0  0  0  0  0  0  0  0  0  0  0  # atno 8009 bound_to 7997
  154.4837  140.0862  156.7416 H   0  0  0  0  0  0  0  0  0  0  0  0  # atno 8010 bound_to 7997
  139.7065  143.9177  152.2451 H   0  0  0  0  0  0  0  0  0  0  0  0  # atno 10167 bound_to 10162
  157.4930  130.8388  149.8225 H   0  0  0  0  0  0  0  0  0  0  0  0  # atno 10718 bound_to 10713
  153.5729  135.3498  155.2845 H   0  0  0  0  0  0  0  0  0  0  0  0  # atno 10763 bound_to 10752
  154.8679  135.4164  154.2705 H   0  0  0  0  0  0  0  0  0  0  0  0  # atno 10764 bound_to 10752
  153.3474  135.7053  153.6886 H   0  0  0  0  0  0  0  0  0  0  0  0  # atno 10765 bound_to 10752
  140.3165  134.7473  157.4032 H   0  0  0  0  0  0  0  0  0  0  0  0  # atno 11005 bound_to 11000
  145.8918  139.2380  143.1545 LP  0  0  0  0  0  0  0  0  0  0  0  0  # atno 17320 bound_to 7965
  145.9896  140.8614  143.0073 LP  0  0  0  0  0  0  0  0  0  0  0  0  # atno 17321 bound_to 7965
  139.9034  144.6898  150.8640 LP  0  0  0  0  0  0  0  0  0  0  0  0  # atno 17342 bound_to 10162
  140.7723  143.3496  151.2040 LP  0  0  0  0  0  0  0  0  0  0  0  0  # atno 17343 bound_to 10162
  156.0184  130.3804  150.2037 LP  0  0  0  0  0  0  0  0  0  0  0  0  # atno 17370 bound_to 10713
  157.0226  130.9984  151.3335 LP  0  0  0  0  0  0  0  0  0  0  0  0  # atno 17371 bound_to 10713
  140.0979  134.5513  155.8381 LP  0  0  0  0  0  0  0  0  0  0  0  0  # atno 17394 bound_to 11000
  141.2096  133.6686  156.6452 LP  0  0  0  0  0  0  0  0  0  0  0  0  # atno 17395 bound_to 11000

$$$$
