#       Name:                AV-unprocessed.smi:2184
#       Creating user name   scv26
#       Creation time:       Fri Mar 27 12:07:12 2020


#       File generated by GOLD software.
#

@<TRIPOS>MOLECULE
AV-unprocessed.smi:2184
    53    54     1
SMALL
NO_CHARGES


@<TRIPOS>ATOM
      1 ****        -4.2326   3.4272  -1.9372 C.3            1 S1                 0.0000
      2 ****        -4.6920   4.8121  -0.8598 S.3            1 S1                 0.0000
      3 ****        -3.9735   4.2740   0.7212 C.3            1 S1                 0.0000
      4 ****        -4.5836   5.0754   1.8822 C.3            1 S1                 0.0000
      5 ****        -2.4432   4.3779   0.7185 C.2            1 S1                 0.0000
      6 ****        -1.8919   5.4725   0.8370 O.2            1 S1                 0.0000
      7 ****        -1.7666   3.2296   0.5716 N.am           1 S1                 0.0000
      8 ****        -0.3129   3.1281   0.5256 C.3            1 S1                 0.0000
      9 ****         0.2203   1.7096   0.3788 C.ar           1 S1                 0.0000
     10 ****        -0.6143   0.5706   0.3612 C.ar           1 S1                 0.0000
     11 ****        -0.0304  -0.7032   0.2239 C.ar           1 S1                 0.0000
     12 ****         1.3754  -0.8116   0.1053 C.ar           1 S1                 0.0000
     13 ****         1.9810  -2.0791  -0.0362 N.3            1 S1                 0.0000
     14 ****         3.4338  -2.1651   0.0991 C.3            1 S1                 0.0000
     15 ****         3.8944  -3.6307   0.2240 C.3            1 S1                 0.0000
     16 ****         3.6152  -4.2456   1.6071 C.3            1 S1                 0.0000
     17 ****         3.3421  -4.4140  -0.8361 O.3            1 S1                 0.0000
     18 ****         1.9189  -4.3728  -0.9303 C.3            1 S1                 0.0000
     19 ****         1.4966  -5.2556  -2.1093 C.3            1 S1                 0.0000
     20 ****         1.4551  -2.9163  -1.1096 C.3            1 S1                 0.0000
     21 ****         2.1737   0.2838   0.1306 N.ar           1 S1                 0.0000
     22 ****         1.6091   1.5024   0.2619 C.ar           1 S1                 0.0000
     23 ****        -4.6347   3.5845  -2.9380 H              1 S1                 0.0000
     24 ****        -4.6328   2.4912  -1.5478 H              1 S1                 0.0000
     25 ****        -3.1491   3.3393  -2.0143 H              1 S1                 0.0000
     26 ****        -4.2525   3.2287   0.8630 H              1 S1                 0.0000
     27 ****        -4.1579   4.7741   2.8403 H              1 S1                 0.0000
     28 ****        -5.6607   4.9159   1.9394 H              1 S1                 0.0000
     29 ****        -4.4161   6.1467   1.7634 H              1 S1                 0.0000
     30 ****        -2.2918   2.3727   0.4776 H              1 S1                 0.0000
     31 ****         0.0571   3.7244  -0.3098 H              1 S1                 0.0000
     32 ****         0.1057   3.5601   1.4359 H              1 S1                 0.0000
     33 ****        -1.6867   0.6534   0.4542 H              1 S1                 0.0000
     34 ****        -0.6631  -1.5781   0.2261 H              1 S1                 0.0000
     35 ****         3.8937  -1.7112  -0.7800 H              1 S1                 0.0000
     36 ****         3.7734  -1.5995   0.9678 H              1 S1                 0.0000
     37 ****         4.9754  -3.6507   0.0840 H              1 S1                 0.0000
     38 ****         4.1625  -3.7109   2.3837 H              1 S1                 0.0000
     39 ****         3.9314  -5.2883   1.6398 H              1 S1                 0.0000
     40 ****         2.5590  -4.2063   1.8722 H              1 S1                 0.0000
     41 ****         1.4774  -4.7886  -0.0242 H              1 S1                 0.0000
     42 ****         0.4121  -5.2696  -2.2207 H              1 S1                 0.0000
     43 ****         1.8290  -6.2836  -1.9643 H              1 S1                 0.0000
     44 ****         1.9250  -4.8958  -3.0452 H              1 S1                 0.0000
     45 ****         0.3669  -2.8919  -1.1461 H              1 S1                 0.0000
     46 ****         1.8115  -2.5237  -2.0630 H              1 S1                 0.0000
     47 ****         2.2904   2.3403   0.2750 H              1 S1                 0.0000
     48 ****        -2.4424   6.3014   0.9359 LP             1 S1                 0.0000
     49 ****        -0.8937   5.5324   0.8344 LP             1 S1                 0.0000
     50 ****         1.6601  -2.4950   0.8148 LP             1 S1                 0.0000
     51 ****         3.6174  -5.3652  -0.6964 LP             1 S1                 0.0000
     52 ****         3.7210  -4.0807  -1.6994 LP             1 S1                 0.0000
     53 ****         3.1663   0.1901   0.0531 LP             1 S1                 0.0000
@<TRIPOS>BOND
    1    1    2 1     
    2    1   23 1     
    3    1   24 1     
    4    1   25 1     
    5    2    3 1     
    6    3    4 1     
    7    3    5 1     
    8    3   26 1     
    9    4   27 1     
   10    4   28 1     
   11    4   29 1     
   12    5    6 2     
   13    5    7 am    
   14    7    8 1     
   15    7   30 1     
   16    8    9 1     
   17    8   31 1     
   18    8   32 1     
   19    9   22 ar    
   20    9   10 ar    
   21   10   11 ar    
   22   10   33 1     
   23   11   12 ar    
   24   11   34 1     
   25   12   13 1     
   26   12   21 ar    
   27   13   20 1     
   28   13   14 1     
   29   14   15 1     
   30   14   35 1     
   31   14   36 1     
   32   15   16 1     
   33   15   17 1     
   34   15   37 1     
   35   16   38 1     
   36   16   39 1     
   37   16   40 1     
   38   17   18 1     
   39   18   19 1     
   40   18   20 1     
   41   18   41 1     
   42   19   42 1     
   43   19   43 1     
   44   19   44 1     
   45   20   45 1     
   46   20   46 1     
   47   21   22 ar    
   48   22   47 1     
   49    6   48 1     
   50    6   49 1     
   51   13   50 1     
   52   17   51 1     
   53   17   52 1     
   54   21   53 1     
@<TRIPOS>SUBSTRUCTURE
      1 S1             1
@<TRIPOS>SET
LONE_PAIRS      STATIC     ATOMS    <user>   **** ""
6 48 49 50 51 52 53
DONOR_HYDROGENS      STATIC     ATOMS    <user>   **** ""
1 30
ATOM$BLUE        STATIC     ATOMS    COLORGROUP SYSTEM
6 48 49 50 51 52 53
ATOM$RED        STATIC     ATOMS    COLORGROUP SYSTEM
1 30
