AV-unprocessed.smi:1231|AV-procd|sdf|5166|dock1
  -GOLD-   22720 4243D 1   1.00000     0.00000
 Structure written by MMmdl.
 43 44  0  0  0  0  0  0  0  0  2 V2000
  151.5420  139.9152  157.2714 C   0  0  0  0  0  0  0  0  0  0  0  0
  151.8510  139.6508  155.7870 C   0  0  1  0  0  0  0  0  0  0  0  0
  151.8806  138.1536  155.4208 C   0  0  0  0  0  0  0  0  0  0  0  0
  150.5133  137.5831  155.3785 N   0  3  2  0  0  0  0  0  0  0  0  0
  150.5164  136.1287  155.0850 C   0  0  0  0  0  0  0  0  0  0  0  0
  149.2141  135.4381  155.5335 C   0  0  0  0  0  0  0  0  0  0  0  0
  148.2014  135.4709  154.4847 N   0  0  0  0  0  0  0  0  0  0  0  0
  147.6309  134.3865  153.9398 C   0  0  0  0  0  0  0  0  0  0  0  0
  147.9061  133.2358  154.2819 O   0  0  0  0  0  0  0  0  0  0  0  0
  146.7397  134.7268  152.9923 N   0  0  0  0  0  0  0  0  0  0  0  0
  145.9251  133.8692  152.2057 C   0  0  0  0  0  0  0  0  0  0  0  0
  146.4984  132.6141  151.8995 C   0  0  0  0  0  0  0  0  0  0  0  0
  145.7703  131.6905  151.1247 C   0  0  0  0  0  0  0  0  0  0  0  0
  144.4870  132.0472  150.6738 C   0  0  0  0  0  0  0  0  0  0  0  0
  143.9909  133.3173  151.0214 C   0  0  0  0  0  0  0  0  0  0  0  0
  144.6866  134.2037  151.7648 N   0  0  0  0  0  0  0  0  0  0  0  0
  149.6574  138.3696  154.4579 C   0  0  0  0  0  0  0  0  0  0  0  0
  149.6332  139.8496  154.8798 C   0  0  2  0  0  0  0  0  0  0  0  0
  148.8288  140.7129  153.9016 C   0  0  0  0  0  0  0  0  0  0  0  0
  150.9656  140.3544  154.9160 O   0  0  0  0  0  0  0  0  0  0  0  0
  152.3086  139.4747  157.9095 H   0  0  0  0  0  0  0  0  0  0  0  0
  150.5853  139.4936  157.5780 H   0  0  0  0  0  0  0  0  0  0  0  0
  151.5185  140.9853  157.4787 H   0  0  0  0  0  0  0  0  0  0  0  0
  152.8449  140.0567  155.5969 H   0  0  0  0  0  0  0  0  0  0  0  0
  152.3482  138.0251  154.4431 H   0  0  0  0  0  0  0  0  0  0  0  0
  152.4954  137.6085  156.1383 H   0  0  0  0  0  0  0  0  0  0  0  0
  150.7029  135.9720  154.0214 H   0  0  0  0  0  0  0  0  0  0  0  0
  151.3465  135.6581  155.6145 H   0  0  0  0  0  0  0  0  0  0  0  0
  149.4132  134.3949  155.7798 H   0  0  0  0  0  0  0  0  0  0  0  0
  148.8067  135.8970  156.4348 H   0  0  0  0  0  0  0  0  0  0  0  0
  147.9215  136.3800  154.1458 H   0  0  0  0  0  0  0  0  0  0  0  0
  146.6293  135.7136  152.8120 H   0  0  0  0  0  0  0  0  0  0  0  0
  147.4857  132.3558  152.2545 H   0  0  0  0  0  0  0  0  0  0  0  0
  146.1899  130.7255  150.8816 H   0  0  0  0  0  0  0  0  0  0  0  0
  143.8981  131.3659  150.0777 H   0  0  0  0  0  0  0  0  0  0  0  0
  143.0106  133.6304  150.6941 H   0  0  0  0  0  0  0  0  0  0  0  0
  150.0343  138.2733  153.4381 H   0  0  0  0  0  0  0  0  0  0  0  0
  148.6397  137.9804  154.4579 H   0  0  0  0  0  0  0  0  0  0  0  0
  149.1764  139.9422  155.8654 H   0  0  0  0  0  0  0  0  0  0  0  0
  147.7914  140.3822  153.8469 H   0  0  0  0  0  0  0  0  0  0  0  0
  149.2482  140.6661  152.8960 H   0  0  0  0  0  0  0  0  0  0  0  0
  148.8284  141.7577  154.2138 H   0  0  0  0  0  0  0  0  0  0  0  0
  150.1311  137.6904  156.3072 H   0  0  0  0  0  0  0  0  0  0  0  0
  1  2  1  0  0  0  0
  1 21  1  0  0  0  0
  1 22  1  0  0  0  0
  1 23  1  0  0  0  0
  2 20  1  0  0  0  0
  2  3  1  0  0  0  0
  2 24  1  0  0  0  0
  3  4  1  0  0  0  0
  3 25  1  0  0  0  0
  3 26  1  0  0  0  0
  4  5  1  0  0  0  0
  4 17  1  0  0  0  0
  4 43  1  0  0  0  0
  5  6  1  0  0  0  0
  5 27  1  0  0  0  0
  5 28  1  0  0  0  0
  6  7  1  0  0  0  0
  6 29  1  0  0  0  0
  6 30  1  0  0  0  0
  7  8  1  0  0  0  0
  7 31  1  0  0  0  0
  8  9  2  0  0  0  0
  8 10  1  0  0  0  0
 10 11  1  0  0  0  0
 10 32  1  0  0  0  0
 11 16  1  0  0  0  0
 11 12  2  0  0  0  0
 12 13  1  0  0  0  0
 12 33  1  0  0  0  0
 13 14  2  0  0  0  0
 13 34  1  0  0  0  0
 14 15  1  0  0  0  0
 14 35  1  0  0  0  0
 15 16  2  0  0  0  0
 15 36  1  0  0  0  0
 17 18  1  0  0  0  0
 17 37  1  0  0  0  0
 17 38  1  0  0  0  0
 18 19  1  0  0  0  0
 18 20  1  0  0  0  0
 18 39  1  0  0  0  0
 19 40  1  0  0  0  0
 19 41  1  0  0  0  0
 19 42  1  0  0  0  0
M  CHG  1   4   1
M  END
> <s_m_source_file>
AV-unprocessed.smi

> <i_m_source_file_index>
1231

> <i_lp_mmshare_version>
43012

> <i_f3d_flags>
0

> <s_epik_input>
W0NIM11bQ0BASF0xW0NIMl1OKFtDSDJdW0NASF0oTzEpW0NIM10pW0NIMl1bQ0gyXVtOSF1DKD1PKVtOSF1jMltjSF1bY0hdW2NIXVtjSF1uMg==

> <s_epik_cmdline>
J2VwaWtfcHl0aG9uJywgJy1waCcsICc3LjAnLCAnLXRuJywgJzgnLCAnLW1hJywgJzIwMCcsICctbWV0YWxfYmluZGluZycsICctaW1hZScsICc8aW5maWxlLm1hZT4nLCAnLW9tYWUnLCAnPG91dGZpbGUubWFlPic=

> <r_epik_Ionization_Penalty>
0.602565

> <r_epik_Ionization_Penalty_Charging>
0.602531

> <r_epik_Ionization_Penalty_Neutral>
3.43186e-05

> <r_epik_State_Penalty>
0.617039

> <r_epik_Charging_Adjusted_Penalty>
1.21957

> <i_epik_Tot_Q>
1

> <i_epik_Tot_abs_Q>
1

> <r_epik_Metal_State_Penalty>
0.617041

> <b_epik_Metal_Only>
0

> <s_lp_Force_Field>
OPLS_2005

> <r_lp_Energy>
18.3102

> <b_lp_Chiralities_Consistent>
1

> <s_lp_Variant>
AV-unprocessed.smi:1231-7

> <Gold.Version>
5.8.1

> <Gold.Id.Protein>
6NUR|6NUR_protein|mol2

> <Gold.PLP.Fitness>
38.8940

> <Gold.PLP.PLP>
-33.9262

> <Gold.PLP.part.hbond>
-3.0000

> <Gold.PLP.part.metal>
0.0000

> <Gold.PLP.part.buried>
-1.9395

> <Gold.PLP.part.nonpolar>
-28.7897

> <Gold.PLP.part.repulsive>
0.3454

> <Gold.PLP.ligand.clash>
0.0000

> <Gold.PLP.ligand.torsion>
0.5418

> <Gold.PLP.Chemscore.Hbond>
1.0000

> <Gold.PLP.Chemscore.CHOScore>
1.0000

> <Gold.PLP.Chemscore.Metal>
0.0000

> <Gold.Chemscore.Hbonds>
donor molecule, donor type, donor heavy atom, donor atom, acceptor molecule, acceptor atom, score
      P1  H  7989  7998       L1    20  1.00
      L1  C    15    36       P1 10186  1.00

> <Gold.PLP.Chemscore.Internal.Correction>
0.0514

> <Gold.Rescore>
     Score         DG    S(hbond)    S(metal)    S(lipo)     H(rot)  DE(clash)    DE(int)     intcor
     11.89     -14.13       0.81        0.00      84.80       1.55       0.20       2.04       ----

> <Gold.Chemscore.Fitness>
11.8893

> <Gold.Chemscore.DG>
-14.1321

> <Gold.Chemscore.ZeroCoef>
-5.4800

> <Gold.Chemscore.Hbond>
0.8113

> <Gold.Chemscore.Metal>
0.0000

> <Gold.Chemscore.Lipo>
84.8050

> <Gold.Chemscore.Internal_Hbond>
0.0000

> <Gold.Chemscore.DEClash>
0.2005

> <Gold.Chemscore.DEInternal>
2.0423

> <Gold.Chemscore.Rot>
1.5546

> <Gold.Chemscore.Internal.Correction>
   9.000000E+99

> <Gold.Chemscore.Hbonds>
donor molecule, donor type, donor heavy atom, donor atom, acceptor molecule, acceptor atom, score
      P1  H  7989  7998       L1    20  0.85

> <Gold.Chemscore.Hbond.Weighted>
-2.7096

> <Gold.Chemscore.Metal.Weighted>
-0.0000

> <Gold.Chemscore.Lipo.Weighted>
-9.9222

> <Gold.Chemscore.Internal_Hbond.Weighted>
0.0000

> <Gold.Chemscore.DEClash.Weighted>
0.2005

> <Gold.Chemscore.DEInternal.Weighted>
2.0423

> <Gold.Chemscore.Rot.Weighted>
3.9797

> <Gold.Chemscore.Internal.Correction.Weighted>
   9.000000E+99

> <Gold.Protein.RotatedTorsions>
[ 6907 6896 6895 6894 ] final  -23.74 input  -60.11 | X-H torsion
[ 7974 7965 7964 7962 ] final  103.04 input  175.53 | X-H torsion
[ 8008 7997 7996 7995 ] final  133.85 input   59.86 | X-H torsion
[ 10167 10162 10161 10158 ] final   27.38 input  -65.29 | X-H torsion
[ 10718 10713 10712 10709 ] final  -47.55 input   66.30 | X-H torsion
[ 10763 10752 10751 10750 ] final  153.52 input  -60.55 | X-H torsion
[ 11005 11000 10999 10996 ] final  -10.47 input  -57.11 | X-H torsion

> <Gold.Protein.ActiveResidues>
 VAL166  LYS551  ARG553  GLY616  TRP617  ASP618  TYR619  PRO620  LYS621  CYS622 
 ASP623  PHE694  ASN695  SER759  ASP760  ASP761  ALA762  ILE779  LEU786  VAL792 
 PHE793  MET794  SER795  GLU796  ALA797  LYS798  CYS799  TRP800  GLU811  SER814 

> <Gold.Protein.RotatedAtoms>
  151.1997  135.0437  159.8866 H   0  0  0  0  0  0  0  0  0  0  0  0  # atno 6907 bound_to 6896
  152.5433  134.0864  159.8268 H   0  0  0  0  0  0  0  0  0  0  0  0  # atno 6908 bound_to 6896
  151.1003  133.5201  159.2642 H   0  0  0  0  0  0  0  0  0  0  0  0  # atno 6909 bound_to 6896
  145.3512  139.2439  143.3557 H   0  0  0  0  0  0  0  0  0  0  0  0  # atno 7974 bound_to 7965
  156.2995  140.2511  156.3321 H   0  0  0  0  0  0  0  0  0  0  0  0  # atno 8008 bound_to 7997
  154.9135  140.0402  157.1978 H   0  0  0  0  0  0  0  0  0  0  0  0  # atno 8009 bound_to 7997
  154.8382  140.2886  155.5681 H   0  0  0  0  0  0  0  0  0  0  0  0  # atno 8010 bound_to 7997
  140.4943  144.0416  150.6308 H   0  0  0  0  0  0  0  0  0  0  0  0  # atno 10167 bound_to 10162
  156.2073  130.4159  149.9161 H   0  0  0  0  0  0  0  0  0  0  0  0  # atno 10718 bound_to 10713
  154.1375  135.2823  155.3169 H   0  0  0  0  0  0  0  0  0  0  0  0  # atno 10763 bound_to 10752
  154.6311  135.5435  153.7685 H   0  0  0  0  0  0  0  0  0  0  0  0  # atno 10764 bound_to 10752
  153.0261  135.6463  154.1523 H   0  0  0  0  0  0  0  0  0  0  0  0  # atno 10765 bound_to 10752
  140.7451  133.8638  155.8999 H   0  0  0  0  0  0  0  0  0  0  0  0  # atno 11005 bound_to 11000
  146.2967  140.4128  142.8719 LP  0  0  0  0  0  0  0  0  0  0  0  0  # atno 17320 bound_to 7965
  144.8716  140.7280  143.6043 LP  0  0  0  0  0  0  0  0  0  0  0  0  # atno 17321 bound_to 7965
  140.3694  143.2863  152.0295 LP  0  0  0  0  0  0  0  0  0  0  0  0  # atno 17342 bound_to 10162
  139.4858  144.6241  151.7198 LP  0  0  0  0  0  0  0  0  0  0  0  0  # atno 17343 bound_to 10162
  156.6850  130.8873  151.3581 LP  0  0  0  0  0  0  0  0  0  0  0  0  # atno 17370 bound_to 10713
  157.7019  130.9343  150.0812 LP  0  0  0  0  0  0  0  0  0  0  0  0  # atno 17371 bound_to 10713
  140.9802  134.1416  157.4501 LP  0  0  0  0  0  0  0  0  0  0  0  0  # atno 17394 bound_to 11000
  139.8798  135.0008  156.6029 LP  0  0  0  0  0  0  0  0  0  0  0  0  # atno 17395 bound_to 11000

$$$$
