AV-unprocessed.smi:2835|AV-procd|sdf|10918|dock6
  -GOLD-   2272015363D 1   1.00000     0.00000
 Structure written by MMmdl.
 34 35  0  0  0  0  0  0  0  0  2 V2000
  151.9705  139.7397  159.2550 O   0  0  0  0  0  0  0  0  0  0  0  0
  152.1224  140.8878  158.8417 C   0  0  0  0  0  0  0  0  0  0  0  0
  152.9609  141.8584  159.6907 C   0  0  0  0  0  0  0  0  0  0  0  0
  152.5121  143.2428  159.6316 N   0  0  0  0  0  0  0  0  0  0  0  0
  152.0812  144.0492  160.6648 C   0  0  0  0  0  0  0  0  0  0  0  0
  151.7430  145.2566  160.1245 C   0  0  0  0  0  0  0  0  0  0  0  0
  152.0060  145.0909  158.7359 C   0  0  0  0  0  0  0  0  0  0  0  0
  152.4707  143.8869  158.4447 N   0  0  0  0  0  0  0  0  0  0  0  0
  151.6010  141.3611  157.6913 N   0  0  0  0  0  0  0  0  0  0  0  0
  150.7743  140.7448  156.6421 C   0  0  0  0  0  0  0  0  0  0  0  0
  151.7175  139.7365  155.9361 C   0  0  0  0  0  0  0  0  0  0  0  0
  152.8185  139.4842  156.4749 O   0  0  0  0  0  0  0  0  0  0  0  0
  151.3469  139.2611  154.8390 O   0  5  0  0  0  0  0  0  0  0  0  0
  149.4766  140.0424  157.1557 C   0  0  0  0  0  0  0  0  0  0  0  0
  148.5592  139.5532  156.0176 C   0  0  0  0  0  0  0  0  0  0  0  0
  148.1794  140.7059  155.0773 C   0  0  0  0  0  0  0  0  0  0  0  0
  149.4287  141.4133  154.5326 C   0  0  0  0  0  0  0  0  0  0  0  0
  150.3481  141.8871  155.6756 C   0  0  0  0  0  0  0  0  0  0  0  0
  152.9349  141.5323  160.7309 H   0  0  0  0  0  0  0  0  0  0  0  0
  154.0021  141.8080  159.3689 H   0  0  0  0  0  0  0  0  0  0  0  0
  152.0451  143.6971  161.6855 H   0  0  0  0  0  0  0  0  0  0  0  0
  151.3617  146.1246  160.6414 H   0  0  0  0  0  0  0  0  0  0  0  0
  151.8742  145.8052  157.9366 H   0  0  0  0  0  0  0  0  0  0  0  0
  151.8442  142.3198  157.4877 H   0  0  0  0  0  0  0  0  0  0  0  0
  149.7130  139.2060  157.8152 H   0  0  0  0  0  0  0  0  0  0  0  0
  148.8973  140.7445  157.7563 H   0  0  0  0  0  0  0  0  0  0  0  0
  149.0480  138.7606  155.4502 H   0  0  0  0  0  0  0  0  0  0  0  0
  147.6563  139.1109  156.4391 H   0  0  0  0  0  0  0  0  0  0  0  0
  147.5743  140.3298  154.2519 H   0  0  0  0  0  0  0  0  0  0  0  0
  147.5590  141.4245  155.6141 H   0  0  0  0  0  0  0  0  0  0  0  0
  149.9713  140.7405  153.8679 H   0  0  0  0  0  0  0  0  0  0  0  0
  149.1308  142.2667  153.9230 H   0  0  0  0  0  0  0  0  0  0  0  0
  149.8219  142.6543  156.2458 H   0  0  0  0  0  0  0  0  0  0  0  0
  151.2193  142.3918  155.2551 H   0  0  0  0  0  0  0  0  0  0  0  0
  1  2  2  0  0  0  0
  2  3  1  0  0  0  0
  2  9  1  0  0  0  0
  3  4  1  0  0  0  0
  3 19  1  0  0  0  0
  3 20  1  0  0  0  0
  4  8  1  0  0  0  0
  4  5  1  0  0  0  0
  5  6  2  0  0  0  0
  5 21  1  0  0  0  0
  6  7  1  0  0  0  0
  6 22  1  0  0  0  0
  7  8  2  0  0  0  0
  7 23  1  0  0  0  0
  9 10  1  0  0  0  0
  9 24  1  0  0  0  0
 10 18  1  0  0  0  0
 10 11  1  0  0  0  0
 10 14  1  0  0  0  0
 11 12  2  0  0  0  0
 11 13  1  0  0  0  0
 14 15  1  0  0  0  0
 14 25  1  0  0  0  0
 14 26  1  0  0  0  0
 15 16  1  0  0  0  0
 15 27  1  0  0  0  0
 15 28  1  0  0  0  0
 16 17  1  0  0  0  0
 16 29  1  0  0  0  0
 16 30  1  0  0  0  0
 17 18  1  0  0  0  0
 17 31  1  0  0  0  0
 17 32  1  0  0  0  0
 18 33  1  0  0  0  0
 18 34  1  0  0  0  0
M  CHG  1  13  -1
M  END
> <s_m_source_file>
AV-unprocessed.smi

> <i_m_source_file_index>
2835

> <i_lp_mmshare_version>
43012

> <i_f3d_flags>
0

> <s_epik_input>
bjFbY0hdW2NIXVtjSF1uMVtDSDJdQyg9TylbTkhdQzIoQyg9TylbT0hdKVtDSDJdW0NIMl1bQ0gyXVtDSDJdW0NIMl0y

> <s_epik_cmdline>
J2VwaWtfcHl0aG9uJywgJy1waCcsICc3LjAnLCAnLXRuJywgJzgnLCAnLW1hJywgJzIwMCcsICctbWV0YWxfYmluZGluZycsICctaW1hZScsICc8aW5maWxlLm1hZT4nLCAnLW9tYWUnLCAnPG91dGZpbGUubWFlPic=

> <r_lp_tautomer_probability>
1

> <r_epik_Ionization_Penalty>
0.000342313

> <r_epik_Ionization_Penalty_Charging>
0.000323848

> <r_epik_Ionization_Penalty_Neutral>
1.84652e-05

> <r_epik_State_Penalty>
0.000195685

> <r_epik_Charging_Adjusted_Penalty>
0.000519533

> <i_epik_Tot_Q>
-1

> <i_epik_Tot_abs_Q>
1

> <r_epik_Metal_State_Penalty>
-0

> <b_epik_Metal_Only>
0

> <s_lp_Force_Field>
OPLS_2005

> <r_lp_Energy>
5.56985

> <b_lp_Chiralities_Consistent>
1

> <s_lp_Variant>
AV-unprocessed.smi:2835-1

> <Gold.Version>
5.8.1

> <Gold.Id.Protein>
6NUR|6NUR_protein|mol2

> <Gold.PLP.Fitness>
45.8039

> <Gold.PLP.PLP>
-38.1664

> <Gold.PLP.part.hbond>
-2.0000

> <Gold.PLP.part.metal>
0.0000

> <Gold.PLP.part.buried>
-5.8011

> <Gold.PLP.part.nonpolar>
-30.7669

> <Gold.PLP.part.repulsive>
0.1810

> <Gold.PLP.ligand.clash>
0.0000

> <Gold.PLP.ligand.torsion>
0.7076

> <Gold.PLP.Chemscore.Hbond>
3.0000

> <Gold.PLP.Chemscore.CHOScore>
0.0000

> <Gold.PLP.Chemscore.Metal>
0.0000

> <Gold.Chemscore.Hbonds>
donor molecule, donor type, donor heavy atom, donor atom, acceptor molecule, acceptor atom, score
      P1  H  7989  7998       L1    13  0.81
      P1  H  7997  8009       L1    12  2.00

> <Gold.PLP.Chemscore.Internal.Correction>
0.0525

> <Gold.Rescore>
     Score         DG    S(hbond)    S(metal)    S(lipo)     H(rot)  DE(clash)    DE(int)     intcor
     12.28     -16.38       1.93        0.00      82.46       2.03       0.29       3.81       ----

> <Gold.Chemscore.Fitness>
12.2799

> <Gold.Chemscore.DG>
-16.3826

> <Gold.Chemscore.ZeroCoef>
-5.4800

> <Gold.Chemscore.Hbond>
1.9346

> <Gold.Chemscore.Metal>
0.0000

> <Gold.Chemscore.Lipo>
82.4571

> <Gold.Chemscore.Internal_Hbond>
0.0000

> <Gold.Chemscore.DEClash>
0.2921

> <Gold.Chemscore.DEInternal>
3.8105

> <Gold.Chemscore.Rot>
2.0338

> <Gold.Chemscore.Internal.Correction>
   9.000000E+99

> <Gold.Chemscore.Hbonds>
donor molecule, donor type, donor heavy atom, donor atom, acceptor molecule, acceptor atom, score
      P1  H  7989  7998       L1    13  0.32
      P1  H  7997  8009       L1    12  1.00

> <Gold.Chemscore.Hbond.Weighted>
-6.4617

> <Gold.Chemscore.Metal.Weighted>
-0.0000

> <Gold.Chemscore.Lipo.Weighted>
-9.6475

> <Gold.Chemscore.Internal_Hbond.Weighted>
0.0000

> <Gold.Chemscore.DEClash.Weighted>
0.2921

> <Gold.Chemscore.DEInternal.Weighted>
3.8105

> <Gold.Chemscore.Rot.Weighted>
5.2066

> <Gold.Chemscore.Internal.Correction.Weighted>
   9.000000E+99

> <Gold.Protein.RotatedTorsions>
[ 6907 6896 6895 6894 ] final -165.30 input  -60.11 | X-H torsion
[ 7974 7965 7964 7962 ] final  -40.85 input  175.53 | X-H torsion
[ 8008 7997 7996 7995 ] final -176.89 input   59.86 | X-H torsion
[ 10167 10162 10161 10158 ] final -122.98 input  -65.29 | X-H torsion
[ 10718 10713 10712 10709 ] final   15.38 input   66.30 | X-H torsion
[ 10763 10752 10751 10750 ] final  -23.95 input  -60.55 | X-H torsion
[ 11005 11000 10999 10996 ] final  -97.82 input  -57.11 | X-H torsion

> <Gold.Protein.ActiveResidues>
 VAL166  LYS551  ARG553  GLY616  TRP617  ASP618  TYR619  PRO620  LYS621  CYS622 
 ASP623  PHE694  ASN695  SER759  ASP760  ASP761  ALA762  ILE779  LEU786  VAL792 
 PHE793  MET794  SER795  GLU796  ALA797  LYS798  CYS799  TRP800  GLU811  SER814 

> <Gold.Protein.RotatedAtoms>
  151.4254  133.3686  159.2761 H   0  0  0  0  0  0  0  0  0  0  0  0  # atno 6907 bound_to 6896
  150.9263  134.8681  159.7533 H   0  0  0  0  0  0  0  0  0  0  0  0  # atno 6908 bound_to 6896
  152.5006  134.4196  159.9528 H   0  0  0  0  0  0  0  0  0  0  0  0  # atno 6909 bound_to 6896
  146.0266  140.6784  142.9153 H   0  0  0  0  0  0  0  0  0  0  0  0  # atno 7974 bound_to 7965
  156.0003  140.1219  157.0554 H   0  0  0  0  0  0  0  0  0  0  0  0  # atno 8008 bound_to 7997
  154.4240  140.1108  156.5756 H   0  0  0  0  0  0  0  0  0  0  0  0  # atno 8009 bound_to 7997
  155.6222  140.3472  155.4658 H   0  0  0  0  0  0  0  0  0  0  0  0  # atno 8010 bound_to 7997
  140.0085  143.5467  152.2273 H   0  0  0  0  0  0  0  0  0  0  0  0  # atno 10167 bound_to 10162
  157.0526  130.6276  149.5771 H   0  0  0  0  0  0  0  0  0  0  0  0  # atno 10718 bound_to 10713
  153.6759  135.6969  153.5132 H   0  0  0  0  0  0  0  0  0  0  0  0  # atno 10763 bound_to 10752
  153.2522  135.4271  155.0808 H   0  0  0  0  0  0  0  0  0  0  0  0  # atno 10764 bound_to 10752
  154.8413  135.3534  154.6303 H   0  0  0  0  0  0  0  0  0  0  0  0  # atno 10765 bound_to 10752
  141.1366  133.8199  157.0757 H   0  0  0  0  0  0  0  0  0  0  0  0  # atno 11005 bound_to 11000
  144.7012  140.3660  143.7154 LP  0  0  0  0  0  0  0  0  0  0  0  0  # atno 17320 bound_to 7965
  145.7109  139.1684  143.2539 LP  0  0  0  0  0  0  0  0  0  0  0  0  # atno 17321 bound_to 7965
  139.6222  144.7631  151.2716 LP  0  0  0  0  0  0  0  0  0  0  0  0  # atno 17342 bound_to 10162
  140.7391  143.6628  150.8149 LP  0  0  0  0  0  0  0  0  0  0  0  0  # atno 17343 bound_to 10162
  156.0003  130.5080  150.7637 LP  0  0  0  0  0  0  0  0  0  0  0  0  # atno 17370 bound_to 10713
  157.5018  131.0919  151.0305 LP  0  0  0  0  0  0  0  0  0  0  0  0  # atno 17371 bound_to 10713
  140.0483  134.9819  157.1090 LP  0  0  0  0  0  0  0  0  0  0  0  0  # atno 17394 bound_to 11000
  140.4029  134.2064  155.7163 LP  0  0  0  0  0  0  0  0  0  0  0  0  # atno 17395 bound_to 11000

$$$$
