AV-unprocessed.smi:148|AV-procd|sdf|1210|dock1
  -GOLD-   2262018383D 1   1.00000     0.00000
 Structure written by MMmdl.
 63 67  0  0  0  0  0  0  0  0  1 V2000
  150.1043  139.8313  153.7931 O   0  0  0  0  0  0  0  0  0  0  0  0
  148.8275  140.2185  154.2600 C   0  0  0  0  0  0  0  0  0  0  0  0
  148.7606  140.2240  155.8050 C   0  0  2  0  0  0  0  0  0  0  0  0
  147.2931  139.9905  156.2515 C   0  0  0  0  0  0  0  0  0  0  0  0
  147.1481  139.0166  157.3168 N   0  0  0  0  0  0  0  0  0  0  0  0
  145.9720  138.6169  157.9111 C   0  0  0  0  0  0  0  0  0  0  0  0
  146.0966  137.6927  158.8237 N   0  0  0  0  0  0  0  0  0  0  0  0
  147.4639  137.4552  158.8736 C   0  0  0  0  0  0  0  0  0  0  0  0
  148.2805  136.5545  159.6031 C   0  0  0  0  0  0  0  0  0  0  0  0
  147.7506  135.6364  160.4413 N   0  0  0  0  0  0  0  0  0  0  0  0
  148.0591  135.9593  161.8340 C   0  0  0  0  0  0  0  0  0  0  0  0
  147.2521  135.0821  162.7994 C   0  0  0  0  0  0  0  0  0  0  0  0
  147.4863  133.5999  162.4909 C   0  0  0  0  0  0  0  0  0  0  0  0
  147.1469  133.3086  161.0227 C   0  0  0  0  0  0  0  0  0  0  0  0
  147.9390  134.2256  160.0517 C   0  0  1  0  0  0  0  0  0  0  0  0
  147.6196  133.9562  158.5393 C   0  0  2  0  0  0  0  0  0  0  0  0
  146.1181  133.7337  158.2398 C   0  0  0  0  0  0  0  0  0  0  0  0
  145.9941  132.3816  157.5242 C   0  0  0  0  0  0  0  0  0  0  0  0
  147.2901  131.6349  157.8334 C   0  0  0  0  0  0  0  0  0  0  0  0
  148.3310  132.7516  157.8834 C   0  0  2  0  0  0  0  0  0  0  0  0
  149.5446  132.3592  158.4919 O   0  0  0  0  0  0  0  0  0  0  0  0
  149.6242  136.6005  159.4023 N   0  0  0  0  0  0  0  0  0  0  0  0
  150.1339  137.4679  158.5222 C   0  0  0  0  0  0  0  0  0  0  0  0
  149.4922  138.3457  157.7469 N   0  0  0  0  0  0  0  0  0  0  0  0
  148.1449  138.3021  157.9575 C   0  0  0  0  0  0  0  0  0  0  0  0
  149.4359  141.4832  156.4296 C   0  0  2  0  0  0  0  0  0  0  0  0
  150.9369  141.5783  156.1996 C   0  0  0  0  0  0  0  0  0  0  0  0
  151.3632  142.5791  157.2629 C   0  0  0  0  0  0  0  0  0  0  0  0
  150.5765  142.2383  158.3928 O   0  0  0  0  0  0  0  0  0  0  0  0
  149.3813  141.5921  157.9648 C   0  0  0  0  0  0  0  0  0  0  0  0
  150.0300  139.5797  152.8851 H   0  0  0  0  0  0  0  0  0  0  0  0
  148.6003  141.2095  153.8662 H   0  0  0  0  0  0  0  0  0  0  0  0
  148.0806  139.5479  153.8355 H   0  0  0  0  0  0  0  0  0  0  0  0
  149.3374  139.3568  156.1289 H   0  0  0  0  0  0  0  0  0  0  0  0
  146.8432  140.9298  156.5737 H   0  0  0  0  0  0  0  0  0  0  0  0
  146.6964  139.6399  155.4085 H   0  0  0  0  0  0  0  0  0  0  0  0
  145.0096  139.0158  157.6250 H   0  0  0  0  0  0  0  0  0  0  0  0
  149.1258  135.8163  162.0124 H   0  0  0  0  0  0  0  0  0  0  0  0
  147.8411  137.0106  162.0285 H   0  0  0  0  0  0  0  0  0  0  0  0
  147.5339  135.3014  163.8295 H   0  0  0  0  0  0  0  0  0  0  0  0
  146.1905  135.3154  162.7084 H   0  0  0  0  0  0  0  0  0  0  0  0
  148.5272  133.3409  162.6878 H   0  0  0  0  0  0  0  0  0  0  0  0
  146.8785  132.9778  163.1482 H   0  0  0  0  0  0  0  0  0  0  0  0
  147.3563  132.2587  160.8265 H   0  0  0  0  0  0  0  0  0  0  0  0
  146.0743  133.4366  160.8799 H   0  0  0  0  0  0  0  0  0  0  0  0
  148.9980  134.0096  160.2014 H   0  0  0  0  0  0  0  0  0  0  0  0
  147.9526  134.8229  157.9676 H   0  0  0  0  0  0  0  0  0  0  0  0
  145.5207  133.7337  159.1509 H   0  0  0  0  0  0  0  0  0  0  0  0
  145.7207  134.5333  157.6138 H   0  0  0  0  0  0  0  0  0  0  0  0
  145.1096  131.8249  157.8341 H   0  0  0  0  0  0  0  0  0  0  0  0
  145.9178  132.5471  156.4486 H   0  0  0  0  0  0  0  0  0  0  0  0
  147.2086  131.1345  158.7985 H   0  0  0  0  0  0  0  0  0  0  0  0
  147.5241  130.8771  157.0850 H   0  0  0  0  0  0  0  0  0  0  0  0
  148.5700  133.0215  156.8534 H   0  0  0  0  0  0  0  0  0  0  0  0
  149.4671  131.4565  158.7607 H   0  0  0  0  0  0  0  0  0  0  0  0
  151.2085  137.4485  158.4158 H   0  0  0  0  0  0  0  0  0  0  0  0
  148.9778  142.3791  156.0072 H   0  0  0  0  0  0  0  0  0  0  0  0
  151.4160  140.6153  156.3825 H   0  0  0  0  0  0  0  0  0  0  0  0
  151.1982  141.9074  155.1934 H   0  0  0  0  0  0  0  0  0  0  0  0
  152.4293  142.5325  157.4860 H   0  0  0  0  0  0  0  0  0  0  0  0
  151.1203  143.5962  156.9522 H   0  0  0  0  0  0  0  0  0  0  0  0
  148.5166  142.1609  158.3044 H   0  0  0  0  0  0  0  0  0  0  0  0
  149.3468  140.6091  158.4353 H   0  0  0  0  0  0  0  0  0  0  0  0
  1  2  1  0  0  0  0
  1 31  1  0  0  0  0
  2  3  1  0  0  0  0
  2 32  1  0  0  0  0
  2 33  1  0  0  0  0
  3  4  1  0  0  0  0
  3 26  1  0  0  0  0
  3 34  1  0  0  0  0
  4  5  1  0  0  0  0
  4 35  1  0  0  0  0
  4 36  1  0  0  0  0
  5 25  1  0  0  0  0
  5  6  1  0  0  0  0
  6  7  2  0  0  0  0
  6 37  1  0  0  0  0
  7  8  1  0  0  0  0
  8 25  2  0  0  0  0
  8  9  1  0  0  0  0
  9 10  1  0  0  0  0
  9 22  2  0  0  0  0
 10 15  1  0  0  0  0
 10 11  1  0  0  0  0
 11 12  1  0  0  0  0
 11 38  1  0  0  0  0
 11 39  1  0  0  0  0
 12 13  1  0  0  0  0
 12 40  1  0  0  0  0
 12 41  1  0  0  0  0
 13 14  1  0  0  0  0
 13 42  1  0  0  0  0
 13 43  1  0  0  0  0
 14 15  1  0  0  0  0
 14 44  1  0  0  0  0
 14 45  1  0  0  0  0
 15 16  1  0  0  0  0
 15 46  1  0  0  0  0
 16 20  1  0  0  0  0
 16 17  1  0  0  0  0
 16 47  1  0  0  0  0
 17 18  1  0  0  0  0
 17 48  1  0  0  0  0
 17 49  1  0  0  0  0
 18 19  1  0  0  0  0
 18 50  1  0  0  0  0
 18 51  1  0  0  0  0
 19 20  1  0  0  0  0
 19 52  1  0  0  0  0
 19 53  1  0  0  0  0
 20 21  1  0  0  0  0
 20 54  1  0  0  0  0
 21 55  1  0  0  0  0
 22 23  1  0  0  0  0
 23 24  2  0  0  0  0
 23 56  1  0  0  0  0
 24 25  1  0  0  0  0
 26 30  1  0  0  0  0
 26 27  1  0  0  0  0
 26 57  1  0  0  0  0
 27 28  1  0  0  0  0
 27 58  1  0  0  0  0
 27 59  1  0  0  0  0
 28 29  1  0  0  0  0
 28 60  1  0  0  0  0
 28 61  1  0  0  0  0
 29 30  1  0  0  0  0
 30 62  1  0  0  0  0
 30 63  1  0  0  0  0
M  END
> <s_m_source_file>
AV-unprocessed.smi

> <i_m_source_file_index>
148

> <i_lp_mmshare_version>
43012

> <i_f3d_flags>
0

> <s_epik_input>
W0NIMl0xT1tDSDJdW0NIMl1bQ0BIXTFbQ0BIXShbQ0gyXVtPSF0pW0NIMl1uKFtjSF1uMiljKGMyMyluW2NIXW5jM040W0NIMl1bQ0gyXVtDSDJdW0NIMl1bQ0BIXTRbQ0BASF01W0NIMl1bQ0gyXVtDSDJdW0NASF01W09IXQ==

> <s_epik_cmdline>
J2VwaWtfcHl0aG9uJywgJy1waCcsICc3LjAnLCAnLXRuJywgJzgnLCAnLW1hJywgJzIwMCcsICctbWV0YWxfYmluZGluZycsICctaW1hZScsICc8aW5maWxlLm1hZT4nLCAnLW9tYWUnLCAnPG91dGZpbGUubWFlPic=

> <r_lp_tautomer_probability>
1

> <r_epik_Ionization_Penalty>
0.00556303

> <r_epik_Ionization_Penalty_Charging>
0

> <r_epik_Ionization_Penalty_Neutral>
0.00556303

> <r_epik_State_Penalty>
0.00401767

> <r_epik_Charging_Adjusted_Penalty>
0.00401767

> <i_epik_Tot_Q>
0

> <i_epik_Tot_abs_Q>
0

> <r_epik_Metal_State_Penalty>
-0

> <b_epik_Metal_Only>
0

> <s_lp_Force_Field>
OPLS_2005

> <r_lp_Energy>
71.2164

> <b_lp_Chiralities_Consistent>
1

> <s_lp_Variant>
AV-unprocessed.smi:148-9

> <Gold.Version>
5.8.1

> <Gold.Id.Protein>
6NUR|6NUR_protein|mol2

> <Gold.PLP.Fitness>
43.8210

> <Gold.PLP.PLP>
-36.9362

> <Gold.PLP.part.hbond>
-3.5644

> <Gold.PLP.part.metal>
0.0000

> <Gold.PLP.part.buried>
-6.3330

> <Gold.PLP.part.nonpolar>
-26.7889

> <Gold.PLP.part.repulsive>
0.0675

> <Gold.PLP.ligand.clash>
0.0000

> <Gold.PLP.ligand.torsion>
1.4332

> <Gold.PLP.Chemscore.Hbond>
3.0863

> <Gold.PLP.Chemscore.CHOScore>
0.0000

> <Gold.PLP.Chemscore.Metal>
0.0000

> <Gold.Chemscore.Hbonds>
donor molecule, donor type, donor heavy atom, donor atom, acceptor molecule, acceptor atom, score
      L1  H     1    31       P1  7957  0.99
      P1  H  6896  6907       L1    21  0.92
      P1  H  6896  6908       L1    22  0.67
      P1  H  7989  7998       L1     1  0.53

> <Gold.PLP.Chemscore.Internal.Correction>
0.4924

> <Gold.Rescore>
     Score         DG    S(hbond)    S(metal)    S(lipo)     H(rot)  DE(clash)    DE(int)     intcor
     13.08     -16.09       2.76        0.00      84.68       3.32       0.28       2.74       ----

> <Gold.Chemscore.Fitness>
13.0805

> <Gold.Chemscore.DG>
-16.0942

> <Gold.Chemscore.ZeroCoef>
-5.4800

> <Gold.Chemscore.Hbond>
2.7566

> <Gold.Chemscore.Metal>
0.0000

> <Gold.Chemscore.Lipo>
84.6769

> <Gold.Chemscore.Internal_Hbond>
0.0000

> <Gold.Chemscore.DEClash>
0.2761

> <Gold.Chemscore.DEInternal>
2.7376

> <Gold.Chemscore.Rot>
3.3203

> <Gold.Chemscore.Internal.Correction>
   9.000000E+99

> <Gold.Chemscore.Hbonds>
donor molecule, donor type, donor heavy atom, donor atom, acceptor molecule, acceptor atom, score
      L1  H     1    31       P1  7957  0.92
      P1  H  6896  6907       L1    21  0.78
      P1  H  6896  6908       L1    22  0.49
      P1  H  7989  7998       L1     1  0.04

> <Gold.Chemscore.Hbond.Weighted>
-9.2070

> <Gold.Chemscore.Metal.Weighted>
-0.0000

> <Gold.Chemscore.Lipo.Weighted>
-9.9072

> <Gold.Chemscore.Internal_Hbond.Weighted>
0.0000

> <Gold.Chemscore.DEClash.Weighted>
0.2761

> <Gold.Chemscore.DEInternal.Weighted>
2.7376

> <Gold.Chemscore.Rot.Weighted>
8.5000

> <Gold.Chemscore.Internal.Correction.Weighted>
   9.000000E+99

> <Gold.Protein.RotatedTorsions>
[ 6907 6896 6895 6894 ] final -149.40 input  -60.11 | X-H torsion
[ 7974 7965 7964 7962 ] final  100.57 input  175.53 | X-H torsion
[ 8008 7997 7996 7995 ] final -121.28 input   59.86 | X-H torsion
[ 10167 10162 10161 10158 ] final  157.50 input  -65.29 | X-H torsion
[ 10718 10713 10712 10709 ] final -148.53 input   66.30 | X-H torsion
[ 10763 10752 10751 10750 ] final  -94.53 input  -60.55 | X-H torsion
[ 11005 11000 10999 10996 ] final  -44.76 input  -57.11 | X-H torsion

> <Gold.Protein.ActiveResidues>
 VAL166  LYS551  ARG553  GLY616  TRP617  ASP618  TYR619  PRO620  LYS621  CYS622 
 ASP623  PHE694  ASN695  SER759  ASP760  ASP761  ALA762  ILE779  LEU786  VAL792 
 PHE793  MET794  SER795  GLU796  ALA797  LYS798  CYS799  TRP800  GLU811  SER814 

> <Gold.Protein.RotatedAtoms>
  151.1835  133.4710  159.2594 H   0  0  0  0  0  0  0  0  0  0  0  0  # atno 6907 bound_to 6896
  151.1235  135.0092  159.8559 H   0  0  0  0  0  0  0  0  0  0  0  0  # atno 6908 bound_to 6896
  152.5457  134.1745  159.8663 H   0  0  0  0  0  0  0  0  0  0  0  0  # atno 6909 bound_to 6896
  145.3839  139.2375  143.3389 H   0  0  0  0  0  0  0  0  0  0  0  0  # atno 7974 bound_to 7965
  155.1454  140.0402  157.2808 H   0  0  0  0  0  0  0  0  0  0  0  0  # atno 8008 bound_to 7997
  154.6442  140.2554  155.7260 H   0  0  0  0  0  0  0  0  0  0  0  0  # atno 8009 bound_to 7997
  156.2547  140.2849  156.0849 H   0  0  0  0  0  0  0  0  0  0  0  0  # atno 8010 bound_to 7997
  139.4823  144.4912  151.8306 H   0  0  0  0  0  0  0  0  0  0  0  0  # atno 10167 bound_to 10162
  156.4214  130.8031  151.2254 H   0  0  0  0  0  0  0  0  0  0  0  0  # atno 10718 bound_to 10713
  154.7063  135.5154  153.8601 H   0  0  0  0  0  0  0  0  0  0  0  0  # atno 10763 bound_to 10752
  153.0744  135.6611  154.0186 H   0  0  0  0  0  0  0  0  0  0  0  0  # atno 10764 bound_to 10752
  154.0036  135.3008  155.3379 H   0  0  0  0  0  0  0  0  0  0  0  0  # atno 10765 bound_to 10752
  141.0472  133.6757  156.2918 H   0  0  0  0  0  0  0  0  0  0  0  0  # atno 11005 bound_to 11000
  146.2829  140.4511  142.8769 LP  0  0  0  0  0  0  0  0  0  0  0  0  # atno 17320 bound_to 7965
  144.8488  140.6970  143.6181 LP  0  0  0  0  0  0  0  0  0  0  0  0  # atno 17321 bound_to 7965
  140.4396  144.2004  150.5891 LP  0  0  0  0  0  0  0  0  0  0  0  0  # atno 17342 bound_to 10162
  140.4696  143.2418  151.9107 LP  0  0  0  0  0  0  0  0  0  0  0  0  # atno 17343 bound_to 10162
  157.7508  131.0227  150.3802 LP  0  0  0  0  0  0  0  0  0  0  0  0  # atno 17370 bound_to 10713
  156.4120  130.3936  149.6885 LP  0  0  0  0  0  0  0  0  0  0  0  0  # atno 17371 bound_to 10713
  140.6125  134.5444  157.5535 LP  0  0  0  0  0  0  0  0  0  0  0  0  # atno 17394 bound_to 11000
  139.9321  134.7944  156.0903 LP  0  0  0  0  0  0  0  0  0  0  0  0  # atno 17395 bound_to 11000

$$$$
