AV-unprocessed.smi:688|AV-procd|sdf|3356|dock8
  -GOLD-   22720 0333D 1   1.00000     0.00000
 Structure written by MMmdl.
 35 36  0  0  0  0  0  0  0  0  2 V2000
  148.4320  132.9071  156.9253 O   0  0  0  0  0  0  0  0  0  0  0  0
  149.0761  133.8874  156.5538 C   0  0  0  0  0  0  0  0  0  0  0  0
  149.8736  134.6071  157.3965 N   0  5  0  0  0  0  0  0  0  0  0  0
  150.6025  135.6958  157.0003 C   0  0  0  0  0  0  0  0  0  0  0  0
  151.3090  136.3345  157.7808 O   0  0  0  0  0  0  0  0  0  0  0  0
  150.5425  136.0872  155.6927 N   0  0  0  0  0  0  0  0  0  0  0  0
  151.2950  137.2401  155.1776 C   0  0  0  0  0  0  0  0  0  0  0  0
  150.8070  138.5702  155.7934 C   0  0  2  0  0  0  0  0  0  0  0  0
  149.6351  138.9599  155.1037 O   0  0  0  0  0  0  0  0  0  0  0  0
  151.8369  139.6982  155.6126 C   0  0  0  0  0  0  0  0  0  0  0  0
  152.8400  139.5714  156.6074 O   0  0  0  0  0  0  0  0  0  0  0  0
  152.3270  139.6526  157.9270 C   0  0  0  0  0  0  0  0  0  0  0  0
  152.2115  141.0904  158.3954 C   0  0  0  0  0  0  0  0  0  0  0  0
  151.3443  141.9827  157.7299 C   0  0  0  0  0  0  0  0  0  0  0  0
  151.2448  143.3226  158.1529 C   0  0  0  0  0  0  0  0  0  0  0  0
  152.0157  143.7771  159.2405 C   0  0  0  0  0  0  0  0  0  0  0  0
  151.8929  145.4178  159.7600 Cl  0  0  0  0  0  0  0  0  0  0  0  0
  152.8888  142.8914  159.9022 C   0  0  0  0  0  0  0  0  0  0  0  0
  152.9891  141.5517  159.4787 C   0  0  0  0  0  0  0  0  0  0  0  0
  149.7276  135.3879  154.7870 C   0  0  0  0  0  0  0  0  0  0  0  0
  148.9996  134.3171  155.1592 C   0  0  0  0  0  0  0  0  0  0  0  0
  148.0039  133.4779  154.0236 Cl  0  0  0  0  0  0  0  0  0  0  0  0
  152.3521  137.0904  155.4034 H   0  0  0  0  0  0  0  0  0  0  0  0
  151.2554  137.2807  154.0877 H   0  0  0  0  0  0  0  0  0  0  0  0
  150.5915  138.4438  156.8553 H   0  0  0  0  0  0  0  0  0  0  0  0
  149.6045  138.4970  154.2807 H   0  0  0  0  0  0  0  0  0  0  0  0
  152.3153  139.6068  154.6362 H   0  0  0  0  0  0  0  0  0  0  0  0
  151.3621  140.6805  155.6493 H   0  0  0  0  0  0  0  0  0  0  0  0
  151.3484  139.1713  157.9700 H   0  0  0  0  0  0  0  0  0  0  0  0
  152.9823  139.1191  158.6172 H   0  0  0  0  0  0  0  0  0  0  0  0
  150.7518  141.6410  156.8938 H   0  0  0  0  0  0  0  0  0  0  0  0
  150.5769  144.0000  157.6413 H   0  0  0  0  0  0  0  0  0  0  0  0
  153.4831  143.2380  160.7348 H   0  0  0  0  0  0  0  0  0  0  0  0
  153.6626  140.8799  159.9904 H   0  0  0  0  0  0  0  0  0  0  0  0
  149.7273  135.7769  153.7792 H   0  0  0  0  0  0  0  0  0  0  0  0
  1  2  2  0  0  0  0
  2 21  1  0  0  0  0
  2  3  1  0  0  0  0
  3  4  1  0  0  0  0
  4  5  2  0  0  0  0
  4  6  1  0  0  0  0
  6  7  1  0  0  0  0
  6 20  1  0  0  0  0
  7  8  1  0  0  0  0
  7 23  1  0  0  0  0
  7 24  1  0  0  0  0
  8  9  1  0  0  0  0
  8 10  1  0  0  0  0
  8 25  1  0  0  0  0
  9 26  1  0  0  0  0
 10 11  1  0  0  0  0
 10 27  1  0  0  0  0
 10 28  1  0  0  0  0
 11 12  1  0  0  0  0
 12 13  1  0  0  0  0
 12 29  1  0  0  0  0
 12 30  1  0  0  0  0
 13 19  1  0  0  0  0
 13 14  2  0  0  0  0
 14 15  1  0  0  0  0
 14 31  1  0  0  0  0
 15 16  2  0  0  0  0
 15 32  1  0  0  0  0
 16 17  1  0  0  0  0
 16 18  1  0  0  0  0
 18 19  2  0  0  0  0
 18 33  1  0  0  0  0
 19 34  1  0  0  0  0
 20 21  2  0  0  0  0
 20 35  1  0  0  0  0
 21 22  1  0  0  0  0
M  CHG  1   3  -1
M  END
> <s_m_source_file>
AV-unprocessed.smi

> <i_m_source_file_index>
688

> <i_lp_mmshare_version>
43012

> <i_f3d_flags>
0

> <s_epik_input>
Tz1jMVtuSF1jKD1PKW4oW2NIXWMxQ2wpW0NIMl1bQ0BIXShbT0hdKVtDSDJdT1tDSDJdYzJbY0hdW2NIXWMoQ2wpW2NIXVtjSF0y

> <s_epik_cmdline>
J2VwaWtfcHl0aG9uJywgJy1waCcsICc3LjAnLCAnLXRuJywgJzgnLCAnLW1hJywgJzIwMCcsICctbWV0YWxfYmluZGluZycsICctaW1hZScsICc8aW5maWxlLm1hZT4nLCAnLW9tYWUnLCAnPG91dGZpbGUubWFlPic=

> <r_epik_Ionization_Penalty>
1.82111

> <r_epik_Ionization_Penalty_Charging>
5.03334e-08

> <r_epik_Ionization_Penalty_Neutral>
1.82111

> <r_epik_State_Penalty>
1.93633

> <r_epik_Charging_Adjusted_Penalty>
1.93633

> <i_epik_Tot_Q>
-1

> <i_epik_Tot_abs_Q>
1

> <r_epik_Metal_State_Penalty>
0.0147818

> <b_epik_Metal_Only>
0

> <s_lp_Force_Field>
OPLS_2005

> <r_lp_Energy>
25.7398

> <b_lp_Chiralities_Consistent>
1

> <s_lp_Variant>
AV-unprocessed.smi:688-3

> <Gold.Version>
5.8.1

> <Gold.Id.Protein>
6NUR|6NUR_protein|mol2

> <Gold.PLP.Fitness>
49.6712

> <Gold.PLP.PLP>
-39.3627

> <Gold.PLP.part.hbond>
-2.8940

> <Gold.PLP.part.metal>
0.0000

> <Gold.PLP.part.buried>
-4.0291

> <Gold.PLP.part.nonpolar>
-33.5593

> <Gold.PLP.part.repulsive>
0.0000

> <Gold.PLP.ligand.clash>
0.0000

> <Gold.PLP.ligand.torsion>
0.5453

> <Gold.PLP.Chemscore.Hbond>
2.8240

> <Gold.PLP.Chemscore.CHOScore>
0.9209

> <Gold.PLP.Chemscore.Metal>
0.0000

> <Gold.Chemscore.Hbonds>
donor molecule, donor type, donor heavy atom, donor atom, acceptor molecule, acceptor atom, score
      P1  H  6896  6907       L1     3  1.22
      P1  H  7997  8008       L1    11  1.00
      L1  C    20    35       P1  7948  0.90

> <Gold.PLP.Chemscore.Internal.Correction>
0.1645

> <Gold.Rescore>
     Score         DG    S(hbond)    S(metal)    S(lipo)     H(rot)  DE(clash)    DE(int)     intcor
     15.54     -16.22       1.57        0.00     109.32       2.85       0.00       0.68       ----

> <Gold.Chemscore.Fitness>
15.5394

> <Gold.Chemscore.DG>
-16.2176

> <Gold.Chemscore.ZeroCoef>
-5.4800

> <Gold.Chemscore.Hbond>
1.5728

> <Gold.Chemscore.Metal>
0.0000

> <Gold.Chemscore.Lipo>
109.3248

> <Gold.Chemscore.Internal_Hbond>
0.0000

> <Gold.Chemscore.DEClash>
0.0021

> <Gold.Chemscore.DEInternal>
0.6761

> <Gold.Chemscore.Rot>
2.8542

> <Gold.Chemscore.Internal.Correction>
   9.000000E+99

> <Gold.Chemscore.Hbonds>
donor molecule, donor type, donor heavy atom, donor atom, acceptor molecule, acceptor atom, score
      P1  H  6896  6907       L1     3  0.27
      P1  H  7997  8008       L1    11  0.60

> <Gold.Chemscore.Hbond.Weighted>
-5.2532

> <Gold.Chemscore.Metal.Weighted>
-0.0000

> <Gold.Chemscore.Lipo.Weighted>
-12.7910

> <Gold.Chemscore.Internal_Hbond.Weighted>
0.0000

> <Gold.Chemscore.DEClash.Weighted>
0.0021

> <Gold.Chemscore.DEInternal.Weighted>
0.6761

> <Gold.Chemscore.Rot.Weighted>
7.3067

> <Gold.Chemscore.Internal.Correction.Weighted>
   9.000000E+99

> <Gold.Protein.RotatedTorsions>
[ 6907 6896 6895 6894 ] final -100.67 input  -60.11 | X-H torsion
[ 7974 7965 7964 7962 ] final  102.50 input  175.53 | X-H torsion
[ 8008 7997 7996 7995 ] final  -62.97 input   59.86 | X-H torsion
[ 10167 10162 10161 10158 ] final   27.50 input  -65.29 | X-H torsion
[ 10718 10713 10712 10709 ] final   72.21 input   66.30 | X-H torsion
[ 10763 10752 10751 10750 ] final  120.74 input  -60.55 | X-H torsion
[ 11005 11000 10999 10996 ] final  149.84 input  -57.11 | X-H torsion

> <Gold.Protein.ActiveResidues>
 VAL166  LYS551  ARG553  GLY616  TRP617  ASP618  TYR619  PRO620  LYS621  CYS622 
 ASP623  PHE694  ASN695  SER759  ASP760  ASP761  ALA762  ILE779  LEU786  VAL792 
 PHE793  MET794  SER795  GLU796  ALA797  LYS798  CYS799  TRP800  GLU811  SER814 

> <Gold.Protein.RotatedAtoms>
  150.7125  134.0851  159.3911 H   0  0  0  0  0  0  0  0  0  0  0  0  # atno 6907 bound_to 6896
  151.8836  135.0442  160.0500 H   0  0  0  0  0  0  0  0  0  0  0  0  # atno 6908 bound_to 6896
  152.2548  133.5210  159.5383 H   0  0  0  0  0  0  0  0  0  0  0  0  # atno 6909 bound_to 6896
  145.3583  139.2423  143.3521 H   0  0  0  0  0  0  0  0  0  0  0  0  # atno 7974 bound_to 7965
  154.4528  140.0985  156.6670 H   0  0  0  0  0  0  0  0  0  0  0  0  # atno 8008 bound_to 7997
  155.5230  140.3479  155.4392 H   0  0  0  0  0  0  0  0  0  0  0  0  # atno 8009 bound_to 7997
  156.0717  140.1351  156.9809 H   0  0  0  0  0  0  0  0  0  0  0  0  # atno 8010 bound_to 7997
  140.4933  144.0432  150.6305 H   0  0  0  0  0  0  0  0  0  0  0  0  # atno 10167 bound_to 10162
  157.6489  130.9567  150.0896 H   0  0  0  0  0  0  0  0  0  0  0  0  # atno 10718 bound_to 10713
  153.6031  135.3444  155.2952 H   0  0  0  0  0  0  0  0  0  0  0  0  # atno 10763 bound_to 10752
  154.8632  135.4232  154.2390 H   0  0  0  0  0  0  0  0  0  0  0  0  # atno 10764 bound_to 10752
  153.3224  135.7039  153.7091 H   0  0  0  0  0  0  0  0  0  0  0  0  # atno 10765 bound_to 10752
  140.1080  134.8942  157.1894 H   0  0  0  0  0  0  0  0  0  0  0  0  # atno 11005 bound_to 11000
  146.2938  140.4212  142.8729 LP  0  0  0  0  0  0  0  0  0  0  0  0  # atno 17320 bound_to 7965
  144.8666  140.7214  143.6073 LP  0  0  0  0  0  0  0  0  0  0  0  0  # atno 17321 bound_to 7965
  140.3707  143.2856  152.0281 LP  0  0  0  0  0  0  0  0  0  0  0  0  # atno 17342 bound_to 10162
  139.4856  144.6232  151.7215 LP  0  0  0  0  0  0  0  0  0  0  0  0  # atno 17343 bound_to 10162
  156.1849  130.3652  149.8986 LP  0  0  0  0  0  0  0  0  0  0  0  0  # atno 17370 bound_to 10713
  156.6929  130.8903  151.3590 LP  0  0  0  0  0  0  0  0  0  0  0  0  # atno 17371 bound_to 10713
  140.3130  134.3002  155.7262 LP  0  0  0  0  0  0  0  0  0  0  0  0  # atno 17394 bound_to 11000
  141.2123  133.7662  156.9803 LP  0  0  0  0  0  0  0  0  0  0  0  0  # atno 17395 bound_to 11000

$$$$
