AV-unprocessed.smi:2108|AV-procd|sdf|8604|dock6
  -GOLD-   2272011343D 1   1.00000     0.00000
 Structure written by MMmdl.
 35 36  0  0  0  0  0  0  0  0  1 V2000
  150.6484  139.8007  154.2787 O   0  0  0  0  0  0  0  0  0  0  0  0
  151.7370  139.4563  155.2056 S   0  0  0  0  0  0  0  0  0  0  0  0
  153.1049  139.9562  154.9980 O   0  0  0  0  0  0  0  0  0  0  0  0
  151.2488  139.8730  156.8077 N   0  0  0  0  0  0  0  0  0  0  0  0
  151.2225  141.2781  157.2151 C   0  0  0  0  0  0  0  0  0  0  0  0
  152.0832  141.4898  158.4670 C   0  0  0  0  0  0  0  0  0  0  0  0
  151.7819  142.8122  159.1470 C   0  0  0  0  0  0  0  0  0  0  0  0
  152.4740  143.1951  160.3158 C   0  0  0  0  0  0  0  0  0  0  0  0
  152.1454  144.4251  160.9177 C   0  0  0  0  0  0  0  0  0  0  0  0
  151.1418  145.2202  160.3312 C   0  0  0  0  0  0  0  0  0  0  0  0
  150.5085  144.7478  159.1645 C   0  0  0  0  0  0  0  0  0  0  0  0
  150.8156  143.5695  158.5796 N   0  0  0  0  0  0  0  0  0  0  0  0
  151.7950  137.7320  155.3606 N   0  0  0  0  0  0  0  0  0  0  0  0
  150.6256  136.9722  154.8918 C   0  0  0  0  0  0  0  0  0  0  0  0
  150.9407  135.4692  154.8199 C   0  0  0  0  0  0  0  0  0  0  0  0
  151.4305  135.0112  156.0711 O   0  0  0  0  0  0  0  0  0  0  0  0
  152.6436  135.6590  156.4235 C   0  0  0  0  0  0  0  0  0  0  0  0
  152.4094  137.1703  156.5764 C   0  0  0  0  0  0  0  0  0  0  0  0
  151.6106  139.2359  157.5170 H   0  0  0  0  0  0  0  0  0  0  0  0
  151.5880  141.8957  156.3940 H   0  0  0  0  0  0  0  0  0  0  0  0
  150.1923  141.5764  157.4124 H   0  0  0  0  0  0  0  0  0  0  0  0
  151.9187  140.6763  159.1753 H   0  0  0  0  0  0  0  0  0  0  0  0
  153.1418  141.4593  158.2043 H   0  0  0  0  0  0  0  0  0  0  0  0
  153.2356  142.5603  160.7448 H   0  0  0  0  0  0  0  0  0  0  0  0
  152.6526  144.7515  161.8136 H   0  0  0  0  0  0  0  0  0  0  0  0
  150.8632  146.1692  160.7653 H   0  0  0  0  0  0  0  0  0  0  0  0
  149.7333  145.3306  158.6895 H   0  0  0  0  0  0  0  0  0  0  0  0
  149.7922  137.1513  155.5721 H   0  0  0  0  0  0  0  0  0  0  0  0
  150.3210  137.3307  153.9085 H   0  0  0  0  0  0  0  0  0  0  0  0
  150.0393  134.9107  154.5671 H   0  0  0  0  0  0  0  0  0  0  0  0
  151.6698  135.2644  154.0342 H   0  0  0  0  0  0  0  0  0  0  0  0
  153.0075  135.2405  157.3619 H   0  0  0  0  0  0  0  0  0  0  0  0
  153.4084  135.4606  155.6706 H   0  0  0  0  0  0  0  0  0  0  0  0
  153.3549  137.6698  156.7858 H   0  0  0  0  0  0  0  0  0  0  0  0
  151.7516  137.3634  157.4247 H   0  0  0  0  0  0  0  0  0  0  0  0
  1  2  2  0  0  0  0
  2  3  2  0  0  0  0
  2  4  1  0  0  0  0
  2 13  1  0  0  0  0
  4  5  1  0  0  0  0
  4 19  1  0  0  0  0
  5  6  1  0  0  0  0
  5 20  1  0  0  0  0
  5 21  1  0  0  0  0
  6  7  1  0  0  0  0
  6 22  1  0  0  0  0
  6 23  1  0  0  0  0
  7 12  1  0  0  0  0
  7  8  2  0  0  0  0
  8  9  1  0  0  0  0
  8 24  1  0  0  0  0
  9 10  2  0  0  0  0
  9 25  1  0  0  0  0
 10 11  1  0  0  0  0
 10 26  1  0  0  0  0
 11 12  2  0  0  0  0
 11 27  1  0  0  0  0
 13 18  1  0  0  0  0
 13 14  1  0  0  0  0
 14 15  1  0  0  0  0
 14 28  1  0  0  0  0
 14 29  1  0  0  0  0
 15 16  1  0  0  0  0
 15 30  1  0  0  0  0
 15 31  1  0  0  0  0
 16 17  1  0  0  0  0
 17 18  1  0  0  0  0
 17 32  1  0  0  0  0
 17 33  1  0  0  0  0
 18 34  1  0  0  0  0
 18 35  1  0  0  0  0
M  END
> <s_m_source_file>
AV-unprocessed.smi

> <i_m_source_file_index>
2108

> <i_lp_mmshare_version>
43012

> <i_f3d_flags>
0

> <s_epik_input>
W0NIMl0xW0NIMl1PW0NIMl1bQ0gyXU4xUyg9TykoPU8pW05IXVtDSDJdW0NIMl1jMltjSF1bY0hdW2NIXVtjSF1uMg==

> <s_epik_cmdline>
J2VwaWtfcHl0aG9uJywgJy1waCcsICc3LjAnLCAnLXRuJywgJzgnLCAnLW1hJywgJzIwMCcsICctbWV0YWxfYmluZGluZycsICctaW1hZScsICc8aW5maWxlLm1hZT4nLCAnLW9tYWUnLCAnPG91dGZpbGUubWFlPic=

> <r_epik_Ionization_Penalty>
0.085378

> <r_epik_Ionization_Penalty_Charging>
0

> <r_epik_Ionization_Penalty_Neutral>
0.085378

> <r_epik_State_Penalty>
0.0441186

> <r_epik_Charging_Adjusted_Penalty>
0.0441186

> <i_epik_Tot_Q>
0

> <i_epik_Tot_abs_Q>
0

> <r_epik_Metal_State_Penalty>
0.24397

> <b_epik_Metal_Only>
0

> <s_lp_Force_Field>
OPLS_2005

> <r_lp_Energy>
7.91242

> <b_lp_Chiralities_Consistent>
1

> <s_lp_Variant>
AV-unprocessed.smi:2108-1

> <Gold.Version>
5.8.1

> <Gold.Id.Protein>
6NUR|6NUR_protein|mol2

> <Gold.PLP.Fitness>
40.2804

> <Gold.PLP.PLP>
-33.0555

> <Gold.PLP.part.hbond>
-2.4548

> <Gold.PLP.part.metal>
0.0000

> <Gold.PLP.part.buried>
-5.5454

> <Gold.PLP.part.nonpolar>
-25.6085

> <Gold.PLP.part.repulsive>
0.3276

> <Gold.PLP.ligand.clash>
0.0000

> <Gold.PLP.ligand.torsion>
1.3141

> <Gold.PLP.Chemscore.Hbond>
2.0000

> <Gold.PLP.Chemscore.CHOScore>
1.0000

> <Gold.PLP.Chemscore.Metal>
0.0000

> <Gold.Chemscore.Hbonds>
donor molecule, donor type, donor heavy atom, donor atom, acceptor molecule, acceptor atom, score
      P1  H  7989  7998       L1     1  0.55
      P1  H  7997  8009       L1     3  0.82
      L1  C    11    27       P1  8029  1.00

> <Gold.PLP.Chemscore.Internal.Correction>
0.8530

> <Gold.Rescore>
     Score         DG    S(hbond)    S(metal)    S(lipo)     H(rot)  DE(clash)    DE(int)     intcor
     16.06     -17.49       1.93        0.00      87.72       1.84       0.01       1.42       ----

> <Gold.Chemscore.Fitness>
16.0620

> <Gold.Chemscore.DG>
-17.4922

> <Gold.Chemscore.ZeroCoef>
-5.4800

> <Gold.Chemscore.Hbond>
1.9326

> <Gold.Chemscore.Metal>
0.0000

> <Gold.Chemscore.Lipo>
87.7172

> <Gold.Chemscore.Internal_Hbond>
0.0000

> <Gold.Chemscore.DEClash>
0.0135

> <Gold.Chemscore.DEInternal>
1.4166

> <Gold.Chemscore.Rot>
1.8382

> <Gold.Chemscore.Internal.Correction>
   9.000000E+99

> <Gold.Chemscore.Hbonds>
donor molecule, donor type, donor heavy atom, donor atom, acceptor molecule, acceptor atom, score
      P1  H  7989  7998       L1     1  0.03
      P1  H  7997  8009       L1     3  0.81

> <Gold.Chemscore.Hbond.Weighted>
-6.4549

> <Gold.Chemscore.Metal.Weighted>
-0.0000

> <Gold.Chemscore.Lipo.Weighted>
-10.2629

> <Gold.Chemscore.Internal_Hbond.Weighted>
0.0000

> <Gold.Chemscore.DEClash.Weighted>
0.0135

> <Gold.Chemscore.DEInternal.Weighted>
1.4166

> <Gold.Chemscore.Rot.Weighted>
4.7057

> <Gold.Chemscore.Internal.Correction.Weighted>
   9.000000E+99

> <Gold.Protein.RotatedTorsions>
[ 6907 6896 6895 6894 ] final   36.46 input  -60.11 | X-H torsion
[ 7974 7965 7964 7962 ] final    6.93 input  175.53 | X-H torsion
[ 8008 7997 7996 7995 ] final -159.48 input   59.86 | X-H torsion
[ 10167 10162 10161 10158 ] final  -39.16 input  -65.29 | X-H torsion
[ 10718 10713 10712 10709 ] final  -81.08 input   66.30 | X-H torsion
[ 10763 10752 10751 10750 ] final  178.97 input  -60.55 | X-H torsion
[ 11005 11000 10999 10996 ] final  132.32 input  -57.11 | X-H torsion

> <Gold.Protein.ActiveResidues>
 VAL166  LYS551  ARG553  GLY616  TRP617  ASP618  TYR619  PRO620  LYS621  CYS622 
 ASP623  PHE694  ASN695  SER759  ASP760  ASP761  ALA762  ILE779  LEU786  VAL792 
 PHE793  MET794  SER795  GLU796  ALA797  LYS798  CYS799  TRP800  GLU811  SER814 

> <Gold.Protein.RotatedAtoms>
  152.1300  134.9142  160.0558 H   0  0  0  0  0  0  0  0  0  0  0  0  # atno 6907 bound_to 6896
  152.0250  133.3909  159.4282 H   0  0  0  0  0  0  0  0  0  0  0  0  # atno 6908 bound_to 6896
  150.6855  134.3505  159.4951 H   0  0  0  0  0  0  0  0  0  0  0  0  # atno 6909 bound_to 6896
  146.2431  140.0159  142.8402 H   0  0  0  0  0  0  0  0  0  0  0  0  # atno 7974 bound_to 7965
  155.7632  140.0842  157.2145 H   0  0  0  0  0  0  0  0  0  0  0  0  # atno 8008 bound_to 7997
  154.4002  140.1539  156.2913 H   0  0  0  0  0  0  0  0  0  0  0  0  # atno 8009 bound_to 7997
  155.8819  140.3420  155.5897 H   0  0  0  0  0  0  0  0  0  0  0  0  # atno 8010 bound_to 7997
  140.7072  143.3231  151.2743 H   0  0  0  0  0  0  0  0  0  0  0  0  # atno 10167 bound_to 10162
  156.0057  130.4593  150.3899 H   0  0  0  0  0  0  0  0  0  0  0  0  # atno 10718 bound_to 10713
  154.5145  135.2790  155.1314 H   0  0  0  0  0  0  0  0  0  0  0  0  # atno 10763 bound_to 10752
  154.2896  135.6269  153.5383 H   0  0  0  0  0  0  0  0  0  0  0  0  # atno 10764 bound_to 10752
  152.9925  135.5671  154.5619 H   0  0  0  0  0  0  0  0  0  0  0  0  # atno 10765 bound_to 10752
  139.9783  134.9556  156.9566 H   0  0  0  0  0  0  0  0  0  0  0  0  # atno 11005 bound_to 11000
  145.1285  140.9504  143.4558 LP  0  0  0  0  0  0  0  0  0  0  0  0  # atno 17320 bound_to 7965
  145.0411  139.3260  143.5976 LP  0  0  0  0  0  0  0  0  0  0  0  0  # atno 17321 bound_to 7965
  139.6692  144.0051  152.2742 LP  0  0  0  0  0  0  0  0  0  0  0  0  # atno 17342 bound_to 10162
  139.9644  144.6536  150.8049 LP  0  0  0  0  0  0  0  0  0  0  0  0  # atno 17343 bound_to 10162
  157.1974  131.0430  151.2668 LP  0  0  0  0  0  0  0  0  0  0  0  0  # atno 17370 bound_to 10713
  157.4007  130.7331  149.6765 LP  0  0  0  0  0  0  0  0  0  0  0  0  # atno 17371 bound_to 10713
  140.5149  134.0965  155.7278 LP  0  0  0  0  0  0  0  0  0  0  0  0  # atno 17394 bound_to 11000
  141.1458  133.9057  157.2219 LP  0  0  0  0  0  0  0  0  0  0  0  0  # atno 17395 bound_to 11000

$$$$
