AV-unprocessed.smi:3070|AV-procd|sdf|11712|dock7
  -GOLD-   2272017113D 1   1.00000     0.00000
 Structure written by MMmdl.
 21 22  0  0  0  0  0  0  0  0  2 V2000
  153.6446  141.1711  161.1348 C   0  0  0  0  0  0  0  0  0  0  0  0
  153.4584  141.9957  162.2075 N   0  0  0  0  0  0  0  0  0  0  0  0
  152.7169  142.9358  161.6389 C   0  0  0  0  0  0  0  0  0  0  0  0
  152.4655  142.7187  160.3465 N   0  0  0  0  0  0  0  0  0  0  0  0
  151.6985  143.5091  159.3954 C   0  0  1  0  0  0  0  0  0  0  0  0
  152.3432  144.8470  159.0339 C   0  0  0  0  0  0  0  0  0  0  0  0
  151.6452  145.2126  157.7231 C   0  0  0  0  0  0  0  0  0  0  0  0
  151.3064  143.9346  157.0639 N   0  3  0  0  0  0  0  0  0  0  0  0
  151.5163  142.8370  158.0289 C   0  0  0  0  0  0  0  0  0  0  0  0
  153.0703  141.5575  159.9954 N   0  0  0  0  0  0  0  0  0  0  0  0
  154.2198  140.2588  161.1954 H   0  0  0  0  0  0  0  0  0  0  0  0
  152.3495  143.7980  162.1763 H   0  0  0  0  0  0  0  0  0  0  0  0
  150.7141  143.7023  159.8258 H   0  0  0  0  0  0  0  0  0  0  0  0
  152.2125  145.6042  159.8077 H   0  0  0  0  0  0  0  0  0  0  0  0
  153.4132  144.7301  158.8561 H   0  0  0  0  0  0  0  0  0  0  0  0
  150.7181  145.7487  157.9299 H   0  0  0  0  0  0  0  0  0  0  0  0
  152.2622  145.8431  157.0824 H   0  0  0  0  0  0  0  0  0  0  0  0
  150.3406  143.9567  156.7686 H   0  0  0  0  0  0  0  0  0  0  0  0
  152.4150  142.2975  157.7275 H   0  0  0  0  0  0  0  0  0  0  0  0
  150.6849  142.1318  158.0197 H   0  0  0  0  0  0  0  0  0  0  0  0
  151.9030  143.7897  156.2617 H   0  0  0  0  0  0  0  0  0  0  0  0
  1 10  2  0  0  0  0
  1  2  1  0  0  0  0
  1 11  1  0  0  0  0
  2  3  2  0  0  0  0
  3  4  1  0  0  0  0
  3 12  1  0  0  0  0
  4  5  1  0  0  0  0
  4 10  1  0  0  0  0
  5  9  1  0  0  0  0
  5  6  1  0  0  0  0
  5 13  1  0  0  0  0
  6  7  1  0  0  0  0
  6 14  1  0  0  0  0
  6 15  1  0  0  0  0
  7  8  1  0  0  0  0
  7 16  1  0  0  0  0
  7 17  1  0  0  0  0
  8  9  1  0  0  0  0
  8 18  1  0  0  0  0
  8 21  1  0  0  0  0
  9 19  1  0  0  0  0
  9 20  1  0  0  0  0
M  CHG  1   8   1
M  END
> <s_m_source_file>
AV-unprocessed.smi

> <i_m_source_file_index>
3070

> <i_lp_mmshare_version>
43012

> <i_f3d_flags>
0

> <s_epik_input>
bjFbY0hdbltjSF1uMVtDQEBIXTJbQ0gyXVtDSDJdW05IXVtDSDJdMg==

> <s_epik_cmdline>
J2VwaWtfcHl0aG9uJywgJy1waCcsICc3LjAnLCAnLXRuJywgJzgnLCAnLW1hJywgJzIwMCcsICctbWV0YWxfYmluZGluZycsICctaW1hZScsICc8aW5maWxlLm1hZT4nLCAnLW9tYWUnLCAnPG91dGZpbGUubWFlPic=

> <r_lp_tautomer_probability>
1

> <r_epik_Ionization_Penalty>
0.000421274

> <r_epik_Ionization_Penalty_Charging>
0.000420295

> <r_epik_Ionization_Penalty_Neutral>
9.79543e-07

> <r_epik_State_Penalty>
0.000258452

> <r_epik_Charging_Adjusted_Penalty>
0.000678746

> <i_epik_Tot_Q>
1

> <i_epik_Tot_abs_Q>
1

> <r_epik_Metal_State_Penalty>
-0

> <b_epik_Metal_Only>
0

> <s_lp_Force_Field>
OPLS_2005

> <r_lp_Energy>
29.098

> <b_lp_Chiralities_Consistent>
1

> <s_lp_Variant>
AV-unprocessed.smi:3070-2

> <Gold.Version>
5.8.1

> <Gold.Id.Protein>
6NUR|6NUR_protein|mol2

> <Gold.PLP.Fitness>
32.0352

> <Gold.PLP.PLP>
-26.2995

> <Gold.PLP.part.hbond>
-1.0000

> <Gold.PLP.part.metal>
0.0000

> <Gold.PLP.part.buried>
-5.4253

> <Gold.PLP.part.nonpolar>
-19.9926

> <Gold.PLP.part.repulsive>
0.0497

> <Gold.PLP.ligand.clash>
0.0000

> <Gold.PLP.ligand.torsion>
0.1106

> <Gold.PLP.Chemscore.Hbond>
1.9840

> <Gold.PLP.Chemscore.CHOScore>
0.0000

> <Gold.PLP.Chemscore.Metal>
0.0000

> <Gold.Chemscore.Hbonds>
donor molecule, donor type, donor heavy atom, donor atom, acceptor molecule, acceptor atom, score
      L1  H     8    18       P1  8028  1.98

> <Gold.PLP.Chemscore.Internal.Correction>
0.0050

> <Gold.Rescore>
     Score         DG    S(hbond)    S(metal)    S(lipo)     H(rot)  DE(clash)    DE(int)     intcor
     10.54     -12.04       0.99        0.00      49.65       1.00       1.50       0.00       ----

> <Gold.Chemscore.Fitness>
10.5420

> <Gold.Chemscore.DG>
-12.0429

> <Gold.Chemscore.ZeroCoef>
-5.4800

> <Gold.Chemscore.Hbond>
0.9922

> <Gold.Chemscore.Metal>
0.0000

> <Gold.Chemscore.Lipo>
49.6483

> <Gold.Chemscore.Internal_Hbond>
0.0000

> <Gold.Chemscore.DEClash>
1.4984

> <Gold.Chemscore.DEInternal>
0.0026

> <Gold.Chemscore.Rot>
1.0000

> <Gold.Chemscore.Internal.Correction>
   9.000000E+99

> <Gold.Chemscore.Hbonds>
donor molecule, donor type, donor heavy atom, donor atom, acceptor molecule, acceptor atom, score
      L1  H     8    18       P1  8028  0.93

> <Gold.Chemscore.Hbond.Weighted>
-3.3141

> <Gold.Chemscore.Metal.Weighted>
-0.0000

> <Gold.Chemscore.Lipo.Weighted>
-5.8088

> <Gold.Chemscore.Internal_Hbond.Weighted>
0.0000

> <Gold.Chemscore.DEClash.Weighted>
1.4984

> <Gold.Chemscore.DEInternal.Weighted>
0.0026

> <Gold.Chemscore.Rot.Weighted>
2.5600

> <Gold.Chemscore.Internal.Correction.Weighted>
   9.000000E+99

> <Gold.Protein.RotatedTorsions>
[ 6907 6896 6895 6894 ] final    8.62 input  -60.11 | X-H torsion
[ 7974 7965 7964 7962 ] final  -33.75 input  175.53 | X-H torsion
[ 8008 7997 7996 7995 ] final    8.71 input   59.86 | X-H torsion
[ 10167 10162 10161 10158 ] final -111.38 input  -65.29 | X-H torsion
[ 10718 10713 10712 10709 ] final   51.88 input   66.30 | X-H torsion
[ 10763 10752 10751 10750 ] final -151.17 input  -60.55 | X-H torsion
[ 11005 11000 10999 10996 ] final -133.59 input  -57.11 | X-H torsion

> <Gold.Protein.ActiveResidues>
 VAL166  LYS551  ARG553  GLY616  TRP617  ASP618  TYR619  PRO620  LYS621  CYS622 
 ASP623  PHE694  ASN695  SER759  ASP760  ASP761  ALA762  ILE779  LEU786  VAL792 
 PHE793  MET794  SER795  GLU796  ALA797  LYS798  CYS799  TRP800  GLU811  SER814 

> <Gold.Protein.RotatedAtoms>
  151.7090  135.0916  160.0264 H   0  0  0  0  0  0  0  0  0  0  0  0  # atno 6907 bound_to 6896
  152.3673  133.6369  159.6069 H   0  0  0  0  0  0  0  0  0  0  0  0  # atno 6908 bound_to 6896
  150.7647  133.9243  159.3449 H   0  0  0  0  0  0  0  0  0  0  0  0  # atno 6909 bound_to 6896
  146.0885  140.5954  142.8875 H   0  0  0  0  0  0  0  0  0  0  0  0  # atno 7974 bound_to 7965
  154.7704  140.2801  155.6142 H   0  0  0  0  0  0  0  0  0  0  0  0  # atno 8008 bound_to 7997
  156.2932  140.2642  156.2433 H   0  0  0  0  0  0  0  0  0  0  0  0  # atno 8009 bound_to 7997
  154.9907  140.0373  157.2308 H   0  0  0  0  0  0  0  0  0  0  0  0  # atno 8010 bound_to 7997
  140.1342  143.4334  152.1607 H   0  0  0  0  0  0  0  0  0  0  0  0  # atno 10167 bound_to 10162
  157.5023  130.8446  149.8331 H   0  0  0  0  0  0  0  0  0  0  0  0  # atno 10718 bound_to 10713
  154.8074  135.3266  154.7394 H   0  0  0  0  0  0  0  0  0  0  0  0  # atno 10763 bound_to 10752
  153.8050  135.6900  153.4854 H   0  0  0  0  0  0  0  0  0  0  0  0  # atno 10764 bound_to 10752
  153.1829  135.4580  154.9996 H   0  0  0  0  0  0  0  0  0  0  0  0  # atno 10765 bound_to 10752
  140.9067  134.1621  157.4420 H   0  0  0  0  0  0  0  0  0  0  0  0  # atno 11005 bound_to 11000
  144.7343  140.4763  143.6915 LP  0  0  0  0  0  0  0  0  0  0  0  0  # atno 17320 bound_to 7965
  145.6083  139.1510  143.3090 LP  0  0  0  0  0  0  0  0  0  0  0  0  # atno 17321 bound_to 7965
  139.5504  144.7333  151.4452 LP  0  0  0  0  0  0  0  0  0  0  0  0  # atno 17342 bound_to 10162
  140.6799  143.8105  150.7107 LP  0  0  0  0  0  0  0  0  0  0  0  0  # atno 17343 bound_to 10162
  156.0236  130.3787  150.1887 LP  0  0  0  0  0  0  0  0  0  0  0  0  # atno 17370 bound_to 10713
  157.0077  130.9941  151.3374 LP  0  0  0  0  0  0  0  0  0  0  0  0  # atno 17371 bound_to 10713
  139.8750  134.9919  156.5573 LP  0  0  0  0  0  0  0  0  0  0  0  0  # atno 17394 bound_to 11000
  140.8162  133.8389  155.8854 LP  0  0  0  0  0  0  0  0  0  0  0  0  # atno 17395 bound_to 11000

$$$$
