AV-unprocessed.smi:1594|AV-procd|sdf|6414|dock8
  -GOLD-   22720 7 53D 1   1.00000     0.00000
 Structure written by MMmdl.
 35 36  0  0  0  0  0  0  0  0  1 V2000
  155.6446  138.2937  162.3790 C   0  0  0  0  0  0  0  0  0  0  0  0
  154.7965  137.8499  161.2221 C   0  0  0  0  0  0  0  0  0  0  0  0
  154.2465  136.6473  161.2369 N   0  0  0  0  0  0  0  0  0  0  0  0
  153.5274  136.5407  160.0425 O   0  0  0  0  0  0  0  0  0  0  0  0
  153.6754  137.6970  159.3472 C   0  0  0  0  0  0  0  0  0  0  0  0
  152.9745  137.7836  158.0339 C   0  0  0  0  0  0  0  0  0  0  0  0
  154.4725  138.5690  160.0360 C   0  0  0  0  0  0  0  0  0  0  0  0
  154.9062  139.9608  159.6452 C   0  0  0  0  0  0  0  0  0  0  0  0
  153.7166  140.8314  159.2216 C   0  0  0  0  0  0  0  0  0  0  0  0
  153.0381  140.5507  158.2321 O   0  0  0  0  0  0  0  0  0  0  0  0
  153.4742  141.9002  159.9956 N   0  0  0  0  0  0  0  0  0  0  0  0
  152.3927  142.8595  159.7918 C   0  0  0  0  0  0  0  0  0  0  0  0
  152.5437  143.5348  158.4205 C   0  0  0  0  0  0  0  0  0  0  0  0
  151.5012  144.6517  158.2473 C   0  0  0  0  0  0  0  0  0  0  0  0
  151.6194  145.5965  159.3057 O   0  0  0  0  0  0  0  0  0  0  0  0
  151.3637  145.0295  160.5861 C   0  0  0  0  0  0  0  0  0  0  0  0
  152.3973  143.9339  160.8930 C   0  0  0  0  0  0  0  0  0  0  0  0
  155.4012  139.3153  162.6715 H   0  0  0  0  0  0  0  0  0  0  0  0
  156.7027  138.2662  162.1184 H   0  0  0  0  0  0  0  0  0  0  0  0
  155.5002  137.6575  163.2532 H   0  0  0  0  0  0  0  0  0  0  0  0
  152.6140  138.7964  157.8537 H   0  0  0  0  0  0  0  0  0  0  0  0
  152.1173  137.1111  158.0027 H   0  0  0  0  0  0  0  0  0  0  0  0
  153.6475  137.5138  157.2201 H   0  0  0  0  0  0  0  0  0  0  0  0
  155.4197  140.4516  160.4730 H   0  0  0  0  0  0  0  0  0  0  0  0
  155.6195  139.9322  158.8208 H   0  0  0  0  0  0  0  0  0  0  0  0
  154.0809  142.0593  160.7870 H   0  0  0  0  0  0  0  0  0  0  0  0
  151.4358  142.3342  159.8100 H   0  0  0  0  0  0  0  0  0  0  0  0
  153.5431  143.9614  158.3234 H   0  0  0  0  0  0  0  0  0  0  0  0
  152.4386  142.7991  157.6224 H   0  0  0  0  0  0  0  0  0  0  0  0
  151.6576  145.1654  157.2986 H   0  0  0  0  0  0  0  0  0  0  0  0
  150.4907  144.2410  158.2235 H   0  0  0  0  0  0  0  0  0  0  0  0
  151.4197  145.8171  161.3377 H   0  0  0  0  0  0  0  0  0  0  0  0
  150.3499  144.6278  160.6220 H   0  0  0  0  0  0  0  0  0  0  0  0
  152.1856  143.4863  161.8646 H   0  0  0  0  0  0  0  0  0  0  0  0
  153.3873  144.3863  160.9666 H   0  0  0  0  0  0  0  0  0  0  0  0
  1  2  1  0  0  0  0
  1 18  1  0  0  0  0
  1 19  1  0  0  0  0
  1 20  1  0  0  0  0
  2  7  1  0  0  0  0
  2  3  2  0  0  0  0
  3  4  1  0  0  0  0
  4  5  1  0  0  0  0
  5  6  1  0  0  0  0
  5  7  2  0  0  0  0
  6 21  1  0  0  0  0
  6 22  1  0  0  0  0
  6 23  1  0  0  0  0
  7  8  1  0  0  0  0
  8  9  1  0  0  0  0
  8 24  1  0  0  0  0
  8 25  1  0  0  0  0
  9 10  2  0  0  0  0
  9 11  1  0  0  0  0
 11 12  1  0  0  0  0
 11 26  1  0  0  0  0
 12 17  1  0  0  0  0
 12 13  1  0  0  0  0
 12 27  1  0  0  0  0
 13 14  1  0  0  0  0
 13 28  1  0  0  0  0
 13 29  1  0  0  0  0
 14 15  1  0  0  0  0
 14 30  1  0  0  0  0
 14 31  1  0  0  0  0
 15 16  1  0  0  0  0
 16 17  1  0  0  0  0
 16 32  1  0  0  0  0
 16 33  1  0  0  0  0
 17 34  1  0  0  0  0
 17 35  1  0  0  0  0
M  END
> <s_m_source_file>
AV-unprocessed.smi

> <i_m_source_file_index>
1594

> <i_lp_mmshare_version>
43012

> <i_f3d_flags>
0

> <s_epik_input>
W0NIM11jMW5vYyhbQ0gzXSljMVtDSDJdQyg9TylbTkhdW0NIXTJbQ0gyXVtDSDJdT1tDSDJdW0NIMl0y

> <s_epik_cmdline>
J2VwaWtfcHl0aG9uJywgJy1waCcsICc3LjAnLCAnLXRuJywgJzgnLCAnLW1hJywgJzIwMCcsICctbWV0YWxfYmluZGluZycsICctaW1hZScsICc8aW5maWxlLm1hZT4nLCAnLW9tYWUnLCAnPG91dGZpbGUubWFlPic=

> <r_lp_tautomer_probability>
1

> <r_epik_Ionization_Penalty>
2.34123e-08

> <r_epik_Ionization_Penalty_Charging>
0

> <r_epik_Ionization_Penalty_Neutral>
2.34123e-08

> <r_epik_State_Penalty>
-0

> <r_epik_Charging_Adjusted_Penalty>
0

> <i_epik_Tot_Q>
0

> <i_epik_Tot_abs_Q>
0

> <r_epik_Metal_State_Penalty>
-0

> <b_epik_Metal_Only>
0

> <s_lp_Force_Field>
OPLS_2005

> <r_lp_Energy>
1.65601

> <b_lp_Chiralities_Consistent>
1

> <s_lp_Variant>
AV-unprocessed.smi:1594-1

> <Gold.Version>
5.8.1

> <Gold.Id.Protein>
6NUR|6NUR_protein|mol2

> <Gold.PLP.Fitness>
38.6805

> <Gold.PLP.PLP>
-33.5903

> <Gold.PLP.part.hbond>
-2.7796

> <Gold.PLP.part.metal>
0.0000

> <Gold.PLP.part.buried>
-3.8199

> <Gold.PLP.part.nonpolar>
-26.9202

> <Gold.PLP.part.repulsive>
0.1775

> <Gold.PLP.ligand.clash>
0.0000

> <Gold.PLP.ligand.torsion>
0.0976

> <Gold.PLP.Chemscore.Hbond>
1.7613

> <Gold.PLP.Chemscore.CHOScore>
0.0000

> <Gold.PLP.Chemscore.Metal>
0.0000

> <Gold.Chemscore.Hbonds>
donor molecule, donor type, donor heavy atom, donor atom, acceptor molecule, acceptor atom, score
      P1  H  6896  6909       L1     4  0.86
      P1  H  7997  8008       L1    10  0.67

> <Gold.PLP.Chemscore.Internal.Correction>
0.0016

> <Gold.Rescore>
     Score         DG    S(hbond)    S(metal)    S(lipo)     H(rot)  DE(clash)    DE(int)     intcor
     16.14     -18.65       1.72        0.00      93.62       1.38       0.28       2.23       ----

> <Gold.Chemscore.Fitness>
16.1431

> <Gold.Chemscore.DG>
-18.6537

> <Gold.Chemscore.ZeroCoef>
-5.4800

> <Gold.Chemscore.Hbond>
1.7215

> <Gold.Chemscore.Metal>
0.0000

> <Gold.Chemscore.Lipo>
93.6185

> <Gold.Chemscore.Internal_Hbond>
0.0000

> <Gold.Chemscore.DEClash>
0.2800

> <Gold.Chemscore.DEInternal>
2.2306

> <Gold.Chemscore.Rot>
1.3786

> <Gold.Chemscore.Internal.Correction>
   9.000000E+99

> <Gold.Chemscore.Hbonds>
donor molecule, donor type, donor heavy atom, donor atom, acceptor molecule, acceptor atom, score
      P1  H  6896  6909       L1     4  0.66
      P1  H  7997  8008       L1    10  0.11

> <Gold.Chemscore.Hbond.Weighted>
-5.7496

> <Gold.Chemscore.Metal.Weighted>
-0.0000

> <Gold.Chemscore.Lipo.Weighted>
-10.9534

> <Gold.Chemscore.Internal_Hbond.Weighted>
0.0000

> <Gold.Chemscore.DEClash.Weighted>
0.2800

> <Gold.Chemscore.DEInternal.Weighted>
2.2306

> <Gold.Chemscore.Rot.Weighted>
3.5293

> <Gold.Chemscore.Internal.Correction.Weighted>
   9.000000E+99

> <Gold.Protein.RotatedTorsions>
[ 6907 6896 6895 6894 ] final  167.66 input  -60.11 | X-H torsion
[ 7974 7965 7964 7962 ] final  -78.46 input  175.53 | X-H torsion
[ 8008 7997 7996 7995 ] final  -84.25 input   59.86 | X-H torsion
[ 10167 10162 10161 10158 ] final  169.67 input  -65.29 | X-H torsion
[ 10718 10713 10712 10709 ] final   88.16 input   66.30 | X-H torsion
[ 10763 10752 10751 10750 ] final  -18.09 input  -60.55 | X-H torsion
[ 11005 11000 10999 10996 ] final -129.66 input  -57.11 | X-H torsion

> <Gold.Protein.ActiveResidues>
 VAL166  LYS551  ARG553  GLY616  TRP617  ASP618  TYR619  PRO620  LYS621  CYS622 
 ASP623  PHE694  ASN695  SER759  ASP760  ASP761  ALA762  ILE779  LEU786  VAL792 
 PHE793  MET794  SER795  GLU796  ALA797  LYS798  CYS799  TRP800  GLU811  SER814 

> <Gold.Protein.RotatedAtoms>
  151.8598  133.3455  159.3699 H   0  0  0  0  0  0  0  0  0  0  0  0  # atno 6907 bound_to 6896
  150.7182  134.5218  159.5666 H   0  0  0  0  0  0  0  0  0  0  0  0  # atno 6908 bound_to 6896
  152.2729  134.7914  160.0462 H   0  0  0  0  0  0  0  0  0  0  0  0  # atno 6909 bound_to 6896
  145.5862  140.9438  143.1317 H   0  0  0  0  0  0  0  0  0  0  0  0  # atno 7974 bound_to 7965
  154.6278  140.0607  156.9694 H   0  0  0  0  0  0  0  0  0  0  0  0  # atno 8008 bound_to 7997
  155.1714  140.3291  155.4373 H   0  0  0  0  0  0  0  0  0  0  0  0  # atno 8009 bound_to 7997
  156.2466  140.1913  156.6816 H   0  0  0  0  0  0  0  0  0  0  0  0  # atno 8010 bound_to 7997
  139.4998  144.3681  151.9754 H   0  0  0  0  0  0  0  0  0  0  0  0  # atno 10167 bound_to 10162
  157.6947  131.0284  150.3233 H   0  0  0  0  0  0  0  0  0  0  0  0  # atno 10718 bound_to 10713
  153.5839  135.7004  153.5451 H   0  0  0  0  0  0  0  0  0  0  0  0  # atno 10763 bound_to 10752
  153.3237  135.4067  155.1437 H   0  0  0  0  0  0  0  0  0  0  0  0  # atno 10764 bound_to 10752
  154.8612  135.3702  154.5368 H   0  0  0  0  0  0  0  0  0  0  0  0  # atno 10765 bound_to 10752
  140.9412  134.1190  157.4148 H   0  0  0  0  0  0  0  0  0  0  0  0  # atno 11005 bound_to 11000
  144.7371  139.7553  143.7325 LP  0  0  0  0  0  0  0  0  0  0  0  0  # atno 17320 bound_to 7965
  146.1680  139.4819  142.9946 LP  0  0  0  0  0  0  0  0  0  0  0  0  # atno 17321 bound_to 7965
  140.3117  144.3530  150.6032 LP  0  0  0  0  0  0  0  0  0  0  0  0  # atno 17342 bound_to 10162
  140.5793  143.2174  151.7457 LP  0  0  0  0  0  0  0  0  0  0  0  0  # atno 17343 bound_to 10162
  156.3717  130.3864  149.7170 LP  0  0  0  0  0  0  0  0  0  0  0  0  # atno 17370 bound_to 10713
  156.4582  130.7939  151.2960 LP  0  0  0  0  0  0  0  0  0  0  0  0  # atno 17371 bound_to 10713
  139.8821  135.0037  156.6204 LP  0  0  0  0  0  0  0  0  0  0  0  0  # atno 17394 bound_to 11000
  140.7731  133.8722  155.8507 LP  0  0  0  0  0  0  0  0  0  0  0  0  # atno 17395 bound_to 11000

$$$$
