AV-unprocessed.smi:3031|AV-procd|sdf|11544|dock9
  -GOLD-   2272016493D 1   1.00000     0.00000
 Structure written by MMmdl.
 47 48  0  0  0  0  0  0  0  0  2 V2000
  151.2891  142.6229  158.0562 C   0  0  0  0  0  0  0  0  0  0  0  0
  150.9109  141.7623  156.8854 C   0  0  0  0  0  0  0  0  0  0  0  0
  151.7088  140.7809  156.2312 C   0  0  0  0  0  0  0  0  0  0  0  0
  151.0825  140.1996  155.2211 N   0  0  0  0  0  0  0  0  0  0  0  0
  149.8666  140.7843  155.1967 N   0  0  0  0  0  0  0  0  0  0  0  0
  148.8989  140.3923  154.1888 C   0  0  0  0  0  0  0  0  0  0  0  0
  148.8155  138.8626  153.9879 C   0  0  1  0  0  0  0  0  0  0  0  0
  148.2329  138.1875  155.2367 C   0  0  0  0  0  0  0  0  0  0  0  0
  147.9809  138.5203  152.8134 N   0  3  0  0  0  0  0  0  0  0  0  0
  146.5302  138.4025  153.0785 C   0  0  0  0  0  0  0  0  0  0  0  0
  145.8367  137.5586  151.9964 C   0  0  1  0  0  0  0  0  0  0  0  0
  146.6564  137.5918  150.8430 O   0  0  0  0  0  0  0  0  0  0  0  0
  145.6602  136.0882  152.4334 C   0  0  0  0  0  0  0  0  0  0  0  0
  145.6691  135.1096  151.3464 N   0  0  0  0  0  0  0  0  0  0  0  0
  144.3133  134.6786  151.0200 C   0  0  0  0  0  0  0  0  0  0  0  0
  144.2946  133.6502  149.8761 C   0  0  0  0  0  0  0  0  0  0  0  0
  145.1063  132.5345  150.2272 O   0  0  0  0  0  0  0  0  0  0  0  0
  146.4524  132.9028  150.5087 C   0  0  0  0  0  0  0  0  0  0  0  0
  146.4797  133.9325  151.6519 C   0  0  0  0  0  0  0  0  0  0  0  0
  149.7323  141.7255  156.1955 C   0  0  0  0  0  0  0  0  0  0  0  0
  151.5298  142.0228  158.9338 H   0  0  0  0  0  0  0  0  0  0  0  0
  150.4836  143.2999  158.3412 H   0  0  0  0  0  0  0  0  0  0  0  0
  152.1627  143.2373  157.8374 H   0  0  0  0  0  0  0  0  0  0  0  0
  152.7208  140.4786  156.4574 H   0  0  0  0  0  0  0  0  0  0  0  0
  147.9263  140.7845  154.4897 H   0  0  0  0  0  0  0  0  0  0  0  0
  149.1535  140.8870  153.2503 H   0  0  0  0  0  0  0  0  0  0  0  0
  149.8192  138.4592  153.8430 H   0  0  0  0  0  0  0  0  0  0  0  0
  148.8443  138.3942  156.1158 H   0  0  0  0  0  0  0  0  0  0  0  0
  148.1902  137.1046  155.1156 H   0  0  0  0  0  0  0  0  0  0  0  0
  147.2220  138.5397  155.4456 H   0  0  0  0  0  0  0  0  0  0  0  0
  148.1000  139.2450  152.1201 H   0  0  0  0  0  0  0  0  0  0  0  0
  146.3443  137.9712  154.0613 H   0  0  0  0  0  0  0  0  0  0  0  0
  146.1116  139.4096  153.0949 H   0  0  0  0  0  0  0  0  0  0  0  0
  144.8655  138.0004  151.7669 H   0  0  0  0  0  0  0  0  0  0  0  0
  147.5062  137.2424  151.0657 H   0  0  0  0  0  0  0  0  0  0  0  0
  146.3972  135.8227  153.1936 H   0  0  0  0  0  0  0  0  0  0  0  0
  144.6937  136.0091  152.9327 H   0  0  0  0  0  0  0  0  0  0  0  0
  143.8414  134.2424  151.9018 H   0  0  0  0  0  0  0  0  0  0  0  0
  143.7078  135.5405  150.7372 H   0  0  0  0  0  0  0  0  0  0  0  0
  143.2768  133.3066  149.6911 H   0  0  0  0  0  0  0  0  0  0  0  0
  144.6568  134.0963  148.9486 H   0  0  0  0  0  0  0  0  0  0  0  0
  147.0156  132.0121  150.7870 H   0  0  0  0  0  0  0  0  0  0  0  0
  146.9202  133.3102  149.6113 H   0  0  0  0  0  0  0  0  0  0  0  0
  147.5142  134.2234  151.8324 H   0  0  0  0  0  0  0  0  0  0  0  0
  146.1209  133.4636  152.5693 H   0  0  0  0  0  0  0  0  0  0  0  0
  148.8223  142.2928  156.3257 H   0  0  0  0  0  0  0  0  0  0  0  0
  148.3155  137.6504  152.4238 H   0  0  0  0  0  0  0  0  0  0  0  0
  1  2  1  0  0  0  0
  1 21  1  0  0  0  0
  1 22  1  0  0  0  0
  1 23  1  0  0  0  0
  2 20  2  0  0  0  0
  2  3  1  0  0  0  0
  3  4  2  0  0  0  0
  3 24  1  0  0  0  0
  4  5  1  0  0  0  0
  5  6  1  0  0  0  0
  5 20  1  0  0  0  0
  6  7  1  0  0  0  0
  6 25  1  0  0  0  0
  6 26  1  0  0  0  0
  7  8  1  0  0  0  0
  7  9  1  0  0  0  0
  7 27  1  0  0  0  0
  8 28  1  0  0  0  0
  8 29  1  0  0  0  0
  8 30  1  0  0  0  0
  9 10  1  0  0  0  0
  9 31  1  0  0  0  0
  9 47  1  0  0  0  0
 10 11  1  0  0  0  0
 10 32  1  0  0  0  0
 10 33  1  0  0  0  0
 11 12  1  0  0  0  0
 11 13  1  0  0  0  0
 11 34  1  0  0  0  0
 12 35  1  0  0  0  0
 13 14  1  0  0  0  0
 13 36  1  0  0  0  0
 13 37  1  0  0  0  0
 14 19  1  0  0  0  0
 14 15  1  0  0  0  0
 15 16  1  0  0  0  0
 15 38  1  0  0  0  0
 15 39  1  0  0  0  0
 16 17  1  0  0  0  0
 16 40  1  0  0  0  0
 16 41  1  0  0  0  0
 17 18  1  0  0  0  0
 18 19  1  0  0  0  0
 18 42  1  0  0  0  0
 18 43  1  0  0  0  0
 19 44  1  0  0  0  0
 19 45  1  0  0  0  0
 20 46  1  0  0  0  0
M  CHG  1   9   1
M  END
> <s_m_source_file>
AV-unprocessed.smi

> <i_m_source_file_index>
3031

> <i_lp_mmshare_version>
43012

> <i_f3d_flags>
0

> <s_epik_input>
W0NIM11jMVtjSF1ubihbY0hdMSlbQ0gyXVtDQEhdKFtDSDNdKVtOSF1bQ0gyXVtDQEhdKFtPSF0pW0NIMl1OMltDSDJdW0NIMl1PW0NIMl1bQ0gyXTI=

> <s_epik_cmdline>
J2VwaWtfcHl0aG9uJywgJy1waCcsICc3LjAnLCAnLXRuJywgJzgnLCAnLW1hJywgJzIwMCcsICctbWV0YWxfYmluZGluZycsICctaW1hZScsICc8aW5maWxlLm1hZT4nLCAnLW9tYWUnLCAnPG91dGZpbGUubWFlPic=

> <r_lp_tautomer_probability>
1

> <r_epik_Ionization_Penalty>
0.108564

> <r_epik_Ionization_Penalty_Charging>
0.01811

> <r_epik_Ionization_Penalty_Neutral>
0.0904541

> <r_epik_State_Penalty>
0.141043

> <r_epik_Charging_Adjusted_Penalty>
0.159153

> <i_epik_Tot_Q>
1

> <i_epik_Tot_abs_Q>
1

> <r_epik_Metal_State_Penalty>
0.141052

> <b_epik_Metal_Only>
0

> <s_lp_Force_Field>
OPLS_2005

> <r_lp_Energy>
31.0841

> <b_lp_Chiralities_Consistent>
1

> <s_lp_Variant>
AV-unprocessed.smi:3031-4

> <Gold.Version>
5.8.1

> <Gold.Id.Protein>
6NUR|6NUR_protein|mol2

> <Gold.PLP.Fitness>
47.8781

> <Gold.PLP.PLP>
-36.1320

> <Gold.PLP.part.hbond>
-5.7114

> <Gold.PLP.part.metal>
0.0000

> <Gold.PLP.part.buried>
-2.6045

> <Gold.PLP.part.nonpolar>
-28.8987

> <Gold.PLP.part.repulsive>
0.4199

> <Gold.PLP.ligand.clash>
0.0000

> <Gold.PLP.ligand.torsion>
2.1176

> <Gold.PLP.Chemscore.Hbond>
4.5360

> <Gold.PLP.Chemscore.CHOScore>
0.7517

> <Gold.PLP.Chemscore.Metal>
0.0000

> <Gold.Chemscore.Hbonds>
donor molecule, donor type, donor heavy atom, donor atom, acceptor molecule, acceptor atom, score
      L1  H     9    31       P1  7957  0.74
      L1  H     9    47       P1  7948  2.00
      L1  H    12    35       P1  7948  1.00
      P1  H  7989  7998       L1     4  0.75
      L1  C    20    46       P1  8028  0.75

> <Gold.PLP.Chemscore.Internal.Correction>
0.1182

> <Gold.Rescore>
     Score         DG    S(hbond)    S(metal)    S(lipo)     H(rot)  DE(clash)    DE(int)     intcor
     16.20     -18.59       2.89        0.00      86.95       2.63       0.08       2.31       ----

> <Gold.Chemscore.Fitness>
16.1965

> <Gold.Chemscore.DG>
-18.5944

> <Gold.Chemscore.ZeroCoef>
-5.4800

> <Gold.Chemscore.Hbond>
2.8940

> <Gold.Chemscore.Metal>
0.0000

> <Gold.Chemscore.Lipo>
86.9539

> <Gold.Chemscore.Internal_Hbond>
0.0000

> <Gold.Chemscore.DEClash>
0.0836

> <Gold.Chemscore.DEInternal>
2.3143

> <Gold.Chemscore.Rot>
2.6270

> <Gold.Chemscore.Internal.Correction>
   9.000000E+99

> <Gold.Chemscore.Hbonds>
donor molecule, donor type, donor heavy atom, donor atom, acceptor molecule, acceptor atom, score
      L1  H     9    31       P1  7957  0.73
      L1  H     9    47       P1  7948  1.00
      L1  H    12    35       P1  7948  1.00
      P1  H  7989  7998       L1     4  0.08

> <Gold.Chemscore.Hbond.Weighted>
-9.6659

> <Gold.Chemscore.Metal.Weighted>
-0.0000

> <Gold.Chemscore.Lipo.Weighted>
-10.1736

> <Gold.Chemscore.Internal_Hbond.Weighted>
0.0000

> <Gold.Chemscore.DEClash.Weighted>
0.0836

> <Gold.Chemscore.DEInternal.Weighted>
2.3143

> <Gold.Chemscore.Rot.Weighted>
6.7251

> <Gold.Chemscore.Internal.Correction.Weighted>
   9.000000E+99

> <Gold.Protein.RotatedTorsions>
[ 6907 6896 6895 6894 ] final  161.07 input  -60.11 | X-H torsion
[ 7974 7965 7964 7962 ] final -140.80 input  175.53 | X-H torsion
[ 8008 7997 7996 7995 ] final -152.51 input   59.86 | X-H torsion
[ 10167 10162 10161 10158 ] final   95.02 input  -65.29 | X-H torsion
[ 10718 10713 10712 10709 ] final  128.35 input   66.30 | X-H torsion
[ 10763 10752 10751 10750 ] final -114.06 input  -60.55 | X-H torsion
[ 11005 11000 10999 10996 ] final   39.24 input  -57.11 | X-H torsion

> <Gold.Protein.ActiveResidues>
 VAL166  LYS551  ARG553  GLY616  TRP617  ASP618  TYR619  PRO620  LYS621  CYS622 
 ASP623  PHE694  ASN695  SER759  ASP760  ASP761  ALA762  ILE779  LEU786  VAL792 
 PHE793  MET794  SER795  GLU796  ALA797  LYS798  CYS799  TRP800  GLU811  SER814 

> <Gold.Protein.RotatedAtoms>
  151.9611  133.3695  159.4035 H   0  0  0  0  0  0  0  0  0  0  0  0  # atno 6907 bound_to 6896
  150.6964  134.4240  159.5227 H   0  0  0  0  0  0  0  0  0  0  0  0  # atno 6908 bound_to 6896
  152.1929  134.8656  160.0566 H   0  0  0  0  0  0  0  0  0  0  0  0  # atno 6909 bound_to 6896
  144.8569  140.6157  143.5353 H   0  0  0  0  0  0  0  0  0  0  0  0  # atno 7974 bound_to 7965
  155.6563  140.0717  157.2569 H   0  0  0  0  0  0  0  0  0  0  0  0  # atno 8008 bound_to 7997
  154.4152  140.1724  156.1779 H   0  0  0  0  0  0  0  0  0  0  0  0  # atno 8009 bound_to 7997
  155.9735  140.3360  155.6600 H   0  0  0  0  0  0  0  0  0  0  0  0  # atno 8010 bound_to 7997
  139.8028  144.6806  150.9742 H   0  0  0  0  0  0  0  0  0  0  0  0  # atno 10167 bound_to 10162
  157.5253  131.1098  150.9093 H   0  0  0  0  0  0  0  0  0  0  0  0  # atno 10718 bound_to 10713
  154.8423  135.4432  154.1446 H   0  0  0  0  0  0  0  0  0  0  0  0  # atno 10763 bound_to 10752
  153.2622  135.6937  153.7572 H   0  0  0  0  0  0  0  0  0  0  0  0  # atno 10764 bound_to 10752
  153.6844  135.3397  155.3162 H   0  0  0  0  0  0  0  0  0  0  0  0  # atno 10765 bound_to 10752
  140.2047  134.3827  155.8078 H   0  0  0  0  0  0  0  0  0  0  0  0  # atno 11005 bound_to 11000
  145.4388  139.1538  143.3981 LP  0  0  0  0  0  0  0  0  0  0  0  0  # atno 17320 bound_to 7965
  146.2830  140.4509  142.8769 LP  0  0  0  0  0  0  0  0  0  0  0  0  # atno 17321 bound_to 7965
  140.7820  143.4264  151.0762 LP  0  0  0  0  0  0  0  0  0  0  0  0  # atno 17342 bound_to 10162
  139.7935  143.8185  152.3154 LP  0  0  0  0  0  0  0  0  0  0  0  0  # atno 17343 bound_to 10162
  156.9691  130.5484  149.5289 LP  0  0  0  0  0  0  0  0  0  0  0  0  # atno 17370 bound_to 10713
  156.0382  130.5467  150.8706 LP  0  0  0  0  0  0  0  0  0  0  0  0  # atno 17371 bound_to 10713
  141.2227  133.7112  156.8317 LP  0  0  0  0  0  0  0  0  0  0  0  0  # atno 17394 bound_to 11000
  140.2015  134.8893  157.3174 LP  0  0  0  0  0  0  0  0  0  0  0  0  # atno 17395 bound_to 11000

$$$$
