AV-unprocessed.smi:3198|AV-procd|sdf|12228|dock3
  -GOLD-   2272018 63D 1   1.00000     0.00000
 Structure written by MMmdl.
 38 39  0  0  0  0  0  0  0  0  2 V2000
  151.8591  145.3594  158.6605 C   0  0  0  0  0  0  0  0  0  0  0  0
  151.7039  143.9158  158.2322 C   0  0  0  0  0  0  0  0  0  0  0  0
  152.3437  142.8563  158.9078 C   0  0  0  0  0  0  0  0  0  0  0  0
  152.1515  141.5381  158.4496 C   0  0  0  0  0  0  0  0  0  0  0  0
  151.3241  141.3072  157.3319 C   0  0  0  0  0  0  0  0  0  0  0  0
  150.6932  142.4032  156.6942 C   0  0  0  0  0  0  0  0  0  0  0  0
  149.8314  142.2946  155.5926 N   0  0  0  0  0  0  0  0  0  0  0  0
  149.5271  140.9878  155.0213 C   0  0  0  0  0  0  0  0  0  0  0  0
  148.2778  140.3498  155.6490 C   0  0  0  0  0  0  0  0  0  0  0  0
  147.2604  141.3299  155.7432 O   0  0  0  0  0  0  0  0  0  0  0  0
  146.6659  141.6604  154.5009 C   0  0  0  0  0  0  0  0  0  0  0  0
  146.0293  143.0535  154.6066 C   0  0  1  0  0  0  0  0  0  0  0  0
  145.5854  143.6802  153.2816 C   0  0  0  0  0  0  0  0  0  0  0  0
  144.3869  144.5376  153.6680 C   0  0  0  0  0  0  0  0  0  0  0  0
  144.1625  144.2369  155.1519 C   0  0  0  0  0  0  0  0  0  0  0  0
  144.8376  143.0088  155.3753 O   0  0  0  0  0  0  0  0  0  0  0  0
  150.9163  143.6504  157.1662 N   0  3  0  0  0  0  0  0  0  0  0  0
  152.6295  145.4610  159.4254 H   0  0  0  0  0  0  0  0  0  0  0  0
  150.9207  145.7363  159.0677 H   0  0  0  0  0  0  0  0  0  0  0  0
  152.1413  145.9814  157.8104 H   0  0  0  0  0  0  0  0  0  0  0  0
  152.9732  143.0478  159.7648 H   0  0  0  0  0  0  0  0  0  0  0  0
  152.6312  140.7112  158.9520 H   0  0  0  0  0  0  0  0  0  0  0  0
  151.1794  140.2943  156.9885 H   0  0  0  0  0  0  0  0  0  0  0  0
  149.1304  143.0126  155.4791 H   0  0  0  0  0  0  0  0  0  0  0  0
  149.3426  141.1442  153.9583 H   0  0  0  0  0  0  0  0  0  0  0  0
  150.3845  140.3179  155.0789 H   0  0  0  0  0  0  0  0  0  0  0  0
  147.9483  139.4963  155.0542 H   0  0  0  0  0  0  0  0  0  0  0  0
  148.5106  139.9822  156.6492 H   0  0  0  0  0  0  0  0  0  0  0  0
  147.4160  141.6615  153.7086 H   0  0  0  0  0  0  0  0  0  0  0  0
  145.9121  140.9161  154.2404 H   0  0  0  0  0  0  0  0  0  0  0  0
  146.7251  143.7290  155.1081 H   0  0  0  0  0  0  0  0  0  0  0  0
  146.3842  144.2589  152.8172 H   0  0  0  0  0  0  0  0  0  0  0  0
  145.2696  142.9190  152.5675 H   0  0  0  0  0  0  0  0  0  0  0  0
  144.5684  145.6000  153.5026 H   0  0  0  0  0  0  0  0  0  0  0  0
  143.5150  144.2523  153.0785 H   0  0  0  0  0  0  0  0  0  0  0  0
  144.6140  145.0122  155.7730 H   0  0  0  0  0  0  0  0  0  0  0  0
  143.1061  144.1650  155.4115 H   0  0  0  0  0  0  0  0  0  0  0  0
  150.4603  144.4345  156.6994 H   0  0  0  0  0  0  0  0  0  0  0  0
  1  2  1  0  0  0  0
  1 18  1  0  0  0  0
  1 19  1  0  0  0  0
  1 20  1  0  0  0  0
  2 17  1  0  0  0  0
  2  3  2  0  0  0  0
  3  4  1  0  0  0  0
  3 21  1  0  0  0  0
  4  5  2  0  0  0  0
  4 22  1  0  0  0  0
  5  6  1  0  0  0  0
  5 23  1  0  0  0  0
  6  7  1  0  0  0  0
  6 17  2  0  0  0  0
  7  8  1  0  0  0  0
  7 24  1  0  0  0  0
  8  9  1  0  0  0  0
  8 25  1  0  0  0  0
  8 26  1  0  0  0  0
  9 10  1  0  0  0  0
  9 27  1  0  0  0  0
  9 28  1  0  0  0  0
 10 11  1  0  0  0  0
 11 12  1  0  0  0  0
 11 29  1  0  0  0  0
 11 30  1  0  0  0  0
 12 16  1  0  0  0  0
 12 13  1  0  0  0  0
 12 31  1  0  0  0  0
 13 14  1  0  0  0  0
 13 32  1  0  0  0  0
 13 33  1  0  0  0  0
 14 15  1  0  0  0  0
 14 34  1  0  0  0  0
 14 35  1  0  0  0  0
 15 16  1  0  0  0  0
 15 36  1  0  0  0  0
 15 37  1  0  0  0  0
 17 38  1  0  0  0  0
M  CHG  1  17   1
M  END
> <s_m_source_file>
AV-unprocessed.smi

> <i_m_source_file_index>
3198

> <i_lp_mmshare_version>
43012

> <i_f3d_flags>
0

> <s_epik_input>
W0NIM11jMVtjSF1bY0hdW2NIXWMobjEpW05IXVtDSDJdW0NIMl1PW0NIMl1bQ0BASF0yW0NIMl1bQ0gyXVtDSDJdTzI=

> <s_epik_cmdline>
J2VwaWtfcHl0aG9uJywgJy1waCcsICc3LjAnLCAnLXRuJywgJzgnLCAnLW1hJywgJzIwMCcsICctbWV0YWxfYmluZGluZycsICctaW1hZScsICc8aW5maWxlLm1hZT4nLCAnLW9tYWUnLCAnPG91dGZpbGUubWFlPic=

> <r_lp_tautomer_probability>
0.999994

> <r_epik_Ionization_Penalty>
0.0710016

> <r_epik_Ionization_Penalty_Charging>
0.0710012

> <r_epik_Ionization_Penalty_Neutral>
3.47026e-07

> <r_epik_State_Penalty>
0.0622974

> <r_epik_Charging_Adjusted_Penalty>
0.133299

> <i_epik_Tot_Q>
1

> <i_epik_Tot_abs_Q>
1

> <r_epik_Metal_State_Penalty>
2.79497

> <b_epik_Metal_Only>
0

> <s_lp_Force_Field>
OPLS_2005

> <r_lp_Energy>
24.0011

> <b_lp_Chiralities_Consistent>
1

> <s_lp_Variant>
AV-unprocessed.smi:3198-2

> <Gold.Version>
5.8.1

> <Gold.Id.Protein>
6NUR|6NUR_protein|mol2

> <Gold.PLP.Fitness>
46.5541

> <Gold.PLP.PLP>
-37.2599

> <Gold.PLP.part.hbond>
-2.0000

> <Gold.PLP.part.metal>
0.0000

> <Gold.PLP.part.buried>
-6.0338

> <Gold.PLP.part.nonpolar>
-31.1210

> <Gold.PLP.part.repulsive>
0.3982

> <Gold.PLP.ligand.clash>
0.0000

> <Gold.PLP.ligand.torsion>
0.4832

> <Gold.PLP.Chemscore.Hbond>
3.4103

> <Gold.PLP.Chemscore.CHOScore>
0.0000

> <Gold.PLP.Chemscore.Metal>
0.0000

> <Gold.Chemscore.Hbonds>
donor molecule, donor type, donor heavy atom, donor atom, acceptor molecule, acceptor atom, score
      L1  H     7    24       P1  8028  1.70
      L1  H    17    38       P1  8028  1.57

> <Gold.PLP.Chemscore.Internal.Correction>
0.0298

> <Gold.Rescore>
     Score         DG    S(hbond)    S(metal)    S(lipo)     H(rot)  DE(clash)    DE(int)     intcor
     16.78     -17.50       1.60        0.00      94.52       1.71       0.12       0.60       ----

> <Gold.Chemscore.Fitness>
16.7846

> <Gold.Chemscore.DG>
-17.5026

> <Gold.Chemscore.ZeroCoef>
-5.4800

> <Gold.Chemscore.Hbond>
1.5965

> <Gold.Chemscore.Metal>
0.0000

> <Gold.Chemscore.Lipo>
94.5161

> <Gold.Chemscore.Internal_Hbond>
0.0000

> <Gold.Chemscore.DEClash>
0.1209

> <Gold.Chemscore.DEInternal>
0.5971

> <Gold.Chemscore.Rot>
1.7063

> <Gold.Chemscore.Internal.Correction>
   9.000000E+99

> <Gold.Chemscore.Hbonds>
donor molecule, donor type, donor heavy atom, donor atom, acceptor molecule, acceptor atom, score
      L1  H     7    24       P1  8028  0.83
      L1  H    17    38       P1  8028  0.75

> <Gold.Chemscore.Hbond.Weighted>
-5.3323

> <Gold.Chemscore.Metal.Weighted>
-0.0000

> <Gold.Chemscore.Lipo.Weighted>
-11.0584

> <Gold.Chemscore.Internal_Hbond.Weighted>
0.0000

> <Gold.Chemscore.DEClash.Weighted>
0.1209

> <Gold.Chemscore.DEInternal.Weighted>
0.5971

> <Gold.Chemscore.Rot.Weighted>
4.3681

> <Gold.Chemscore.Internal.Correction.Weighted>
   9.000000E+99

> <Gold.Protein.RotatedTorsions>
[ 6907 6896 6895 6894 ] final  150.06 input  -60.11 | X-H torsion
[ 7974 7965 7964 7962 ] final -113.03 input  175.53 | X-H torsion
[ 8008 7997 7996 7995 ] final   85.44 input   59.86 | X-H torsion
[ 10167 10162 10161 10158 ] final  102.66 input  -65.29 | X-H torsion
[ 10718 10713 10712 10709 ] final   -2.57 input   66.30 | X-H torsion
[ 10763 10752 10751 10750 ] final  -65.51 input  -60.55 | X-H torsion
[ 11005 11000 10999 10996 ] final   36.54 input  -57.11 | X-H torsion

> <Gold.Protein.ActiveResidues>
 VAL166  LYS551  ARG553  GLY616  TRP617  ASP618  TYR619  PRO620  LYS621  CYS622 
 ASP623  PHE694  ASN695  SER759  ASP760  ASP761  ALA762  ILE779  LEU786  VAL792 
 PHE793  MET794  SER795  GLU796  ALA797  LYS798  CYS799  TRP800  GLU811  SER814 

> <Gold.Protein.RotatedAtoms>
  152.1195  133.4345  159.4668 H   0  0  0  0  0  0  0  0  0  0  0  0  # atno 6907 bound_to 6896
  150.6871  134.2552  159.4536 H   0  0  0  0  0  0  0  0  0  0  0  0  # atno 6908 bound_to 6896
  152.0427  134.9701  160.0624 H   0  0  0  0  0  0  0  0  0  0  0  0  # atno 6909 bound_to 6896
  145.1369  140.8756  143.3725 H   0  0  0  0  0  0  0  0  0  0  0  0  # atno 7974 bound_to 7965
  155.9500  140.3401  155.6400 H   0  0  0  0  0  0  0  0  0  0  0  0  # atno 8008 bound_to 7997
  155.6932  140.0751  157.2458 H   0  0  0  0  0  0  0  0  0  0  0  0  # atno 8009 bound_to 7997
  154.4120  140.1653  156.2096 H   0  0  0  0  0  0  0  0  0  0  0  0  # atno 8010 bound_to 7997
  139.7331  144.7031  151.0692 H   0  0  0  0  0  0  0  0  0  0  0  0  # atno 10167 bound_to 10162
  156.7888  130.5355  149.5739 H   0  0  0  0  0  0  0  0  0  0  0  0  # atno 10718 bound_to 10713
  154.3460  135.6146  153.5619 H   0  0  0  0  0  0  0  0  0  0  0  0  # atno 10763 bound_to 10752
  152.9801  135.5781  154.4798 H   0  0  0  0  0  0  0  0  0  0  0  0  # atno 10764 bound_to 10752
  154.4510  135.2853  155.1758 H   0  0  0  0  0  0  0  0  0  0  0  0  # atno 10765 bound_to 10752
  140.2316  134.3521  155.7961 H   0  0  0  0  0  0  0  0  0  0  0  0  # atno 11005 bound_to 11000
  145.0575  139.3132  143.5897 LP  0  0  0  0  0  0  0  0  0  0  0  0  # atno 17320 bound_to 7965
  146.3509  140.0005  142.8676 LP  0  0  0  0  0  0  0  0  0  0  0  0  # atno 17321 bound_to 7965
  140.7774  143.5019  150.9761 LP  0  0  0  0  0  0  0  0  0  0  0  0  # atno 17342 bound_to 10162
  139.8707  143.7196  152.3166 LP  0  0  0  0  0  0  0  0  0  0  0  0  # atno 17343 bound_to 10162
  156.1172  130.6083  151.0138 LP  0  0  0  0  0  0  0  0  0  0  0  0  # atno 17370 bound_to 10713
  157.6610  131.0881  150.7837 LP  0  0  0  0  0  0  0  0  0  0  0  0  # atno 17371 bound_to 10713
  141.2217  133.7248  156.8740 LP  0  0  0  0  0  0  0  0  0  0  0  0  # atno 17394 bound_to 11000
  140.1745  134.9077  157.2874 LP  0  0  0  0  0  0  0  0  0  0  0  0  # atno 17395 bound_to 11000

$$$$
