AV-unprocessed.smi:2024|AV-procd|sdf|8192|dock6
  -GOLD-   2272010443D 1   1.00000     0.00000
 Structure written by MMmdl.
 44 45  0  0  0  0  0  0  0  0  2 V2000
  151.1849  140.1362  155.7543 C   0  0  0  0  0  0  0  0  0  0  0  0
  151.0435  139.5346  154.4327 N   0  0  0  0  0  0  0  0  0  0  0  0
  151.8723  138.3449  154.2437 C   0  0  0  0  0  0  0  0  0  0  0  0
  151.3566  137.1431  155.0610 C   0  0  0  0  0  0  0  0  0  0  0  0
  149.9484  136.8121  154.6932 N   0  3  0  0  0  0  0  0  0  0  0  0
  149.4148  135.5217  155.2694 C   0  0  0  0  0  0  0  0  0  0  0  0
  150.1096  134.2969  154.6245 C   0  0  0  0  0  0  0  0  0  0  0  0
  149.6595  135.4520  156.8006 C   0  0  0  0  0  0  0  0  0  0  0  0
  147.8720  135.4743  155.0357 C   0  0  0  0  0  0  0  0  0  0  0  0
  147.4788  135.2267  153.6480 N   0  0  0  0  0  0  0  0  0  0  0  0
  146.4982  134.4036  153.2482 C   0  0  0  0  0  0  0  0  0  0  0  0
  145.7965  133.7570  154.0265 O   0  0  0  0  0  0  0  0  0  0  0  0
  146.3899  134.3908  151.9083 N   0  0  0  0  0  0  0  0  0  0  0  0
  145.4634  133.6699  151.1103 C   0  0  0  0  0  0  0  0  0  0  0  0
  145.7868  133.0000  149.9980 N   0  0  0  0  0  0  0  0  0  0  0  0
  144.6765  132.3824  149.4168 C   0  0  0  0  0  0  0  0  0  0  0  0
  143.5079  132.5930  150.1055 C   0  0  0  0  0  0  0  0  0  0  0  0
  143.7566  133.5811  151.5200 S   0  0  0  0  0  0  0  0  0  0  0  0
  149.1020  138.0254  154.8884 C   0  0  0  0  0  0  0  0  0  0  0  0
  149.6576  139.2235  154.0885 C   0  0  0  0  0  0  0  0  0  0  0  0
  152.2268  140.3989  155.9394 H   0  0  0  0  0  0  0  0  0  0  0  0
  150.8560  139.4752  156.5554 H   0  0  0  0  0  0  0  0  0  0  0  0
  150.5983  141.0536  155.8147 H   0  0  0  0  0  0  0  0  0  0  0  0
  151.8806  138.0889  153.1832 H   0  0  0  0  0  0  0  0  0  0  0  0
  152.9039  138.5735  154.5142 H   0  0  0  0  0  0  0  0  0  0  0  0
  152.0240  136.3072  154.8666 H   0  0  0  0  0  0  0  0  0  0  0  0
  151.4364  137.3544  156.1273 H   0  0  0  0  0  0  0  0  0  0  0  0
  149.8307  133.3699  155.1262 H   0  0  0  0  0  0  0  0  0  0  0  0
  151.1955  134.3686  154.6839 H   0  0  0  0  0  0  0  0  0  0  0  0
  149.8400  134.1775  153.5748 H   0  0  0  0  0  0  0  0  0  0  0  0
  149.1868  134.5804  157.2528 H   0  0  0  0  0  0  0  0  0  0  0  0
  149.2656  136.3327  157.3092 H   0  0  0  0  0  0  0  0  0  0  0  0
  150.7177  135.3617  157.0461 H   0  0  0  0  0  0  0  0  0  0  0  0
  147.4388  134.6749  155.6379 H   0  0  0  0  0  0  0  0  0  0  0  0
  147.3812  136.3867  155.3704 H   0  0  0  0  0  0  0  0  0  0  0  0
  148.0013  135.7166  152.9363 H   0  0  0  0  0  0  0  0  0  0  0  0
  147.0419  134.9682  151.3982 H   0  0  0  0  0  0  0  0  0  0  0  0
  144.8089  131.8098  148.5108 H   0  0  0  0  0  0  0  0  0  0  0  0
  142.5201  132.2277  149.8674 H   0  0  0  0  0  0  0  0  0  0  0  0
  148.0910  137.8643  154.5201 H   0  0  0  0  0  0  0  0  0  0  0  0
  149.0171  138.2663  155.9482 H   0  0  0  0  0  0  0  0  0  0  0  0
  149.0365  140.1060  154.2458 H   0  0  0  0  0  0  0  0  0  0  0  0
  149.6093  139.0007  153.0217 H   0  0  0  0  0  0  0  0  0  0  0  0
  149.9566  136.6638  153.6942 H   0  0  0  0  0  0  0  0  0  0  0  0
  1  2  1  0  0  0  0
  1 21  1  0  0  0  0
  1 22  1  0  0  0  0
  1 23  1  0  0  0  0
  2 20  1  0  0  0  0
  2  3  1  0  0  0  0
  3  4  1  0  0  0  0
  3 24  1  0  0  0  0
  3 25  1  0  0  0  0
  4  5  1  0  0  0  0
  4 26  1  0  0  0  0
  4 27  1  0  0  0  0
  5  6  1  0  0  0  0
  5 19  1  0  0  0  0
  5 44  1  0  0  0  0
  6  7  1  0  0  0  0
  6  8  1  0  0  0  0
  6  9  1  0  0  0  0
  7 28  1  0  0  0  0
  7 29  1  0  0  0  0
  7 30  1  0  0  0  0
  8 31  1  0  0  0  0
  8 32  1  0  0  0  0
  8 33  1  0  0  0  0
  9 10  1  0  0  0  0
  9 34  1  0  0  0  0
  9 35  1  0  0  0  0
 10 11  1  0  0  0  0
 10 36  1  0  0  0  0
 11 12  2  0  0  0  0
 11 13  1  0  0  0  0
 13 14  1  0  0  0  0
 13 37  1  0  0  0  0
 14 18  1  0  0  0  0
 14 15  2  0  0  0  0
 15 16  1  0  0  0  0
 16 17  2  0  0  0  0
 16 38  1  0  0  0  0
 17 18  1  0  0  0  0
 17 39  1  0  0  0  0
 19 20  1  0  0  0  0
 19 40  1  0  0  0  0
 19 41  1  0  0  0  0
 20 42  1  0  0  0  0
 20 43  1  0  0  0  0
M  CHG  1   5   1
M  END
> <s_m_source_file>
AV-unprocessed.smi

> <i_m_source_file_index>
2024

> <i_lp_mmshare_version>
43012

> <i_f3d_flags>
0

> <s_epik_input>
W0NIM11OMVtDSDJdW0NIMl1OKFtDSDJdW0NIMl0xKUMoW0NIM10pKFtDSDNdKVtDSDJdW05IXUMoPU8pW05IXWMybltjSF1bY0hdczI=

> <s_epik_cmdline>
J2VwaWtfcHl0aG9uJywgJy1waCcsICc3LjAnLCAnLXRuJywgJzgnLCAnLW1hJywgJzIwMCcsICctbWV0YWxfYmluZGluZycsICctaW1hZScsICc8aW5maWxlLm1hZT4nLCAnLW9tYWUnLCAnPG91dGZpbGUubWFlPic=

> <r_epik_Ionization_Penalty>
0.100627

> <r_epik_Ionization_Penalty_Charging>
0.0985296

> <r_epik_Ionization_Penalty_Neutral>
0.00209722

> <r_epik_State_Penalty>
1.056

> <r_epik_Charging_Adjusted_Penalty>
1.15453

> <i_epik_Tot_Q>
1

> <i_epik_Tot_abs_Q>
1

> <r_epik_Metal_State_Penalty>
1.08856

> <b_epik_Metal_Only>
0

> <s_lp_Force_Field>
OPLS_2005

> <r_lp_Energy>
25.1468

> <b_lp_Chiralities_Consistent>
1

> <s_lp_Variant>
AV-unprocessed.smi:2024-2

> <Gold.Version>
5.8.1

> <Gold.Id.Protein>
6NUR|6NUR_protein|mol2

> <Gold.PLP.Fitness>
45.5570

> <Gold.PLP.PLP>
-31.4269

> <Gold.PLP.part.hbond>
-3.6527

> <Gold.PLP.part.metal>
0.0000

> <Gold.PLP.part.buried>
-3.8769

> <Gold.PLP.part.nonpolar>
-24.1555

> <Gold.PLP.part.repulsive>
1.4407

> <Gold.PLP.ligand.clash>
0.0000

> <Gold.PLP.ligand.torsion>
0.9305

> <Gold.PLP.Chemscore.Hbond>
4.0046

> <Gold.PLP.Chemscore.CHOScore>
1.2972

> <Gold.PLP.Chemscore.Metal>
0.0000

> <Gold.Chemscore.Hbonds>
donor molecule, donor type, donor heavy atom, donor atom, acceptor molecule, acceptor atom, score
      L1  H     5    44       P1  7948  1.69
      L1  H    10    36       P1  7948  0.96
      L1  H    13    37       P1  7948  0.27
      P1  H  7989  7998       L1     2  0.95
      L1  C    17    39       P1 10186  0.33
      L1  C    17    39       P1 10952  0.96

> <Gold.PLP.Chemscore.Internal.Correction>
0.0857

> <Gold.Rescore>
     Score         DG    S(hbond)    S(metal)    S(lipo)     H(rot)  DE(clash)    DE(int)     intcor
     15.20     -16.15       1.82        0.00      74.20       1.60       0.03       0.92       ----

> <Gold.Chemscore.Fitness>
15.1964

> <Gold.Chemscore.DG>
-16.1480

> <Gold.Chemscore.ZeroCoef>
-5.4800

> <Gold.Chemscore.Hbond>
1.8204

> <Gold.Chemscore.Metal>
0.0000

> <Gold.Chemscore.Lipo>
74.2002

> <Gold.Chemscore.Internal_Hbond>
0.0000

> <Gold.Chemscore.DEClash>
0.0338

> <Gold.Chemscore.DEInternal>
0.9178

> <Gold.Chemscore.Rot>
1.5991

> <Gold.Chemscore.Internal.Correction>
   9.000000E+99

> <Gold.Chemscore.Hbonds>
donor molecule, donor type, donor heavy atom, donor atom, acceptor molecule, acceptor atom, score
      L1  H     5    44       P1  7948  0.24
      L1  H    10    36       P1  7948  0.91
      L1  H    13    37       P1  7948  0.23
      P1  H  7989  7998       L1     2  0.13

> <Gold.Chemscore.Hbond.Weighted>
-6.0802

> <Gold.Chemscore.Metal.Weighted>
-0.0000

> <Gold.Chemscore.Lipo.Weighted>
-8.6814

> <Gold.Chemscore.Internal_Hbond.Weighted>
0.0000

> <Gold.Chemscore.DEClash.Weighted>
0.0338

> <Gold.Chemscore.DEInternal.Weighted>
0.9178

> <Gold.Chemscore.Rot.Weighted>
4.0936

> <Gold.Chemscore.Internal.Correction.Weighted>
   9.000000E+99

> <Gold.Protein.RotatedTorsions>
[ 6907 6896 6895 6894 ] final  172.88 input  -60.11 | X-H torsion
[ 7974 7965 7964 7962 ] final   58.33 input  175.53 | X-H torsion
[ 8008 7997 7996 7995 ] final   93.76 input   59.86 | X-H torsion
[ 10167 10162 10161 10158 ] final   72.06 input  -65.29 | X-H torsion
[ 10718 10713 10712 10709 ] final   -8.24 input   66.30 | X-H torsion
[ 10763 10752 10751 10750 ] final -157.74 input  -60.55 | X-H torsion
[ 11005 11000 10999 10996 ] final -175.88 input  -57.11 | X-H torsion

> <Gold.Protein.ActiveResidues>
 VAL166  LYS551  ARG553  GLY616  TRP617  ASP618  TYR619  PRO620  LYS621  CYS622 
 ASP623  PHE694  ASN695  SER759  ASP760  ASP761  ALA762  ILE779  LEU786  VAL792 
 PHE793  MET794  SER795  GLU796  ALA797  LYS798  CYS799  TRP800  GLU811  SER814 

> <Gold.Protein.RotatedAtoms>
  151.7772  133.3346  159.3460 H   0  0  0  0  0  0  0  0  0  0  0  0  # atno 6907 bound_to 6896
  150.7439  134.5964  159.6023 H   0  0  0  0  0  0  0  0  0  0  0  0  # atno 6908 bound_to 6896
  152.3301  134.7272  160.0343 H   0  0  0  0  0  0  0  0  0  0  0  0  # atno 6909 bound_to 6896
  145.9193  139.3716  143.0488 H   0  0  0  0  0  0  0  0  0  0  0  0  # atno 7974 bound_to 7965
  156.0504  140.3308  155.7344 H   0  0  0  0  0  0  0  0  0  0  0  0  # atno 8008 bound_to 7997
  155.5610  140.0619  157.2846 H   0  0  0  0  0  0  0  0  0  0  0  0  # atno 8009 bound_to 7997
  154.4433  140.1877  156.0771 H   0  0  0  0  0  0  0  0  0  0  0  0  # atno 8010 bound_to 7997
  140.0394  144.5402  150.7446 H   0  0  0  0  0  0  0  0  0  0  0  0  # atno 10167 bound_to 10162
  156.7054  130.5106  149.5906 H   0  0  0  0  0  0  0  0  0  0  0  0  # atno 10718 bound_to 10713
  154.7612  135.3118  154.8375 H   0  0  0  0  0  0  0  0  0  0  0  0  # atno 10763 bound_to 10752
  153.9135  135.6803  153.4754 H   0  0  0  0  0  0  0  0  0  0  0  0  # atno 10764 bound_to 10752
  153.1213  135.4821  154.9131 H   0  0  0  0  0  0  0  0  0  0  0  0  # atno 10765 bound_to 10752
  140.4583  134.6278  157.4832 H   0  0  0  0  0  0  0  0  0  0  0  0  # atno 11005 bound_to 11000
  145.8570  140.9496  143.0719 LP  0  0  0  0  0  0  0  0  0  0  0  0  # atno 17320 bound_to 7965
  144.6751  140.0481  143.7479 LP  0  0  0  0  0  0  0  0  0  0  0  0  # atno 17321 bound_to 7965
  140.7267  143.2644  151.4095 LP  0  0  0  0  0  0  0  0  0  0  0  0  # atno 17342 bound_to 10162
  139.6024  144.1268  152.2212 LP  0  0  0  0  0  0  0  0  0  0  0  0  # atno 17343 bound_to 10162
  156.1699  130.6430  151.0824 LP  0  0  0  0  0  0  0  0  0  0  0  0  # atno 17370 bound_to 10713
  157.6957  131.0795  150.6976 LP  0  0  0  0  0  0  0  0  0  0  0  0  # atno 17371 bound_to 10713
  139.9961  134.6908  155.9607 LP  0  0  0  0  0  0  0  0  0  0  0  0  # atno 17394 bound_to 11000
  141.1633  133.6538  156.4391 LP  0  0  0  0  0  0  0  0  0  0  0  0  # atno 17395 bound_to 11000

$$$$
