AV-unprocessed.smi:3353|AV-procd|sdf|12954|dock5
  -GOLD-   2272019393D 1   1.00000     0.00000
 Structure written by MMmdl.
 43 44  0  0  0  0  0  0  0  0  2 V2000
  151.8334  145.2973  159.7048 C   0  0  0  0  0  0  0  0  0  0  0  0
  152.2579  144.6973  158.3590 C   0  0  0  0  0  0  0  0  0  0  0  0
  151.8901  143.2987  158.2541 N   0  0  0  0  0  0  0  0  0  0  0  0
  151.1406  142.6851  157.2700 C   0  0  0  0  0  0  0  0  0  0  0  0
  151.0795  141.3660  157.6209 C   0  0  0  0  0  0  0  0  0  0  0  0
  150.4350  140.2882  156.9628 N   0  0  0  0  0  0  0  0  0  0  0  0
  150.0088  140.2479  155.6900 C   0  0  0  0  0  0  0  0  0  0  0  0
  150.1202  141.1651  154.8767 O   0  0  0  0  0  0  0  0  0  0  0  0
  149.4379  139.0693  155.4062 N   0  0  0  0  0  0  0  0  0  0  0  0
  148.8674  138.6980  154.1143 C   0  0  0  0  0  0  0  0  0  0  0  0
  147.4792  138.0296  154.2646 C   0  0  1  0  0  0  0  0  0  0  0  0
  146.4174  139.0594  154.7136 C   0  0  0  0  0  0  0  0  0  0  0  0
  147.0692  137.3573  152.9964 N   0  3  0  0  0  0  0  0  0  0  0  0
  145.9179  136.4361  153.1142 C   0  0  0  0  0  0  0  0  0  0  0  0
  145.3806  136.2417  151.6944 C   0  0  0  0  0  0  0  0  0  0  0  0
  145.9053  137.4343  150.8912 C   0  0  0  0  0  0  0  0  0  0  0  0
  146.7254  138.2658  151.8806 C   0  0  0  0  0  0  0  0  0  0  0  0
  151.8153  141.2524  158.8290 C   0  0  0  0  0  0  0  0  0  0  0  0
  152.3019  142.4250  159.2059 N   0  0  0  0  0  0  0  0  0  0  0  0
  152.1260  146.3451  159.7718 H   0  0  0  0  0  0  0  0  0  0  0  0
  152.2998  144.7670  160.5355 H   0  0  0  0  0  0  0  0  0  0  0  0
  150.7524  145.2452  159.8375 H   0  0  0  0  0  0  0  0  0  0  0  0
  151.7969  145.2450  157.5359 H   0  0  0  0  0  0  0  0  0  0  0  0
  153.3377  144.7840  158.2323 H   0  0  0  0  0  0  0  0  0  0  0  0
  150.7334  143.2341  156.4339 H   0  0  0  0  0  0  0  0  0  0  0  0
  150.2836  139.4617  157.5223 H   0  0  0  0  0  0  0  0  0  0  0  0
  149.3956  138.3761  156.1390 H   0  0  0  0  0  0  0  0  0  0  0  0
  148.7815  139.5664  153.4585 H   0  0  0  0  0  0  0  0  0  0  0  0
  149.5806  138.0211  153.6443 H   0  0  0  0  0  0  0  0  0  0  0  0
  147.5521  137.2645  155.0395 H   0  0  0  0  0  0  0  0  0  0  0  0
  146.7071  139.5668  155.6336 H   0  0  0  0  0  0  0  0  0  0  0  0
  145.4553  138.5910  154.9192 H   0  0  0  0  0  0  0  0  0  0  0  0
  146.2620  139.8240  153.9517 H   0  0  0  0  0  0  0  0  0  0  0  0
  146.1978  135.4860  153.5699 H   0  0  0  0  0  0  0  0  0  0  0  0
  145.1465  136.8952  153.7351 H   0  0  0  0  0  0  0  0  0  0  0  0
  145.7627  135.3126  151.2695 H   0  0  0  0  0  0  0  0  0  0  0  0
  144.2917  136.1843  151.6833 H   0  0  0  0  0  0  0  0  0  0  0  0
  146.5387  137.0810  150.0764 H   0  0  0  0  0  0  0  0  0  0  0  0
  145.0983  138.0200  150.4494 H   0  0  0  0  0  0  0  0  0  0  0  0
  146.1159  139.0892  152.2570 H   0  0  0  0  0  0  0  0  0  0  0  0
  147.6131  138.6896  151.4104 H   0  0  0  0  0  0  0  0  0  0  0  0
  152.0087  140.3776  159.4322 H   0  0  0  0  0  0  0  0  0  0  0  0
  147.8507  136.8006  152.6801 H   0  0  0  0  0  0  0  0  0  0  0  0
  1  2  1  0  0  0  0
  1 20  1  0  0  0  0
  1 21  1  0  0  0  0
  1 22  1  0  0  0  0
  2  3  1  0  0  0  0
  2 23  1  0  0  0  0
  2 24  1  0  0  0  0
  3 19  1  0  0  0  0
  3  4  1  0  0  0  0
  4  5  2  0  0  0  0
  4 25  1  0  0  0  0
  5  6  1  0  0  0  0
  5 18  1  0  0  0  0
  6  7  1  0  0  0  0
  6 26  1  0  0  0  0
  7  8  2  0  0  0  0
  7  9  1  0  0  0  0
  9 10  1  0  0  0  0
  9 27  1  0  0  0  0
 10 11  1  0  0  0  0
 10 28  1  0  0  0  0
 10 29  1  0  0  0  0
 11 12  1  0  0  0  0
 11 13  1  0  0  0  0
 11 30  1  0  0  0  0
 12 31  1  0  0  0  0
 12 32  1  0  0  0  0
 12 33  1  0  0  0  0
 13 17  1  0  0  0  0
 13 14  1  0  0  0  0
 13 43  1  0  0  0  0
 14 15  1  0  0  0  0
 14 34  1  0  0  0  0
 14 35  1  0  0  0  0
 15 16  1  0  0  0  0
 15 36  1  0  0  0  0
 15 37  1  0  0  0  0
 16 17  1  0  0  0  0
 16 38  1  0  0  0  0
 16 39  1  0  0  0  0
 17 40  1  0  0  0  0
 17 41  1  0  0  0  0
 18 19  2  0  0  0  0
 18 42  1  0  0  0  0
M  CHG  1  13   1
M  END
> <s_m_source_file>
AV-unprocessed.smi

> <i_m_source_file_index>
3353

> <i_lp_mmshare_version>
43012

> <i_f3d_flags>
0

> <s_epik_input>
W0NIM11bQ0gyXW4xW2NIXWMoW2NIXW4xKVtOSF1DKD1PKVtOSF1bQ0gyXVtDQEhdKFtDSDNdKU4yW0NIMl1bQ0gyXVtDSDJdW0NIMl0y

> <s_epik_cmdline>
J2VwaWtfcHl0aG9uJywgJy1waCcsICc3LjAnLCAnLXRuJywgJzgnLCAnLW1hJywgJzIwMCcsICctbWV0YWxfYmluZGluZycsICctaW1hZScsICc8aW5maWxlLm1hZT4nLCAnLW9tYWUnLCAnPG91dGZpbGUubWFlPic=

> <r_lp_tautomer_probability>
1

> <r_epik_Ionization_Penalty>
0.000914091

> <r_epik_Ionization_Penalty_Charging>
0.000761583

> <r_epik_Ionization_Penalty_Neutral>
0.000152508

> <r_epik_State_Penalty>
0.000487427

> <r_epik_Charging_Adjusted_Penalty>
0.00124901

> <i_epik_Tot_Q>
1

> <i_epik_Tot_abs_Q>
1

> <r_epik_Metal_State_Penalty>
-0

> <b_epik_Metal_Only>
0

> <s_lp_Force_Field>
OPLS_2005

> <r_lp_Energy>
35.4291

> <b_lp_Chiralities_Consistent>
1

> <s_lp_Variant>
AV-unprocessed.smi:3353-2

> <Gold.Version>
5.8.1

> <Gold.Id.Protein>
6NUR|6NUR_protein|mol2

> <Gold.PLP.Fitness>
43.7577

> <Gold.PLP.PLP>
-33.6079

> <Gold.PLP.part.hbond>
-1.9962

> <Gold.PLP.part.metal>
0.0000

> <Gold.PLP.part.buried>
1.3030

> <Gold.PLP.part.nonpolar>
-34.1098

> <Gold.PLP.part.repulsive>
0.2057

> <Gold.PLP.ligand.clash>
0.0000

> <Gold.PLP.ligand.torsion>
0.3594

> <Gold.PLP.Chemscore.Hbond>
2.6080

> <Gold.PLP.Chemscore.CHOScore>
1.0000

> <Gold.PLP.Chemscore.Metal>
0.0000

> <Gold.Chemscore.Hbonds>
donor molecule, donor type, donor heavy atom, donor atom, acceptor molecule, acceptor atom, score
      L1  H    13    43       P1  7948  1.76
      P1  H  7989  7998       L1     8  0.56
      L1  C     4    25       P1  8028  1.00

> <Gold.PLP.Chemscore.Internal.Correction>
0.0447

> <Gold.Rescore>
     Score         DG    S(hbond)    S(metal)    S(lipo)     H(rot)  DE(clash)    DE(int)     intcor
     14.06     -17.14       1.66        0.00      87.60       1.61       1.77       1.31       ----

> <Gold.Chemscore.Fitness>
14.0590

> <Gold.Chemscore.DG>
-17.1449

> <Gold.Chemscore.ZeroCoef>
-5.4800

> <Gold.Chemscore.Hbond>
1.6591

> <Gold.Chemscore.Metal>
0.0000

> <Gold.Chemscore.Lipo>
87.6045

> <Gold.Chemscore.Internal_Hbond>
0.0000

> <Gold.Chemscore.DEClash>
1.7731

> <Gold.Chemscore.DEInternal>
1.3129

> <Gold.Chemscore.Rot>
1.6117

> <Gold.Chemscore.Internal.Correction>
   9.000000E+99

> <Gold.Chemscore.Hbonds>
donor molecule, donor type, donor heavy atom, donor atom, acceptor molecule, acceptor atom, score
      L1  H    13    43       P1  7948  0.85
      P1  H  7989  7998       L1     8  0.49

> <Gold.Chemscore.Hbond.Weighted>
-5.5412

> <Gold.Chemscore.Metal.Weighted>
-0.0000

> <Gold.Chemscore.Lipo.Weighted>
-10.2497

> <Gold.Chemscore.Internal_Hbond.Weighted>
0.0000

> <Gold.Chemscore.DEClash.Weighted>
1.7731

> <Gold.Chemscore.DEInternal.Weighted>
1.3129

> <Gold.Chemscore.Rot.Weighted>
4.1260

> <Gold.Chemscore.Internal.Correction.Weighted>
   9.000000E+99

> <Gold.Protein.RotatedTorsions>
[ 6907 6896 6895 6894 ] final -155.80 input  -60.11 | X-H torsion
[ 7974 7965 7964 7962 ] final   14.99 input  175.53 | X-H torsion
[ 8008 7997 7996 7995 ] final  -87.02 input   59.86 | X-H torsion
[ 10167 10162 10161 10158 ] final  171.80 input  -65.29 | X-H torsion
[ 10718 10713 10712 10709 ] final  113.71 input   66.30 | X-H torsion
[ 10763 10752 10751 10750 ] final  109.11 input  -60.55 | X-H torsion
[ 11005 11000 10999 10996 ] final -142.54 input  -57.11 | X-H torsion

> <Gold.Protein.ActiveResidues>
 VAL166  LYS551  ARG553  GLY616  TRP617  ASP618  TYR619  PRO620  LYS621  CYS622 
 ASP623  PHE694  ASN695  SER759  ASP760  ASP761  ALA762  ILE779  LEU786  VAL792 
 PHE793  MET794  SER795  GLU796  ALA797  LYS798  CYS799  TRP800  GLU811  SER814 

> <Gold.Protein.RotatedAtoms>
  151.2779  133.4223  159.2624 H   0  0  0  0  0  0  0  0  0  0  0  0  # atno 6907 bound_to 6896
  151.0386  134.9591  159.8160 H   0  0  0  0  0  0  0  0  0  0  0  0  # atno 6908 bound_to 6896
  152.5360  134.2738  159.9034 H   0  0  0  0  0  0  0  0  0  0  0  0  # atno 6909 bound_to 6896
  146.2290  139.8960  142.8547 H   0  0  0  0  0  0  0  0  0  0  0  0  # atno 7974 bound_to 7965
  154.6584  140.0571  157.0035 H   0  0  0  0  0  0  0  0  0  0  0  0  # atno 8008 bound_to 7997
  155.1265  140.3252  155.4466 H   0  0  0  0  0  0  0  0  0  0  0  0  # atno 8009 bound_to 7997
  156.2607  140.1988  156.6385 H   0  0  0  0  0  0  0  0  0  0  0  0  # atno 8010 bound_to 7997
  139.5057  144.3446  151.9984 H   0  0  0  0  0  0  0  0  0  0  0  0  # atno 10167 bound_to 10162
  157.6323  131.0987  150.7080 H   0  0  0  0  0  0  0  0  0  0  0  0  # atno 10718 bound_to 10713
  153.4302  135.3790  155.2165 H   0  0  0  0  0  0  0  0  0  0  0  0  # atno 10763 bound_to 10752
  154.8749  135.3838  154.4278 H   0  0  0  0  0  0  0  0  0  0  0  0  # atno 10764 bound_to 10752
  153.4809  135.7088  153.6001 H   0  0  0  0  0  0  0  0  0  0  0  0  # atno 10765 bound_to 10752
  140.8215  134.2625  157.4898 H   0  0  0  0  0  0  0  0  0  0  0  0  # atno 11005 bound_to 11000
  145.2370  140.9995  143.3958 LP  0  0  0  0  0  0  0  0  0  0  0  0  # atno 17320 bound_to 7965
  144.9483  139.4111  143.6415 LP  0  0  0  0  0  0  0  0  0  0  0  0  # atno 17321 bound_to 7965
  140.2883  144.3782  150.6096 LP  0  0  0  0  0  0  0  0  0  0  0  0  # atno 17342 bound_to 10162
  140.5966  143.2167  151.7153 LP  0  0  0  0  0  0  0  0  0  0  0  0  # atno 17343 bound_to 10162
  156.7417  130.4741  149.5476 LP  0  0  0  0  0  0  0  0  0  0  0  0  # atno 17370 bound_to 10713
  156.1535  130.6326  151.0627 LP  0  0  0  0  0  0  0  0  0  0  0  0  # atno 17371 bound_to 10713
  139.8708  134.9538  156.4155 LP  0  0  0  0  0  0  0  0  0  0  0  0  # atno 17394 bound_to 11000
  140.9094  133.7722  155.9773 LP  0  0  0  0  0  0  0  0  0  0  0  0  # atno 17395 bound_to 11000

$$$$
