AV-unprocessed.smi:2938|AV-procd|sdf|11260|dock4
  -GOLD-   2272016153D 1   1.00000     0.00000
 Structure written by MMmdl.
 26 27  0  0  0  0  0  0  0  0  2 V2000
  152.9975  139.0599  155.9043 N   0  0  0  0  0  0  0  0  0  0  0  0
  153.1517  138.6191  156.9634 C   0  0  0  0  0  0  0  0  0  0  0  0
  153.3484  138.0628  158.3005 C   0  0  0  0  0  0  0  0  0  0  0  0
  153.5548  136.6759  158.5117 C   0  0  0  0  0  0  0  0  0  0  0  0
  153.5854  135.7615  157.4951 O   0  5  0  0  0  0  0  0  0  0  0  0
  153.7368  136.1599  159.7461 N   0  0  0  0  0  0  0  0  0  0  0  0
  153.7141  137.0173  160.7648 C   0  0  0  0  0  0  0  0  0  0  0  0
  153.8994  136.4844  162.0159 N   0  0  0  0  0  0  0  0  0  0  0  0
  153.5303  138.3360  160.6969 N   0  0  0  0  0  0  0  0  0  0  0  0
  153.3454  138.8749  159.4661 C   0  0  0  0  0  0  0  0  0  0  0  0
  153.1481  140.2652  159.3889 N   0  0  0  0  0  0  0  0  0  0  0  0
  151.8635  140.6411  158.8124 C   0  0  0  0  0  0  0  0  0  0  0  0
  151.7941  142.1680  158.6378 C   0  0  0  0  0  0  0  0  0  0  0  0
  152.0363  142.8046  159.8897 O   0  0  0  0  0  0  0  0  0  0  0  0
  153.3252  142.4887  160.4095 C   0  0  0  0  0  0  0  0  0  0  0  0
  153.4340  140.9701  160.6320 C   0  0  0  0  0  0  0  0  0  0  0  0
  154.0434  135.4927  162.1337 H   0  0  0  0  0  0  0  0  0  0  0  0
  153.8937  137.0844  162.8275 H   0  0  0  0  0  0  0  0  0  0  0  0
  151.7320  140.1467  157.8491 H   0  0  0  0  0  0  0  0  0  0  0  0
  151.0545  140.3050  159.4625 H   0  0  0  0  0  0  0  0  0  0  0  0
  152.5213  142.5084  157.8986 H   0  0  0  0  0  0  0  0  0  0  0  0
  150.8091  142.4610  158.2743 H   0  0  0  0  0  0  0  0  0  0  0  0
  154.1001  142.8381  159.7253 H   0  0  0  0  0  0  0  0  0  0  0  0
  153.4689  143.0185  161.3513 H   0  0  0  0  0  0  0  0  0  0  0  0
  152.7305  140.6576  161.4049 H   0  0  0  0  0  0  0  0  0  0  0  0
  154.4349  140.7125  160.9807 H   0  0  0  0  0  0  0  0  0  0  0  0
  1  2  3  0  0  0  0
  2  3  1  0  0  0  0
  3 10  1  0  0  0  0
  3  4  2  0  0  0  0
  4  5  1  0  0  0  0
  4  6  1  0  0  0  0
  6  7  2  0  0  0  0
  7  8  1  0  0  0  0
  7  9  1  0  0  0  0
  8 17  1  0  0  0  0
  8 18  1  0  0  0  0
  9 10  2  0  0  0  0
 10 11  1  0  0  0  0
 11 16  1  0  0  0  0
 11 12  1  0  0  0  0
 12 13  1  0  0  0  0
 12 19  1  0  0  0  0
 12 20  1  0  0  0  0
 13 14  1  0  0  0  0
 13 21  1  0  0  0  0
 13 22  1  0  0  0  0
 14 15  1  0  0  0  0
 15 16  1  0  0  0  0
 15 23  1  0  0  0  0
 15 24  1  0  0  0  0
 16 25  1  0  0  0  0
 16 26  1  0  0  0  0
M  CHG  1   5  -1
M  END
> <s_m_source_file>
AV-unprocessed.smi

> <i_m_source_file_index>
2938

> <i_lp_mmshare_version>
43012

> <i_f3d_flags>
0

> <s_epik_input>
TiNDYzFjKFtPSF0pbmMoW05IMl0pbmMxTjJbQ0gyXVtDSDJdT1tDSDJdW0NIMl0y

> <s_epik_cmdline>
J2VwaWtfcHl0aG9uJywgJy1waCcsICc3LjAnLCAnLXRuJywgJzgnLCAnLW1hJywgJzIwMCcsICctbWV0YWxfYmluZGluZycsICctaW1hZScsICc8aW5maWxlLm1hZT4nLCAnLW9tYWUnLCAnPG91dGZpbGUubWFlPic=

> <r_lp_tautomer_probability>
1

> <r_epik_Ionization_Penalty>
0.00503702

> <r_epik_Ionization_Penalty_Charging>
2.31924e-12

> <r_epik_Ionization_Penalty_Neutral>
0.00503702

> <r_epik_State_Penalty>
-0

> <r_epik_Charging_Adjusted_Penalty>
2.31924e-12

> <i_epik_Tot_Q>
-1

> <i_epik_Tot_abs_Q>
1

> <r_epik_Metal_State_Penalty>
-0

> <b_epik_Metal_Only>
0

> <s_lp_Force_Field>
OPLS_2005

> <r_lp_Energy>
14.7587

> <b_lp_Chiralities_Consistent>
1

> <s_lp_Variant>
AV-unprocessed.smi:2938-1

> <Gold.Version>
5.8.1

> <Gold.Id.Protein>
6NUR|6NUR_protein|mol2

> <Gold.PLP.Fitness>
31.2462

> <Gold.PLP.PLP>
-20.4483

> <Gold.PLP.part.hbond>
-2.9870

> <Gold.PLP.part.metal>
0.0000

> <Gold.PLP.part.buried>
-3.5412

> <Gold.PLP.part.nonpolar>
-13.9500

> <Gold.PLP.part.repulsive>
0.0600

> <Gold.PLP.ligand.clash>
0.0000

> <Gold.PLP.ligand.torsion>
0.1212

> <Gold.PLP.Chemscore.Hbond>
3.6413

> <Gold.PLP.Chemscore.CHOScore>
0.0000

> <Gold.PLP.Chemscore.Metal>
0.0000

> <Gold.Chemscore.Hbonds>
donor molecule, donor type, donor heavy atom, donor atom, acceptor molecule, acceptor atom, score
      P1  H  6896  6907       L1     6  1.00
      P1  H  7997  8010       L1     1  0.75
      P1  H 10752 10765       L1     5  1.43

> <Gold.PLP.Chemscore.Internal.Correction>
0.1165

> <Gold.Rescore>
     Score         DG    S(hbond)    S(metal)    S(lipo)     H(rot)  DE(clash)    DE(int)     intcor
     11.77     -13.03       1.66        0.00      39.03       1.00       0.12       1.14       ----

> <Gold.Chemscore.Fitness>
11.7661

> <Gold.Chemscore.DG>
-13.0309

> <Gold.Chemscore.ZeroCoef>
-5.4800

> <Gold.Chemscore.Hbond>
1.6601

> <Gold.Chemscore.Metal>
0.0000

> <Gold.Chemscore.Lipo>
39.0278

> <Gold.Chemscore.Internal_Hbond>
0.0000

> <Gold.Chemscore.DEClash>
0.1243

> <Gold.Chemscore.DEInternal>
1.1405

> <Gold.Chemscore.Rot>
1.0000

> <Gold.Chemscore.Internal.Correction>
   9.000000E+99

> <Gold.Chemscore.Hbonds>
donor molecule, donor type, donor heavy atom, donor atom, acceptor molecule, acceptor atom, score
      P1  H  6896  6907       L1     6  0.48
      P1  H  7997  8010       L1     1  0.09
      P1  H 10752 10765       L1     5  0.71

> <Gold.Chemscore.Hbond.Weighted>
-5.5446

> <Gold.Chemscore.Metal.Weighted>
-0.0000

> <Gold.Chemscore.Lipo.Weighted>
-4.5663

> <Gold.Chemscore.Internal_Hbond.Weighted>
0.0000

> <Gold.Chemscore.DEClash.Weighted>
0.1243

> <Gold.Chemscore.DEInternal.Weighted>
1.1405

> <Gold.Chemscore.Rot.Weighted>
2.5600

> <Gold.Chemscore.Internal.Correction.Weighted>
   9.000000E+99

> <Gold.Protein.RotatedTorsions>
[ 6907 6896 6895 6894 ] final   55.14 input  -60.11 | X-H torsion
[ 7974 7965 7964 7962 ] final  157.86 input  175.53 | X-H torsion
[ 8008 7997 7996 7995 ] final   99.23 input   59.86 | X-H torsion
[ 10167 10162 10161 10158 ] final  -56.76 input  -65.29 | X-H torsion
[ 10718 10713 10712 10709 ] final   50.12 input   66.30 | X-H torsion
[ 10763 10752 10751 10750 ] final -103.85 input  -60.55 | X-H torsion
[ 11005 11000 10999 10996 ] final -160.19 input  -57.11 | X-H torsion

> <Gold.Protein.ActiveResidues>
 VAL166  LYS551  ARG553  GLY616  TRP617  ASP618  TYR619  PRO620  LYS621  CYS622 
 ASP623  PHE694  ASN695  SER759  ASP760  ASP761  ALA762  ILE779  LEU786  VAL792 
 PHE793  MET794  SER795  GLU796  ALA797  LYS798  CYS799  TRP800  GLU811  SER814 

> <Gold.Protein.RotatedAtoms>
  152.3509  134.7007  160.0236 H   0  0  0  0  0  0  0  0  0  0  0  0  # atno 6907 bound_to 6896
  151.7361  133.3314  159.3361 H   0  0  0  0  0  0  0  0  0  0  0  0  # atno 6908 bound_to 6896
  150.7539  134.6253  159.6202 H   0  0  0  0  0  0  0  0  0  0  0  0  # atno 6909 bound_to 6896
  144.7879  139.7399  143.6233 H   0  0  0  0  0  0  0  0  0  0  0  0  # atno 7974 bound_to 7965
  156.1084  140.3232  155.8038 H   0  0  0  0  0  0  0  0  0  0  0  0  # atno 8008 bound_to 7997
  155.4715  140.0547  157.2996 H   0  0  0  0  0  0  0  0  0  0  0  0  # atno 8009 bound_to 7997
  154.4743  140.2025  155.9931 H   0  0  0  0  0  0  0  0  0  0  0  0  # atno 8010 bound_to 7997
  140.6298  143.2454  151.5270 H   0  0  0  0  0  0  0  0  0  0  0  0  # atno 10167 bound_to 10162
  157.4853  130.8341  149.8140 H   0  0  0  0  0  0  0  0  0  0  0  0  # atno 10718 bound_to 10713
  154.7837  135.4808  153.9898 H   0  0  0  0  0  0  0  0  0  0  0  0  # atno 10763 bound_to 10752
  153.1529  135.6794  153.8863 H   0  0  0  0  0  0  0  0  0  0  0  0  # atno 10764 bound_to 10752
  153.8501  135.3168  155.3410 H   0  0  0  0  0  0  0  0  0  0  0  0  # atno 10765 bound_to 10752
  140.6343  134.4618  157.5231 H   0  0  0  0  0  0  0  0  0  0  0  0  # atno 11005 bound_to 11000
  146.2118  139.5480  142.9676 LP  0  0  0  0  0  0  0  0  0  0  0  0  # atno 17320 bound_to 7965
  145.5873  141.0374  143.2089 LP  0  0  0  0  0  0  0  0  0  0  0  0  # atno 17321 bound_to 7965
  139.5513  144.2387  152.1536 LP  0  0  0  0  0  0  0  0  0  0  0  0  # atno 17342 bound_to 10162
  140.1628  144.5009  150.6623 LP  0  0  0  0  0  0  0  0  0  0  0  0  # atno 17343 bound_to 10162
  156.0143  130.3820  150.2160 LP  0  0  0  0  0  0  0  0  0  0  0  0  # atno 17370 bound_to 10713
  157.0348  131.0018  151.3301 LP  0  0  0  0  0  0  0  0  0  0  0  0  # atno 17371 bound_to 10713
  139.9104  134.8357  156.1549 LP  0  0  0  0  0  0  0  0  0  0  0  0  # atno 17394 bound_to 11000
  141.0653  133.6822  156.2032 LP  0  0  0  0  0  0  0  0  0  0  0  0  # atno 17395 bound_to 11000

$$$$
