#       Name:                AV-unprocessed.smi:446
#       Creating user name   scv26
#       Creation time:       Thu Mar 26 22:58:57 2020


#       File generated by GOLD software.
#

@<TRIPOS>MOLECULE
AV-unprocessed.smi:446
    38    40     1
SMALL
NO_CHARGES


@<TRIPOS>ATOM
      1 ****        -2.1588   0.8888  -2.5595 C.3            1 S1                 0.0000
      2 ****        -1.8234   1.5784  -1.2754 C.2            1 S1                 0.0000
      3 ****        -2.1591   2.8475  -1.0422 N.2            1 S1                 0.0000
      4 ****        -1.6701   3.0611   0.2323 C.ar           1 S1                 0.0000
      5 ****        -1.7053   4.2135   1.0499 C.ar           1 S1                 0.0000
      6 ****        -1.1325   4.1921   2.3387 C.ar           1 S1                 0.0000
      7 ****        -0.5179   3.0211   2.8279 C.ar           1 S1                 0.0000
      8 ****        -0.4704   1.8624   2.0291 C.ar           1 S1                 0.0000
      9 ****        -1.0423   1.8897   0.7431 C.ar           1 S1                 0.0000
     10 ****        -1.1595   0.9489  -0.2745 N.pl3          1 S1                 0.0000
     11 ****        -0.6615  -0.4195  -0.2371 C.3            1 S1                 0.0000
     12 ****         0.8620  -0.4980  -0.4597 C.3            1 S1                 0.0000
     13 ****         1.1954   0.0489  -1.7209 O.3            1 S1                 0.0000
     14 ****         1.3731  -1.9207  -0.2958 C.ar           1 S1                 0.0000
     15 ****         2.0032  -2.3072   0.9068 C.ar           1 S1                 0.0000
     16 ****         2.4751  -3.6244   1.0700 C.ar           1 S1                 0.0000
     17 ****         2.3173  -4.5633   0.0326 C.ar           1 S1                 0.0000
     18 ****         2.7712  -5.8292   0.1896 F              1 S1                 0.0000
     19 ****         1.6856  -4.1849  -1.1676 C.ar           1 S1                 0.0000
     20 ****         1.2131  -2.8682  -1.3314 C.ar           1 S1                 0.0000
     21 ****        -2.6324   1.5829  -3.2546 H              1 S1                 0.0000
     22 ****        -2.8482   0.0648  -2.3746 H              1 S1                 0.0000
     23 ****        -1.2561   0.4977  -3.0285 H              1 S1                 0.0000
     24 ****        -2.1739   5.1152   0.6844 H              1 S1                 0.0000
     25 ****        -1.1656   5.0785   2.9551 H              1 S1                 0.0000
     26 ****        -0.0827   3.0127   3.8165 H              1 S1                 0.0000
     27 ****        -0.0001   0.9635   2.3993 H              1 S1                 0.0000
     28 ****        -0.9144  -0.8387   0.7376 H              1 S1                 0.0000
     29 ****        -1.1903  -1.0256  -0.9728 H              1 S1                 0.0000
     30 ****         1.3576   0.1257   0.2853 H              1 S1                 0.0000
     31 ****         2.1371   0.0890  -1.7900 H              1 S1                 0.0000
     32 ****         2.1266  -1.5951   1.7098 H              1 S1                 0.0000
     33 ****         2.9576  -3.9143   1.9918 H              1 S1                 0.0000
     34 ****         1.5621  -4.9053  -1.9626 H              1 S1                 0.0000
     35 ****         0.7260  -2.5887  -2.2541 H              1 S1                 0.0000
     36 ****        -2.6438   3.4856  -1.6404 LP             1 S1                 0.0000
     37 ****         0.8116   0.9687  -1.8020 LP             1 S1                 0.0000
     38 ****         0.8280  -0.5310  -2.4480 LP             1 S1                 0.0000
@<TRIPOS>BOND
    1    1    2 1     
    2    1   21 1     
    3    1   22 1     
    4    1   23 1     
    5    2   10 1     
    6    2    3 2     
    7    3    4 1     
    8    4    9 ar    
    9    4    5 ar    
   10    5    6 ar    
   11    5   24 1     
   12    6    7 ar    
   13    6   25 1     
   14    7    8 ar    
   15    7   26 1     
   16    8    9 ar    
   17    8   27 1     
   18    9   10 1     
   19   10   11 1     
   20   11   12 1     
   21   11   28 1     
   22   11   29 1     
   23   12   13 1     
   24   12   14 1     
   25   12   30 1     
   26   13   31 1     
   27   14   20 ar    
   28   14   15 ar    
   29   15   16 ar    
   30   15   32 1     
   31   16   17 ar    
   32   16   33 1     
   33   17   18 1     
   34   17   19 ar    
   35   19   20 ar    
   36   19   34 1     
   37   20   35 1     
   38    3   36 1     
   39   13   37 1     
   40   13   38 1     
@<TRIPOS>SUBSTRUCTURE
      1 S1             1
@<TRIPOS>SET
LONE_PAIRS      STATIC     ATOMS    <user>   **** ""
3 36 37 38
DONOR_HYDROGENS      STATIC     ATOMS    <user>   **** ""
1 31
ATOM$BLUE        STATIC     ATOMS    COLORGROUP SYSTEM
3 36 37 38
ATOM$RED        STATIC     ATOMS    COLORGROUP SYSTEM
1 31
