AV-unprocessed.smi:3051|AV-procd|sdf|11634|dock4
  -GOLD-   2272017 23D 1   1.00000     0.00000
 Structure written by MMmdl.
 37 37  0  0  0  0  0  0  0  0  1 V2000
  155.0534  137.3638  161.8269 C   0  0  0  0  0  0  0  0  0  0  0  0
  154.2729  138.0041  160.6716 C   0  0  0  0  0  0  0  0  0  0  0  0
  154.1848  139.4514  160.8212 N   0  0  0  0  0  0  0  0  0  0  0  0
  154.1925  140.3364  159.8118 C   0  0  0  0  0  0  0  0  0  0  0  0
  154.2632  140.0142  158.6261 O   0  0  0  0  0  0  0  0  0  0  0  0
  154.1055  141.8139  160.1986 C   0  0  0  0  0  0  0  0  0  0  0  0
  153.1655  142.5229  159.3491 N   0  0  0  0  0  0  0  0  0  0  0  0
  152.7326  143.8304  159.4536 C   0  0  0  0  0  0  0  0  0  0  0  0
  151.8348  144.0473  158.4469 C   0  0  0  0  0  0  0  0  0  0  0  0
  151.7861  142.7937  157.7783 C   0  0  0  0  0  0  0  0  0  0  0  0
  150.9581  142.5750  156.6706 N   0  0  0  0  0  0  0  0  0  0  0  0
  150.9290  141.2777  156.0046 C   0  0  1  0  0  0  0  0  0  0  0  0
  150.4337  140.1804  156.9622 C   0  0  0  0  0  0  0  0  0  0  0  0
  150.0457  141.3458  154.7493 C   0  0  0  0  0  0  0  0  0  0  0  0
  148.6831  141.4190  155.1365 O   0  0  0  0  0  0  0  0  0  0  0  0
  147.8254  141.7175  154.0492 C   0  0  0  0  0  0  0  0  0  0  0  0
  152.5863  141.8823  158.3097 N   0  0  0  0  0  0  0  0  0  0  0  0
  155.1392  136.2864  161.6846 H   0  0  0  0  0  0  0  0  0  0  0  0
  154.5575  137.5320  162.7834 H   0  0  0  0  0  0  0  0  0  0  0  0
  156.0624  137.7714  161.8950 H   0  0  0  0  0  0  0  0  0  0  0  0
  154.7736  137.7908  159.7272 H   0  0  0  0  0  0  0  0  0  0  0  0
  153.2751  137.5684  160.5992 H   0  0  0  0  0  0  0  0  0  0  0  0
  154.1279  139.8106  161.7636 H   0  0  0  0  0  0  0  0  0  0  0  0
  153.7826  141.9106  161.2362 H   0  0  0  0  0  0  0  0  0  0  0  0
  155.0896  142.2797  160.1237 H   0  0  0  0  0  0  0  0  0  0  0  0
  153.0930  144.4882  160.2308 H   0  0  0  0  0  0  0  0  0  0  0  0
  151.2947  144.9568  158.2293 H   0  0  0  0  0  0  0  0  0  0  0  0
  150.3628  143.3155  156.3287 H   0  0  0  0  0  0  0  0  0  0  0  0
  151.9414  141.0238  155.6876 H   0  0  0  0  0  0  0  0  0  0  0  0
  150.4311  139.2065  156.4722 H   0  0  0  0  0  0  0  0  0  0  0  0
  149.4182  140.3822  157.3049 H   0  0  0  0  0  0  0  0  0  0  0  0
  151.0704  140.0968  157.8430 H   0  0  0  0  0  0  0  0  0  0  0  0
  150.2964  142.2352  154.1688 H   0  0  0  0  0  0  0  0  0  0  0  0
  150.2194  140.4798  154.1078 H   0  0  0  0  0  0  0  0  0  0  0  0
  146.7929  141.7553  154.3963 H   0  0  0  0  0  0  0  0  0  0  0  0
  147.8914  140.9539  153.2730 H   0  0  0  0  0  0  0  0  0  0  0  0
  148.0682  142.6858  153.6097 H   0  0  0  0  0  0  0  0  0  0  0  0
  1  2  1  0  0  0  0
  1 18  1  0  0  0  0
  1 19  1  0  0  0  0
  1 20  1  0  0  0  0
  2  3  1  0  0  0  0
  2 21  1  0  0  0  0
  2 22  1  0  0  0  0
  3  4  1  0  0  0  0
  3 23  1  0  0  0  0
  4  5  2  0  0  0  0
  4  6  1  0  0  0  0
  6  7  1  0  0  0  0
  6 24  1  0  0  0  0
  6 25  1  0  0  0  0
  7 17  1  0  0  0  0
  7  8  1  0  0  0  0
  8  9  2  0  0  0  0
  8 26  1  0  0  0  0
  9 10  1  0  0  0  0
  9 27  1  0  0  0  0
 10 11  1  0  0  0  0
 10 17  2  0  0  0  0
 11 12  1  0  0  0  0
 11 28  1  0  0  0  0
 12 13  1  0  0  0  0
 12 14  1  0  0  0  0
 12 29  1  0  0  0  0
 13 30  1  0  0  0  0
 13 31  1  0  0  0  0
 13 32  1  0  0  0  0
 14 15  1  0  0  0  0
 14 33  1  0  0  0  0
 14 34  1  0  0  0  0
 15 16  1  0  0  0  0
 16 35  1  0  0  0  0
 16 36  1  0  0  0  0
 16 37  1  0  0  0  0
M  END
> <s_m_source_file>
AV-unprocessed.smi

> <i_m_source_file_index>
3051

> <i_lp_mmshare_version>
43012

> <i_f3d_flags>
0

> <s_epik_input>
W0NIM11bQ0gyXVtOSF1DKD1PKVtDSDJdbjFbY0hdW2NIXWMobjEpW05IXVtDQEhdKFtDSDNdKVtDSDJdT1tDSDNd

> <s_epik_cmdline>
J2VwaWtfcHl0aG9uJywgJy1waCcsICc3LjAnLCAnLXRuJywgJzgnLCAnLW1hJywgJzIwMCcsICctbWV0YWxfYmluZGluZycsICctaW1hZScsICc8aW5maWxlLm1hZT4nLCAnLW9tYWUnLCAnPG91dGZpbGUubWFlPic=

> <r_lp_tautomer_probability>
1

> <r_epik_Ionization_Penalty>
0.00023157

> <r_epik_Ionization_Penalty_Charging>
0

> <r_epik_Ionization_Penalty_Neutral>
0.00023157

> <r_epik_State_Penalty>
-0

> <r_epik_Charging_Adjusted_Penalty>
0

> <i_epik_Tot_Q>
0

> <i_epik_Tot_abs_Q>
0

> <r_epik_Metal_State_Penalty>
-0

> <b_epik_Metal_Only>
0

> <s_lp_Force_Field>
OPLS_2005

> <r_lp_Energy>
3.21547

> <b_lp_Chiralities_Consistent>
1

> <s_lp_Variant>
AV-unprocessed.smi:3051-2

> <Gold.Version>
5.8.1

> <Gold.Id.Protein>
6NUR|6NUR_protein|mol2

> <Gold.PLP.Fitness>
41.6632

> <Gold.PLP.PLP>
-36.6703

> <Gold.PLP.part.hbond>
-2.0000

> <Gold.PLP.part.metal>
0.0000

> <Gold.PLP.part.buried>
-3.5775

> <Gold.PLP.part.nonpolar>
-31.5929

> <Gold.PLP.part.repulsive>
0.2285

> <Gold.PLP.ligand.clash>
0.0000

> <Gold.PLP.ligand.torsion>
0.5113

> <Gold.PLP.Chemscore.Hbond>
1.9920

> <Gold.PLP.Chemscore.CHOScore>
0.0000

> <Gold.PLP.Chemscore.Metal>
0.0000

> <Gold.Chemscore.Hbonds>
donor molecule, donor type, donor heavy atom, donor atom, acceptor molecule, acceptor atom, score
      L1  H    11    28       P1  8028  0.73
      P1  H  7997  8009       L1     5  0.94

> <Gold.PLP.Chemscore.Internal.Correction>
0.0395

> <Gold.Rescore>
     Score         DG    S(hbond)    S(metal)    S(lipo)     H(rot)  DE(clash)    DE(int)     intcor
     12.90     -14.69       1.99        0.00      69.71       2.19       0.04       1.75       ----

> <Gold.Chemscore.Fitness>
12.9047

> <Gold.Chemscore.DG>
-14.6903

> <Gold.Chemscore.ZeroCoef>
-5.4800

> <Gold.Chemscore.Hbond>
1.9936

> <Gold.Chemscore.Metal>
0.0000

> <Gold.Chemscore.Lipo>
69.7066

> <Gold.Chemscore.Internal_Hbond>
0.0000

> <Gold.Chemscore.DEClash>
0.0369

> <Gold.Chemscore.DEInternal>
1.7487

> <Gold.Chemscore.Rot>
2.1890

> <Gold.Chemscore.Internal.Correction>
   9.000000E+99

> <Gold.Chemscore.Hbonds>
donor molecule, donor type, donor heavy atom, donor atom, acceptor molecule, acceptor atom, score
      L1  H    11    28       P1  8028  0.73
      P1  H  7997  8009       L1     5  0.86

> <Gold.Chemscore.Hbond.Weighted>
-6.6585

> <Gold.Chemscore.Metal.Weighted>
-0.0000

> <Gold.Chemscore.Lipo.Weighted>
-8.1557

> <Gold.Chemscore.Internal_Hbond.Weighted>
0.0000

> <Gold.Chemscore.DEClash.Weighted>
0.0369

> <Gold.Chemscore.DEInternal.Weighted>
1.7487

> <Gold.Chemscore.Rot.Weighted>
5.6039

> <Gold.Chemscore.Internal.Correction.Weighted>
   9.000000E+99

> <Gold.Protein.RotatedTorsions>
[ 6907 6896 6895 6894 ] final   33.17 input  -60.11 | X-H torsion
[ 7974 7965 7964 7962 ] final -174.62 input  175.53 | X-H torsion
[ 8008 7997 7996 7995 ] final  127.35 input   59.86 | X-H torsion
[ 10167 10162 10161 10158 ] final   34.72 input  -65.29 | X-H torsion
[ 10718 10713 10712 10709 ] final -151.56 input   66.30 | X-H torsion
[ 10763 10752 10751 10750 ] final -100.56 input  -60.55 | X-H torsion
[ 11005 11000 10999 10996 ] final  -31.24 input  -57.11 | X-H torsion

> <Gold.Protein.ActiveResidues>
 VAL166  LYS551  ARG553  GLY616  TRP617  ASP618  TYR619  PRO620  LYS621  CYS622 
 ASP623  PHE694  ASN695  SER759  ASP760  ASP761  ALA762  ILE779  LEU786  VAL792 
 PHE793  MET794  SER795  GLU796  ALA797  LYS798  CYS799  TRP800  GLU811  SER814 

> <Gold.Protein.RotatedAtoms>
  152.0848  134.9447  160.0572 H   0  0  0  0  0  0  0  0  0  0  0  0  # atno 6907 bound_to 6896
  152.0722  133.4107  159.4472 H   0  0  0  0  0  0  0  0  0  0  0  0  # atno 6908 bound_to 6896
  150.6836  134.2999  159.4745 H   0  0  0  0  0  0  0  0  0  0  0  0  # atno 6909 bound_to 6896
  144.7131  140.1444  143.6389 H   0  0  0  0  0  0  0  0  0  0  0  0  # atno 7974 bound_to 7965
  156.2888  140.2671  156.2259 H   0  0  0  0  0  0  0  0  0  0  0  0  # atno 8008 bound_to 7997
  155.0121  140.0387  157.2421 H   0  0  0  0  0  0  0  0  0  0  0  0  # atno 8009 bound_to 7997
  154.7509  140.2743  155.6298 H   0  0  0  0  0  0  0  0  0  0  0  0  # atno 8010 bound_to 7997
  140.4289  144.1354  150.6157 H   0  0  0  0  0  0  0  0  0  0  0  0  # atno 10167 bound_to 10162
  156.4608  130.8212  151.2443 H   0  0  0  0  0  0  0  0  0  0  0  0  # atno 10718 bound_to 10713
  154.7589  135.4930  153.9427 H   0  0  0  0  0  0  0  0  0  0  0  0  # atno 10763 bound_to 10752
  153.1228  135.6735  153.9315 H   0  0  0  0  0  0  0  0  0  0  0  0  # atno 10764 bound_to 10752
  153.9042  135.3106  155.3427 H   0  0  0  0  0  0  0  0  0  0  0  0  # atno 10765 bound_to 10752
  140.9452  133.7254  156.1135 H   0  0  0  0  0  0  0  0  0  0  0  0  # atno 11005 bound_to 11000
  145.9173  139.2523  143.1402 LP  0  0  0  0  0  0  0  0  0  0  0  0  # atno 17320 bound_to 7965
  145.9656  140.8801  143.0188 LP  0  0  0  0  0  0  0  0  0  0  0  0  # atno 17321 bound_to 7965
  140.4450  143.2510  151.9423 LP  0  0  0  0  0  0  0  0  0  0  0  0  # atno 17342 bound_to 10162
  139.4784  144.5618  151.8228 LP  0  0  0  0  0  0  0  0  0  0  0  0  # atno 17343 bound_to 10162
  157.7498  131.0107  150.3319 LP  0  0  0  0  0  0  0  0  0  0  0  0  # atno 17370 bound_to 10713
  156.3718  130.3865  149.7169 LP  0  0  0  0  0  0  0  0  0  0  0  0  # atno 17371 bound_to 10713
  140.7680  134.3865  157.5513 LP  0  0  0  0  0  0  0  0  0  0  0  0  # atno 17394 bound_to 11000
  139.8831  134.9004  156.2787 LP  0  0  0  0  0  0  0  0  0  0  0  0  # atno 17395 bound_to 11000

$$$$
