AV-unprocessed.smi:2316|AV-procd|sdf|9269|dock4
  -GOLD-   2272012493D 1   1.00000     0.00000
 Structure written by MMmdl.
 31 32  0  0  0  0  0  0  0  0  1 V2000
  151.1793  141.2976  156.5526 O   0  0  0  0  0  0  0  0  0  0  0  0
  150.4254  142.2507  156.3689 C   0  0  0  0  0  0  0  0  0  0  0  0
  149.3474  142.2341  155.5606 N   0  0  0  0  0  0  0  0  0  0  0  0
  148.8349  141.1704  154.7697 C   0  0  0  0  0  0  0  0  0  0  0  0
  149.4143  139.8806  154.6963 C   0  0  0  0  0  0  0  0  0  0  0  0
  148.7948  138.9081  153.8859 C   0  0  0  0  0  0  0  0  0  0  0  0
  147.6692  139.1371  153.1768 N   0  0  0  0  0  0  0  0  0  0  0  0
  147.1122  140.3638  153.2600 C   0  0  0  0  0  0  0  0  0  0  0  0
  147.6503  141.4065  154.0405 C   0  0  0  0  0  0  0  0  0  0  0  0
  147.0381  142.6147  154.0828 F   0  0  0  0  0  0  0  0  0  0  0  0
  150.6482  143.4364  156.9665 N   0  0  0  0  0  0  0  0  0  0  0  0
  151.7180  143.8049  157.8968 C   0  0  2  0  0  0  0  0  0  0  0  0
  152.0736  142.6324  158.8030 C   0  0  0  0  0  0  0  0  0  0  0  0
  152.2677  142.7442  160.1282 C   0  0  0  0  0  0  0  0  0  0  0  0
  152.1698  144.0579  160.8808 C   0  0  0  0  0  0  0  0  0  0  0  0
  152.1881  145.2702  159.9334 C   0  0  0  0  0  0  0  0  0  0  0  0
  151.2882  145.0460  158.7086 C   0  0  0  0  0  0  0  0  0  0  0  0
  148.8693  143.1167  155.4510 H   0  0  0  0  0  0  0  0  0  0  0  0
  150.3030  139.6144  155.2468 H   0  0  0  0  0  0  0  0  0  0  0  0
  149.2129  137.9152  153.8105 H   0  0  0  0  0  0  0  0  0  0  0  0
  146.2093  140.5194  152.6881 H   0  0  0  0  0  0  0  0  0  0  0  0
  150.0058  144.1792  156.7310 H   0  0  0  0  0  0  0  0  0  0  0  0
  152.6188  144.0651  157.3385 H   0  0  0  0  0  0  0  0  0  0  0  0
  152.1706  141.6630  158.3359 H   0  0  0  0  0  0  0  0  0  0  0  0
  152.4961  141.8648  160.7123 H   0  0  0  0  0  0  0  0  0  0  0  0
  151.2478  144.0469  161.4628 H   0  0  0  0  0  0  0  0  0  0  0  0
  152.9943  144.1291  161.5906 H   0  0  0  0  0  0  0  0  0  0  0  0
  151.8797  146.1670  160.4713 H   0  0  0  0  0  0  0  0  0  0  0  0
  153.2097  145.4501  159.5958 H   0  0  0  0  0  0  0  0  0  0  0  0
  151.2961  145.9300  158.0699 H   0  0  0  0  0  0  0  0  0  0  0  0
  150.2597  144.9255  159.0528 H   0  0  0  0  0  0  0  0  0  0  0  0
  1  2  2  0  0  0  0
  2  3  1  0  0  0  0
  2 11  1  0  0  0  0
  3  4  1  0  0  0  0
  3 18  1  0  0  0  0
  4  9  1  0  0  0  0
  4  5  2  0  0  0  0
  5  6  1  0  0  0  0
  5 19  1  0  0  0  0
  6  7  2  0  0  0  0
  6 20  1  0  0  0  0
  7  8  1  0  0  0  0
  8  9  2  0  0  0  0
  8 21  1  0  0  0  0
  9 10  1  0  0  0  0
 11 12  1  0  0  0  0
 11 22  1  0  0  0  0
 12 17  1  0  0  0  0
 12 13  1  0  0  0  0
 12 23  1  0  0  0  0
 13 14  2  0  0  0  0
 13 24  1  0  0  0  0
 14 15  1  0  0  0  0
 14 25  1  0  0  0  0
 15 16  1  0  0  0  0
 15 26  1  0  0  0  0
 15 27  1  0  0  0  0
 16 17  1  0  0  0  0
 16 28  1  0  0  0  0
 16 29  1  0  0  0  0
 17 30  1  0  0  0  0
 17 31  1  0  0  0  0
M  END
> <s_m_source_file>
AV-unprocessed.smi

> <i_m_source_file_index>
2316

> <i_lp_mmshare_version>
43012

> <i_f3d_flags>
0

> <s_epik_input>
W0NIMl0xW0NIMl1bQ0gyXVtDSF09W0NIXVtDQEhdMVtOSF1DKD1PKVtOSF1jMltjSF1bY0hdbltjSF1jMkY=

> <s_epik_cmdline>
J2VwaWtfcHl0aG9uJywgJy1waCcsICc3LjAnLCAnLXRuJywgJzgnLCAnLW1hJywgJzIwMCcsICctbWV0YWxfYmluZGluZycsICctaW1hZScsICc8aW5maWxlLm1hZT4nLCAnLW9tYWUnLCAnPG91dGZpbGUubWFlPic=

> <r_epik_Ionization_Penalty>
0.0032416

> <r_epik_Ionization_Penalty_Charging>
0

> <r_epik_Ionization_Penalty_Neutral>
0.0032416

> <r_epik_State_Penalty>
0.00226065

> <r_epik_Charging_Adjusted_Penalty>
0.00226065

> <i_epik_Tot_Q>
0

> <i_epik_Tot_abs_Q>
0

> <r_epik_Metal_State_Penalty>
-0

> <b_epik_Metal_Only>
0

> <s_lp_Force_Field>
OPLS_2005

> <r_lp_Energy>
22.3144

> <b_lp_Chiralities_Consistent>
1

> <s_lp_Variant>
AV-unprocessed.smi:2316-1

> <Gold.Version>
5.8.1

> <Gold.Id.Protein>
6NUR|6NUR_protein|mol2

> <Gold.PLP.Fitness>
51.6436

> <Gold.PLP.PLP>
-40.5677

> <Gold.PLP.part.hbond>
-2.0000

> <Gold.PLP.part.metal>
0.0000

> <Gold.PLP.part.buried>
-3.0160

> <Gold.PLP.part.nonpolar>
-36.5897

> <Gold.PLP.part.repulsive>
1.8657

> <Gold.PLP.ligand.clash>
0.0000

> <Gold.PLP.ligand.torsion>
0.3223

> <Gold.PLP.Chemscore.Hbond>
1.9200

> <Gold.PLP.Chemscore.CHOScore>
1.9843

> <Gold.PLP.Chemscore.Metal>
0.0000

> <Gold.Chemscore.Hbonds>
donor molecule, donor type, donor heavy atom, donor atom, acceptor molecule, acceptor atom, score
      L1  H     3    18       P1  8028  0.98
      L1  H    11    22       P1  8028  0.94
      L1  C     6    20       P1  7948  0.88
      L1  C     8    21       P1 10175  1.00

> <Gold.PLP.Chemscore.Internal.Correction>
0.0074

> <Gold.Rescore>
     Score         DG    S(hbond)    S(metal)    S(lipo)     H(rot)  DE(clash)    DE(int)     intcor
     17.92     -21.35       1.84        0.00     104.86       1.00       0.54       2.89       ----

> <Gold.Chemscore.Fitness>
17.9161

> <Gold.Chemscore.DG>
-21.3491

> <Gold.Chemscore.ZeroCoef>
-5.4800

> <Gold.Chemscore.Hbond>
1.8444

> <Gold.Chemscore.Metal>
0.0000

> <Gold.Chemscore.Lipo>
104.8601

> <Gold.Chemscore.Internal_Hbond>
0.0000

> <Gold.Chemscore.DEClash>
0.5386

> <Gold.Chemscore.DEInternal>
2.8943

> <Gold.Chemscore.Rot>
1.0000

> <Gold.Chemscore.Internal.Correction>
   9.000000E+99

> <Gold.Chemscore.Hbonds>
donor molecule, donor type, donor heavy atom, donor atom, acceptor molecule, acceptor atom, score
      L1  H     3    18       P1  8028  0.92
      L1  H    11    22       P1  8028  0.89

> <Gold.Chemscore.Hbond.Weighted>
-6.1604

> <Gold.Chemscore.Metal.Weighted>
-0.0000

> <Gold.Chemscore.Lipo.Weighted>
-12.2686

> <Gold.Chemscore.Internal_Hbond.Weighted>
0.0000

> <Gold.Chemscore.DEClash.Weighted>
0.5386

> <Gold.Chemscore.DEInternal.Weighted>
2.8943

> <Gold.Chemscore.Rot.Weighted>
2.5600

> <Gold.Chemscore.Internal.Correction.Weighted>
   9.000000E+99

> <Gold.Protein.RotatedTorsions>
[ 6907 6896 6895 6894 ] final  135.35 input  -60.11 | X-H torsion
[ 7974 7965 7964 7962 ] final   90.03 input  175.53 | X-H torsion
[ 8008 7997 7996 7995 ] final   42.60 input   59.86 | X-H torsion
[ 10167 10162 10161 10158 ] final  -87.18 input  -65.29 | X-H torsion
[ 10718 10713 10712 10709 ] final   54.47 input   66.30 | X-H torsion
[ 10763 10752 10751 10750 ] final  152.93 input  -60.55 | X-H torsion
[ 11005 11000 10999 10996 ] final  103.09 input  -57.11 | X-H torsion

> <Gold.Protein.ActiveResidues>
 VAL166  LYS551  ARG553  GLY616  TRP617  ASP618  TYR619  PRO620  LYS621  CYS622 
 ASP623  PHE694  ASN695  SER759  ASP760  ASP761  ALA762  ILE779  LEU786  VAL792 
 PHE793  MET794  SER795  GLU796  ALA797  LYS798  CYS799  TRP800  GLU811  SER814 

> <Gold.Protein.RotatedAtoms>
  152.3014  133.5659  159.5620 H   0  0  0  0  0  0  0  0  0  0  0  0  # atno 6907 bound_to 6896
  150.7279  134.0286  159.3734 H   0  0  0  0  0  0  0  0  0  0  0  0  # atno 6908 bound_to 6896
  151.8186  135.0659  160.0473 H   0  0  0  0  0  0  0  0  0  0  0  0  # atno 6909 bound_to 6896
  145.5245  139.2280  143.2653 H   0  0  0  0  0  0  0  0  0  0  0  0  # atno 7974 bound_to 7965
  155.2889  140.3377  155.4253 H   0  0  0  0  0  0  0  0  0  0  0  0  # atno 8008 bound_to 7997
  156.2055  140.1749  156.7848 H   0  0  0  0  0  0  0  0  0  0  0  0  # atno 8009 bound_to 7997
  154.5615  140.0686  156.8811 H   0  0  0  0  0  0  0  0  0  0  0  0  # atno 8010 bound_to 7997
  140.3869  143.2722  151.9313 H   0  0  0  0  0  0  0  0  0  0  0  0  # atno 10167 bound_to 10162
  157.5260  130.8597  149.8622 H   0  0  0  0  0  0  0  0  0  0  0  0  # atno 10718 bound_to 10713
  154.1280  135.2828  155.3192 H   0  0  0  0  0  0  0  0  0  0  0  0  # atno 10763 bound_to 10752
  154.6376  135.5414  153.7755 H   0  0  0  0  0  0  0  0  0  0  0  0  # atno 10764 bound_to 10752
  153.0290  135.6478  154.1431 H   0  0  0  0  0  0  0  0  0  0  0  0  # atno 10765 bound_to 10752
  139.8781  134.9249  156.5157 H   0  0  0  0  0  0  0  0  0  0  0  0  # atno 11005 bound_to 11000
  146.2084  140.6059  142.9070 LP  0  0  0  0  0  0  0  0  0  0  0  0  # atno 17320 bound_to 7965
  144.7658  140.5527  143.6704 LP  0  0  0  0  0  0  0  0  0  0  0  0  # atno 17321 bound_to 7965
  139.4791  144.5764  151.8004 LP  0  0  0  0  0  0  0  0  0  0  0  0  # atno 17342 bound_to 10162
  140.4879  144.1353  150.5944 LP  0  0  0  0  0  0  0  0  0  0  0  0  # atno 17343 bound_to 10162
  156.0387  130.3744  150.1492 LP  0  0  0  0  0  0  0  0  0  0  0  0  # atno 17370 bound_to 10713
  156.9678  130.9825  151.3465 LP  0  0  0  0  0  0  0  0  0  0  0  0  # atno 17371 bound_to 10713
  140.8488  133.8148  155.9147 LP  0  0  0  0  0  0  0  0  0  0  0  0  # atno 17394 bound_to 11000
  140.9165  134.2195  157.4953 LP  0  0  0  0  0  0  0  0  0  0  0  0  # atno 17395 bound_to 11000

$$$$
