AV-unprocessed.smi:2311|AV-procd|sdf|9262|dock1
  -GOLD-   2272012483D 1   1.00000     0.00000
 Structure written by MMmdl.
 40 41  0  0  0  0  0  0  0  0  1 V2000
  141.8701  134.3997  153.0309 C   0  0  0  0  0  0  0  0  0  0  0  0
  143.2227  134.3134  152.3559 C   0  0  0  0  0  0  0  0  0  0  0  0
  143.5200  133.2688  151.4585 C   0  0  0  0  0  0  0  0  0  0  0  0
  144.7942  133.2487  150.8637 C   0  0  0  0  0  0  0  0  0  0  0  0
  145.7116  134.2670  151.1873 C   0  0  0  0  0  0  0  0  0  0  0  0
  145.3338  135.2799  152.0974 C   0  0  0  0  0  0  0  0  0  0  0  0
  146.3295  136.2591  152.3565 N   0  0  0  0  0  0  0  0  0  0  0  0
  146.2627  137.3127  153.1898 C   0  0  0  0  0  0  0  0  0  0  0  0
  145.2929  137.6087  153.8886 O   0  0  0  0  0  0  0  0  0  0  0  0
  147.4012  138.0212  153.1685 N   0  0  0  0  0  0  0  0  0  0  0  0
  147.6571  139.2258  153.9536 C   0  0  1  0  0  0  0  0  0  0  0  0
  149.1376  139.6096  153.8472 C   0  0  0  0  0  0  0  0  0  0  0  0
  149.4042  140.9383  154.5677 C   0  0  0  0  0  0  0  0  0  0  0  0
  148.5630  141.9658  154.0469 O   0  0  0  0  0  0  0  0  0  0  0  0
  147.1526  141.7385  154.1416 C   0  0  0  0  0  0  0  0  0  0  0  0
  146.6864  141.7863  155.6127 C   0  0  0  0  0  0  0  0  0  0  0  0
  146.5041  142.9041  153.3765 C   0  0  0  0  0  0  0  0  0  0  0  0
  146.7949  140.3992  153.4530 C   0  0  0  0  0  0  0  0  0  0  0  0
  144.1023  135.2900  152.6663 N   0  0  0  0  0  0  0  0  0  0  0  0
  141.2792  133.5019  152.8477 H   0  0  0  0  0  0  0  0  0  0  0  0
  141.3141  135.2578  152.6528 H   0  0  0  0  0  0  0  0  0  0  0  0
  141.9878  134.5141  154.1088 H   0  0  0  0  0  0  0  0  0  0  0  0
  142.7933  132.5031  151.2296 H   0  0  0  0  0  0  0  0  0  0  0  0
  145.0643  132.4661  150.1700 H   0  0  0  0  0  0  0  0  0  0  0  0
  146.6944  134.2659  150.7385 H   0  0  0  0  0  0  0  0  0  0  0  0
  147.1923  136.1452  151.8458 H   0  0  0  0  0  0  0  0  0  0  0  0
  148.1463  137.7065  152.5646 H   0  0  0  0  0  0  0  0  0  0  0  0
  147.4273  139.0205  155.0004 H   0  0  0  0  0  0  0  0  0  0  0  0
  149.7650  138.8240  154.2699 H   0  0  0  0  0  0  0  0  0  0  0  0
  149.4225  139.7078  152.7985 H   0  0  0  0  0  0  0  0  0  0  0  0
  149.2692  140.8329  155.6439 H   0  0  0  0  0  0  0  0  0  0  0  0
  150.4419  141.2360  154.4181 H   0  0  0  0  0  0  0  0  0  0  0  0
  145.6002  141.7155  155.6790 H   0  0  0  0  0  0  0  0  0  0  0  0
  146.9833  142.7221  156.0870 H   0  0  0  0  0  0  0  0  0  0  0  0
  147.0936  140.9733  156.2119 H   0  0  0  0  0  0  0  0  0  0  0  0
  145.4170  142.8188  153.3706 H   0  0  0  0  0  0  0  0  0  0  0  0
  146.8390  142.9329  152.3391 H   0  0  0  0  0  0  0  0  0  0  0  0
  146.7589  143.8634  153.8283 H   0  0  0  0  0  0  0  0  0  0  0  0
  146.9425  140.5018  152.3767 H   0  0  0  0  0  0  0  0  0  0  0  0
  145.7355  140.1795  153.5925 H   0  0  0  0  0  0  0  0  0  0  0  0
  1  2  1  0  0  0  0
  1 20  1  0  0  0  0
  1 21  1  0  0  0  0
  1 22  1  0  0  0  0
  2 19  1  0  0  0  0
  2  3  2  0  0  0  0
  3  4  1  0  0  0  0
  3 23  1  0  0  0  0
  4  5  2  0  0  0  0
  4 24  1  0  0  0  0
  5  6  1  0  0  0  0
  5 25  1  0  0  0  0
  6  7  1  0  0  0  0
  6 19  2  0  0  0  0
  7  8  1  0  0  0  0
  7 26  1  0  0  0  0
  8  9  2  0  0  0  0
  8 10  1  0  0  0  0
 10 11  1  0  0  0  0
 10 27  1  0  0  0  0
 11 18  1  0  0  0  0
 11 12  1  0  0  0  0
 11 28  1  0  0  0  0
 12 13  1  0  0  0  0
 12 29  1  0  0  0  0
 12 30  1  0  0  0  0
 13 14  1  0  0  0  0
 13 31  1  0  0  0  0
 13 32  1  0  0  0  0
 14 15  1  0  0  0  0
 15 16  1  0  0  0  0
 15 17  1  0  0  0  0
 15 18  1  0  0  0  0
 16 33  1  0  0  0  0
 16 34  1  0  0  0  0
 16 35  1  0  0  0  0
 17 36  1  0  0  0  0
 17 37  1  0  0  0  0
 17 38  1  0  0  0  0
 18 39  1  0  0  0  0
 18 40  1  0  0  0  0
M  END
> <s_m_source_file>
AV-unprocessed.smi

> <i_m_source_file_index>
2311

> <i_lp_mmshare_version>
43012

> <i_f3d_flags>
0

> <s_epik_input>
W0NIM11jMVtjSF1bY0hdW2NIXWMobjEpW05IXUMoPU8pW05IXVtDQEBIXShbQ0gyXTIpW0NIMl1bQ0gyXU9DMihbQ0gzXSlbQ0gzXQ==

> <s_epik_cmdline>
J2VwaWtfcHl0aG9uJywgJy1waCcsICc3LjAnLCAnLXRuJywgJzgnLCAnLW1hJywgJzIwMCcsICctbWV0YWxfYmluZGluZycsICctaW1hZScsICc8aW5maWxlLm1hZT4nLCAnLW9tYWUnLCAnPG91dGZpbGUubWFlPic=

> <r_lp_tautomer_probability>
1

> <r_epik_Ionization_Penalty>
8.54628e-05

> <r_epik_Ionization_Penalty_Charging>
0

> <r_epik_Ionization_Penalty_Neutral>
8.54628e-05

> <r_epik_State_Penalty>
-0

> <r_epik_Charging_Adjusted_Penalty>
0

> <i_epik_Tot_Q>
0

> <i_epik_Tot_abs_Q>
0

> <r_epik_Metal_State_Penalty>
-0

> <b_epik_Metal_Only>
0

> <s_lp_Force_Field>
OPLS_2005

> <r_lp_Energy>
12.4955

> <b_lp_Chiralities_Consistent>
1

> <s_lp_Variant>
AV-unprocessed.smi:2311-2

> <Gold.Version>
5.8.1

> <Gold.Id.Protein>
6NUR|6NUR_protein|mol2

> <Gold.PLP.Fitness>
37.4455

> <Gold.PLP.PLP>
-30.9318

> <Gold.PLP.part.hbond>
-3.0000

> <Gold.PLP.part.metal>
0.0000

> <Gold.PLP.part.buried>
-3.1482

> <Gold.PLP.part.nonpolar>
-24.5543

> <Gold.PLP.part.repulsive>
0.4775

> <Gold.PLP.ligand.clash>
0.0000

> <Gold.PLP.ligand.torsion>
0.0836

> <Gold.PLP.Chemscore.Hbond>
2.2268

> <Gold.PLP.Chemscore.CHOScore>
0.0000

> <Gold.PLP.Chemscore.Metal>
0.0000

> <Gold.Chemscore.Hbonds>
donor molecule, donor type, donor heavy atom, donor atom, acceptor molecule, acceptor atom, score
      L1  H     7    26       P1  7948  0.99
      L1  H    10    27       P1  7948  0.91
      P1  H  8011  8017       L1    14  0.25

> <Gold.PLP.Chemscore.Internal.Correction>
0.0005

> <Gold.Rescore>
     Score         DG    S(hbond)    S(metal)    S(lipo)     H(rot)  DE(clash)    DE(int)     intcor
     15.84     -18.65       2.06        0.00      75.76       1.00       1.40       1.41       ----

> <Gold.Chemscore.Fitness>
15.8427

> <Gold.Chemscore.DG>
-18.6504

> <Gold.Chemscore.ZeroCoef>
-5.4800

> <Gold.Chemscore.Hbond>
2.0560

> <Gold.Chemscore.Metal>
0.0000

> <Gold.Chemscore.Lipo>
75.7557

> <Gold.Chemscore.Internal_Hbond>
0.0000

> <Gold.Chemscore.DEClash>
1.4024

> <Gold.Chemscore.DEInternal>
1.4052

> <Gold.Chemscore.Rot>
1.0000

> <Gold.Chemscore.Internal.Correction>
   9.000000E+99

> <Gold.Chemscore.Hbonds>
donor molecule, donor type, donor heavy atom, donor atom, acceptor molecule, acceptor atom, score
      L1  H     7    26       P1  7948  0.93
      L1  H    10    27       P1  7948  0.88
      P1  H  8011  8017       L1    14  0.04

> <Gold.Chemscore.Hbond.Weighted>
-6.8670

> <Gold.Chemscore.Metal.Weighted>
-0.0000

> <Gold.Chemscore.Lipo.Weighted>
-8.8634

> <Gold.Chemscore.Internal_Hbond.Weighted>
0.0000

> <Gold.Chemscore.DEClash.Weighted>
1.4024

> <Gold.Chemscore.DEInternal.Weighted>
1.4052

> <Gold.Chemscore.Rot.Weighted>
2.5600

> <Gold.Chemscore.Internal.Correction.Weighted>
   9.000000E+99

> <Gold.Protein.RotatedTorsions>
[ 6907 6896 6895 6894 ] final  -49.01 input  -60.11 | X-H torsion
[ 7974 7965 7964 7962 ] final -119.24 input  175.53 | X-H torsion
[ 8008 7997 7996 7995 ] final  -95.77 input   59.86 | X-H torsion
[ 10167 10162 10161 10158 ] final -175.89 input  -65.29 | X-H torsion
[ 10718 10713 10712 10709 ] final   40.77 input   66.30 | X-H torsion
[ 10763 10752 10751 10750 ] final  -54.92 input  -60.55 | X-H torsion
[ 11005 11000 10999 10996 ] final   -6.06 input  -57.11 | X-H torsion

> <Gold.Protein.ActiveResidues>
 VAL166  LYS551  ARG553  GLY616  TRP617  ASP618  TYR619  PRO620  LYS621  CYS622 
 ASP623  PHE694  ASN695  SER759  ASP760  ASP761  ALA762  ILE779  LEU786  VAL792 
 PHE793  MET794  SER795  GLU796  ALA797  LYS798  CYS799  TRP800  GLU811  SER814 

> <Gold.Protein.RotatedAtoms>
  150.8848  134.8244  159.7250 H   0  0  0  0  0  0  0  0  0  0  0  0  # atno 6907 bound_to 6896
  152.4801  134.4740  159.9654 H   0  0  0  0  0  0  0  0  0  0  0  0  # atno 6908 bound_to 6896
  151.4810  133.3508  159.2873 H   0  0  0  0  0  0  0  0  0  0  0  0  # atno 6909 bound_to 6896
  145.0648  140.8316  143.4131 H   0  0  0  0  0  0  0  0  0  0  0  0  # atno 7974 bound_to 7965
  154.7656  140.0477  157.1010 H   0  0  0  0  0  0  0  0  0  0  0  0  # atno 8008 bound_to 7997
  154.9883  140.3110  155.4897 H   0  0  0  0  0  0  0  0  0  0  0  0  # atno 8009 bound_to 7997
  156.2912  140.2223  156.4986 H   0  0  0  0  0  0  0  0  0  0  0  0  # atno 8010 bound_to 7997
  139.5558  144.1994  152.1156 H   0  0  0  0  0  0  0  0  0  0  0  0  # atno 10167 bound_to 10162
  157.3860  130.7780  149.7231 H   0  0  0  0  0  0  0  0  0  0  0  0  # atno 10718 bound_to 10713
  154.1826  135.6441  153.5038 H   0  0  0  0  0  0  0  0  0  0  0  0  # atno 10763 bound_to 10752
  153.0055  135.5409  154.6499 H   0  0  0  0  0  0  0  0  0  0  0  0  # atno 10764 bound_to 10752
  154.5867  135.2930  155.0650 H   0  0  0  0  0  0  0  0  0  0  0  0  # atno 10765 bound_to 10752
  140.6978  133.9015  155.8662 H   0  0  0  0  0  0  0  0  0  0  0  0  # atno 11005 bound_to 11000
  145.1365  139.2599  143.5512 LP  0  0  0  0  0  0  0  0  0  0  0  0  # atno 17320 bound_to 7965
  146.3526  140.1030  142.8607 LP  0  0  0  0  0  0  0  0  0  0  0  0  # atno 17321 bound_to 7965
  140.1498  144.5125  150.6694 LP  0  0  0  0  0  0  0  0  0  0  0  0  # atno 17342 bound_to 10162
  140.6830  143.2336  151.5335 LP  0  0  0  0  0  0  0  0  0  0  0  0  # atno 17343 bound_to 10162
  155.9787  130.4048  150.3634 LP  0  0  0  0  0  0  0  0  0  0  0  0  # atno 17370 bound_to 10713
  157.1744  131.0377  151.2779 LP  0  0  0  0  0  0  0  0  0  0  0  0  # atno 17371 bound_to 10713
  141.0188  134.0918  157.4143 LP  0  0  0  0  0  0  0  0  0  0  0  0  # atno 17394 bound_to 11000
  139.8905  135.0112  156.6739 LP  0  0  0  0  0  0  0  0  0  0  0  0  # atno 17395 bound_to 11000

$$$$
