AV-unprocessed.smi:134|AV-procd|sdf|1167|dock2
  -GOLD-   2262018313D 1   1.00000     0.00000
 Structure written by MMmdl.
 51 54  0  0  0  0  0  0  0  0  1 V2000
  150.3843  137.9491  159.3097 O   0  0  0  0  0  0  0  0  0  0  0  0
  150.6146  137.8717  158.1019 C   0  0  0  0  0  0  0  0  0  0  0  0
  151.4008  138.9796  157.3832 C   0  0  0  0  0  0  0  0  0  0  0  0
  151.9244  140.0176  158.2985 N   0  0  0  0  0  0  0  0  0  0  0  0
  152.8598  139.6321  159.2904 C   0  0  0  0  0  0  0  0  0  0  0  0
  153.2155  138.4591  159.4117 O   0  0  0  0  0  0  0  0  0  0  0  0
  153.3659  140.7100  160.1313 C   0  0  0  0  0  0  0  0  0  0  0  0
  154.2695  140.4397  161.0887 F   0  0  0  0  0  0  0  0  0  0  0  0
  152.9437  141.9794  159.9607 C   0  0  0  0  0  0  0  0  0  0  0  0
  152.0147  142.3412  159.0046 N   0  0  0  0  0  0  0  0  0  0  0  0
  151.6442  143.8018  158.8623 C   0  0  2  0  0  0  0  0  0  0  0  0
  152.5045  144.7460  159.7154 C   0  0  0  0  0  0  0  0  0  0  0  0
  151.4920  145.8069  160.0885 C   0  0  0  0  0  0  0  0  0  0  0  0
  150.2146  144.9871  160.2367 C   0  0  0  0  0  0  0  0  0  0  0  0
  150.3081  143.9757  159.2366 O   0  0  0  0  0  0  0  0  0  0  0  0
  151.5039  141.3584  158.1240 C   0  0  0  0  0  0  0  0  0  0  0  0
  150.7212  141.6566  157.2210 O   0  0  0  0  0  0  0  0  0  0  0  0
  150.2108  136.8556  157.3195 N   0  0  0  0  0  0  0  0  0  0  0  0
  149.4396  135.7226  157.6961 C   0  0  0  0  0  0  0  0  0  0  0  0
  148.6087  135.7323  158.8426 C   0  0  0  0  0  0  0  0  0  0  0  0
  147.8737  134.5862  159.2007 C   0  0  0  0  0  0  0  0  0  0  0  0
  147.9682  133.4165  158.4247 C   0  0  0  0  0  0  0  0  0  0  0  0
  148.8041  133.3909  157.2932 C   0  0  0  0  0  0  0  0  0  0  0  0
  149.5423  134.5354  156.9302 C   0  0  0  0  0  0  0  0  0  0  0  0
  150.5742  134.4586  155.4956 S   0  0  0  0  0  0  0  0  0  0  0  0
  150.1934  132.8345  154.9273 C   0  0  0  0  0  0  0  0  0  0  0  0
  150.8248  131.7185  155.5112 C   0  0  0  0  0  0  0  0  0  0  0  0
  150.5094  130.4207  155.0636 C   0  0  0  0  0  0  0  0  0  0  0  0
  149.5655  130.2398  154.0330 C   0  0  0  0  0  0  0  0  0  0  0  0
  149.1772  128.6499  153.4872 Cl  0  0  0  0  0  0  0  0  0  0  0  0
  148.9386  131.3574  153.4474 C   0  0  0  0  0  0  0  0  0  0  0  0
  149.2537  132.6556  153.8931 C   0  0  0  0  0  0  0  0  0  0  0  0
  152.2039  138.5109  156.8127 H   0  0  0  0  0  0  0  0  0  0  0  0
  150.7642  139.4287  156.6188 H   0  0  0  0  0  0  0  0  0  0  0  0
  153.3547  142.7404  160.6080 H   0  0  0  0  0  0  0  0  0  0  0  0
  151.7270  144.0317  157.7993 H   0  0  0  0  0  0  0  0  0  0  0  0
  152.8853  144.2498  160.6067 H   0  0  0  0  0  0  0  0  0  0  0  0
  153.3483  145.1304  159.1422 H   0  0  0  0  0  0  0  0  0  0  0  0
  151.7565  146.3533  160.9941 H   0  0  0  0  0  0  0  0  0  0  0  0
  151.3840  146.5242  159.2739 H   0  0  0  0  0  0  0  0  0  0  0  0
  150.1708  144.5210  161.2213 H   0  0  0  0  0  0  0  0  0  0  0  0
  149.3146  145.5889  160.1104 H   0  0  0  0  0  0  0  0  0  0  0  0
  150.3715  136.9641  156.3284 H   0  0  0  0  0  0  0  0  0  0  0  0
  148.5330  136.6105  159.4663 H   0  0  0  0  0  0  0  0  0  0  0  0
  147.2404  134.6041  160.0753 H   0  0  0  0  0  0  0  0  0  0  0  0
  147.4042  132.5375  158.7003 H   0  0  0  0  0  0  0  0  0  0  0  0
  148.8771  132.4897  156.7022 H   0  0  0  0  0  0  0  0  0  0  0  0
  151.5455  131.8543  156.3043 H   0  0  0  0  0  0  0  0  0  0  0  0
  150.9911  129.5648  155.5130 H   0  0  0  0  0  0  0  0  0  0  0  0
  148.2158  131.2206  152.6568 H   0  0  0  0  0  0  0  0  0  0  0  0
  148.7720  133.5098  153.4416 H   0  0  0  0  0  0  0  0  0  0  0  0
  1  2  2  0  0  0  0
  2  3  1  0  0  0  0
  2 18  1  0  0  0  0
  3  4  1  0  0  0  0
  3 33  1  0  0  0  0
  3 34  1  0  0  0  0
  4 16  1  0  0  0  0
  4  5  1  0  0  0  0
  5  6  2  0  0  0  0
  5  7  1  0  0  0  0
  7  8  1  0  0  0  0
  7  9  2  0  0  0  0
  9 10  1  0  0  0  0
  9 35  1  0  0  0  0
 10 11  1  0  0  0  0
 10 16  1  0  0  0  0
 11 15  1  0  0  0  0
 11 12  1  0  0  0  0
 11 36  1  0  0  0  0
 12 13  1  0  0  0  0
 12 37  1  0  0  0  0
 12 38  1  0  0  0  0
 13 14  1  0  0  0  0
 13 39  1  0  0  0  0
 13 40  1  0  0  0  0
 14 15  1  0  0  0  0
 14 41  1  0  0  0  0
 14 42  1  0  0  0  0
 16 17  2  0  0  0  0
 18 19  1  0  0  0  0
 18 43  1  0  0  0  0
 19 24  1  0  0  0  0
 19 20  2  0  0  0  0
 20 21  1  0  0  0  0
 20 44  1  0  0  0  0
 21 22  2  0  0  0  0
 21 45  1  0  0  0  0
 22 23  1  0  0  0  0
 22 46  1  0  0  0  0
 23 24  2  0  0  0  0
 23 47  1  0  0  0  0
 24 25  1  0  0  0  0
 25 26  1  0  0  0  0
 26 32  1  0  0  0  0
 26 27  2  0  0  0  0
 27 28  1  0  0  0  0
 27 48  1  0  0  0  0
 28 29  2  0  0  0  0
 28 49  1  0  0  0  0
 29 30  1  0  0  0  0
 29 31  1  0  0  0  0
 31 32  2  0  0  0  0
 31 50  1  0  0  0  0
 32 51  1  0  0  0  0
M  END
> <s_m_source_file>
AV-unprocessed.smi

> <i_m_source_file_index>
134

> <i_lp_mmshare_version>
43012

> <i_f3d_flags>
0

> <s_epik_input>
TzFbQ0gyXVtDSDJdW0NIMl1bQ0BIXTFuKGMyPU8pW2NIXWMoRiljKD1PKW4yW0NIMl1DKD1PKVtOSF1jM1tjSF1bY0hdW2NIXVtjSF1jM1NjNFtjSF1bY0hdYyhDbClbY0hdW2NIXTQ=

> <s_epik_cmdline>
J2VwaWtfcHl0aG9uJywgJy1waCcsICc3LjAnLCAnLXRuJywgJzgnLCAnLW1hJywgJzIwMCcsICctbWV0YWxfYmluZGluZycsICctaW1hZScsICc8aW5maWxlLm1hZT4nLCAnLW9tYWUnLCAnPG91dGZpbGUubWFlPic=

> <r_lp_tautomer_probability>
1

> <r_epik_Ionization_Penalty>
2.01717e-06

> <r_epik_Ionization_Penalty_Charging>
3.88729e-08

> <r_epik_Ionization_Penalty_Neutral>
1.9783e-06

> <r_epik_State_Penalty>
-0

> <r_epik_Charging_Adjusted_Penalty>
3.88729e-08

> <i_epik_Tot_Q>
0

> <i_epik_Tot_abs_Q>
0

> <r_epik_Metal_State_Penalty>
-0

> <b_epik_Metal_Only>
0

> <s_epik_Chemistry_Notes>
This compound contains an acetal/aminal-like group ( X-CH(R)-Y where X, Y are N, S, or O) that may be acid/base labile, releasing an aldehyde.

> <s_lp_Force_Field>
OPLS_2005

> <r_lp_Energy>
29.8469

> <b_lp_Chiralities_Consistent>
1

> <s_lp_Variant>
AV-unprocessed.smi:134-1

> <Gold.Version>
5.8.1

> <Gold.Id.Protein>
6NUR|6NUR_protein|mol2

> <Gold.PLP.Fitness>
53.9431

> <Gold.PLP.PLP>
-55.1718

> <Gold.PLP.part.hbond>
-0.9488

> <Gold.PLP.part.metal>
0.0000

> <Gold.PLP.part.buried>
-7.0683

> <Gold.PLP.part.nonpolar>
-47.3590

> <Gold.PLP.part.repulsive>
0.2456

> <Gold.PLP.ligand.clash>
0.0000

> <Gold.PLP.ligand.torsion>
0.6290

> <Gold.PLP.Chemscore.Hbond>
0.0000

> <Gold.PLP.Chemscore.CHOScore>
0.0000

> <Gold.PLP.Chemscore.Metal>
0.0000

> <Gold.PLP.Chemscore.Internal.Correction>
0.0292

> <Gold.Rescore>
     Score         DG    S(hbond)    S(metal)    S(lipo)     H(rot)  DE(clash)    DE(int)     intcor
     12.08     -14.12       0.00        0.00     116.64       1.95       0.01       2.03       ----

> <Gold.Chemscore.Fitness>
12.0807

> <Gold.Chemscore.DG>
-14.1219

> <Gold.Chemscore.ZeroCoef>
-5.4800

> <Gold.Chemscore.Hbond>
0.0000

> <Gold.Chemscore.Metal>
0.0000

> <Gold.Chemscore.Lipo>
116.6369

> <Gold.Chemscore.Internal_Hbond>
0.0000

> <Gold.Chemscore.DEClash>
0.0096

> <Gold.Chemscore.DEInternal>
2.0316

> <Gold.Chemscore.Rot>
1.9549

> <Gold.Chemscore.Internal.Correction>
   9.000000E+99

> <Gold.Chemscore.Hbond.Weighted>
-0.0000

> <Gold.Chemscore.Metal.Weighted>
-0.0000

> <Gold.Chemscore.Lipo.Weighted>
-13.6465

> <Gold.Chemscore.Internal_Hbond.Weighted>
0.0000

> <Gold.Chemscore.DEClash.Weighted>
0.0096

> <Gold.Chemscore.DEInternal.Weighted>
2.0316

> <Gold.Chemscore.Rot.Weighted>
5.0046

> <Gold.Chemscore.Internal.Correction.Weighted>
   9.000000E+99

> <Gold.Protein.RotatedTorsions>
[ 6907 6896 6895 6894 ] final   96.32 input  -60.11 | X-H torsion
[ 7974 7965 7964 7962 ] final  -99.36 input  175.53 | X-H torsion
[ 8008 7997 7996 7995 ] final   22.34 input   59.86 | X-H torsion
[ 10167 10162 10161 10158 ] final  133.95 input  -65.29 | X-H torsion
[ 10718 10713 10712 10709 ] final -150.74 input   66.30 | X-H torsion
[ 10763 10752 10751 10750 ] final -163.83 input  -60.55 | X-H torsion
[ 11005 11000 10999 10996 ] final  110.98 input  -57.11 | X-H torsion

> <Gold.Protein.ActiveResidues>
 VAL166  LYS551  ARG553  GLY616  TRP617  ASP618  TYR619  PRO620  LYS621  CYS622 
 ASP623  PHE694  ASN695  SER759  ASP760  ASP761  ALA762  ILE779  LEU786  VAL792 
 PHE793  MET794  SER795  GLU796  ALA797  LYS798  CYS799  TRP800  GLU811  SER814 

> <Gold.Protein.RotatedAtoms>
  152.5436  134.0905  159.8274 H   0  0  0  0  0  0  0  0  0  0  0  0  # atno 6907 bound_to 6896
  151.0995  133.5247  159.2618 H   0  0  0  0  0  0  0  0  0  0  0  0  # atno 6908 bound_to 6896
  151.2007  135.0450  159.8925 H   0  0  0  0  0  0  0  0  0  0  0  0  # atno 6909 bound_to 6896
  145.3086  140.9395  143.2783 H   0  0  0  0  0  0  0  0  0  0  0  0  # atno 7974 bound_to 7965
  154.9642  140.3082  155.5017 H   0  0  0  0  0  0  0  0  0  0  0  0  # atno 8008 bound_to 7997
  156.2973  140.2295  156.4669 H   0  0  0  0  0  0  0  0  0  0  0  0  # atno 8009 bound_to 7997
  154.7936  140.0438  157.1208 H   0  0  0  0  0  0  0  0  0  0  0  0  # atno 8010 bound_to 7997
  139.5276  144.6591  151.5070 H   0  0  0  0  0  0  0  0  0  0  0  0  # atno 10167 bound_to 10162
  156.4501  130.8164  151.2394 H   0  0  0  0  0  0  0  0  0  0  0  0  # atno 10718 bound_to 10713
  154.7085  135.3001  154.9233 H   0  0  0  0  0  0  0  0  0  0  0  0  # atno 10763 bound_to 10752
  154.0142  135.6691  153.4771 H   0  0  0  0  0  0  0  0  0  0  0  0  # atno 10764 bound_to 10752
  153.0736  135.5047  154.8270 H   0  0  0  0  0  0  0  0  0  0  0  0  # atno 10765 bound_to 10752
  139.8893  134.9497  156.6363 H   0  0  0  0  0  0  0  0  0  0  0  0  # atno 11005 bound_to 11000
  144.9035  139.4619  143.6621 LP  0  0  0  0  0  0  0  0  0  0  0  0  # atno 17320 bound_to 7965
  146.3126  139.7802  142.9008 LP  0  0  0  0  0  0  0  0  0  0  0  0  # atno 17321 bound_to 7965
  140.6430  143.8850  150.6710 LP  0  0  0  0  0  0  0  0  0  0  0  0  # atno 17342 bound_to 10162
  140.2191  143.3823  152.1657 LP  0  0  0  0  0  0  0  0  0  0  0  0  # atno 17343 bound_to 10162
  157.7503  131.0140  150.3448 LP  0  0  0  0  0  0  0  0  0  0  0  0  # atno 17370 bound_to 10713
  156.3825  130.3883  149.7091 LP  0  0  0  0  0  0  0  0  0  0  0  0  # atno 17371 bound_to 10713
  140.7628  133.8803  155.8431 LP  0  0  0  0  0  0  0  0  0  0  0  0  # atno 17394 bound_to 11000
  140.9907  134.1282  157.4410 LP  0  0  0  0  0  0  0  0  0  0  0  0  # atno 17395 bound_to 11000

$$$$
