AV-unprocessed.smi:1815|AV-procd|sdf|7363|dock1
  -GOLD-   22720 9 23D 1   1.00000     0.00000
 Structure written by MMmdl.
 39 40  0  0  0  0  0  0  0  0  3 V2000
  150.1326  141.6753  157.1897 C   0  0  0  0  0  0  0  0  0  0  0  0
  150.7308  141.3223  155.8160 C   0  0  1  0  0  0  0  0  0  0  0  0
  151.2412  139.8708  155.7206 C   0  0  0  0  0  0  0  0  0  0  0  0
  150.1152  138.9110  155.6341 N   0  3  2  0  0  0  0  0  0  0  0  0
  150.5745  137.5004  155.6080 C   0  0  0  0  0  0  0  0  0  0  0  0
  149.5006  136.5290  156.1213 C   0  0  0  0  0  0  0  0  0  0  0  0
  149.5881  136.3947  157.5683 N   0  0  0  0  0  0  0  0  0  0  0  0
  148.5495  136.4626  158.4112 C   0  0  0  0  0  0  0  0  0  0  0  0
  147.4129  136.6480  157.9699 O   0  0  0  0  0  0  0  0  0  0  0  0
  148.8934  136.3114  159.7097 N   0  5  0  0  0  0  0  0  0  0  0  0
  147.9452  136.3161  160.6609 C   0  0  0  0  0  0  0  0  0  0  0  0
  147.4367  137.4406  161.1776 N   0  0  0  0  0  0  0  0  0  0  0  0
  146.4683  137.2133  162.1571 C   0  0  0  0  0  0  0  0  0  0  0  0
  146.2403  135.8845  162.3980 C   0  0  0  0  0  0  0  0  0  0  0  0
  147.2407  134.8730  161.3954 S   0  0  0  0  0  0  0  0  0  0  0  0
  149.2234  139.2666  154.5041 C   0  0  0  0  0  0  0  0  0  0  0  0
  148.7164  140.7122  154.6543 C   0  0  2  0  0  0  0  0  0  0  0  0
  147.8620  141.1483  153.4588 C   0  0  0  0  0  0  0  0  0  0  0  0
  149.8282  141.5995  154.7453 O   0  0  0  0  0  0  0  0  0  0  0  0
  150.8849  141.5818  157.9731 H   0  0  0  0  0  0  0  0  0  0  0  0
  149.3017  141.0244  157.4607 H   0  0  0  0  0  0  0  0  0  0  0  0
  149.7711  142.7037  157.2031 H   0  0  0  0  0  0  0  0  0  0  0  0
  151.5850  141.9837  155.6674 H   0  0  0  0  0  0  0  0  0  0  0  0
  151.8701  139.7600  154.8355 H   0  0  0  0  0  0  0  0  0  0  0  0
  151.8680  139.6410  156.5834 H   0  0  0  0  0  0  0  0  0  0  0  0
  150.8934  137.2314  154.5996 H   0  0  0  0  0  0  0  0  0  0  0  0
  151.4531  137.4001  156.2475 H   0  0  0  0  0  0  0  0  0  0  0  0
  148.5075  136.8918  155.8505 H   0  0  0  0  0  0  0  0  0  0  0  0
  149.6184  135.5413  155.6754 H   0  0  0  0  0  0  0  0  0  0  0  0
  150.5030  136.2418  157.9673 H   0  0  0  0  0  0  0  0  0  0  0  0
  145.9930  138.0580  162.6328 H   0  0  0  0  0  0  0  0  0  0  0  0
  145.5504  135.4409  163.0998 H   0  0  0  0  0  0  0  0  0  0  0  0
  149.7636  139.1506  153.5630 H   0  0  0  0  0  0  0  0  0  0  0  0
  148.3697  138.5908  154.4659 H   0  0  0  0  0  0  0  0  0  0  0  0
  148.1044  140.7938  155.5529 H   0  0  0  0  0  0  0  0  0  0  0  0
  146.9876  140.5069  153.3464 H   0  0  0  0  0  0  0  0  0  0  0  0
  148.4303  141.1053  152.5290 H   0  0  0  0  0  0  0  0  0  0  0  0
  147.5083  142.1717  153.5854 H   0  0  0  0  0  0  0  0  0  0  0  0
  149.5806  139.0222  156.4841 H   0  0  0  0  0  0  0  0  0  0  0  0
  1  2  1  0  0  0  0
  1 20  1  0  0  0  0
  1 21  1  0  0  0  0
  1 22  1  0  0  0  0
  2 19  1  0  0  0  0
  2  3  1  0  0  0  0
  2 23  1  0  0  0  0
  3  4  1  0  0  0  0
  3 24  1  0  0  0  0
  3 25  1  0  0  0  0
  4  5  1  0  0  0  0
  4 16  1  0  0  0  0
  4 39  1  0  0  0  0
  5  6  1  0  0  0  0
  5 26  1  0  0  0  0
  5 27  1  0  0  0  0
  6  7  1  0  0  0  0
  6 28  1  0  0  0  0
  6 29  1  0  0  0  0
  7  8  1  0  0  0  0
  7 30  1  0  0  0  0
  8  9  2  0  0  0  0
  8 10  1  0  0  0  0
 10 11  1  0  0  0  0
 11 15  1  0  0  0  0
 11 12  2  0  0  0  0
 12 13  1  0  0  0  0
 13 14  2  0  0  0  0
 13 31  1  0  0  0  0
 14 15  1  0  0  0  0
 14 32  1  0  0  0  0
 16 17  1  0  0  0  0
 16 33  1  0  0  0  0
 16 34  1  0  0  0  0
 17 18  1  0  0  0  0
 17 19  1  0  0  0  0
 17 35  1  0  0  0  0
 18 36  1  0  0  0  0
 18 37  1  0  0  0  0
 18 38  1  0  0  0  0
M  CHG  1   4   1
M  CHG  1  10  -1
M  END
> <s_m_source_file>
AV-unprocessed.smi

> <i_m_source_file_index>
1815

> <i_lp_mmshare_version>
43012

> <i_f3d_flags>
0

> <s_epik_input>
W0NIM11bQ0BASF0xW0NIMl1OKFtDSDJdW0NASF0oTzEpW0NIM10pW0NIMl1bQ0gyXVtOSF1DKD1PKVtOSF1jMm5bY0hdW2NIXXMy

> <s_epik_cmdline>
J2VwaWtfcHl0aG9uJywgJy1waCcsICc3LjAnLCAnLXRuJywgJzgnLCAnLW1hJywgJzIwMCcsICctbWV0YWxfYmluZGluZycsICctaW1hZScsICc8aW5maWxlLm1hZT4nLCAnLW9tYWUnLCAnPG91dGZpbGUubWFlPic=

> <r_lp_tautomer_probability>
0.999

> <r_epik_Ionization_Penalty>
6.71699

> <r_epik_Ionization_Penalty_Charging>
5.88592

> <r_epik_Ionization_Penalty_Neutral>
0.831074

> <r_epik_State_Penalty>
6.08365

> <r_epik_Charging_Adjusted_Penalty>
11.9696

> <i_epik_Tot_Q>
0

> <i_epik_Tot_abs_Q>
2

> <r_epik_Metal_State_Penalty>
2.0947

> <b_epik_Metal_Only>
1

> <s_lp_Force_Field>
OPLS_2005

> <r_lp_Energy>
8.63778

> <b_lp_Chiralities_Consistent>
1

> <s_lp_Variant>
AV-unprocessed.smi:1815-14

> <Gold.Version>
5.8.1

> <Gold.Id.Protein>
6NUR|6NUR_protein|mol2

> <Gold.PLP.Fitness>
41.1835

> <Gold.PLP.PLP>
-32.2525

> <Gold.PLP.part.hbond>
-4.2227

> <Gold.PLP.part.metal>
0.0000

> <Gold.PLP.part.buried>
-3.5163

> <Gold.PLP.part.nonpolar>
-25.1626

> <Gold.PLP.part.repulsive>
0.2710

> <Gold.PLP.ligand.clash>
0.0000

> <Gold.PLP.ligand.torsion>
1.1884

> <Gold.PLP.Chemscore.Hbond>
3.7336

> <Gold.PLP.Chemscore.CHOScore>
0.0000

> <Gold.PLP.Chemscore.Metal>
0.0000

> <Gold.Chemscore.Hbonds>
donor molecule, donor type, donor heavy atom, donor atom, acceptor molecule, acceptor atom, score
      P1  H  6896  6909       L1    10  0.03
      P1  H  6931  6943       L1    12  0.75
      P1  H  6934  6947       L1    12  0.91
      P1  H  7989  7998       L1    19  0.01

> <Gold.PLP.Chemscore.Internal.Correction>
0.1070

> <Gold.Rescore>
     Score         DG    S(hbond)    S(metal)    S(lipo)     H(rot)  DE(clash)    DE(int)     intcor
     13.34     -14.64       1.60        0.00      67.90       1.61       0.09       1.21       ----

> <Gold.Chemscore.Fitness>
13.3447

> <Gold.Chemscore.DG>
-14.6449

> <Gold.Chemscore.ZeroCoef>
-5.4800

> <Gold.Chemscore.Hbond>
1.5962

> <Gold.Chemscore.Metal>
0.0000

> <Gold.Chemscore.Lipo>
67.9048

> <Gold.Chemscore.Internal_Hbond>
0.0000

> <Gold.Chemscore.DEClash>
0.0920

> <Gold.Chemscore.DEInternal>
1.2081

> <Gold.Chemscore.Rot>
1.6060

> <Gold.Chemscore.Internal.Correction>
   9.000000E+99

> <Gold.Chemscore.Hbonds>
donor molecule, donor type, donor heavy atom, donor atom, acceptor molecule, acceptor atom, score
      P1  H  6896  6909       L1    10  0.03
      P1  H  6931  6943       L1    12  0.19
      P1  H  6934  6947       L1    12  0.20

> <Gold.Chemscore.Hbond.Weighted>
-5.3313

> <Gold.Chemscore.Metal.Weighted>
-0.0000

> <Gold.Chemscore.Lipo.Weighted>
-7.9449

> <Gold.Chemscore.Internal_Hbond.Weighted>
0.0000

> <Gold.Chemscore.DEClash.Weighted>
0.0920

> <Gold.Chemscore.DEInternal.Weighted>
1.2081

> <Gold.Chemscore.Rot.Weighted>
4.1112

> <Gold.Chemscore.Internal.Correction.Weighted>
   9.000000E+99

> <Gold.Protein.RotatedTorsions>
[ 6907 6896 6895 6894 ] final   59.62 input  -60.11 | X-H torsion
[ 7974 7965 7964 7962 ] final  -89.00 input  175.53 | X-H torsion
[ 8008 7997 7996 7995 ] final  167.64 input   59.86 | X-H torsion
[ 10167 10162 10161 10158 ] final   19.41 input  -65.29 | X-H torsion
[ 10718 10713 10712 10709 ] final  169.65 input   66.30 | X-H torsion
[ 10763 10752 10751 10750 ] final -120.83 input  -60.55 | X-H torsion
[ 11005 11000 10999 10996 ] final  -32.91 input  -57.11 | X-H torsion

> <Gold.Protein.ActiveResidues>
 VAL166  LYS551  ARG553  GLY616  TRP617  ASP618  TYR619  PRO620  LYS621  CYS622 
 ASP623  PHE694  ASN695  SER759  ASP760  ASP761  ALA762  ILE779  LEU786  VAL792 
 PHE793  MET794  SER795  GLU796  ALA797  LYS798  CYS799  TRP800  GLU811  SER814 

> <Gold.Protein.RotatedAtoms>
  152.3931  134.6410  160.0099 H   0  0  0  0  0  0  0  0  0  0  0  0  # atno 6907 bound_to 6896
  151.6638  133.3310  159.3188 H   0  0  0  0  0  0  0  0  0  0  0  0  # atno 6908 bound_to 6896
  150.7843  134.6858  159.6514 H   0  0  0  0  0  0  0  0  0  0  0  0  # atno 6909 bound_to 6896
  145.4457  140.9560  143.2050 H   0  0  0  0  0  0  0  0  0  0  0  0  # atno 7974 bound_to 7965
  156.1616  140.1611  156.8602 H   0  0  0  0  0  0  0  0  0  0  0  0  # atno 8008 bound_to 7997
  154.5166  140.0788  156.8129 H   0  0  0  0  0  0  0  0  0  0  0  0  # atno 8009 bound_to 7997
  155.3696  140.3399  155.4245 H   0  0  0  0  0  0  0  0  0  0  0  0  # atno 8010 bound_to 7997
  140.5581  143.9388  150.6623 H   0  0  0  0  0  0  0  0  0  0  0  0  # atno 10167 bound_to 10162
  157.0196  131.0228  151.2778 H   0  0  0  0  0  0  0  0  0  0  0  0  # atno 10718 bound_to 10713
  154.8654  135.4189  154.2522 H   0  0  0  0  0  0  0  0  0  0  0  0  # atno 10763 bound_to 10752
  153.3466  135.6996  153.6829 H   0  0  0  0  0  0  0  0  0  0  0  0  # atno 10764 bound_to 10752
  153.5785  135.3577  155.2838 H   0  0  0  0  0  0  0  0  0  0  0  0  # atno 10765 bound_to 10752
  140.9591  133.7175  156.1341 H   0  0  0  0  0  0  0  0  0  0  0  0  # atno 11005 bound_to 11000
  144.8093  139.5992  143.7036 LP  0  0  0  0  0  0  0  0  0  0  0  0  # atno 17320 bound_to 7965
  146.2532  139.6245  142.9413 LP  0  0  0  0  0  0  0  0  0  0  0  0  # atno 17321 bound_to 7965
  140.2831  143.3375  152.1132 LP  0  0  0  0  0  0  0  0  0  0  0  0  # atno 17342 bound_to 10162
  139.5057  144.6800  151.6032 LP  0  0  0  0  0  0  0  0  0  0  0  0  # atno 17343 bound_to 10162
  157.5260  130.8028  149.7862 LP  0  0  0  0  0  0  0  0  0  0  0  0  # atno 17370 bound_to 10713
  156.0107  130.3834  150.2275 LP  0  0  0  0  0  0  0  0  0  0  0  0  # atno 17371 bound_to 10713
  140.7493  134.4063  157.5544 LP  0  0  0  0  0  0  0  0  0  0  0  0  # atno 17394 bound_to 11000
  139.8872  134.8889  156.2541 LP  0  0  0  0  0  0  0  0  0  0  0  0  # atno 17395 bound_to 11000

$$$$
