AV-unprocessed.smi:132|AV-procd|sdf|1164|dock8
  -GOLD-   2262018303D 1   1.00000     0.00000
 Structure written by MMmdl.
 41 44  0  0  0  0  0  0  0  0  1 V2000
  147.0774  138.7443  156.2974 O   0  0  0  0  0  0  0  0  0  0  0  0
  147.2748  138.0078  157.2654 C   0  0  0  0  0  0  0  0  0  0  0  0
  146.3945  137.9547  158.4275 C   0  0  0  0  0  0  0  0  0  0  0  0
  145.3208  138.7606  158.4856 F   0  0  0  0  0  0  0  0  0  0  0  0
  146.6416  137.1087  159.4507 C   0  0  0  0  0  0  0  0  0  0  0  0
  147.7217  136.2436  159.4722 N   0  0  0  0  0  0  0  0  0  0  0  0
  147.9451  135.3159  160.6435 C   0  0  1  0  0  0  0  0  0  0  0  0
  147.9472  136.0968  161.9628 C   0  0  0  0  0  0  0  0  0  0  0  0
  147.1715  135.1675  162.8711 C   0  0  0  0  0  0  0  0  0  0  0  0
  146.1644  134.5607  161.9024 C   0  0  0  0  0  0  0  0  0  0  0  0
  146.9023  134.3844  160.6971 O   0  0  0  0  0  0  0  0  0  0  0  0
  148.6387  136.2388  158.3983 C   0  0  0  0  0  0  0  0  0  0  0  0
  149.6132  135.4834  158.3994 O   0  0  0  0  0  0  0  0  0  0  0  0
  148.3860  137.1313  157.3284 N   0  0  0  0  0  0  0  0  0  0  0  0
  149.2957  137.1211  156.1930 C   0  0  0  0  0  0  0  0  0  0  0  0
  149.9838  138.4433  156.0327 C   0  0  0  0  0  0  0  0  0  0  0  0
  150.4398  138.9766  154.8986 N   0  0  0  0  0  0  0  0  0  0  0  0
  150.9849  140.1909  155.2483 N   0  0  0  0  0  0  0  0  0  0  0  0
  150.8216  140.3070  156.5706 C   0  0  0  0  0  0  0  0  0  0  0  0
  151.2298  141.4062  157.4433 C   0  0  0  0  0  0  0  0  0  0  0  0
  151.6415  141.1615  158.7736 C   0  0  0  0  0  0  0  0  0  0  0  0
  152.0331  142.2287  159.6053 C   0  0  0  0  0  0  0  0  0  0  0  0
  152.0130  143.5490  159.1165 C   0  0  0  0  0  0  0  0  0  0  0  0
  152.4928  144.8561  160.1358 Cl  0  0  0  0  0  0  0  0  0  0  0  0
  151.6002  143.8012  157.7944 C   0  0  0  0  0  0  0  0  0  0  0  0
  151.2105  142.7344  156.9616 C   0  0  0  0  0  0  0  0  0  0  0  0
  150.1886  139.2350  157.1184 O   0  0  0  0  0  0  0  0  0  0  0  0
  145.9585  137.1163  160.2857 H   0  0  0  0  0  0  0  0  0  0  0  0
  148.8688  134.7655  160.4620 H   0  0  0  0  0  0  0  0  0  0  0  0
  148.9637  136.2999  162.3009 H   0  0  0  0  0  0  0  0  0  0  0  0
  147.4142  137.0413  161.8424 H   0  0  0  0  0  0  0  0  0  0  0  0
  147.8286  134.3915  163.2657 H   0  0  0  0  0  0  0  0  0  0  0  0
  146.7017  135.6812  163.7103 H   0  0  0  0  0  0  0  0  0  0  0  0
  145.7540  133.6162  162.2601 H   0  0  0  0  0  0  0  0  0  0  0  0
  145.3358  135.2483  161.7306 H   0  0  0  0  0  0  0  0  0  0  0  0
  150.0194  136.3194  156.3500 H   0  0  0  0  0  0  0  0  0  0  0  0
  148.7460  136.8599  155.2882 H   0  0  0  0  0  0  0  0  0  0  0  0
  151.6659  140.1559  159.1675 H   0  0  0  0  0  0  0  0  0  0  0  0
  152.3494  142.0324  160.6193 H   0  0  0  0  0  0  0  0  0  0  0  0
  151.5819  144.8130  157.4167 H   0  0  0  0  0  0  0  0  0  0  0  0
  150.8957  142.9450  155.9500 H   0  0  0  0  0  0  0  0  0  0  0  0
  1  2  2  0  0  0  0
  2 14  1  0  0  0  0
  2  3  1  0  0  0  0
  3  4  1  0  0  0  0
  3  5  2  0  0  0  0
  5  6  1  0  0  0  0
  5 28  1  0  0  0  0
  6  7  1  0  0  0  0
  6 12  1  0  0  0  0
  7 11  1  0  0  0  0
  7  8  1  0  0  0  0
  7 29  1  0  0  0  0
  8  9  1  0  0  0  0
  8 30  1  0  0  0  0
  8 31  1  0  0  0  0
  9 10  1  0  0  0  0
  9 32  1  0  0  0  0
  9 33  1  0  0  0  0
 10 11  1  0  0  0  0
 10 34  1  0  0  0  0
 10 35  1  0  0  0  0
 12 13  2  0  0  0  0
 12 14  1  0  0  0  0
 14 15  1  0  0  0  0
 15 16  1  0  0  0  0
 15 36  1  0  0  0  0
 15 37  1  0  0  0  0
 16 27  1  0  0  0  0
 16 17  2  0  0  0  0
 17 18  1  0  0  0  0
 18 19  2  0  0  0  0
 19 20  1  0  0  0  0
 19 27  1  0  0  0  0
 20 26  1  0  0  0  0
 20 21  2  0  0  0  0
 21 22  1  0  0  0  0
 21 38  1  0  0  0  0
 22 23  2  0  0  0  0
 22 39  1  0  0  0  0
 23 24  1  0  0  0  0
 23 25  1  0  0  0  0
 25 26  2  0  0  0  0
 25 40  1  0  0  0  0
 26 41  1  0  0  0  0
M  END
> <s_m_source_file>
AV-unprocessed.smi

> <i_m_source_file_index>
132

> <i_lp_mmshare_version>
43012

> <i_f3d_flags>
0

> <s_epik_input>
TzFbQ0gyXVtDSDJdW0NIMl1bQ0BIXTFuKFtjSF1jKEYpYzI9TyljKD1PKW4yW0NIMl1jM25uYyhvMyktYzRbY0hdW2NIXWMoQ2wpW2NIXVtjSF00

> <s_epik_cmdline>
J2VwaWtfcHl0aG9uJywgJy1waCcsICc3LjAnLCAnLXRuJywgJzgnLCAnLW1hJywgJzIwMCcsICctbWV0YWxfYmluZGluZycsICctaW1hZScsICc8aW5maWxlLm1hZT4nLCAnLW9tYWUnLCAnPG91dGZpbGUubWFlPic=

> <r_lp_tautomer_probability>
1

> <r_epik_Ionization_Penalty>
2.5553e-09

> <r_epik_Ionization_Penalty_Charging>
2.54231e-09

> <r_epik_Ionization_Penalty_Neutral>
1.29923e-11

> <r_epik_State_Penalty>
-0

> <r_epik_Charging_Adjusted_Penalty>
2.54231e-09

> <i_epik_Tot_Q>
0

> <i_epik_Tot_abs_Q>
0

> <r_epik_Metal_State_Penalty>
-0

> <b_epik_Metal_Only>
0

> <s_epik_Chemistry_Notes>
This compound contains an acetal/aminal-like group ( X-CH(R)-Y where X, Y are N, S, or O) that may be acid/base labile, releasing an aldehyde.

> <s_lp_Force_Field>
OPLS_2005

> <r_lp_Energy>
32.8563

> <b_lp_Chiralities_Consistent>
1

> <s_lp_Variant>
AV-unprocessed.smi:132-2

> <Gold.Version>
5.8.1

> <Gold.Id.Protein>
6NUR|6NUR_protein|mol2

> <Gold.PLP.Fitness>
45.7875

> <Gold.PLP.PLP>
-41.5880

> <Gold.PLP.part.hbond>
-2.0000

> <Gold.PLP.part.metal>
0.0000

> <Gold.PLP.part.buried>
-5.9162

> <Gold.PLP.part.nonpolar>
-34.8950

> <Gold.PLP.part.repulsive>
0.1189

> <Gold.PLP.ligand.clash>
0.0000

> <Gold.PLP.ligand.torsion>
0.9129

> <Gold.PLP.Chemscore.Hbond>
2.0000

> <Gold.PLP.Chemscore.CHOScore>
0.0000

> <Gold.PLP.Chemscore.Metal>
0.0000

> <Gold.Chemscore.Hbonds>
donor molecule, donor type, donor heavy atom, donor atom, acceptor molecule, acceptor atom, score
      P1  H  6896  6909       L1    13  1.00
      P1  H  7989  7998       L1    18  1.00

> <Gold.PLP.Chemscore.Internal.Correction>
0.0253

> <Gold.Rescore>
     Score         DG    S(hbond)    S(metal)    S(lipo)     H(rot)  DE(clash)    DE(int)     intcor
     17.01     -19.34       1.86        0.00     102.51       1.70       0.20       2.13       ----

> <Gold.Chemscore.Fitness>
17.0125

> <Gold.Chemscore.DG>
-19.3375

> <Gold.Chemscore.ZeroCoef>
-5.4800

> <Gold.Chemscore.Hbond>
1.8596

> <Gold.Chemscore.Metal>
0.0000

> <Gold.Chemscore.Lipo>
102.5079

> <Gold.Chemscore.Internal_Hbond>
0.0000

> <Gold.Chemscore.DEClash>
0.1953

> <Gold.Chemscore.DEInternal>
2.1297

> <Gold.Chemscore.Rot>
1.6980

> <Gold.Chemscore.Internal.Correction>
   9.000000E+99

> <Gold.Chemscore.Hbonds>
donor molecule, donor type, donor heavy atom, donor atom, acceptor molecule, acceptor atom, score
      P1  H  6896  6909       L1    13  1.00
      P1  H  7989  7998       L1    18  0.33

> <Gold.Chemscore.Hbond.Weighted>
-6.2110

> <Gold.Chemscore.Metal.Weighted>
-0.0000

> <Gold.Chemscore.Lipo.Weighted>
-11.9934

> <Gold.Chemscore.Internal_Hbond.Weighted>
0.0000

> <Gold.Chemscore.DEClash.Weighted>
0.1953

> <Gold.Chemscore.DEInternal.Weighted>
2.1297

> <Gold.Chemscore.Rot.Weighted>
4.3469

> <Gold.Chemscore.Internal.Correction.Weighted>
   9.000000E+99

> <Gold.Protein.RotatedTorsions>
[ 6907 6896 6895 6894 ] final   52.38 input  -60.11 | X-H torsion
[ 7974 7965 7964 7962 ] final   19.36 input  175.53 | X-H torsion
[ 8008 7997 7996 7995 ] final   39.10 input   59.86 | X-H torsion
[ 10167 10162 10161 10158 ] final  -22.69 input  -65.29 | X-H torsion
[ 10718 10713 10712 10709 ] final -118.30 input   66.30 | X-H torsion
[ 10763 10752 10751 10750 ] final   57.91 input  -60.55 | X-H torsion
[ 11005 11000 10999 10996 ] final -127.13 input  -57.11 | X-H torsion

> <Gold.Protein.ActiveResidues>
 VAL166  LYS551  ARG553  GLY616  TRP617  ASP618  TYR619  PRO620  LYS621  CYS622 
 ASP623  PHE694  ASN695  SER759  ASP760  ASP761  ALA762  ILE779  LEU786  VAL792 
 PHE793  MET794  SER795  GLU796  ALA797  LYS798  CYS799  TRP800  GLU811  SER814 

> <Gold.Protein.RotatedAtoms>
  152.3227  134.7360  160.0309 H   0  0  0  0  0  0  0  0  0  0  0  0  # atno 6907 bound_to 6896
  151.7803  133.3344  159.3478 H   0  0  0  0  0  0  0  0  0  0  0  0  # atno 6908 bound_to 6896
  150.7378  134.5868  159.6011 H   0  0  0  0  0  0  0  0  0  0  0  0  # atno 6909 bound_to 6896
  146.2152  139.8324  142.8657 H   0  0  0  0  0  0  0  0  0  0  0  0  # atno 7974 bound_to 7965
  155.2311  140.3338  155.4303 H   0  0  0  0  0  0  0  0  0  0  0  0  # atno 8008 bound_to 7997
  156.2295  140.1844  156.7326 H   0  0  0  0  0  0  0  0  0  0  0  0  # atno 8009 bound_to 7997
  154.5953  140.0631  156.9280 H   0  0  0  0  0  0  0  0  0  0  0  0  # atno 8010 bound_to 7997
  140.7286  143.4512  151.0514 H   0  0  0  0  0  0  0  0  0  0  0  0  # atno 10167 bound_to 10162
  156.1097  130.6238  150.9274 H   0  0  0  0  0  0  0  0  0  0  0  0  # atno 10718 bound_to 10713
  152.9859  135.5625  154.5467 H   0  0  0  0  0  0  0  0  0  0  0  0  # atno 10763 bound_to 10752
  154.4911  135.2793  155.1497 H   0  0  0  0  0  0  0  0  0  0  0  0  # atno 10764 bound_to 10752
  154.2966  135.6315  153.5460 H   0  0  0  0  0  0  0  0  0  0  0  0  # atno 10765 bound_to 10752
  140.9625  134.0917  157.3954 H   0  0  0  0  0  0  0  0  0  0  0  0  # atno 11005 bound_to 11000
  145.2983  141.0187  143.3623 LP  0  0  0  0  0  0  0  0  0  0  0  0  # atno 17320 bound_to 7965
  144.9025  139.4631  143.6626 LP  0  0  0  0  0  0  0  0  0  0  0  0  # atno 17321 bound_to 7965
  139.8188  143.7848  152.3176 LP  0  0  0  0  0  0  0  0  0  0  0  0  # atno 17342 bound_to 10162
  139.7924  144.7405  150.9937 LP  0  0  0  0  0  0  0  0  0  0  0  0  # atno 17343 bound_to 10162
  157.6277  131.0924  150.8503 LP  0  0  0  0  0  0  0  0  0  0  0  0  # atno 17370 bound_to 10713
  156.8616  130.5115  149.5303 LP  0  0  0  0  0  0  0  0  0  0  0  0  # atno 17371 bound_to 10713
  139.8883  135.0096  156.6611 LP  0  0  0  0  0  0  0  0  0  0  0  0  # atno 17394 bound_to 11000
  140.7447  133.8948  155.8303 LP  0  0  0  0  0  0  0  0  0  0  0  0  # atno 17395 bound_to 11000

$$$$
