#       Name:                AV-unprocessed.smi:2193
#       Creating user name   scv26
#       Creation time:       Fri Mar 27 12:11:25 2020


#       File generated by GOLD software.
#

@<TRIPOS>MOLECULE
AV-unprocessed.smi:2193
    47    49     1
SMALL
NO_CHARGES


@<TRIPOS>ATOM
      1 ****        -2.4911   2.9311   3.6661 O.3            1 S1                 0.0000
      2 ****        -2.2757   1.8258   2.8137 C.3            1 S1                 0.0000
      3 ****        -2.1770   2.2048   1.3700 C.2            1 S1                 0.0000
      4 ****        -2.5144   3.4093   0.8258 N.pl3          1 S1                 1.0000
      5 ****        -2.2915   3.3873  -0.5512 C.ar           1 S1                 0.0000
      6 ****        -2.4826   4.3655  -1.5222 C.ar           1 S1                 0.0000
      7 ****        -2.1539   4.0136  -2.8479 C.ar           1 S1                 0.0000
      8 ****        -1.6577   2.7325  -3.1662 C.ar           1 S1                 0.0000
      9 ****        -1.4684   1.7490  -2.1730 C.ar           1 S1                 0.0000
     10 ****        -1.7946   2.1060  -0.8650 C.ar           1 S1                 0.0000
     11 ****        -1.7373   1.4132   0.3492 N.pl3          1 S1                 0.0000
     12 ****        -1.2506   0.0246   0.3596 C.3            1 S1                 0.0000
     13 ****         0.2874  -0.0754   0.3067 C.3            1 S1                 0.0000
     14 ****         0.8291   0.6282   1.4072 O.3            1 S1                 0.0000
     15 ****         0.7698  -1.5333   0.3685 C.3            1 S1                 0.0000
     16 ****         2.0811  -1.6061  -0.1762 O.3            1 S1                 0.0000
     17 ****         2.7078  -2.8335  -0.2107 C.ar           1 S1                 0.0000
     18 ****         4.0160  -2.8691  -0.7368 C.ar           1 S1                 0.0000
     19 ****         4.7317  -4.0797  -0.8105 C.ar           1 S1                 0.0000
     20 ****         4.1417  -5.2737  -0.3572 C.ar           1 S1                 0.0000
     21 ****         4.8275  -6.4391  -0.4278 F              1 S1                 0.0000
     22 ****         2.8369  -5.2537   0.1694 C.ar           1 S1                 0.0000
     23 ****         2.1214  -4.0423   0.2438 C.ar           1 S1                 0.0000
     24 ****        -2.5404   2.6184   4.5568 H              1 S1                 0.0000
     25 ****        -1.3586   1.3219   3.1194 H              1 S1                 0.0000
     26 ****        -3.0937   1.1161   2.9394 H              1 S1                 0.0000
     27 ****        -2.8630   5.3474  -1.2810 H              1 S1                 0.0000
     28 ****        -2.2852   4.7406  -3.6363 H              1 S1                 0.0000
     29 ****        -1.4173   2.4994  -4.1936 H              1 S1                 0.0000
     30 ****        -1.0874   0.7707  -2.4265 H              1 S1                 0.0000
     31 ****        -1.6304  -0.4549   1.2627 H              1 S1                 0.0000
     32 ****        -1.7052  -0.5031  -0.4798 H              1 S1                 0.0000
     33 ****         0.6455   0.3859  -0.6142 H              1 S1                 0.0000
     34 ****         0.5877   1.5385   1.3288 H              1 S1                 0.0000
     35 ****         0.7347  -1.9104   1.3924 H              1 S1                 0.0000
     36 ****         0.1118  -2.1562  -0.2396 H              1 S1                 0.0000
     37 ****         4.4768  -1.9573  -1.0874 H              1 S1                 0.0000
     38 ****         5.7332  -4.0914  -1.2149 H              1 S1                 0.0000
     39 ****         2.3827  -6.1697   0.5171 H              1 S1                 0.0000
     40 ****         1.1232  -4.0680   0.6536 H              1 S1                 0.0000
     41 ****        -2.8704   4.1877   1.3659 H              1 S1                 0.0000
     42 ****        -3.3476   3.3848   3.4201 LP             1 S1                 0.0000
     43 ****        -1.7338   3.5781   3.5773 LP             1 S1                 0.0000
     44 ****         1.8254   0.5419   1.4056 LP             1 S1                 0.0000
     45 ****         0.4636   0.2544   2.2597 LP             1 S1                 0.0000
     46 ****         2.6597  -0.9934   0.3622 LP             1 S1                 0.0000
     47 ****         2.0293  -1.2737  -1.1179 LP             1 S1                 0.0000
@<TRIPOS>BOND
    1    1    2 1     
    2    1   24 1     
    3    2    3 1     
    4    2   25 1     
    5    2   26 1     
    6    3   11 1     
    7    3    4 2     
    8    4    5 1     
    9    4   41 1     
   10    5   10 ar    
   11    5    6 ar    
   12    6    7 ar    
   13    6   27 1     
   14    7    8 ar    
   15    7   28 1     
   16    8    9 ar    
   17    8   29 1     
   18    9   10 ar    
   19    9   30 1     
   20   10   11 1     
   21   11   12 1     
   22   12   13 1     
   23   12   31 1     
   24   12   32 1     
   25   13   14 1     
   26   13   15 1     
   27   13   33 1     
   28   14   34 1     
   29   15   16 1     
   30   15   35 1     
   31   15   36 1     
   32   16   17 1     
   33   17   23 ar    
   34   17   18 ar    
   35   18   19 ar    
   36   18   37 1     
   37   19   20 ar    
   38   19   38 1     
   39   20   21 1     
   40   20   22 ar    
   41   22   23 ar    
   42   22   39 1     
   43   23   40 1     
   44    1   42 1     
   45    1   43 1     
   46   14   44 1     
   47   14   45 1     
   48   16   46 1     
   49   16   47 1     
@<TRIPOS>SUBSTRUCTURE
      1 S1             1
@<TRIPOS>SET
LONE_PAIRS      STATIC     ATOMS    <user>   **** ""
6 42 43 44 45 46 47
DONOR_HYDROGENS      STATIC     ATOMS    <user>   **** ""
3 24 41 34
ATOM$BLUE        STATIC     ATOMS    COLORGROUP SYSTEM
6 42 43 44 45 46 47
ATOM$RED        STATIC     ATOMS    COLORGROUP SYSTEM
3 24 41 34
