AV-unprocessed.smi:983|AV-procd|sdf|4316|dock2
  -GOLD-   22720 2223D 1   1.00000     0.00000
 Structure written by MMmdl.
 35 36  0  0  0  0  0  0  0  0  1 V2000
  152.8475  143.0757  162.9768 C   0  0  0  0  0  0  0  0  0  0  0  0
  152.5121  143.0190  161.5007 C   0  0  0  0  0  0  0  0  0  0  0  0
  151.7976  144.1044  160.8613 C   0  0  0  0  0  0  0  0  0  0  0  0
  151.5137  144.0185  159.5525 C   0  0  0  0  0  0  0  0  0  0  0  0
  151.8910  142.9040  158.7814 N   0  0  0  0  0  0  0  0  0  0  0  0
  151.5330  142.9193  157.3534 C   0  0  0  0  0  0  0  0  0  0  0  0
  150.6006  141.7662  156.9566 C   0  0  0  0  0  0  0  0  0  0  0  0
  150.6742  140.6751  157.5236 O   0  0  0  0  0  0  0  0  0  0  0  0
  149.7399  142.0185  155.9590 N   0  0  0  0  0  0  0  0  0  0  0  0
  148.7713  141.0629  155.4290 C   0  0  0  0  0  0  0  0  0  0  0  0
  149.0922  140.6728  153.9721 C   0  0  0  0  0  0  0  0  0  0  0  0
  147.7678  140.7602  153.2133 C   0  0  0  0  0  0  0  0  0  0  0  0
  146.9979  141.8632  153.9327 C   0  0  0  0  0  0  0  0  0  0  0  0
  147.3574  141.6733  155.4073 C   0  0  0  0  0  0  0  0  0  0  0  0
  152.5714  141.8490  159.3224 C   0  0  0  0  0  0  0  0  0  0  0  0
  152.9096  140.8735  158.6512 O   0  0  0  0  0  0  0  0  0  0  0  0
  152.8736  141.9518  160.7547 C   0  0  0  0  0  0  0  0  0  0  0  0
  152.6063  144.0517  163.3985 H   0  0  0  0  0  0  0  0  0  0  0  0
  153.9107  142.8917  163.1336 H   0  0  0  0  0  0  0  0  0  0  0  0
  152.2830  142.3190  163.5221 H   0  0  0  0  0  0  0  0  0  0  0  0
  151.4984  144.9753  161.4261 H   0  0  0  0  0  0  0  0  0  0  0  0
  150.9905  144.7955  159.0141 H   0  0  0  0  0  0  0  0  0  0  0  0
  151.0699  143.8735  157.0939 H   0  0  0  0  0  0  0  0  0  0  0  0
  152.4282  142.8588  156.7331 H   0  0  0  0  0  0  0  0  0  0  0  0
  149.7494  142.9383  155.5427 H   0  0  0  0  0  0  0  0  0  0  0  0
  148.7552  140.1720  156.0599 H   0  0  0  0  0  0  0  0  0  0  0  0
  149.7971  141.3804  153.5323 H   0  0  0  0  0  0  0  0  0  0  0  0
  149.5430  139.6826  153.8998 H   0  0  0  0  0  0  0  0  0  0  0  0
  147.9045  140.9652  152.1514 H   0  0  0  0  0  0  0  0  0  0  0  0
  147.2286  139.8164  153.3045 H   0  0  0  0  0  0  0  0  0  0  0  0
  147.3482  142.8379  153.5910 H   0  0  0  0  0  0  0  0  0  0  0  0
  145.9237  141.8127  153.7524 H   0  0  0  0  0  0  0  0  0  0  0  0
  146.6569  140.9701  155.8598 H   0  0  0  0  0  0  0  0  0  0  0  0
  147.2787  142.6056  155.9685 H   0  0  0  0  0  0  0  0  0  0  0  0
  153.4068  141.1386  161.2256 H   0  0  0  0  0  0  0  0  0  0  0  0
  1  2  1  0  0  0  0
  1 18  1  0  0  0  0
  1 19  1  0  0  0  0
  1 20  1  0  0  0  0
  2 17  2  0  0  0  0
  2  3  1  0  0  0  0
  3  4  2  0  0  0  0
  3 21  1  0  0  0  0
  4  5  1  0  0  0  0
  4 22  1  0  0  0  0
  5  6  1  0  0  0  0
  5 15  1  0  0  0  0
  6  7  1  0  0  0  0
  6 23  1  0  0  0  0
  6 24  1  0  0  0  0
  7  8  2  0  0  0  0
  7  9  1  0  0  0  0
  9 10  1  0  0  0  0
  9 25  1  0  0  0  0
 10 14  1  0  0  0  0
 10 11  1  0  0  0  0
 10 26  1  0  0  0  0
 11 12  1  0  0  0  0
 11 27  1  0  0  0  0
 11 28  1  0  0  0  0
 12 13  1  0  0  0  0
 12 29  1  0  0  0  0
 12 30  1  0  0  0  0
 13 14  1  0  0  0  0
 13 31  1  0  0  0  0
 13 32  1  0  0  0  0
 14 33  1  0  0  0  0
 14 34  1  0  0  0  0
 15 16  2  0  0  0  0
 15 17  1  0  0  0  0
 17 35  1  0  0  0  0
M  END
> <s_m_source_file>
AV-unprocessed.smi

> <i_m_source_file_index>
983

> <i_lp_mmshare_version>
43012

> <i_f3d_flags>
0

> <s_epik_input>
W0NIM11jMVtjSF1bY0hdbihjKD1PKVtjSF0xKVtDSDJdQyg9TylbTkhdW0NIXTJbQ0gyXVtDSDJdW0NIMl1bQ0gyXTI=

> <s_epik_cmdline>
J2VwaWtfcHl0aG9uJywgJy1waCcsICc3LjAnLCAnLXRuJywgJzgnLCAnLW1hJywgJzIwMCcsICctbWV0YWxfYmluZGluZycsICctaW1hZScsICc8aW5maWxlLm1hZT4nLCAnLW9tYWUnLCAnPG91dGZpbGUubWFlPic=

> <r_lp_tautomer_probability>
1

> <r_epik_Ionization_Penalty>
5.52576e-07

> <r_epik_Ionization_Penalty_Charging>
5.33275e-07

> <r_epik_Ionization_Penalty_Neutral>
1.93017e-08

> <r_epik_State_Penalty>
-0

> <r_epik_Charging_Adjusted_Penalty>
5.33275e-07

> <i_epik_Tot_Q>
0

> <i_epik_Tot_abs_Q>
0

> <r_epik_Metal_State_Penalty>
-0

> <b_epik_Metal_Only>
0

> <s_lp_Force_Field>
OPLS_2005

> <r_lp_Energy>
27.4502

> <b_lp_Chiralities_Consistent>
1

> <s_lp_Variant>
AV-unprocessed.smi:983-1

> <Gold.Version>
5.8.1

> <Gold.Id.Protein>
6NUR|6NUR_protein|mol2

> <Gold.PLP.Fitness>
45.9741

> <Gold.PLP.PLP>
-42.7848

> <Gold.PLP.part.hbond>
-1.9832

> <Gold.PLP.part.metal>
0.0000

> <Gold.PLP.part.buried>
-4.0188

> <Gold.PLP.part.nonpolar>
-36.2499

> <Gold.PLP.part.repulsive>
0.1133

> <Gold.PLP.ligand.clash>
0.0000

> <Gold.PLP.ligand.torsion>
0.4221

> <Gold.PLP.Chemscore.Hbond>
1.3432

> <Gold.PLP.Chemscore.CHOScore>
0.0000

> <Gold.PLP.Chemscore.Metal>
0.0000

> <Gold.Chemscore.Hbonds>
donor molecule, donor type, donor heavy atom, donor atom, acceptor molecule, acceptor atom, score
      L1  H     9    25       P1  8028  0.85

> <Gold.PLP.Chemscore.Internal.Correction>
0.0040

> <Gold.Rescore>
     Score         DG    S(hbond)    S(metal)    S(lipo)     H(rot)  DE(clash)    DE(int)     intcor
     15.21     -18.43       1.67        0.00      93.15       1.38       0.38       2.84       ----

> <Gold.Chemscore.Fitness>
15.2060

> <Gold.Chemscore.DG>
-18.4319

> <Gold.Chemscore.ZeroCoef>
-5.4800

> <Gold.Chemscore.Hbond>
1.6718

> <Gold.Chemscore.Metal>
0.0000

> <Gold.Chemscore.Lipo>
93.1459

> <Gold.Chemscore.Internal_Hbond>
0.0000

> <Gold.Chemscore.DEClash>
0.3847

> <Gold.Chemscore.DEInternal>
2.8412

> <Gold.Chemscore.Rot>
1.3789

> <Gold.Chemscore.Internal.Correction>
   9.000000E+99

> <Gold.Chemscore.Hbonds>
donor molecule, donor type, donor heavy atom, donor atom, acceptor molecule, acceptor atom, score
      L1  H     9    25       P1  8028  0.83
      P1  H  7997  8009       L1    16  0.02

> <Gold.Chemscore.Hbond.Weighted>
-5.5839

> <Gold.Chemscore.Metal.Weighted>
-0.0000

> <Gold.Chemscore.Lipo.Weighted>
-10.8981

> <Gold.Chemscore.Internal_Hbond.Weighted>
0.0000

> <Gold.Chemscore.DEClash.Weighted>
0.3847

> <Gold.Chemscore.DEInternal.Weighted>
2.8412

> <Gold.Chemscore.Rot.Weighted>
3.5301

> <Gold.Chemscore.Internal.Correction.Weighted>
   9.000000E+99

> <Gold.Protein.RotatedTorsions>
[ 6907 6896 6895 6894 ] final   44.55 input  -60.11 | X-H torsion
[ 7974 7965 7964 7962 ] final -109.13 input  175.53 | X-H torsion
[ 8008 7997 7996 7995 ] final  160.10 input   59.86 | X-H torsion
[ 10167 10162 10161 10158 ] final -159.60 input  -65.29 | X-H torsion
[ 10718 10713 10712 10709 ] final   61.69 input   66.30 | X-H torsion
[ 10763 10752 10751 10750 ] final -110.17 input  -60.55 | X-H torsion
[ 11005 11000 10999 10996 ] final  179.41 input  -57.11 | X-H torsion

> <Gold.Protein.ActiveResidues>
 VAL166  LYS551  ARG553  GLY616  TRP617  ASP618  TYR619  PRO620  LYS621  CYS622 
 ASP623  PHE694  ASN695  SER759  ASP760  ASP761  ALA762  ILE779  LEU786  VAL792 
 PHE793  MET794  SER795  GLU796  ALA797  LYS798  CYS799  TRP800  GLU811  SER814 

> <Gold.Protein.RotatedAtoms>
  152.2338  134.8296  160.0469 H   0  0  0  0  0  0  0  0  0  0  0  0  # atno 6907 bound_to 6896
  151.9035  133.3538  159.3847 H   0  0  0  0  0  0  0  0  0  0  0  0  # atno 6908 bound_to 6896
  150.7033  134.4730  159.5478 H   0  0  0  0  0  0  0  0  0  0  0  0  # atno 6909 bound_to 6896
  145.1843  140.8986  143.3461 H   0  0  0  0  0  0  0  0  0  0  0  0  # atno 7974 bound_to 7965
  156.2195  140.1813  156.7511 H   0  0  0  0  0  0  0  0  0  0  0  0  # atno 8008 bound_to 7997
  154.5842  140.0661  156.9177 H   0  0  0  0  0  0  0  0  0  0  0  0  # atno 8009 bound_to 7997
  155.2448  140.3324  155.4291 H   0  0  0  0  0  0  0  0  0  0  0  0  # atno 8010 bound_to 7997
  139.6602  143.9925  152.2220 H   0  0  0  0  0  0  0  0  0  0  0  0  # atno 10167 bound_to 10162
  157.5846  130.9008  149.9492 H   0  0  0  0  0  0  0  0  0  0  0  0  # atno 10718 bound_to 10713
  154.8233  135.4574  154.0843 H   0  0  0  0  0  0  0  0  0  0  0  0  # atno 10763 bound_to 10752
  153.2179  135.6890  153.8042 H   0  0  0  0  0  0  0  0  0  0  0  0  # atno 10764 bound_to 10752
  153.7470  135.3304  155.3291 H   0  0  0  0  0  0  0  0  0  0  0  0  # atno 10765 bound_to 10752
  140.4058  134.6736  157.4587 H   0  0  0  0  0  0  0  0  0  0  0  0  # atno 11005 bound_to 11000
  145.0104  139.3515  143.6122 LP  0  0  0  0  0  0  0  0  0  0  0  0  # atno 17320 bound_to 7965
  146.3447  139.9365  142.8746 LP  0  0  0  0  0  0  0  0  0  0  0  0  # atno 17321 bound_to 7965
  139.9663  144.6524  150.8032 LP  0  0  0  0  0  0  0  0  0  0  0  0  # atno 17342 bound_to 10162
  140.7577  143.3091  151.2888 LP  0  0  0  0  0  0  0  0  0  0  0  0  # atno 17343 bound_to 10162
  156.0894  130.3665  150.0424 LP  0  0  0  0  0  0  0  0  0  0  0  0  # atno 17370 bound_to 10713
  156.8557  130.9474  151.3622 LP  0  0  0  0  0  0  0  0  0  0  0  0  # atno 17371 bound_to 10713
  140.0303  134.6416  155.9116 LP  0  0  0  0  0  0  0  0  0  0  0  0  # atno 17394 bound_to 11000
  141.1839  133.6552  156.5137 LP  0  0  0  0  0  0  0  0  0  0  0  0  # atno 17395 bound_to 11000

$$$$
