#       Name:                AV-unprocessed.smi:152
#       Creating user name   scv26
#       Creation time:       Thu Mar 26 18:47:00 2020


#       File generated by GOLD software.
#

@<TRIPOS>MOLECULE
AV-unprocessed.smi:152
    65    68     1
SMALL
NO_CHARGES


@<TRIPOS>ATOM
      1 ****        -2.7971   3.9187  -4.0715 C.3            1 S1                 0.0000
      2 ****        -2.9726   4.4927  -2.6586 C.3            1 S1                 0.0000
      3 ****        -2.7649   3.4819  -1.5893 N.4            1 S1                 1.0000
      4 ****        -3.1569   3.9805  -0.2487 C.3            1 S1                 0.0000
      5 ****        -1.8677   4.1108   0.5554 C.3            1 S1                 0.0000
      6 ****        -1.0221   2.9768   0.0022 C.3            1 S1                 0.0000
      7 ****        -1.3764   2.9519  -1.4930 C.3            1 S1                 0.0000
      8 ****        -1.2716   1.5437  -2.1205 C.3            1 S1                 0.0000
      9 ****         0.1070   1.0804  -2.2807 N.pl3          1 S1                 0.0000
     10 ****         0.8990   1.6809  -3.3508 C.3            1 S1                 0.0000
     11 ****         0.7646   0.5947  -1.1925 C.ar           1 S1                 0.0000
     12 ****         2.0194   1.0474  -0.9260 N.ar           1 S1                 0.0000
     13 ****         2.6882   0.6113   0.1448 C.ar           1 S1                 0.0000
     14 ****         2.2988  -0.2676   1.0684 N.ar           1 S1                 0.0000
     15 ****         1.0472  -0.7387   0.8046 C.ar           1 S1                 0.0000
     16 ****         0.2170  -0.3663  -0.2920 C.ar           1 S1                 0.0000
     17 ****        -0.9814  -1.0688  -0.2272 N.2            1 S1                 0.0000
     18 ****        -0.8696  -1.8033   0.8453 C.2            1 S1                 0.0000
     19 ****         0.3203  -1.6718   1.5227 N.pl3          1 S1                 0.0000
     20 ****         0.7131  -2.3717   2.7364 C.3            1 S1                 0.0000
     21 ****         1.3046  -3.7806   2.4837 C.3            1 S1                 0.0000
     22 ****         0.2802  -4.5823   1.9204 O.3            1 S1                 0.0000
     23 ****         2.5002  -3.7580   1.5062 C.3            1 S1                 0.0000
     24 ****         3.2048  -5.1238   1.4219 C.3            1 S1                 0.0000
     25 ****         3.5988  -5.5534   2.7195 O.3            1 S1                 0.0000
     26 ****         2.4937  -5.7531   3.5928 C.3            1 S1                 0.0000
     27 ****         1.7496  -4.4241   3.8124 C.3            1 S1                 0.0000
     28 ****        -3.0438   4.6690  -4.8227 H              1 S1                 0.0000
     29 ****        -3.4512   3.0618  -4.2349 H              1 S1                 0.0000
     30 ****        -1.7701   3.6036  -4.2559 H              1 S1                 0.0000
     31 ****        -2.3011   5.3393  -2.5071 H              1 S1                 0.0000
     32 ****        -3.9880   4.8826  -2.5766 H              1 S1                 0.0000
     33 ****        -3.7179   4.9159  -0.2762 H              1 S1                 0.0000
     34 ****        -3.8007   3.2300   0.2111 H              1 S1                 0.0000
     35 ****        -1.3902   5.0689   0.3467 H              1 S1                 0.0000
     36 ****        -2.0290   4.0371   1.6313 H              1 S1                 0.0000
     37 ****         0.0437   3.1210   0.1822 H              1 S1                 0.0000
     38 ****        -1.3185   2.0429   0.4821 H              1 S1                 0.0000
     39 ****        -0.7061   3.6418  -2.0087 H              1 S1                 0.0000
     40 ****        -1.8733   0.8374  -1.5534 H              1 S1                 0.0000
     41 ****        -1.7203   1.5527  -3.1132 H              1 S1                 0.0000
     42 ****         1.7184   1.0231  -3.6428 H              1 S1                 0.0000
     43 ****         1.3174   2.6374  -3.0361 H              1 S1                 0.0000
     44 ****         0.2842   1.8548  -4.2341 H              1 S1                 0.0000
     45 ****         3.6760   1.0266   0.2811 H              1 S1                 0.0000
     46 ****        -1.6533  -2.4723   1.1701 H              1 S1                 0.0000
     47 ****         1.4387  -1.7518   3.2644 H              1 S1                 0.0000
     48 ****        -0.1586  -2.4377   3.3891 H              1 S1                 0.0000
     49 ****         0.6280  -5.4472   1.7643 H              1 S1                 0.0000
     50 ****         2.1840  -3.4479   0.5094 H              1 S1                 0.0000
     51 ****         3.2244  -3.0150   1.8428 H              1 S1                 0.0000
     52 ****         2.5589  -5.8719   0.9598 H              1 S1                 0.0000
     53 ****         4.0929  -5.0454   0.7946 H              1 S1                 0.0000
     54 ****         1.8274  -6.5161   3.1879 H              1 S1                 0.0000
     55 ****         2.8648  -6.1330   4.5448 H              1 S1                 0.0000
     56 ****         2.4171  -3.7399   4.3380 H              1 S1                 0.0000
     57 ****         0.8928  -4.5785   4.4698 H              1 S1                 0.0000
     58 ****        -3.3754   2.7035  -1.7935 H              1 S1                 0.0000
     59 ****         2.4456   1.7135  -1.5381 LP             1 S1                 0.0000
     60 ****         2.8531  -0.5453   1.8531 LP             1 S1                 0.0000
     61 ****        -1.7544  -1.0217  -0.8599 LP             1 S1                 0.0000
     62 ****        -0.0260  -4.1810   1.0572 LP             1 S1                 0.0000
     63 ****        -0.4913  -4.6383   2.5542 LP             1 S1                 0.0000
     64 ****         4.1992  -4.8596   3.1173 LP             1 S1                 0.0000
     65 ****         4.0976  -6.4158   2.6329 LP             1 S1                 0.0000
@<TRIPOS>BOND
    1    1    2 1     
    2    1   28 1     
    3    1   29 1     
    4    1   30 1     
    5    2    3 1     
    6    2   31 1     
    7    2   32 1     
    8    3    7 1     
    9    3    4 1     
   10    3   58 1     
   11    4    5 1     
   12    4   33 1     
   13    4   34 1     
   14    5    6 1     
   15    5   35 1     
   16    5   36 1     
   17    6    7 1     
   18    6   37 1     
   19    6   38 1     
   20    7    8 1     
   21    7   39 1     
   22    8    9 1     
   23    8   40 1     
   24    8   41 1     
   25    9   10 1     
   26    9   11 1     
   27   10   42 1     
   28   10   43 1     
   29   10   44 1     
   30   11   16 ar    
   31   11   12 ar    
   32   12   13 ar    
   33   13   14 ar    
   34   13   45 1     
   35   14   15 ar    
   36   15   19 1     
   37   15   16 ar    
   38   16   17 1     
   39   17   18 2     
   40   18   19 1     
   41   18   46 1     
   42   19   20 1     
   43   20   21 1     
   44   20   47 1     
   45   20   48 1     
   46   21   27 1     
   47   21   22 1     
   48   21   23 1     
   49   22   49 1     
   50   23   24 1     
   51   23   50 1     
   52   23   51 1     
   53   24   25 1     
   54   24   52 1     
   55   24   53 1     
   56   25   26 1     
   57   26   27 1     
   58   26   54 1     
   59   26   55 1     
   60   27   56 1     
   61   27   57 1     
   62   12   59 1     
   63   14   60 1     
   64   17   61 1     
   65   22   62 1     
   66   22   63 1     
   67   25   64 1     
   68   25   65 1     
@<TRIPOS>SUBSTRUCTURE
      1 S1             1
@<TRIPOS>SET
LONE_PAIRS      STATIC     ATOMS    <user>   **** ""
7 59 60 61 62 63 64 65
DONOR_HYDROGENS      STATIC     ATOMS    <user>   **** ""
2 58 49
ATOM$BLUE        STATIC     ATOMS    COLORGROUP SYSTEM
7 59 60 61 62 63 64 65
ATOM$RED        STATIC     ATOMS    COLORGROUP SYSTEM
2 58 49
