AV-unprocessed.smi:1433|AV-procd|sdf|5840|dock10
  -GOLD-   22720 5503D 1   1.00000     0.00000
 Structure written by MMmdl.
 44 45  0  0  0  0  0  0  0  0  1 V2000
  153.8400  142.8930  162.2415 C   0  0  0  0  0  0  0  0  0  0  0  0
  153.3045  143.1208  160.8240 C   0  0  1  0  0  0  0  0  0  0  0  0
  153.2868  141.8223  159.9973 C   0  0  0  0  0  0  0  0  0  0  0  0
  152.6995  142.0012  158.6661 N   0  0  0  0  0  0  0  0  0  0  0  0
  152.6959  140.7540  157.8657 C   0  0  1  0  0  0  0  0  0  0  0  0
  152.0748  139.5551  158.6300 C   0  0  0  0  0  0  0  0  0  0  0  0
  151.9759  140.9022  156.4967 C   0  0  0  0  0  0  0  0  0  0  0  0
  152.1976  139.7502  155.6314 N   0  0  0  0  0  0  0  0  0  0  0  0
  151.3890  139.3678  154.6322 C   0  0  0  0  0  0  0  0  0  0  0  0
  150.3829  139.9914  154.2956 O   0  0  0  0  0  0  0  0  0  0  0  0
  151.7737  138.0797  153.9018 C   0  0  0  0  0  0  0  0  0  0  0  0
  151.7026  136.9311  154.7889 N   0  0  0  0  0  0  0  0  0  0  0  0
  151.0989  135.7114  154.5635 C   0  0  0  0  0  0  0  0  0  0  0  0
  151.2766  134.9560  155.6869 C   0  0  0  0  0  0  0  0  0  0  0  0
  152.0109  135.8101  156.5563 C   0  0  0  0  0  0  0  0  0  0  0  0
  152.2641  136.9917  156.0170 N   0  0  0  0  0  0  0  0  0  0  0  0
  151.3536  142.5606  158.8385 C   0  0  0  0  0  0  0  0  0  0  0  0
  151.3206  143.8468  159.6877 C   0  0  2  0  0  0  0  0  0  0  0  0
  151.8658  145.0805  158.9476 C   0  0  0  0  0  0  0  0  0  0  0  0
  151.9823  143.6364  160.9324 O   0  0  0  0  0  0  0  0  0  0  0  0
  154.8597  142.5083  162.2196 H   0  0  0  0  0  0  0  0  0  0  0  0
  153.2237  142.1771  162.7859 H   0  0  0  0  0  0  0  0  0  0  0  0
  153.8487  143.8241  162.8088 H   0  0  0  0  0  0  0  0  0  0  0  0
  153.9428  143.8558  160.3329 H   0  0  0  0  0  0  0  0  0  0  0  0
  154.3197  141.4895  159.9203 H   0  0  0  0  0  0  0  0  0  0  0  0
  152.7422  141.0476  160.5396 H   0  0  0  0  0  0  0  0  0  0  0  0
  153.7329  140.4908  157.6508 H   0  0  0  0  0  0  0  0  0  0  0  0
  152.0202  138.6514  158.0235 H   0  0  0  0  0  0  0  0  0  0  0  0
  151.0623  139.7842  158.9644 H   0  0  0  0  0  0  0  0  0  0  0  0
  152.6619  139.2712  159.5019 H   0  0  0  0  0  0  0  0  0  0  0  0
  150.9068  141.0535  156.6576 H   0  0  0  0  0  0  0  0  0  0  0  0
  152.3420  141.7609  155.9366 H   0  0  0  0  0  0  0  0  0  0  0  0
  153.0032  139.1755  155.8336 H   0  0  0  0  0  0  0  0  0  0  0  0
  151.1029  137.9119  153.0581 H   0  0  0  0  0  0  0  0  0  0  0  0
  152.7834  138.1696  153.4977 H   0  0  0  0  0  0  0  0  0  0  0  0
  150.5961  135.4880  153.6337 H   0  0  0  0  0  0  0  0  0  0  0  0
  150.9336  133.9471  155.8613 H   0  0  0  0  0  0  0  0  0  0  0  0
  152.3641  135.6083  157.5569 H   0  0  0  0  0  0  0  0  0  0  0  0
  150.9048  142.7989  157.8759 H   0  0  0  0  0  0  0  0  0  0  0  0
  150.7099  141.8134  159.3055 H   0  0  0  0  0  0  0  0  0  0  0  0
  150.2791  144.0591  159.9301 H   0  0  0  0  0  0  0  0  0  0  0  0
  151.2660  145.2973  158.0635 H   0  0  0  0  0  0  0  0  0  0  0  0
  152.8940  144.9394  158.6147 H   0  0  0  0  0  0  0  0  0  0  0  0
  151.8390  145.9618  159.5886 H   0  0  0  0  0  0  0  0  0  0  0  0
  1  2  1  0  0  0  0
  1 21  1  0  0  0  0
  1 22  1  0  0  0  0
  1 23  1  0  0  0  0
  2 20  1  0  0  0  0
  2  3  1  0  0  0  0
  2 24  1  0  0  0  0
  3  4  1  0  0  0  0
  3 25  1  0  0  0  0
  3 26  1  0  0  0  0
  4  5  1  0  0  0  0
  4 17  1  0  0  0  0
  5  6  1  0  0  0  0
  5  7  1  0  0  0  0
  5 27  1  0  0  0  0
  6 28  1  0  0  0  0
  6 29  1  0  0  0  0
  6 30  1  0  0  0  0
  7  8  1  0  0  0  0
  7 31  1  0  0  0  0
  7 32  1  0  0  0  0
  8  9  1  0  0  0  0
  8 33  1  0  0  0  0
  9 10  2  0  0  0  0
  9 11  1  0  0  0  0
 11 12  1  0  0  0  0
 11 34  1  0  0  0  0
 11 35  1  0  0  0  0
 12 16  1  0  0  0  0
 12 13  1  0  0  0  0
 13 14  2  0  0  0  0
 13 36  1  0  0  0  0
 14 15  1  0  0  0  0
 14 37  1  0  0  0  0
 15 16  2  0  0  0  0
 15 38  1  0  0  0  0
 17 18  1  0  0  0  0
 17 39  1  0  0  0  0
 17 40  1  0  0  0  0
 18 19  1  0  0  0  0
 18 20  1  0  0  0  0
 18 41  1  0  0  0  0
 19 42  1  0  0  0  0
 19 43  1  0  0  0  0
 19 44  1  0  0  0  0
M  END
> <s_m_source_file>
AV-unprocessed.smi

> <i_m_source_file_index>
1433

> <i_lp_mmshare_version>
43012

> <i_f3d_flags>
0

> <s_epik_input>
W0NIM11bQ0BASF0xW0NIMl1OKFtDSDJdW0NASF0oTzEpW0NIM10pW0NASF0oW0NIM10pW0NIMl1bTkhdQyg9TylbQ0gyXW4yW2NIXVtjSF1bY0hdbjI=

> <s_epik_cmdline>
J2VwaWtfcHl0aG9uJywgJy1waCcsICc3LjAnLCAnLXRuJywgJzgnLCAnLW1hJywgJzIwMCcsICctbWV0YWxfYmluZGluZycsICctaW1hZScsICc8aW5maWxlLm1hZT4nLCAnLW9tYWUnLCAnPG91dGZpbGUubWFlPic=

> <r_lp_tautomer_probability>
1

> <r_epik_Ionization_Penalty>
0.196927

> <r_epik_Ionization_Penalty_Charging>
0

> <r_epik_Ionization_Penalty_Neutral>
0.196927

> <r_epik_State_Penalty>
0.186684

> <r_epik_Charging_Adjusted_Penalty>
0.186684

> <i_epik_Tot_Q>
0

> <i_epik_Tot_abs_Q>
0

> <r_epik_Metal_State_Penalty>
0.186682

> <b_epik_Metal_Only>
0

> <s_lp_Force_Field>
OPLS_2005

> <r_lp_Energy>
30.3055

> <b_lp_Chiralities_Consistent>
1

> <s_lp_Variant>
AV-unprocessed.smi:1433-6

> <Gold.Version>
5.8.1

> <Gold.Id.Protein>
6NUR|6NUR_protein|mol2

> <Gold.PLP.Fitness>
45.7664

> <Gold.PLP.PLP>
-40.5609

> <Gold.PLP.part.hbond>
-1.0000

> <Gold.PLP.part.metal>
0.0000

> <Gold.PLP.part.buried>
-6.6571

> <Gold.PLP.part.nonpolar>
-33.6455

> <Gold.PLP.part.repulsive>
0.3944

> <Gold.PLP.ligand.clash>
0.0000

> <Gold.PLP.ligand.torsion>
0.4220

> <Gold.PLP.Chemscore.Hbond>
1.0000

> <Gold.PLP.Chemscore.CHOScore>
1.0000

> <Gold.PLP.Chemscore.Metal>
0.0000

> <Gold.Chemscore.Hbonds>
donor molecule, donor type, donor heavy atom, donor atom, acceptor molecule, acceptor atom, score
      L1  C    13    36       P1  7949  0.31

> <Gold.PLP.Chemscore.Internal.Correction>
0.0496

> <Gold.Rescore>
     Score         DG    S(hbond)    S(metal)    S(lipo)     H(rot)  DE(clash)    DE(int)     intcor
     14.41     -16.00       1.00        0.00     100.94       1.80       0.12       1.47       ----

> <Gold.Chemscore.Fitness>
14.4060

> <Gold.Chemscore.DG>
-15.9987

> <Gold.Chemscore.ZeroCoef>
-5.4800

> <Gold.Chemscore.Hbond>
0.9958

> <Gold.Chemscore.Metal>
0.0000

> <Gold.Chemscore.Lipo>
100.9434

> <Gold.Chemscore.Internal_Hbond>
0.0000

> <Gold.Chemscore.DEClash>
0.1185

> <Gold.Chemscore.DEInternal>
1.4743

> <Gold.Chemscore.Rot>
1.8038

> <Gold.Chemscore.Internal.Correction>
   9.000000E+99

> <Gold.Chemscore.Hbond.Weighted>
-3.3261

> <Gold.Chemscore.Metal.Weighted>
-0.0000

> <Gold.Chemscore.Lipo.Weighted>
-11.8104

> <Gold.Chemscore.Internal_Hbond.Weighted>
0.0000

> <Gold.Chemscore.DEClash.Weighted>
0.1185

> <Gold.Chemscore.DEInternal.Weighted>
1.4743

> <Gold.Chemscore.Rot.Weighted>
4.6178

> <Gold.Chemscore.Internal.Correction.Weighted>
   9.000000E+99

> <Gold.Protein.RotatedTorsions>
[ 6907 6896 6895 6894 ] final  123.16 input  -60.11 | X-H torsion
[ 7974 7965 7964 7962 ] final    8.28 input  175.53 | X-H torsion
[ 8008 7997 7996 7995 ] final   88.29 input   59.86 | X-H torsion
[ 10167 10162 10161 10158 ] final -131.72 input  -65.29 | X-H torsion
[ 10718 10713 10712 10709 ] final  165.97 input   66.30 | X-H torsion
[ 10763 10752 10751 10750 ] final  170.79 input  -60.55 | X-H torsion
[ 11005 11000 10999 10996 ] final   53.38 input  -57.11 | X-H torsion

> <Gold.Protein.ActiveResidues>
 VAL166  LYS551  ARG553  GLY616  TRP617  ASP618  TYR619  PRO620  LYS621  CYS622 
 ASP623  PHE694  ASN695  SER759  ASP760  ASP761  ALA762  ILE779  LEU786  VAL792 
 PHE793  MET794  SER795  GLU796  ALA797  LYS798  CYS799  TRP800  GLU811  SER814 

> <Gold.Protein.RotatedAtoms>
  152.4184  133.7076  159.6459 H   0  0  0  0  0  0  0  0  0  0  0  0  # atno 6907 bound_to 6896
  150.8061  133.8497  159.3211 H   0  0  0  0  0  0  0  0  0  0  0  0  # atno 6908 bound_to 6896
  151.6221  135.1033  160.0155 H   0  0  0  0  0  0  0  0  0  0  0  0  # atno 6909 bound_to 6896
  146.2418  139.9957  142.8421 H   0  0  0  0  0  0  0  0  0  0  0  0  # atno 7974 bound_to 7965
  155.9859  140.3373  155.6707 H   0  0  0  0  0  0  0  0  0  0  0  0  # atno 8008 bound_to 7997
  155.6486  140.0703  157.2612 H   0  0  0  0  0  0  0  0  0  0  0  0  # atno 8009 bound_to 7997
  154.4205  140.1729  156.1638 H   0  0  0  0  0  0  0  0  0  0  0  0  # atno 8010 bound_to 7997
  139.9160  143.6438  152.2565 H   0  0  0  0  0  0  0  0  0  0  0  0  # atno 10167 bound_to 10162
  157.0726  131.0370  151.2606 H   0  0  0  0  0  0  0  0  0  0  0  0  # atno 10718 bound_to 10713
  154.4026  135.2755  155.2087 H   0  0  0  0  0  0  0  0  0  0  0  0  # atno 10763 bound_to 10752
  154.4106  135.6023  153.5954 H   0  0  0  0  0  0  0  0  0  0  0  0  # atno 10764 bound_to 10752
  152.9831  135.5948  154.4296 H   0  0  0  0  0  0  0  0  0  0  0  0  # atno 10765 bound_to 10752
  140.0772  134.5388  155.8984 H   0  0  0  0  0  0  0  0  0  0  0  0  # atno 11005 bound_to 11000
  145.1462  140.9598  143.4459 LP  0  0  0  0  0  0  0  0  0  0  0  0  # atno 17320 bound_to 7965
  145.0248  139.3392  143.6054 LP  0  0  0  0  0  0  0  0  0  0  0  0  # atno 17321 bound_to 7965
  139.6902  144.7647  151.1452 LP  0  0  0  0  0  0  0  0  0  0  0  0  # atno 17342 bound_to 10162
  140.7674  143.5600  150.9110 LP  0  0  0  0  0  0  0  0  0  0  0  0  # atno 17343 bound_to 10162
  157.4866  130.7797  149.7466 LP  0  0  0  0  0  0  0  0  0  0  0  0  # atno 17370 bound_to 10713
  155.9946  130.3917  150.2852 LP  0  0  0  0  0  0  0  0  0  0  0  0  # atno 17371 bound_to 10713
  141.2034  133.6631  156.6059 LP  0  0  0  0  0  0  0  0  0  0  0  0  # atno 17394 bound_to 11000
  140.3540  134.7744  157.4487 LP  0  0  0  0  0  0  0  0  0  0  0  0  # atno 17395 bound_to 11000

$$$$
