AV-unprocessed.smi:1066|AV-procd|sdf|4670|dock10
  -GOLD-   22720 3183D 1   1.00000     0.00000
 Structure written by MMmdl.
 38 40  0  0  0  0  0  0  0  0  2 V2000
  152.2083  130.5061  157.4866 C   0  0  0  0  0  0  0  0  0  0  0  0
  151.5899  131.6582  156.7479 C   0  0  0  0  0  0  0  0  0  0  0  0
  151.7711  132.8914  157.2020 N   0  0  0  0  0  0  0  0  0  0  0  0
  151.0849  133.7400  156.3258 O   0  0  0  0  0  0  0  0  0  0  0  0
  150.5222  132.9575  155.3771 C   0  0  0  0  0  0  0  0  0  0  0  0
  149.5634  133.6012  154.1033 Cl  0  0  0  0  0  0  0  0  0  0  0  0
  150.7900  131.6323  155.5677 C   0  0  0  0  0  0  0  0  0  0  0  0
  150.3537  130.4385  154.7552 C   0  0  0  0  0  0  0  0  0  0  0  0
  148.8301  130.4269  154.6254 C   0  0  0  0  0  0  0  0  0  0  0  0
  148.1274  130.2501  155.6196 O   0  0  0  0  0  0  0  0  0  0  0  0
  148.3323  130.6207  153.3945 N   0  0  0  0  0  0  0  0  0  0  0  0
  146.9134  130.6874  153.0680 C   0  0  2  0  0  0  0  0  0  0  0  0
  146.4595  129.6670  152.0218 C   0  0  0  0  0  0  0  0  0  0  0  0
  145.2976  130.3593  151.2872 C   0  0  0  0  0  0  0  0  0  0  0  0
  145.2489  131.7556  151.7812 N   0  3  2  0  0  0  0  0  0  0  0  0
  144.8654  132.7527  150.7601 C   0  0  0  0  0  0  0  0  0  0  0  0
  143.7163  132.3086  149.8867 C   0  0  0  0  0  0  0  0  0  0  0  0
  145.1293  132.2992  149.3443 C   0  0  0  0  0  0  0  0  0  0  0  0
  146.5484  132.0193  152.4218 C   0  0  0  0  0  0  0  0  0  0  0  0
  151.7109  129.5665  157.2454 H   0  0  0  0  0  0  0  0  0  0  0  0
  152.1402  130.6442  158.5661 H   0  0  0  0  0  0  0  0  0  0  0  0
  153.2622  130.3992  157.2297 H   0  0  0  0  0  0  0  0  0  0  0  0
  150.7925  130.4494  153.7570 H   0  0  0  0  0  0  0  0  0  0  0  0
  150.6812  129.5065  155.2172 H   0  0  0  0  0  0  0  0  0  0  0  0
  148.9862  130.7514  152.6358 H   0  0  0  0  0  0  0  0  0  0  0  0
  146.3141  130.5675  153.9732 H   0  0  0  0  0  0  0  0  0  0  0  0
  147.2649  129.4584  151.3156 H   0  0  0  0  0  0  0  0  0  0  0  0
  146.1626  128.7199  152.4737 H   0  0  0  0  0  0  0  0  0  0  0  0
  145.4647  130.3272  150.2092 H   0  0  0  0  0  0  0  0  0  0  0  0
  144.3442  129.8704  151.4895 H   0  0  0  0  0  0  0  0  0  0  0  0
  144.9774  133.7999  151.0360 H   0  0  0  0  0  0  0  0  0  0  0  0
  143.2515  131.3465  150.0957 H   0  0  0  0  0  0  0  0  0  0  0  0
  143.0441  133.0777  149.5115 H   0  0  0  0  0  0  0  0  0  0  0  0
  145.3861  133.0617  148.6117 H   0  0  0  0  0  0  0  0  0  0  0  0
  145.6039  131.3313  149.1935 H   0  0  0  0  0  0  0  0  0  0  0  0
  146.4824  132.8324  153.1456 H   0  0  0  0  0  0  0  0  0  0  0  0
  147.2852  132.2943  151.6640 H   0  0  0  0  0  0  0  0  0  0  0  0
  144.5556  131.7791  152.5156 H   0  0  0  0  0  0  0  0  0  0  0  0
  1  2  1  0  0  0  0
  1 20  1  0  0  0  0
  1 21  1  0  0  0  0
  1 22  1  0  0  0  0
  2  7  1  0  0  0  0
  2  3  2  0  0  0  0
  3  4  1  0  0  0  0
  4  5  1  0  0  0  0
  5  6  1  0  0  0  0
  5  7  2  0  0  0  0
  7  8  1  0  0  0  0
  8  9  1  0  0  0  0
  8 23  1  0  0  0  0
  8 24  1  0  0  0  0
  9 10  2  0  0  0  0
  9 11  1  0  0  0  0
 11 12  1  0  0  0  0
 11 25  1  0  0  0  0
 12 19  1  0  0  0  0
 12 13  1  0  0  0  0
 12 26  1  0  0  0  0
 13 14  1  0  0  0  0
 13 27  1  0  0  0  0
 13 28  1  0  0  0  0
 14 15  1  0  0  0  0
 14 29  1  0  0  0  0
 14 30  1  0  0  0  0
 15 16  1  0  0  0  0
 15 19  1  0  0  0  0
 15 38  1  0  0  0  0
 16 18  1  0  0  0  0
 16 17  1  0  0  0  0
 16 31  1  0  0  0  0
 17 18  1  0  0  0  0
 17 32  1  0  0  0  0
 17 33  1  0  0  0  0
 18 34  1  0  0  0  0
 18 35  1  0  0  0  0
 19 36  1  0  0  0  0
 19 37  1  0  0  0  0
M  CHG  1  15   1
M  END
> <s_m_source_file>
AV-unprocessed.smi

> <i_m_source_file_index>
1066

> <i_lp_mmshare_version>
43012

> <i_f3d_flags>
0

> <s_epik_input>
W0NIM11jMW5vYyhDbCljMVtDSDJdQyg9TylbTkhdW0NAQEhdMltDSDJdW0NIMl1OKFtDSDJdMilbQ0hdM1tDSDJdW0NIMl0z

> <s_epik_cmdline>
J2VwaWtfcHl0aG9uJywgJy1waCcsICc3LjAnLCAnLXRuJywgJzgnLCAnLW1hJywgJzIwMCcsICctbWV0YWxfYmluZGluZycsICctaW1hZScsICc8aW5maWxlLm1hZT4nLCAnLW9tYWUnLCAnPG91dGZpbGUubWFlPic=

> <r_epik_Ionization_Penalty>
0.00108138

> <r_epik_Ionization_Penalty_Charging>
0.00108128

> <r_epik_Ionization_Penalty_Neutral>
9.66632e-08

> <r_epik_State_Penalty>
0.000708577

> <r_epik_Charging_Adjusted_Penalty>
0.00178986

> <i_epik_Tot_Q>
1

> <i_epik_Tot_abs_Q>
1

> <r_epik_Metal_State_Penalty>
-0

> <b_epik_Metal_Only>
0

> <s_lp_Force_Field>
OPLS_2005

> <r_lp_Energy>
30.9378

> <b_lp_Chiralities_Consistent>
1

> <s_lp_Variant>
AV-unprocessed.smi:1066-3

> <Gold.Version>
5.8.1

> <Gold.Id.Protein>
6NUR|6NUR_protein|mol2

> <Gold.PLP.Fitness>
36.4046

> <Gold.PLP.PLP>
-33.2287

> <Gold.PLP.part.hbond>
-1.5385

> <Gold.PLP.part.metal>
0.0000

> <Gold.PLP.part.buried>
-4.4237

> <Gold.PLP.part.nonpolar>
-27.1602

> <Gold.PLP.part.repulsive>
0.0180

> <Gold.PLP.ligand.clash>
0.0000

> <Gold.PLP.ligand.torsion>
0.7176

> <Gold.PLP.Chemscore.Hbond>
1.1149

> <Gold.PLP.Chemscore.CHOScore>
0.0000

> <Gold.PLP.Chemscore.Metal>
0.0000

> <Gold.Chemscore.Hbonds>
donor molecule, donor type, donor heavy atom, donor atom, acceptor molecule, acceptor atom, score
      L1  H    11    25       P1 10747  0.21
      P1  H  6896  6907       L1     3  0.76

> <Gold.PLP.Chemscore.Internal.Correction>
1.2665

> <Gold.Rescore>
     Score         DG    S(hbond)    S(metal)    S(lipo)     H(rot)  DE(clash)    DE(int)     intcor
     14.54     -15.27       0.92        0.00      91.91       1.57       0.03       0.71       ----

> <Gold.Chemscore.Fitness>
14.5392

> <Gold.Chemscore.DG>
-15.2728

> <Gold.Chemscore.ZeroCoef>
-5.4800

> <Gold.Chemscore.Hbond>
0.9164

> <Gold.Chemscore.Metal>
0.0000

> <Gold.Chemscore.Lipo>
91.9146

> <Gold.Chemscore.Internal_Hbond>
0.0000

> <Gold.Chemscore.DEClash>
0.0263

> <Gold.Chemscore.DEInternal>
0.7074

> <Gold.Chemscore.Rot>
1.5711

> <Gold.Chemscore.Internal.Correction>
   9.000000E+99

> <Gold.Chemscore.Hbonds>
donor molecule, donor type, donor heavy atom, donor atom, acceptor molecule, acceptor atom, score
      L1  H    11    25       P1 10747  0.07
      P1  H  6896  6907       L1     3  0.64

> <Gold.Chemscore.Hbond.Weighted>
-3.0609

> <Gold.Chemscore.Metal.Weighted>
-0.0000

> <Gold.Chemscore.Lipo.Weighted>
-10.7540

> <Gold.Chemscore.Internal_Hbond.Weighted>
0.0000

> <Gold.Chemscore.DEClash.Weighted>
0.0263

> <Gold.Chemscore.DEInternal.Weighted>
0.7074

> <Gold.Chemscore.Rot.Weighted>
4.0221

> <Gold.Chemscore.Internal.Correction.Weighted>
   9.000000E+99

> <Gold.Protein.RotatedTorsions>
[ 6907 6896 6895 6894 ] final -172.00 input  -60.11 | X-H torsion
[ 7974 7965 7964 7962 ] final   11.21 input  175.53 | X-H torsion
[ 8008 7997 7996 7995 ] final  -17.06 input   59.86 | X-H torsion
[ 10167 10162 10161 10158 ] final  -64.45 input  -65.29 | X-H torsion
[ 10718 10713 10712 10709 ] final  128.43 input   66.30 | X-H torsion
[ 10763 10752 10751 10750 ] final   94.76 input  -60.55 | X-H torsion
[ 11005 11000 10999 10996 ] final   89.09 input  -57.11 | X-H torsion

> <Gold.Protein.ActiveResidues>
 VAL166  LYS551  ARG553  GLY616  TRP617  ASP618  TYR619  PRO620  LYS621  CYS622 
 ASP623  PHE694  ASN695  SER759  ASP760  ASP761  ALA762  ILE779  LEU786  VAL792 
 PHE793  MET794  SER795  GLU796  ALA797  LYS798  CYS799  TRP800  GLU811  SER814 

> <Gold.Protein.RotatedAtoms>
  151.5329  133.3446  159.2921 H   0  0  0  0  0  0  0  0  0  0  0  0  # atno 6907 bound_to 6896
  150.8583  134.7930  159.7073 H   0  0  0  0  0  0  0  0  0  0  0  0  # atno 6908 bound_to 6896
  152.4610  134.5193  159.9829 H   0  0  0  0  0  0  0  0  0  0  0  0  # atno 6909 bound_to 6896
  146.2375  139.9519  142.8469 H   0  0  0  0  0  0  0  0  0  0  0  0  # atno 7974 bound_to 7965
  154.5006  140.2153  155.9354 H   0  0  0  0  0  0  0  0  0  0  0  0  # atno 8008 bound_to 7997
  156.1429  140.3176  155.8491 H   0  0  0  0  0  0  0  0  0  0  0  0  # atno 8009 bound_to 7997
  155.4086  140.0489  157.3023 H   0  0  0  0  0  0  0  0  0  0  0  0  # atno 8010 bound_to 7997
  140.5800  143.2326  151.6362 H   0  0  0  0  0  0  0  0  0  0  0  0  # atno 10167 bound_to 10162
  157.5245  131.1098  150.9104 H   0  0  0  0  0  0  0  0  0  0  0  0  # atno 10718 bound_to 10713
  153.2454  135.4278  155.0742 H   0  0  0  0  0  0  0  0  0  0  0  0  # atno 10763 bound_to 10752
  154.8359  135.3413  154.6589 H   0  0  0  0  0  0  0  0  0  0  0  0  # atno 10764 bound_to 10752
  153.7012  135.7028  153.5119 H   0  0  0  0  0  0  0  0  0  0  0  0  # atno 10765 bound_to 10752
  139.8882  134.8529  156.3093 H   0  0  0  0  0  0  0  0  0  0  0  0  # atno 11005 bound_to 11000
  145.1853  140.9786  143.4242 LP  0  0  0  0  0  0  0  0  0  0  0  0  # atno 17320 bound_to 7965
  144.9905  139.3694  143.6217 LP  0  0  0  0  0  0  0  0  0  0  0  0  # atno 17321 bound_to 7965
  139.5164  144.3347  152.0795 LP  0  0  0  0  0  0  0  0  0  0  0  0  # atno 17342 bound_to 10162
  140.2496  144.4183  150.6227 LP  0  0  0  0  0  0  0  0  0  0  0  0  # atno 17343 bound_to 10162
  156.9704  130.5489  149.5290 LP  0  0  0  0  0  0  0  0  0  0  0  0  # atno 17370 bound_to 10713
  156.0377  130.5463  150.8694 LP  0  0  0  0  0  0  0  0  0  0  0  0  # atno 17371 bound_to 10713
  140.9861  133.7237  156.0744 LP  0  0  0  0  0  0  0  0  0  0  0  0  # atno 17394 bound_to 11000
  140.7686  134.3858  157.5512 LP  0  0  0  0  0  0  0  0  0  0  0  0  # atno 17395 bound_to 11000

$$$$
