AV-unprocessed.smi:3348|AV-procd|sdf|12923|dock2
  -GOLD-   2272019343D 1   1.00000     0.00000
 Structure written by MMmdl.
 46 47  0  0  0  0  0  0  0  0  1 V2000
  153.2406  138.9100  154.5136 C   0  0  0  0  0  0  0  0  0  0  0  0
  151.9350  138.8445  155.3183 C   0  0  2  0  0  0  0  0  0  0  0  0
  150.7266  138.7039  154.3562 C   0  0  0  0  0  0  0  0  0  0  0  0
  149.7031  139.7256  154.5049 N   0  0  0  0  0  0  0  0  0  0  0  0
  148.3760  139.5577  154.8431 C   0  0  0  0  0  0  0  0  0  0  0  0
  147.8059  140.7972  154.8888 C   0  0  0  0  0  0  0  0  0  0  0  0
  148.8828  141.6750  154.5827 C   0  0  0  0  0  0  0  0  0  0  0  0
  150.0190  141.0322  154.3661 N   0  0  0  0  0  0  0  0  0  0  0  0
  151.8530  140.0357  156.1728 N   0  0  0  0  0  0  0  0  0  0  0  0
  150.8975  139.9684  157.2771 C   0  0  0  0  0  0  0  0  0  0  0  0
  151.2092  141.0298  158.3452 C   0  0  0  0  0  0  0  0  0  0  0  0
  152.5548  141.4888  158.2746 O   0  0  0  0  0  0  0  0  0  0  0  0
  152.9414  142.4079  159.2913 C   0  0  2  0  0  0  0  0  0  0  0  0
  152.9127  141.6511  160.6320 C   0  0  0  0  0  0  0  0  0  0  0  0
  153.2289  142.5856  161.8076 C   0  0  0  0  0  0  0  0  0  0  0  0
  152.2591  143.7764  161.8340 C   0  0  0  0  0  0  0  0  0  0  0  0
  152.2693  144.5329  160.4959 C   0  0  0  0  0  0  0  0  0  0  0  0
  151.9607  143.6015  159.3052 C   0  0  1  0  0  0  0  0  0  0  0  0
  151.9915  144.3828  157.9816 C   0  0  0  0  0  0  0  0  0  0  0  0
  153.3723  138.0154  153.9042 H   0  0  0  0  0  0  0  0  0  0  0  0
  154.1063  138.9837  155.1727 H   0  0  0  0  0  0  0  0  0  0  0  0
  153.2544  139.7722  153.8456 H   0  0  0  0  0  0  0  0  0  0  0  0
  152.0040  137.9555  155.9465 H   0  0  0  0  0  0  0  0  0  0  0  0
  151.0679  138.6944  153.3201 H   0  0  0  0  0  0  0  0  0  0  0  0
  150.2346  137.7446  154.5215 H   0  0  0  0  0  0  0  0  0  0  0  0
  147.9509  138.5801  155.0159 H   0  0  0  0  0  0  0  0  0  0  0  0
  146.7779  141.0400  155.1133 H   0  0  0  0  0  0  0  0  0  0  0  0
  148.8742  142.7529  154.5166 H   0  0  0  0  0  0  0  0  0  0  0  0
  152.7739  140.2537  156.5396 H   0  0  0  0  0  0  0  0  0  0  0  0
  149.8752  140.0814  156.9276 H   0  0  0  0  0  0  0  0  0  0  0  0
  150.9548  138.9829  157.7404 H   0  0  0  0  0  0  0  0  0  0  0  0
  150.5318  141.8787  158.2426 H   0  0  0  0  0  0  0  0  0  0  0  0
  151.0342  140.6196  159.3402 H   0  0  0  0  0  0  0  0  0  0  0  0
  153.9493  142.7931  159.1241 H   0  0  0  0  0  0  0  0  0  0  0  0
  151.9291  141.2032  160.7794 H   0  0  0  0  0  0  0  0  0  0  0  0
  153.6233  140.8252  160.6129 H   0  0  0  0  0  0  0  0  0  0  0  0
  153.1700  142.0351  162.7467 H   0  0  0  0  0  0  0  0  0  0  0  0
  154.2547  142.9466  161.7229 H   0  0  0  0  0  0  0  0  0  0  0  0
  151.2497  143.4211  162.0446 H   0  0  0  0  0  0  0  0  0  0  0  0
  152.5245  144.4536  162.6463 H   0  0  0  0  0  0  0  0  0  0  0  0
  151.5426  145.3454  160.5324 H   0  0  0  0  0  0  0  0  0  0  0  0
  153.2448  145.0002  160.3536 H   0  0  0  0  0  0  0  0  0  0  0  0
  150.9505  143.2112  159.4370 H   0  0  0  0  0  0  0  0  0  0  0  0
  152.9857  144.7829  157.7801 H   0  0  0  0  0  0  0  0  0  0  0  0
  151.2934  145.2201  158.0032 H   0  0  0  0  0  0  0  0  0  0  0  0
  151.7119  143.7483  157.1403 H   0  0  0  0  0  0  0  0  0  0  0  0
  1  2  1  0  0  0  0
  1 20  1  0  0  0  0
  1 21  1  0  0  0  0
  1 22  1  0  0  0  0
  2  3  1  0  0  0  0
  2  9  1  0  0  0  0
  2 23  1  0  0  0  0
  3  4  1  0  0  0  0
  3 24  1  0  0  0  0
  3 25  1  0  0  0  0
  4  8  1  0  0  0  0
  4  5  1  0  0  0  0
  5  6  2  0  0  0  0
  5 26  1  0  0  0  0
  6  7  1  0  0  0  0
  6 27  1  0  0  0  0
  7  8  2  0  0  0  0
  7 28  1  0  0  0  0
  9 10  1  0  0  0  0
  9 29  1  0  0  0  0
 10 11  1  0  0  0  0
 10 30  1  0  0  0  0
 10 31  1  0  0  0  0
 11 12  1  0  0  0  0
 11 32  1  0  0  0  0
 11 33  1  0  0  0  0
 12 13  1  0  0  0  0
 13 18  1  0  0  0  0
 13 14  1  0  0  0  0
 13 34  1  0  0  0  0
 14 15  1  0  0  0  0
 14 35  1  0  0  0  0
 14 36  1  0  0  0  0
 15 16  1  0  0  0  0
 15 37  1  0  0  0  0
 15 38  1  0  0  0  0
 16 17  1  0  0  0  0
 16 39  1  0  0  0  0
 16 40  1  0  0  0  0
 17 18  1  0  0  0  0
 17 41  1  0  0  0  0
 17 42  1  0  0  0  0
 18 19  1  0  0  0  0
 18 43  1  0  0  0  0
 19 44  1  0  0  0  0
 19 45  1  0  0  0  0
 19 46  1  0  0  0  0
M  END
> <s_m_source_file>
AV-unprocessed.smi

> <i_m_source_file_index>
3348

> <i_lp_mmshare_version>
43012

> <i_f3d_flags>
0

> <s_epik_input>
bjFbY0hdW2NIXVtjSF1uMVtDSDJdW0NAQEhdKFtDSDNdKVtOSF1bQ0gyXVtDSDJdT1tDQEBIXTJbQ0gyXVtDSDJdW0NIMl1bQ0gyXVtDQEhdMltDSDNd

> <s_epik_cmdline>
J2VwaWtfcHl0aG9uJywgJy1waCcsICc3LjAnLCAnLXRuJywgJzgnLCAnLW1hJywgJzIwMCcsICctbWV0YWxfYmluZGluZycsICctaW1hZScsICc8aW5maWxlLm1hZT4nLCAnLW9tYWUnLCAnPG91dGZpbGUubWFlPic=

> <r_lp_tautomer_probability>
1

> <r_epik_Ionization_Penalty>
2.46945

> <r_epik_Ionization_Penalty_Charging>
0

> <r_epik_Ionization_Penalty_Neutral>
2.46945

> <r_epik_State_Penalty>
2.6322

> <r_epik_Charging_Adjusted_Penalty>
2.6322

> <i_epik_Tot_Q>
0

> <i_epik_Tot_abs_Q>
0

> <r_epik_Metal_State_Penalty>
2.63217

> <b_epik_Metal_Only>
0

> <s_lp_Force_Field>
OPLS_2005

> <r_lp_Energy>
18.2161

> <b_lp_Chiralities_Consistent>
1

> <s_lp_Variant>
AV-unprocessed.smi:3348-9

> <Gold.Version>
5.8.1

> <Gold.Id.Protein>
6NUR|6NUR_protein|mol2

> <Gold.PLP.Fitness>
51.0130

> <Gold.PLP.PLP>
-48.1815

> <Gold.PLP.part.hbond>
-1.0000

> <Gold.PLP.part.metal>
0.0000

> <Gold.PLP.part.buried>
-2.7163

> <Gold.PLP.part.nonpolar>
-42.0265

> <Gold.PLP.part.repulsive>
0.1486

> <Gold.PLP.ligand.clash>
0.0000

> <Gold.PLP.ligand.torsion>
1.2488

> <Gold.PLP.Chemscore.Hbond>
0.6720

> <Gold.PLP.Chemscore.CHOScore>
1.0000

> <Gold.PLP.Chemscore.Metal>
0.0000

> <Gold.Chemscore.Hbonds>
donor molecule, donor type, donor heavy atom, donor atom, acceptor molecule, acceptor atom, score
      P1  H  7989  7998       L1     8  0.56
      L1  C     7    28       P1  8028  1.00

> <Gold.PLP.Chemscore.Internal.Correction>
0.3131

> <Gold.Rescore>
     Score         DG    S(hbond)    S(metal)    S(lipo)     H(rot)  DE(clash)    DE(int)     intcor
     16.93     -19.44       0.88        0.00     131.89       1.72       0.25       2.26       ----

> <Gold.Chemscore.Fitness>
16.9314

> <Gold.Chemscore.DG>
-19.4383

> <Gold.Chemscore.ZeroCoef>
-5.4800

> <Gold.Chemscore.Hbond>
0.8802

> <Gold.Chemscore.Metal>
0.0000

> <Gold.Chemscore.Lipo>
131.8886

> <Gold.Chemscore.Internal_Hbond>
0.0000

> <Gold.Chemscore.DEClash>
0.2464

> <Gold.Chemscore.DEInternal>
2.2605

> <Gold.Chemscore.Rot>
1.7237

> <Gold.Chemscore.Internal.Correction>
   9.000000E+99

> <Gold.Chemscore.Hbonds>
donor molecule, donor type, donor heavy atom, donor atom, acceptor molecule, acceptor atom, score
      P1  H  7989  7998       L1     8  0.17

> <Gold.Chemscore.Hbond.Weighted>
-2.9399

> <Gold.Chemscore.Metal.Weighted>
-0.0000

> <Gold.Chemscore.Lipo.Weighted>
-15.4310

> <Gold.Chemscore.Internal_Hbond.Weighted>
0.0000

> <Gold.Chemscore.DEClash.Weighted>
0.2464

> <Gold.Chemscore.DEInternal.Weighted>
2.2605

> <Gold.Chemscore.Rot.Weighted>
4.4126

> <Gold.Chemscore.Internal.Correction.Weighted>
   9.000000E+99

> <Gold.Protein.RotatedTorsions>
[ 6907 6896 6895 6894 ] final   22.74 input  -60.11 | X-H torsion
[ 7974 7965 7964 7962 ] final  -55.21 input  175.53 | X-H torsion
[ 8008 7997 7996 7995 ] final -169.71 input   59.86 | X-H torsion
[ 10167 10162 10161 10158 ] final  -67.93 input  -65.29 | X-H torsion
[ 10718 10713 10712 10709 ] final  -25.02 input   66.30 | X-H torsion
[ 10763 10752 10751 10750 ] final  -94.03 input  -60.55 | X-H torsion
[ 11005 11000 10999 10996 ] final  -46.32 input  -57.11 | X-H torsion

> <Gold.Protein.ActiveResidues>
 VAL166  LYS551  ARG553  GLY616  TRP617  ASP618  TYR619  PRO620  LYS621  CYS622 
 ASP623  PHE694  ASN695  SER759  ASP760  ASP761  ALA762  ILE779  LEU786  VAL792 
 PHE793  MET794  SER795  GLU796  ALA797  LYS798  CYS799  TRP800  GLU811  SER814 

> <Gold.Protein.RotatedAtoms>
  151.9317  135.0253  160.0529 H   0  0  0  0  0  0  0  0  0  0  0  0  # atno 6907 bound_to 6896
  152.2113  133.4908  159.5120 H   0  0  0  0  0  0  0  0  0  0  0  0  # atno 6908 bound_to 6896
  150.6977  134.1380  159.4137 H   0  0  0  0  0  0  0  0  0  0  0  0  # atno 6909 bound_to 6896
  145.8768  140.8175  142.9860 H   0  0  0  0  0  0  0  0  0  0  0  0  # atno 7974 bound_to 7965
  155.9086  140.1053  157.1296 H   0  0  0  0  0  0  0  0  0  0  0  0  # atno 8008 bound_to 7997
  154.4036  140.1278  156.4592 H   0  0  0  0  0  0  0  0  0  0  0  0  # atno 8009 bound_to 7997
  155.7337  140.3468  155.5074 H   0  0  0  0  0  0  0  0  0  0  0  0  # atno 8010 bound_to 7997
  140.5545  143.2312  151.6847 H   0  0  0  0  0  0  0  0  0  0  0  0  # atno 10167 bound_to 10162
  156.4699  130.4522  149.6876 H   0  0  0  0  0  0  0  0  0  0  0  0  # atno 10718 bound_to 10713
  154.7016  135.5172  153.8535 H   0  0  0  0  0  0  0  0  0  0  0  0  # atno 10763 bound_to 10752
  153.0709  135.6600  154.0260 H   0  0  0  0  0  0  0  0  0  0  0  0  # atno 10764 bound_to 10752
  154.0117  135.3001  155.3371 H   0  0  0  0  0  0  0  0  0  0  0  0  # atno 10765 bound_to 10752
  141.0571  133.6722  156.3138 H   0  0  0  0  0  0  0  0  0  0  0  0  # atno 11005 bound_to 11000
  144.6726  140.1323  143.7443 LP  0  0  0  0  0  0  0  0  0  0  0  0  # atno 17320 bound_to 7965
  145.9071  139.2465  143.1459 LP  0  0  0  0  0  0  0  0  0  0  0  0  # atno 17321 bound_to 7965
  139.5042  144.3763  152.0420 LP  0  0  0  0  0  0  0  0  0  0  0  0  # atno 17342 bound_to 10162
  140.2883  144.3782  150.6096 LP  0  0  0  0  0  0  0  0  0  0  0  0  # atno 17343 bound_to 10162
  156.3629  130.7491  151.2465 LP  0  0  0  0  0  0  0  0  0  0  0  0  # atno 17370 bound_to 10713
  157.7492  131.0345  150.4319 LP  0  0  0  0  0  0  0  0  0  0  0  0  # atno 17371 bound_to 10713
  140.5942  134.5620  157.5505 LP  0  0  0  0  0  0  0  0  0  0  0  0  # atno 17394 bound_to 11000
  139.9400  134.7805  156.0703 LP  0  0  0  0  0  0  0  0  0  0  0  0  # atno 17395 bound_to 11000

$$$$
