AV-unprocessed.smi:1385|AV-procd|sdf|5632|dock10
  -GOLD-   22720 5253D 1   1.00000     0.00000
 Structure written by MMmdl.
 38 39  0  0  0  0  0  0  0  0  3 V2000
  152.7399  141.8532  159.4139 C   0  0  0  0  0  0  0  0  0  0  0  0
  152.1590  141.3660  158.1308 C   0  0  0  0  0  0  0  0  0  0  0  0
  152.5118  140.2060  157.5714 N   0  0  0  0  0  0  0  0  0  0  0  0
  151.8341  139.9711  156.3838 N   0  0  0  0  0  0  0  0  0  0  0  0
  150.9729  140.9486  156.0676 C   0  0  0  0  0  0  0  0  0  0  0  0
  150.2220  140.9133  154.9544 N   0  5  0  0  0  0  0  0  0  0  0  0
  149.0680  140.2093  154.9399 C   0  0  0  0  0  0  0  0  0  0  0  0
  148.4686  139.7658  155.9221 O   0  0  0  0  0  0  0  0  0  0  0  0
  148.5795  140.0039  153.7083 N   0  0  0  0  0  0  0  0  0  0  0  0
  147.3594  139.2728  153.3809 C   0  0  2  0  0  0  0  0  0  0  0  0
  147.3063  137.9304  154.1336 C   0  0  0  0  0  0  0  0  0  0  0  0
  146.0822  137.1027  153.7111 C   0  0  0  0  0  0  0  0  0  0  0  0
  146.0674  136.8808  152.2428 N   0  3  1  0  0  0  0  0  0  0  0  0
  144.9778  135.9644  151.8187 C   0  0  0  0  0  0  0  0  0  0  0  0
  143.6320  136.2863  152.4770 C   0  0  0  0  0  0  0  0  0  0  0  0
  143.1377  137.5089  152.2701 N   0  0  0  0  0  0  0  0  0  0  0  0
  143.0525  135.4550  153.1736 O   0  0  0  0  0  0  0  0  0  0  0  0
  146.0720  138.1677  151.4969 C   0  0  0  0  0  0  0  0  0  0  0  0
  147.2991  139.0161  151.8669 C   0  0  0  0  0  0  0  0  0  0  0  0
  150.9507  142.2705  157.2346 S   0  0  0  0  0  0  0  0  0  0  0  0
  152.1760  141.4487  160.2545 H   0  0  0  0  0  0  0  0  0  0  0  0
  152.7011  142.9417  159.4562 H   0  0  0  0  0  0  0  0  0  0  0  0
  153.7799  141.5383  159.5041 H   0  0  0  0  0  0  0  0  0  0  0  0
  149.1051  140.3871  152.9362 H   0  0  0  0  0  0  0  0  0  0  0  0
  146.4944  139.8773  153.6613 H   0  0  0  0  0  0  0  0  0  0  0  0
  148.2153  137.3595  153.9373 H   0  0  0  0  0  0  0  0  0  0  0  0
  147.2764  138.1007  155.2105 H   0  0  0  0  0  0  0  0  0  0  0  0
  146.1057  136.1435  154.2296 H   0  0  0  0  0  0  0  0  0  0  0  0
  145.1630  137.6063  154.0146 H   0  0  0  0  0  0  0  0  0  0  0  0
  144.8252  136.0497  150.7421 H   0  0  0  0  0  0  0  0  0  0  0  0
  145.2627  134.9291  152.0140 H   0  0  0  0  0  0  0  0  0  0  0  0
  142.2528  137.7758  152.6770 H   0  0  0  0  0  0  0  0  0  0  0  0
  143.6521  138.1664  151.7012 H   0  0  0  0  0  0  0  0  0  0  0  0
  146.0791  137.9813  150.4227 H   0  0  0  0  0  0  0  0  0  0  0  0
  145.1563  138.7197  151.7147 H   0  0  0  0  0  0  0  0  0  0  0  0
  147.2681  139.9638  151.3277 H   0  0  0  0  0  0  0  0  0  0  0  0
  148.2050  138.5032  151.5394 H   0  0  0  0  0  0  0  0  0  0  0  0
  146.9324  136.4086  152.0200 H   0  0  0  0  0  0  0  0  0  0  0  0
  1  2  1  0  0  0  0
  1 21  1  0  0  0  0
  1 22  1  0  0  0  0
  1 23  1  0  0  0  0
  2 20  1  0  0  0  0
  2  3  2  0  0  0  0
  3  4  1  0  0  0  0
  4  5  2  0  0  0  0
  5  6  1  0  0  0  0
  5 20  1  0  0  0  0
  6  7  1  0  0  0  0
  7  8  2  0  0  0  0
  7  9  1  0  0  0  0
  9 10  1  0  0  0  0
  9 24  1  0  0  0  0
 10 19  1  0  0  0  0
 10 11  1  0  0  0  0
 10 25  1  0  0  0  0
 11 12  1  0  0  0  0
 11 26  1  0  0  0  0
 11 27  1  0  0  0  0
 12 13  1  0  0  0  0
 12 28  1  0  0  0  0
 12 29  1  0  0  0  0
 13 14  1  0  0  0  0
 13 18  1  0  0  0  0
 13 38  1  0  0  0  0
 14 15  1  0  0  0  0
 14 30  1  0  0  0  0
 14 31  1  0  0  0  0
 15 16  1  0  0  0  0
 15 17  2  0  0  0  0
 16 32  1  0  0  0  0
 16 33  1  0  0  0  0
 18 19  1  0  0  0  0
 18 34  1  0  0  0  0
 18 35  1  0  0  0  0
 19 36  1  0  0  0  0
 19 37  1  0  0  0  0
M  CHG  1   6  -1
M  CHG  1  13   1
M  END
> <s_m_source_file>
AV-unprocessed.smi

> <i_m_source_file_index>
1385

> <i_lp_mmshare_version>
43012

> <i_f3d_flags>
0

> <s_epik_input>
W0NIM11jMW5uYyhzMSlbTkhdQyg9TylbTkhdW0NIXTJbQ0gyXVtDSDJdTihbQ0gyXVtDSDJdMilbQ0gyXUMoPU8pW05IMl0=

> <s_epik_cmdline>
J2VwaWtfcHl0aG9uJywgJy1waCcsICc3LjAnLCAnLXRuJywgJzgnLCAnLW1hJywgJzIwMCcsICctbWV0YWxfYmluZGluZycsICctaW1hZScsICc8aW5maWxlLm1hZT4nLCAnLW9tYWUnLCAnPG91dGZpbGUubWFlPic=

> <r_lp_tautomer_probability>
1

> <r_epik_Ionization_Penalty>
3.90109

> <r_epik_Ionization_Penalty_Charging>
3.79141

> <r_epik_Ionization_Penalty_Neutral>
0.109679

> <r_epik_State_Penalty>
3.87237

> <r_epik_Charging_Adjusted_Penalty>
7.66378

> <i_epik_Tot_Q>
0

> <i_epik_Tot_abs_Q>
2

> <r_epik_Metal_State_Penalty>
1.33354

> <b_epik_Metal_Only>
1

> <s_lp_Force_Field>
OPLS_2005

> <r_lp_Energy>
4.67367

> <b_lp_Chiralities_Consistent>
1

> <s_lp_Variant>
AV-unprocessed.smi:1385-5

> <Gold.Version>
5.8.1

> <Gold.Id.Protein>
6NUR|6NUR_protein|mol2

> <Gold.PLP.Fitness>
41.7271

> <Gold.PLP.PLP>
-27.7223

> <Gold.PLP.part.hbond>
-6.0000

> <Gold.PLP.part.metal>
0.0000

> <Gold.PLP.part.buried>
3.2516

> <Gold.PLP.part.nonpolar>
-25.7733

> <Gold.PLP.part.repulsive>
0.4321

> <Gold.PLP.ligand.clash>
0.0000

> <Gold.PLP.ligand.torsion>
1.0771

> <Gold.PLP.Chemscore.Hbond>
5.3760

> <Gold.PLP.Chemscore.CHOScore>
0.0000

> <Gold.PLP.Chemscore.Metal>
0.0000

> <Gold.Chemscore.Hbonds>
donor molecule, donor type, donor heavy atom, donor atom, acceptor molecule, acceptor atom, score
      L1  H     9    24       P1  7957  0.85
      L1  H    13    38       P1  7948  2.00
      L1  H    16    33       P1 10171  0.75
      P1  H  7989  7998       L1     6  0.75
      P1  H  7997  8009       L1     3  0.78

> <Gold.PLP.Chemscore.Internal.Correction>
0.0310

> <Gold.Rescore>
     Score         DG    S(hbond)    S(metal)    S(lipo)     H(rot)  DE(clash)    DE(int)     intcor
     13.96     -18.99       3.46        0.00      61.45       2.04       2.56       2.47       ----

> <Gold.Chemscore.Fitness>
13.9643

> <Gold.Chemscore.DG>
-18.9896

> <Gold.Chemscore.ZeroCoef>
-5.4800

> <Gold.Chemscore.Hbond>
3.4571

> <Gold.Chemscore.Metal>
0.0000

> <Gold.Chemscore.Lipo>
61.4464

> <Gold.Chemscore.Internal_Hbond>
0.0000

> <Gold.Chemscore.DEClash>
2.5596

> <Gold.Chemscore.DEInternal>
2.4657

> <Gold.Chemscore.Rot>
2.0415

> <Gold.Chemscore.Internal.Correction>
   9.000000E+99

> <Gold.Chemscore.Hbonds>
donor molecule, donor type, donor heavy atom, donor atom, acceptor molecule, acceptor atom, score
      L1  H     9    24       P1  7957  0.85
      L1  H    13    38       P1  7948  0.94
      L1  H    16    33       P1 10171  0.70
      P1  H  7989  7998       L1     6  0.24
      P1  H  7997  8009       L1     3  0.13

> <Gold.Chemscore.Hbond.Weighted>
-11.5466

> <Gold.Chemscore.Metal.Weighted>
-0.0000

> <Gold.Chemscore.Lipo.Weighted>
-7.1892

> <Gold.Chemscore.Internal_Hbond.Weighted>
0.0000

> <Gold.Chemscore.DEClash.Weighted>
2.5596

> <Gold.Chemscore.DEInternal.Weighted>
2.4657

> <Gold.Chemscore.Rot.Weighted>
5.2262

> <Gold.Chemscore.Internal.Correction.Weighted>
   9.000000E+99

> <Gold.Protein.RotatedTorsions>
[ 6907 6896 6895 6894 ] final  -92.97 input  -60.11 | X-H torsion
[ 7974 7965 7964 7962 ] final  -84.48 input  175.53 | X-H torsion
[ 8008 7997 7996 7995 ] final  167.11 input   59.86 | X-H torsion
[ 10167 10162 10161 10158 ] final  -21.30 input  -65.29 | X-H torsion
[ 10718 10713 10712 10709 ] final   81.28 input   66.30 | X-H torsion
[ 10763 10752 10751 10750 ] final   81.90 input  -60.55 | X-H torsion
[ 11005 11000 10999 10996 ] final  -70.36 input  -57.11 | X-H torsion

> <Gold.Protein.ActiveResidues>
 VAL166  LYS551  ARG553  GLY616  TRP617  ASP618  TYR619  PRO620  LYS621  CYS622 
 ASP623  PHE694  ASN695  SER759  ASP760  ASP761  ALA762  ILE779  LEU786  VAL792 
 PHE793  MET794  SER795  GLU796  ALA797  LYS798  CYS799  TRP800  GLU811  SER814 

> <Gold.Protein.RotatedAtoms>
  150.6915  134.2039  159.4332 H   0  0  0  0  0  0  0  0  0  0  0  0  # atno 6907 bound_to 6896
  152.0004  134.9929  160.0574 H   0  0  0  0  0  0  0  0  0  0  0  0  # atno 6908 bound_to 6896
  152.1584  133.4531  159.4885 H   0  0  0  0  0  0  0  0  0  0  0  0  # atno 6909 bound_to 6896
  145.5060  140.9543  143.1733 H   0  0  0  0  0  0  0  0  0  0  0  0  # atno 7974 bound_to 7965
  156.1662  140.1625  156.8528 H   0  0  0  0  0  0  0  0  0  0  0  0  # atno 8008 bound_to 7997
  154.5210  140.0778  156.8206 H   0  0  0  0  0  0  0  0  0  0  0  0  # atno 8009 bound_to 7997
  155.3607  140.3395  155.4243 H   0  0  0  0  0  0  0  0  0  0  0  0  # atno 8010 bound_to 7997
  140.7281  143.4641  151.0338 H   0  0  0  0  0  0  0  0  0  0  0  0  # atno 10167 bound_to 10162
  157.6828  130.9997  150.2203 H   0  0  0  0  0  0  0  0  0  0  0  0  # atno 10718 bound_to 10713
  153.1156  135.4748  154.9110 H   0  0  0  0  0  0  0  0  0  0  0  0  # atno 10763 bound_to 10752
  154.7525  135.3110  154.8533 H   0  0  0  0  0  0  0  0  0  0  0  0  # atno 10764 bound_to 10752
  153.9111  135.6865  153.4804 H   0  0  0  0  0  0  0  0  0  0  0  0  # atno 10765 bound_to 10752
  141.1572  133.6788  156.6740 H   0  0  0  0  0  0  0  0  0  0  0  0  # atno 11005 bound_to 11000
  144.7753  139.6643  143.7177 LP  0  0  0  0  0  0  0  0  0  0  0  0  # atno 17320 bound_to 7965
  146.2196  139.5612  142.9627 LP  0  0  0  0  0  0  0  0  0  0  0  0  # atno 17321 bound_to 7965
  139.8328  143.7668  152.3180 LP  0  0  0  0  0  0  0  0  0  0  0  0  # atno 17342 bound_to 10162
  139.7790  144.7451  151.0116 LP  0  0  0  0  0  0  0  0  0  0  0  0  # atno 17343 bound_to 10162
  156.2856  130.3739  149.7892 LP  0  0  0  0  0  0  0  0  0  0  0  0  # atno 17370 bound_to 10713
  156.5567  130.8365  151.3316 LP  0  0  0  0  0  0  0  0  0  0  0  0  # atno 17371 bound_to 10713
  140.3153  134.8052  157.4209 LP  0  0  0  0  0  0  0  0  0  0  0  0  # atno 17394 bound_to 11000
  140.1143  134.5303  155.8238 LP  0  0  0  0  0  0  0  0  0  0  0  0  # atno 17395 bound_to 11000

$$$$
