#       Name:                AV-unprocessed.smi:709
#       Creating user name   scv26
#       Creation time:       Fri Mar 27 00:45:04 2020


#       File generated by GOLD software.
#

@<TRIPOS>MOLECULE
AV-unprocessed.smi:709
    54    56     1
SMALL
NO_CHARGES


@<TRIPOS>ATOM
      1 ****        -6.1876   1.6889  -0.7965 C.3            1 S1                 0.0000
      2 ****        -4.6918   1.8377  -0.5102 C.3            1 S1                 0.0000
      3 ****        -4.1241   0.5475  -0.3594 O.3            1 S1                 0.0000
      4 ****        -2.7268   0.5847  -0.1171 C.3            1 S1                 0.0000
      5 ****        -2.3358   0.9537   1.3178 C.3            1 S1                 0.0000
      6 ****        -1.2567  -0.1320   1.2304 C.3            1 S1                 0.0000
      7 ****         0.0131   0.4297   0.7685 N.am           1 S1                 0.0000
      8 ****         1.2055  -0.1649   0.9096 C.2            1 S1                 0.0000
      9 ****         1.3496  -1.2628   1.4462 O.2            1 S1                 0.0000
     10 ****         2.1813   0.5950   0.3792 N.am           1 S1                 0.0000
     11 ****         3.5672   0.3669   0.3054 C.2            1 S1                 0.0000
     12 ****         4.2184  -0.6746   0.8832 C.2            1 S1                 0.0000
     13 ****         5.6485  -0.8195   0.7535 C.2            1 S1                 0.0000
     14 ****         6.3222   0.1032   0.0532 C.2            1 S1                 0.0000
     15 ****         5.6704   1.1923  -0.5488 N.am           1 S1                 0.0000
     16 ****         6.4940   2.1499  -1.2915 C.3            1 S1                 0.0000
     17 ****         4.3195   1.3778  -0.4642 C.2            1 S1                 0.0000
     18 ****         3.7739   2.3424  -1.0064 O.2            1 S1                 0.0000
     19 ****        -2.1014  -0.8096   0.1132 C.3            1 S1                 0.0000
     20 ****        -3.0136  -1.9401   0.5965 C.3            1 S1                 0.0000
     21 ****        -2.2300  -3.2444   0.4205 C.3            1 S1                 0.0000
     22 ****        -1.1826  -2.9539  -0.6597 C.3            1 S1                 0.0000
     23 ****        -1.4069  -1.4949  -1.0646 C.3            1 S1                 0.0000
     24 ****        -6.6589   2.6638  -0.9230 H              1 S1                 0.0000
     25 ****        -6.6932   1.1759   0.0218 H              1 S1                 0.0000
     26 ****        -6.3561   1.1148  -1.7079 H              1 S1                 0.0000
     27 ****        -4.2076   2.3680  -1.3315 H              1 S1                 0.0000
     28 ****        -4.5438   2.4262   0.3961 H              1 S1                 0.0000
     29 ****        -2.1759   1.1583  -0.8661 H              1 S1                 0.0000
     30 ****        -1.9683   1.9729   1.4435 H              1 S1                 0.0000
     31 ****        -3.1144   0.7166   2.0447 H              1 S1                 0.0000
     32 ****        -1.1763  -0.7213   2.1457 H              1 S1                 0.0000
     33 ****        -0.0227   1.3295   0.3122 H              1 S1                 0.0000
     34 ****         1.8836   1.4607  -0.0468 H              1 S1                 0.0000
     35 ****         3.7055  -1.4239   1.4623 H              1 S1                 0.0000
     36 ****         6.1631  -1.6517   1.2105 H              1 S1                 0.0000
     37 ****         7.3925   0.0649  -0.0884 H              1 S1                 0.0000
     38 ****         6.1887   2.1859  -2.3381 H              1 S1                 0.0000
     39 ****         7.5549   1.8987  -1.2708 H              1 S1                 0.0000
     40 ****         6.3904   3.1517  -0.8721 H              1 S1                 0.0000
     41 ****        -3.3392  -1.8087   1.6289 H              1 S1                 0.0000
     42 ****        -3.9167  -1.9852  -0.0135 H              1 S1                 0.0000
     43 ****        -1.7328  -3.5144   1.3531 H              1 S1                 0.0000
     44 ****        -2.8861  -4.0708   0.1457 H              1 S1                 0.0000
     45 ****        -0.1811  -3.0810  -0.2474 H              1 S1                 0.0000
     46 ****        -1.2749  -3.6252  -1.5140 H              1 S1                 0.0000
     47 ****        -2.0600  -1.4646  -1.9379 H              1 S1                 0.0000
     48 ****        -0.4769  -1.0152  -1.3670 H              1 S1                 0.0000
     49 ****        -4.2891   0.0263  -1.1967 LP             1 S1                 0.0000
     50 ****        -4.5695   0.0908   0.4107 LP             1 S1                 0.0000
     51 ****         0.5543  -1.7539   1.8016 LP             1 S1                 0.0000
     52 ****         2.2620  -1.6639   1.5269 LP             1 S1                 0.0000
     53 ****         2.7838   2.4627  -0.9338 LP             1 S1                 0.0000
     54 ****         4.3217   3.0040  -1.5185 LP             1 S1                 0.0000
@<TRIPOS>BOND
    1    1    2 1     
    2    1   24 1     
    3    1   25 1     
    4    1   26 1     
    5    2    3 1     
    6    2   27 1     
    7    2   28 1     
    8    3    4 1     
    9    4   19 1     
   10    4    5 1     
   11    4   29 1     
   12    5    6 1     
   13    5   30 1     
   14    5   31 1     
   15    6    7 1     
   16    6   19 1     
   17    6   32 1     
   18    7    8 am    
   19    7   33 1     
   20    8    9 2     
   21    8   10 am    
   22   10   11 1     
   23   10   34 1     
   24   11   17 1     
   25   11   12 2     
   26   12   13 1     
   27   12   35 1     
   28   13   14 2     
   29   13   36 1     
   30   14   15 1     
   31   14   37 1     
   32   15   16 1     
   33   15   17 am    
   34   16   38 1     
   35   16   39 1     
   36   16   40 1     
   37   17   18 2     
   38   19   23 1     
   39   19   20 1     
   40   20   21 1     
   41   20   41 1     
   42   20   42 1     
   43   21   22 1     
   44   21   43 1     
   45   21   44 1     
   46   22   23 1     
   47   22   45 1     
   48   22   46 1     
   49   23   47 1     
   50   23   48 1     
   51    3   49 1     
   52    3   50 1     
   53    9   51 1     
   54    9   52 1     
   55   18   53 1     
   56   18   54 1     
@<TRIPOS>SUBSTRUCTURE
      1 S1             1
@<TRIPOS>SET
LONE_PAIRS      STATIC     ATOMS    <user>   **** ""
6 49 50 51 52 53 54
DONOR_HYDROGENS      STATIC     ATOMS    <user>   **** ""
2 33 34
ATOM$BLUE        STATIC     ATOMS    COLORGROUP SYSTEM
6 49 50 51 52 53 54
ATOM$RED        STATIC     ATOMS    COLORGROUP SYSTEM
2 33 34
