AV-unprocessed.smi:1224|AV-procd|sdf|5133|dock4
  -GOLD-   22720 4193D 1   1.00000     0.00000
 Structure written by MMmdl.
 43 45  0  0  0  0  0  0  0  0  1 V2000
  152.6179  144.2519  160.8071 C   0  0  0  0  0  0  0  0  0  0  0  0
  151.9698  143.3600  159.7626 C   0  0  0  0  0  0  0  0  0  0  0  0
  152.6640  142.2155  159.3094 C   0  0  0  0  0  0  0  0  0  0  0  0
  152.0959  141.3606  158.3397 C   0  0  0  0  0  0  0  0  0  0  0  0
  152.5911  140.2051  157.7598 N   0  0  0  0  0  0  0  0  0  0  0  0
  151.6010  139.8731  156.9364 C   0  0  0  0  0  0  0  0  0  0  0  0
  150.5170  140.6728  156.9214 N   0  0  0  0  0  0  0  0  0  0  0  0
  149.3189  140.5117  156.1171 C   0  0  0  0  0  0  0  0  0  0  0  0
  149.5034  141.0095  154.6698 C   0  0  1  0  0  0  0  0  0  0  0  0
  150.2194  140.0140  153.9692 O   0  0  0  0  0  0  0  0  0  0  0  0
  148.1754  141.2636  153.9304 C   0  0  0  0  0  0  0  0  0  0  0  0
  147.4456  142.3786  154.5258 N   0  0  0  0  0  0  0  0  0  0  0  0
  146.3657  142.8727  153.6793 C   0  0  0  0  0  0  0  0  0  0  0  0
  145.4336  143.7653  154.4279 C   0  0  0  0  0  0  0  0  0  0  0  0
  144.5414  144.6709  153.9117 C   0  0  0  0  0  0  0  0  0  0  0  0
  143.8019  145.3638  154.9147 C   0  0  0  0  0  0  0  0  0  0  0  0
  144.1399  144.9779  156.1846 C   0  0  0  0  0  0  0  0  0  0  0  0
  145.3770  143.7508  156.1726 S   0  0  0  0  0  0  0  0  0  0  0  0
  150.8030  141.6828  157.8335 C   0  0  0  0  0  0  0  0  0  0  0  0
  150.1032  142.8196  158.2748 C   0  0  0  0  0  0  0  0  0  0  0  0
  150.6857  143.6637  159.2433 C   0  0  0  0  0  0  0  0  0  0  0  0
  149.9215  144.8886  159.7138 C   0  0  0  0  0  0  0  0  0  0  0  0
  153.6004  143.8779  161.0965 H   0  0  0  0  0  0  0  0  0  0  0  0
  152.0008  144.2991  161.7046 H   0  0  0  0  0  0  0  0  0  0  0  0
  152.7455  145.2633  160.4205 H   0  0  0  0  0  0  0  0  0  0  0  0
  153.6423  141.9838  159.7040 H   0  0  0  0  0  0  0  0  0  0  0  0
  151.6635  138.9926  156.3136 H   0  0  0  0  0  0  0  0  0  0  0  0
  149.0498  139.4545  156.1220 H   0  0  0  0  0  0  0  0  0  0  0  0
  148.4991  141.0452  156.6011 H   0  0  0  0  0  0  0  0  0  0  0  0
  150.1032  141.9206  154.6842 H   0  0  0  0  0  0  0  0  0  0  0  0
  149.7548  139.8227  153.1684 H   0  0  0  0  0  0  0  0  0  0  0  0
  148.3549  141.4379  152.8685 H   0  0  0  0  0  0  0  0  0  0  0  0
  147.5478  140.3748  153.9910 H   0  0  0  0  0  0  0  0  0  0  0  0
  147.0622  142.0849  155.4187 H   0  0  0  0  0  0  0  0  0  0  0  0
  146.7793  143.4199  152.8315 H   0  0  0  0  0  0  0  0  0  0  0  0
  145.8100  142.0331  153.2602 H   0  0  0  0  0  0  0  0  0  0  0  0
  144.3961  144.8576  152.8577 H   0  0  0  0  0  0  0  0  0  0  0  0
  143.0594  146.1100  154.6730 H   0  0  0  0  0  0  0  0  0  0  0  0
  143.7401  145.3366  157.1217 H   0  0  0  0  0  0  0  0  0  0  0  0
  149.1260  143.0392  157.8710 H   0  0  0  0  0  0  0  0  0  0  0  0
  148.9568  144.9722  159.2126 H   0  0  0  0  0  0  0  0  0  0  0  0
  150.4871  145.7965  159.5033 H   0  0  0  0  0  0  0  0  0  0  0  0
  149.7373  144.8356  160.7871 H   0  0  0  0  0  0  0  0  0  0  0  0
  1  2  1  0  0  0  0
  1 23  1  0  0  0  0
  1 24  1  0  0  0  0
  1 25  1  0  0  0  0
  2 21  1  0  0  0  0
  2  3  2  0  0  0  0
  3  4  1  0  0  0  0
  3 26  1  0  0  0  0
  4 19  2  0  0  0  0
  4  5  1  0  0  0  0
  5  6  2  0  0  0  0
  6  7  1  0  0  0  0
  6 27  1  0  0  0  0
  7  8  1  0  0  0  0
  7 19  1  0  0  0  0
  8  9  1  0  0  0  0
  8 28  1  0  0  0  0
  8 29  1  0  0  0  0
  9 10  1  0  0  0  0
  9 11  1  0  0  0  0
  9 30  1  0  0  0  0
 10 31  1  0  0  0  0
 11 12  1  0  0  0  0
 11 32  1  0  0  0  0
 11 33  1  0  0  0  0
 12 13  1  0  0  0  0
 12 34  1  0  0  0  0
 13 14  1  0  0  0  0
 13 35  1  0  0  0  0
 13 36  1  0  0  0  0
 14 18  1  0  0  0  0
 14 15  2  0  0  0  0
 15 16  1  0  0  0  0
 15 37  1  0  0  0  0
 16 17  2  0  0  0  0
 16 38  1  0  0  0  0
 17 18  1  0  0  0  0
 17 39  1  0  0  0  0
 19 20  1  0  0  0  0
 20 21  2  0  0  0  0
 20 40  1  0  0  0  0
 21 22  1  0  0  0  0
 22 41  1  0  0  0  0
 22 42  1  0  0  0  0
 22 43  1  0  0  0  0
M  END
> <s_m_source_file>
AV-unprocessed.smi

> <i_m_source_file_index>
1224

> <i_lp_mmshare_version>
43012

> <i_f3d_flags>
0

> <s_epik_input>
W0NIM11jKFtjSF0xKWMoW0NIM10pW2NIXWMoYzEyKW4oW2NIXW4yKVtDSDJdW0NASF0oW09IXSlbQ0gyXVtOSF1bQ0gyXWMzW2NIXVtjSF1bY0hdczM=

> <s_epik_cmdline>
J2VwaWtfcHl0aG9uJywgJy1waCcsICc3LjAnLCAnLXRuJywgJzgnLCAnLW1hJywgJzIwMCcsICctbWV0YWxfYmluZGluZycsICctaW1hZScsICc8aW5maWxlLm1hZT4nLCAnLW9tYWUnLCAnPG91dGZpbGUubWFlPic=

> <r_epik_Ionization_Penalty>
1.55566

> <r_epik_Ionization_Penalty_Charging>
0

> <r_epik_Ionization_Penalty_Neutral>
1.55566

> <r_epik_State_Penalty>
1.63945

> <r_epik_Charging_Adjusted_Penalty>
1.63945

> <i_epik_Tot_Q>
0

> <i_epik_Tot_abs_Q>
0

> <r_epik_Metal_State_Penalty>
1.52326

> <b_epik_Metal_Only>
0

> <s_lp_Force_Field>
OPLS_2005

> <r_lp_Energy>
15.3814

> <b_lp_Chiralities_Consistent>
1

> <s_lp_Variant>
AV-unprocessed.smi:1224-6

> <Gold.Version>
5.8.1

> <Gold.Id.Protein>
6NUR|6NUR_protein|mol2

> <Gold.PLP.Fitness>
52.0356

> <Gold.PLP.PLP>
-44.8556

> <Gold.PLP.part.hbond>
-3.9596

> <Gold.PLP.part.metal>
0.0000

> <Gold.PLP.part.buried>
-7.6733

> <Gold.PLP.part.nonpolar>
-33.4428

> <Gold.PLP.part.repulsive>
0.0000

> <Gold.PLP.ligand.clash>
0.0000

> <Gold.PLP.ligand.torsion>
0.8194

> <Gold.PLP.Chemscore.Hbond>
2.9193

> <Gold.PLP.Chemscore.CHOScore>
0.0000

> <Gold.PLP.Chemscore.Metal>
0.0000

> <Gold.Chemscore.Hbonds>
donor molecule, donor type, donor heavy atom, donor atom, acceptor molecule, acceptor atom, score
      L1  H    10    31       P1  7957  0.96
      P1  H  7989  7998       L1    10  0.96
      P1  H  7997  8009       L1     5  0.88

> <Gold.PLP.Chemscore.Internal.Correction>
0.0610

> <Gold.Rescore>
     Score         DG    S(hbond)    S(metal)    S(lipo)     H(rot)  DE(clash)    DE(int)     intcor
     20.61     -21.39       2.34        0.00     119.89       2.32       0.13       0.65       ----

> <Gold.Chemscore.Fitness>
20.6064

> <Gold.Chemscore.DG>
-21.3853

> <Gold.Chemscore.ZeroCoef>
-5.4800

> <Gold.Chemscore.Hbond>
2.3386

> <Gold.Chemscore.Metal>
0.0000

> <Gold.Chemscore.Lipo>
119.8870

> <Gold.Chemscore.Internal_Hbond>
0.0000

> <Gold.Chemscore.DEClash>
0.1276

> <Gold.Chemscore.DEInternal>
0.6514

> <Gold.Chemscore.Rot>
2.3173

> <Gold.Chemscore.Internal.Correction>
   9.000000E+99

> <Gold.Chemscore.Hbonds>
donor molecule, donor type, donor heavy atom, donor atom, acceptor molecule, acceptor atom, score
      L1  H    10    31       P1  7957  0.87
      P1  H  7989  7998       L1    10  0.16
      P1  H  7997  8009       L1     5  0.64

> <Gold.Chemscore.Hbond.Weighted>
-7.8109

> <Gold.Chemscore.Metal.Weighted>
-0.0000

> <Gold.Chemscore.Lipo.Weighted>
-14.0268

> <Gold.Chemscore.Internal_Hbond.Weighted>
0.0000

> <Gold.Chemscore.DEClash.Weighted>
0.1276

> <Gold.Chemscore.DEInternal.Weighted>
0.6514

> <Gold.Chemscore.Rot.Weighted>
5.9324

> <Gold.Chemscore.Internal.Correction.Weighted>
   9.000000E+99

> <Gold.Protein.RotatedTorsions>
[ 6907 6896 6895 6894 ] final  174.94 input  -60.11 | X-H torsion
[ 7974 7965 7964 7962 ] final -100.98 input  175.53 | X-H torsion
[ 8008 7997 7996 7995 ] final  170.62 input   59.86 | X-H torsion
[ 10167 10162 10161 10158 ] final   37.94 input  -65.29 | X-H torsion
[ 10718 10713 10712 10709 ] final  150.48 input   66.30 | X-H torsion
[ 10763 10752 10751 10750 ] final  139.98 input  -60.55 | X-H torsion
[ 11005 11000 10999 10996 ] final   54.22 input  -57.11 | X-H torsion

> <Gold.Protein.ActiveResidues>
 VAL166  LYS551  ARG553  GLY616  TRP617  ASP618  TYR619  PRO620  LYS621  CYS622 
 ASP623  PHE694  ASN695  SER759  ASP760  ASP761  ALA762  ILE779  LEU786  VAL792 
 PHE793  MET794  SER795  GLU796  ALA797  LYS798  CYS799  TRP800  GLU811  SER814 

> <Gold.Protein.RotatedAtoms>
  151.7442  133.3323  159.3373 H   0  0  0  0  0  0  0  0  0  0  0  0  # atno 6907 bound_to 6896
  150.7561  134.6250  159.6165 H   0  0  0  0  0  0  0  0  0  0  0  0  # atno 6908 bound_to 6896
  152.3510  134.7007  160.0288 H   0  0  0  0  0  0  0  0  0  0  0  0  # atno 6909 bound_to 6896
  145.2876  140.9344  143.2896 H   0  0  0  0  0  0  0  0  0  0  0  0  # atno 7974 bound_to 7965
  156.1348  140.1533  156.9011 H   0  0  0  0  0  0  0  0  0  0  0  0  # atno 8008 bound_to 7997
  154.4938  140.0844  156.7692 H   0  0  0  0  0  0  0  0  0  0  0  0  # atno 8009 bound_to 7997
  155.4189  140.3422  155.4272 H   0  0  0  0  0  0  0  0  0  0  0  0  # atno 8010 bound_to 7997
  140.3984  144.1757  150.6133 H   0  0  0  0  0  0  0  0  0  0  0  0  # atno 10167 bound_to 10162
  157.2829  131.0839  151.1518 H   0  0  0  0  0  0  0  0  0  0  0  0  # atno 10718 bound_to 10713
  153.9151  135.3007  155.3448 H   0  0  0  0  0  0  0  0  0  0  0  0  # atno 10763 bound_to 10752
  154.7604  135.4937  153.9456 H   0  0  0  0  0  0  0  0  0  0  0  0  # atno 10764 bound_to 10752
  153.1171  135.6773  153.9501 H   0  0  0  0  0  0  0  0  0  0  0  0  # atno 10765 bound_to 10752
  140.0704  134.5478  155.9053 H   0  0  0  0  0  0  0  0  0  0  0  0  # atno 11005 bound_to 11000
  144.9200  139.4423  143.6545 LP  0  0  0  0  0  0  0  0  0  0  0  0  # atno 17320 bound_to 7965
  146.3196  139.8055  142.8956 LP  0  0  0  0  0  0  0  0  0  0  0  0  # atno 17321 bound_to 7965
  140.4766  143.2394  151.9015 LP  0  0  0  0  0  0  0  0  0  0  0  0  # atno 17342 bound_to 10162
  139.4785  144.5314  151.8661 LP  0  0  0  0  0  0  0  0  0  0  0  0  # atno 17343 bound_to 10162
  157.2945  130.6812  149.6131 LP  0  0  0  0  0  0  0  0  0  0  0  0  # atno 17370 bound_to 10713
  155.9665  130.4411  150.5325 LP  0  0  0  0  0  0  0  0  0  0  0  0  # atno 17371 bound_to 10713
  141.2009  133.6615  156.5924 LP  0  0  0  0  0  0  0  0  0  0  0  0  # atno 17394 bound_to 11000
  140.3636  134.7666  157.4551 LP  0  0  0  0  0  0  0  0  0  0  0  0  # atno 17395 bound_to 11000

$$$$
