AV-unprocessed.smi:2984|AV-procd|sdf|11378|dock6
  -GOLD-   2272016293D 1   1.00000     0.00000
 Structure written by MMmdl.
 38 39  0  0  0  0  0  0  0  0  1 V2000
  149.8028  139.9981  154.2516 O   0  0  0  0  0  0  0  0  0  0  0  0
  149.1639  141.0163  154.5220 C   0  0  0  0  0  0  0  0  0  0  0  0
  147.8226  141.2652  153.8182 C   0  0  0  0  0  0  0  0  0  0  0  0
  146.7307  141.5312  154.7675 N   0  0  0  0  0  0  0  0  0  0  0  0
  146.6679  140.6343  155.8205 N   0  0  0  0  0  0  0  0  0  0  0  0
  145.7360  140.7545  156.7020 C   0  0  0  0  0  0  0  0  0  0  0  0
  144.7453  141.8056  156.6368 C   0  0  0  0  0  0  0  0  0  0  0  0
  143.5161  141.9140  157.8472 Cl  0  0  0  0  0  0  0  0  0  0  0  0
  144.8224  142.6864  155.6077 C   0  0  0  0  0  0  0  0  0  0  0  0
  143.6736  143.9725  155.4644 Cl  0  0  0  0  0  0  0  0  0  0  0  0
  145.8723  142.5816  154.5849 C   0  0  0  0  0  0  0  0  0  0  0  0
  145.9771  143.3623  153.6382 O   0  0  0  0  0  0  0  0  0  0  0  0
  149.5504  141.9644  155.4015 N   0  0  0  0  0  0  0  0  0  0  0  0
  150.6573  141.9756  156.1672 C   0  0  0  0  0  0  0  0  0  0  0  0
  151.6069  141.1954  156.0706 O   0  0  0  0  0  0  0  0  0  0  0  0
  150.5987  142.9583  157.0782 N   0  0  0  0  0  0  0  0  0  0  0  0
  151.6431  143.2735  158.0485 C   0  0  0  0  0  0  0  0  0  0  0  0
  151.8766  142.0810  158.9996 C   0  0  0  0  0  0  0  0  0  0  0  0
  152.9159  142.4184  160.0810 C   0  0  0  0  0  0  0  0  0  0  0  0
  152.5168  143.6781  160.8650 C   0  0  0  0  0  0  0  0  0  0  0  0
  152.2901  144.8694  159.9211 C   0  0  0  0  0  0  0  0  0  0  0  0
  151.2492  144.5348  158.8404 C   0  0  0  0  0  0  0  0  0  0  0  0
  147.9468  142.1055  153.1327 H   0  0  0  0  0  0  0  0  0  0  0  0
  147.5745  140.4097  153.1871 H   0  0  0  0  0  0  0  0  0  0  0  0
  145.6444  140.0689  157.5445 H   0  0  0  0  0  0  0  0  0  0  0  0
  148.9250  142.7492  155.5086 H   0  0  0  0  0  0  0  0  0  0  0  0
  149.7647  143.5259  157.1118 H   0  0  0  0  0  0  0  0  0  0  0  0
  152.5717  143.4864  157.5151 H   0  0  0  0  0  0  0  0  0  0  0  0
  150.9369  141.8001  159.4776 H   0  0  0  0  0  0  0  0  0  0  0  0
  152.2083  141.2077  158.4363 H   0  0  0  0  0  0  0  0  0  0  0  0
  153.0286  141.5759  160.7639 H   0  0  0  0  0  0  0  0  0  0  0  0
  153.8907  142.5712  159.6158 H   0  0  0  0  0  0  0  0  0  0  0  0
  151.6059  143.4824  161.4321 H   0  0  0  0  0  0  0  0  0  0  0  0
  153.2891  143.9227  161.5946 H   0  0  0  0  0  0  0  0  0  0  0  0
  151.9662  145.7397  160.4925 H   0  0  0  0  0  0  0  0  0  0  0  0
  153.2331  145.1444  159.4470 H   0  0  0  0  0  0  0  0  0  0  0  0
  151.1394  145.3826  158.1630 H   0  0  0  0  0  0  0  0  0  0  0  0
  150.2763  144.3877  159.3116 H   0  0  0  0  0  0  0  0  0  0  0  0
  1  2  2  0  0  0  0
  2  3  1  0  0  0  0
  2 13  1  0  0  0  0
  3  4  1  0  0  0  0
  3 23  1  0  0  0  0
  3 24  1  0  0  0  0
  4 11  1  0  0  0  0
  4  5  1  0  0  0  0
  5  6  2  0  0  0  0
  6  7  1  0  0  0  0
  6 25  1  0  0  0  0
  7  8  1  0  0  0  0
  7  9  2  0  0  0  0
  9 10  1  0  0  0  0
  9 11  1  0  0  0  0
 11 12  2  0  0  0  0
 13 14  1  0  0  0  0
 13 26  1  0  0  0  0
 14 15  2  0  0  0  0
 14 16  1  0  0  0  0
 16 17  1  0  0  0  0
 16 27  1  0  0  0  0
 17 22  1  0  0  0  0
 17 18  1  0  0  0  0
 17 28  1  0  0  0  0
 18 19  1  0  0  0  0
 18 29  1  0  0  0  0
 18 30  1  0  0  0  0
 19 20  1  0  0  0  0
 19 31  1  0  0  0  0
 19 32  1  0  0  0  0
 20 21  1  0  0  0  0
 20 33  1  0  0  0  0
 20 34  1  0  0  0  0
 21 22  1  0  0  0  0
 21 35  1  0  0  0  0
 21 36  1  0  0  0  0
 22 37  1  0  0  0  0
 22 38  1  0  0  0  0
M  END
> <s_m_source_file>
AV-unprocessed.smi

> <i_m_source_file_index>
2984

> <i_lp_mmshare_version>
43012

> <i_f3d_flags>
0

> <s_epik_input>
Tz1jMWMoQ2wpYyhDbClbY0hdbm4xW0NIMl1DKD1PKVtOSF1DKD1PKVtOSF1bQ0hdMltDSDJdW0NIMl1bQ0gyXVtDSDJdW0NIMl0y

> <s_epik_cmdline>
J2VwaWtfcHl0aG9uJywgJy1waCcsICc3LjAnLCAnLXRuJywgJzgnLCAnLW1hJywgJzIwMCcsICctbWV0YWxfYmluZGluZycsICctaW1hZScsICc8aW5maWxlLm1hZT4nLCAnLW9tYWUnLCAnPG91dGZpbGUubWFlPic=

> <r_lp_tautomer_probability>
1

> <r_epik_Ionization_Penalty>
3.27035e-05

> <r_epik_Ionization_Penalty_Charging>
2.24292e-11

> <r_epik_Ionization_Penalty_Neutral>
3.27035e-05

> <r_epik_State_Penalty>
-0

> <r_epik_Charging_Adjusted_Penalty>
2.24292e-11

> <i_epik_Tot_Q>
0

> <i_epik_Tot_abs_Q>
0

> <r_epik_Metal_State_Penalty>
-0

> <b_epik_Metal_Only>
0

> <s_lp_Force_Field>
OPLS_2005

> <r_lp_Energy>
25.082

> <b_lp_Chiralities_Consistent>
1

> <s_lp_Variant>
AV-unprocessed.smi:2984-1

> <Gold.Version>
5.8.1

> <Gold.Id.Protein>
6NUR|6NUR_protein|mol2

> <Gold.PLP.Fitness>
49.1342

> <Gold.PLP.PLP>
-41.9178

> <Gold.PLP.part.hbond>
-4.1676

> <Gold.PLP.part.metal>
0.0000

> <Gold.PLP.part.buried>
-2.4292

> <Gold.PLP.part.nonpolar>
-35.0306

> <Gold.PLP.part.repulsive>
1.4760

> <Gold.PLP.ligand.clash>
0.0000

> <Gold.PLP.ligand.torsion>
0.2285

> <Gold.PLP.Chemscore.Hbond>
2.5536

> <Gold.PLP.Chemscore.CHOScore>
0.0000

> <Gold.PLP.Chemscore.Metal>
0.0000

> <Gold.Chemscore.Hbonds>
donor molecule, donor type, donor heavy atom, donor atom, acceptor molecule, acceptor atom, score
      L1  H    13    26       P1  8028  0.86
      L1  H    16    27       P1  8028  0.57
      P1  H  7989  7998       L1     1  0.66

> <Gold.PLP.Chemscore.Internal.Correction>
0.0126

> <Gold.Rescore>
     Score         DG    S(hbond)    S(metal)    S(lipo)     H(rot)  DE(clash)    DE(int)     intcor
     15.24     -17.25       1.74        0.00      86.62       1.63       0.40       1.60       ----

> <Gold.Chemscore.Fitness>
15.2431

> <Gold.Chemscore.DG>
-17.2513

> <Gold.Chemscore.ZeroCoef>
-5.4800

> <Gold.Chemscore.Hbond>
1.7381

> <Gold.Chemscore.Metal>
0.0000

> <Gold.Chemscore.Lipo>
86.6181

> <Gold.Chemscore.Internal_Hbond>
0.0000

> <Gold.Chemscore.DEClash>
0.4039

> <Gold.Chemscore.DEInternal>
1.6044

> <Gold.Chemscore.Rot>
1.6283

> <Gold.Chemscore.Internal.Correction>
   9.000000E+99

> <Gold.Chemscore.Hbonds>
donor molecule, donor type, donor heavy atom, donor atom, acceptor molecule, acceptor atom, score
      L1  H    13    26       P1  8028  0.83
      L1  H    16    27       P1  8028  0.53
      P1  H  7989  7998       L1     1  0.16

> <Gold.Chemscore.Hbond.Weighted>
-5.8054

> <Gold.Chemscore.Metal.Weighted>
-0.0000

> <Gold.Chemscore.Lipo.Weighted>
-10.1343

> <Gold.Chemscore.Internal_Hbond.Weighted>
0.0000

> <Gold.Chemscore.DEClash.Weighted>
0.4039

> <Gold.Chemscore.DEInternal.Weighted>
1.6044

> <Gold.Chemscore.Rot.Weighted>
4.1684

> <Gold.Chemscore.Internal.Correction.Weighted>
   9.000000E+99

> <Gold.Protein.RotatedTorsions>
[ 6907 6896 6895 6894 ] final  -23.98 input  -60.11 | X-H torsion
[ 7974 7965 7964 7962 ] final -111.07 input  175.53 | X-H torsion
[ 8008 7997 7996 7995 ] final -127.55 input   59.86 | X-H torsion
[ 10167 10162 10161 10158 ] final  121.97 input  -65.29 | X-H torsion
[ 10718 10713 10712 10709 ] final -146.75 input   66.30 | X-H torsion
[ 10763 10752 10751 10750 ] final -177.34 input  -60.55 | X-H torsion
[ 11005 11000 10999 10996 ] final  -98.38 input  -57.11 | X-H torsion

> <Gold.Protein.ActiveResidues>
 VAL166  LYS551  ARG553  GLY616  TRP617  ASP618  TYR619  PRO620  LYS621  CYS622 
 ASP623  PHE694  ASN695  SER759  ASP760  ASP761  ALA762  ILE779  LEU786  VAL792 
 PHE793  MET794  SER795  GLU796  ALA797  LYS798  CYS799  TRP800  GLU811  SER814 

> <Gold.Protein.RotatedAtoms>
  151.1961  135.0423  159.8852 H   0  0  0  0  0  0  0  0  0  0  0  0  # atno 6907 bound_to 6896
  152.5436  134.0902  159.8283 H   0  0  0  0  0  0  0  0  0  0  0  0  # atno 6908 bound_to 6896
  151.1036  133.5177  159.2641 H   0  0  0  0  0  0  0  0  0  0  0  0  # atno 6909 bound_to 6896
  145.1605  140.8876  143.3593 H   0  0  0  0  0  0  0  0  0  0  0  0  # atno 7974 bound_to 7965
  155.2481  140.0431  157.2983 H   0  0  0  0  0  0  0  0  0  0  0  0  # atno 8008 bound_to 7997
  154.5786  140.2394  155.8056 H   0  0  0  0  0  0  0  0  0  0  0  0  # atno 8009 bound_to 7997
  156.2176  140.2980  155.9885 H   0  0  0  0  0  0  0  0  0  0  0  0  # atno 8010 bound_to 7997
  139.5887  144.7016  151.3345 H   0  0  0  0  0  0  0  0  0  0  0  0  # atno 10167 bound_to 10162
  156.3989  130.7923  151.2132 H   0  0  0  0  0  0  0  0  0  0  0  0  # atno 10718 bound_to 10713
  154.5614  135.2820  155.0916 H   0  0  0  0  0  0  0  0  0  0  0  0  # atno 10763 bound_to 10752
  154.2323  135.6372  153.5183 H   0  0  0  0  0  0  0  0  0  0  0  0  # atno 10764 bound_to 10752
  153.0030  135.5540  154.6209 H   0  0  0  0  0  0  0  0  0  0  0  0  # atno 10765 bound_to 10752
  141.1346  133.8241  157.0832 H   0  0  0  0  0  0  0  0  0  0  0  0  # atno 11005 bound_to 11000
  145.0336  139.3320  143.6012 LP  0  0  0  0  0  0  0  0  0  0  0  0  # atno 17320 bound_to 7965
  146.3483  139.9682  142.8709 LP  0  0  0  0  0  0  0  0  0  0  0  0  # atno 17321 bound_to 7965
  140.7154  143.7280  150.7645 LP  0  0  0  0  0  0  0  0  0  0  0  0  # atno 17342 bound_to 10162
  140.0831  143.4950  152.2519 LP  0  0  0  0  0  0  0  0  0  0  0  0  # atno 17343 bound_to 10162
  157.7503  131.0293  150.4086 LP  0  0  0  0  0  0  0  0  0  0  0  0  # atno 17370 bound_to 10713
  156.4362  130.3982  149.6727 LP  0  0  0  0  0  0  0  0  0  0  0  0  # atno 17371 bound_to 10713
  140.0438  134.9841  157.1011 LP  0  0  0  0  0  0  0  0  0  0  0  0  # atno 17394 bound_to 11000
  140.4094  134.1997  155.7163 LP  0  0  0  0  0  0  0  0  0  0  0  0  # atno 17395 bound_to 11000

$$$$
