AV-unprocessed.smi:1708|AV-procd|sdf|6889|dock4
  -GOLD-   22720 8 93D 1   1.00000     0.00000
 Structure written by MMmdl.
 36 38  0  0  0  0  0  0  0  0  1 V2000
  151.1306  137.6396  154.3817 C   0  0  0  0  0  0  0  0  0  0  0  0
  150.7179  138.9689  154.8154 N   0  0  0  0  0  0  0  0  0  0  0  0
  151.4065  139.8162  155.6147 C   0  0  0  0  0  0  0  0  0  0  0  0
  152.5113  139.6049  156.1146 O   0  0  0  0  0  0  0  0  0  0  0  0
  150.6767  140.9482  155.7550 N   0  0  0  0  0  0  0  0  0  0  0  0
  151.0706  142.1409  156.5066 C   0  0  0  0  0  0  0  0  0  0  0  0
  150.3474  142.2447  157.8669 C   0  0  2  0  0  0  0  0  0  0  0  0
  149.0008  142.6002  157.6302 O   0  0  0  0  0  0  0  0  0  0  0  0
  151.0384  143.2019  158.8294 C   0  0  0  0  0  0  0  0  0  0  0  0
  151.0995  144.5843  158.5472 C   0  0  0  0  0  0  0  0  0  0  0  0
  151.7674  145.4592  159.4256 C   0  0  0  0  0  0  0  0  0  0  0  0
  152.3786  144.9573  160.5905 C   0  0  0  0  0  0  0  0  0  0  0  0
  152.3212  143.5800  160.8770 C   0  0  0  0  0  0  0  0  0  0  0  0
  152.9127  143.0958  161.9944 F   0  0  0  0  0  0  0  0  0  0  0  0
  151.6520  142.7051  159.9996 C   0  0  0  0  0  0  0  0  0  0  0  0
  149.4897  140.8234  155.0153 C   0  0  0  0  0  0  0  0  0  0  0  0
  148.4179  141.7126  154.8189 C   0  0  0  0  0  0  0  0  0  0  0  0
  147.3608  141.2783  153.9854 C   0  0  0  0  0  0  0  0  0  0  0  0
  147.3928  139.9961  153.3782 C   0  0  0  0  0  0  0  0  0  0  0  0
  148.4838  139.1212  153.5911 C   0  0  0  0  0  0  0  0  0  0  0  0
  149.5199  139.5784  154.4231 C   0  0  0  0  0  0  0  0  0  0  0  0
  152.0526  137.3174  154.8673 H   0  0  0  0  0  0  0  0  0  0  0  0
  151.2951  137.6309  153.3040 H   0  0  0  0  0  0  0  0  0  0  0  0
  150.3559  136.9090  154.6155 H   0  0  0  0  0  0  0  0  0  0  0  0
  152.1502  142.1341  156.6575 H   0  0  0  0  0  0  0  0  0  0  0  0
  150.8615  143.0271  155.9051 H   0  0  0  0  0  0  0  0  0  0  0  0
  150.3260  141.2559  158.3268 H   0  0  0  0  0  0  0  0  0  0  0  0
  148.9860  143.4183  157.1573 H   0  0  0  0  0  0  0  0  0  0  0  0
  150.6429  144.9763  157.6501 H   0  0  0  0  0  0  0  0  0  0  0  0
  151.8139  146.5150  159.2034 H   0  0  0  0  0  0  0  0  0  0  0  0
  152.8925  145.6284  161.2628 H   0  0  0  0  0  0  0  0  0  0  0  0
  151.6212  141.6484  160.2224 H   0  0  0  0  0  0  0  0  0  0  0  0
  148.3978  142.6899  155.2773 H   0  0  0  0  0  0  0  0  0  0  0  0
  146.5197  141.9321  153.8076 H   0  0  0  0  0  0  0  0  0  0  0  0
  146.5756  139.6852  152.7444 H   0  0  0  0  0  0  0  0  0  0  0  0
  148.5178  138.1451  153.1304 H   0  0  0  0  0  0  0  0  0  0  0  0
  1  2  1  0  0  0  0
  1 22  1  0  0  0  0
  1 23  1  0  0  0  0
  1 24  1  0  0  0  0
  2 21  1  0  0  0  0
  2  3  1  0  0  0  0
  3  4  2  0  0  0  0
  3  5  1  0  0  0  0
  5  6  1  0  0  0  0
  5 16  1  0  0  0  0
  6  7  1  0  0  0  0
  6 25  1  0  0  0  0
  6 26  1  0  0  0  0
  7  8  1  0  0  0  0
  7  9  1  0  0  0  0
  7 27  1  0  0  0  0
  8 28  1  0  0  0  0
  9 15  1  0  0  0  0
  9 10  2  0  0  0  0
 10 11  1  0  0  0  0
 10 29  1  0  0  0  0
 11 12  2  0  0  0  0
 11 30  1  0  0  0  0
 12 13  1  0  0  0  0
 12 31  1  0  0  0  0
 13 14  1  0  0  0  0
 13 15  2  0  0  0  0
 15 32  1  0  0  0  0
 16 21  2  0  0  0  0
 16 17  1  0  0  0  0
 17 18  2  0  0  0  0
 17 33  1  0  0  0  0
 18 19  1  0  0  0  0
 18 34  1  0  0  0  0
 19 20  2  0  0  0  0
 19 35  1  0  0  0  0
 20 21  1  0  0  0  0
 20 36  1  0  0  0  0
M  END
> <s_m_source_file>
AV-unprocessed.smi

> <i_m_source_file_index>
1708

> <i_lp_mmshare_version>
43012

> <i_f3d_flags>
0

> <s_epik_input>
W2NIXTFbY0hdW2NIXVtjSF1jKGMxMiluKFtDSDNdKWMoPU8pbjJbQ0gyXVtDQEhdKFtPSF0pYzNbY0hdW2NIXVtjSF1jKEYpW2NIXTM=

> <s_epik_cmdline>
J2VwaWtfcHl0aG9uJywgJy1waCcsICc3LjAnLCAnLXRuJywgJzgnLCAnLW1hJywgJzIwMCcsICctbWV0YWxfYmluZGluZycsICctaW1hZScsICc8aW5maWxlLm1hZT4nLCAnLW9tYWUnLCAnPG91dGZpbGUubWFlPic=

> <r_lp_tautomer_probability>
1

> <r_epik_Ionization_Penalty>
3.53466e-06

> <r_epik_Ionization_Penalty_Charging>
2.57375e-09

> <r_epik_Ionization_Penalty_Neutral>
3.53208e-06

> <r_epik_State_Penalty>
-0

> <r_epik_Charging_Adjusted_Penalty>
2.57375e-09

> <i_epik_Tot_Q>
0

> <i_epik_Tot_abs_Q>
0

> <r_epik_Metal_State_Penalty>
-0

> <b_epik_Metal_Only>
0

> <s_lp_Force_Field>
OPLS_2005

> <r_lp_Energy>
39.7129

> <b_lp_Chiralities_Consistent>
1

> <s_lp_Variant>
AV-unprocessed.smi:1708-1

> <Gold.Version>
5.8.1

> <Gold.Id.Protein>
6NUR|6NUR_protein|mol2

> <Gold.PLP.Fitness>
56.9682

> <Gold.PLP.PLP>
-51.7728

> <Gold.PLP.part.hbond>
-2.0000

> <Gold.PLP.part.metal>
0.0000

> <Gold.PLP.part.buried>
-0.5809

> <Gold.PLP.part.nonpolar>
-49.0665

> <Gold.PLP.part.repulsive>
0.0000

> <Gold.PLP.ligand.clash>
0.0000

> <Gold.PLP.ligand.torsion>
0.4128

> <Gold.PLP.Chemscore.Hbond>
2.0000

> <Gold.PLP.Chemscore.CHOScore>
0.0000

> <Gold.PLP.Chemscore.Metal>
0.0000

> <Gold.Chemscore.Hbonds>
donor molecule, donor type, donor heavy atom, donor atom, acceptor molecule, acceptor atom, score
      L1  H     8    28       P1  8028  1.00
      P1  H  7997  8010       L1     4  1.00

> <Gold.PLP.Chemscore.Internal.Correction>
0.0210

> <Gold.Rescore>
     Score         DG    S(hbond)    S(metal)    S(lipo)     H(rot)  DE(clash)    DE(int)     intcor
     19.57     -22.15       1.80        0.00     131.57       1.85       2.13       0.45       ----

> <Gold.Chemscore.Fitness>
19.5738

> <Gold.Chemscore.DG>
-22.1494

> <Gold.Chemscore.ZeroCoef>
-5.4800

> <Gold.Chemscore.Hbond>
1.7971

> <Gold.Chemscore.Metal>
0.0000

> <Gold.Chemscore.Lipo>
131.5735

> <Gold.Chemscore.Internal_Hbond>
0.0000

> <Gold.Chemscore.DEClash>
2.1296

> <Gold.Chemscore.DEInternal>
0.4461

> <Gold.Chemscore.Rot>
1.8465

> <Gold.Chemscore.Internal.Correction>
   9.000000E+99

> <Gold.Chemscore.Hbonds>
donor molecule, donor type, donor heavy atom, donor atom, acceptor molecule, acceptor atom, score
      L1  H     8    28       P1  8028  0.54
      P1  H  7997  8010       L1     4  1.00

> <Gold.Chemscore.Hbond.Weighted>
-6.0024

> <Gold.Chemscore.Metal.Weighted>
-0.0000

> <Gold.Chemscore.Lipo.Weighted>
-15.3941

> <Gold.Chemscore.Internal_Hbond.Weighted>
0.0000

> <Gold.Chemscore.DEClash.Weighted>
2.1296

> <Gold.Chemscore.DEInternal.Weighted>
0.4461

> <Gold.Chemscore.Rot.Weighted>
4.7270

> <Gold.Chemscore.Internal.Correction.Weighted>
   9.000000E+99

> <Gold.Protein.RotatedTorsions>
[ 6907 6896 6895 6894 ] final -114.00 input  -60.11 | X-H torsion
[ 7974 7965 7964 7962 ] final   37.00 input  175.53 | X-H torsion
[ 8008 7997 7996 7995 ] final   72.51 input   59.86 | X-H torsion
[ 10167 10162 10161 10158 ] final  -72.73 input  -65.29 | X-H torsion
[ 10718 10713 10712 10709 ] final -133.01 input   66.30 | X-H torsion
[ 10763 10752 10751 10750 ] final  160.05 input  -60.55 | X-H torsion
[ 11005 11000 10999 10996 ] final -130.63 input  -57.11 | X-H torsion

> <Gold.Protein.ActiveResidues>
 VAL166  LYS551  ARG553  GLY616  TRP617  ASP618  TYR619  PRO620  LYS621  CYS622 
 ASP623  PHE694  ASN695  SER759  ASP760  ASP761  ALA762  ILE779  LEU786  VAL792 
 PHE793  MET794  SER795  GLU796  ALA797  LYS798  CYS799  TRP800  GLU811  SER814 

> <Gold.Protein.RotatedAtoms>
  150.7870  133.8863  159.3300 H   0  0  0  0  0  0  0  0  0  0  0  0  # atno 6907 bound_to 6896
  151.6711  135.0974  160.0207 H   0  0  0  0  0  0  0  0  0  0  0  0  # atno 6908 bound_to 6896
  152.3936  133.6676  159.6293 H   0  0  0  0  0  0  0  0  0  0  0  0  # atno 6909 bound_to 6896
  146.1170  139.5948  142.9315 H   0  0  0  0  0  0  0  0  0  0  0  0  # atno 7974 bound_to 7965
  155.7699  140.3484  155.5241 H   0  0  0  0  0  0  0  0  0  0  0  0  # atno 8008 bound_to 7997
  155.8832  140.1005  157.1491 H   0  0  0  0  0  0  0  0  0  0  0  0  # atno 8009 bound_to 7997
  154.4026  140.1318  156.4210 H   0  0  0  0  0  0  0  0  0  0  0  0  # atno 8010 bound_to 7997
  140.5168  143.2337  151.7498 H   0  0  0  0  0  0  0  0  0  0  0  0  # atno 10167 bound_to 10162
  156.2405  130.7092  151.0951 H   0  0  0  0  0  0  0  0  0  0  0  0  # atno 10718 bound_to 10713
  154.2414  135.2774  155.2852 H   0  0  0  0  0  0  0  0  0  0  0  0  # atno 10763 bound_to 10752
  154.5541  135.5666  153.6952 H   0  0  0  0  0  0  0  0  0  0  0  0  # atno 10764 bound_to 10752
  152.9999  135.6282  154.2559 H   0  0  0  0  0  0  0  0  0  0  0  0  # atno 10765 bound_to 10752
  140.9329  134.1295  157.4219 H   0  0  0  0  0  0  0  0  0  0  0  0  # atno 11005 bound_to 11000
  145.5546  141.0410  143.2259 LP  0  0  0  0  0  0  0  0  0  0  0  0  # atno 17320 bound_to 7965
  144.7562  139.7069  143.7253 LP  0  0  0  0  0  0  0  0  0  0  0  0  # atno 17321 bound_to 7965
  139.4912  144.4312  151.9870 LP  0  0  0  0  0  0  0  0  0  0  0  0  # atno 17342 bound_to 10162
  140.3406  144.3207  150.5968 LP  0  0  0  0  0  0  0  0  0  0  0  0  # atno 17343 bound_to 10162
  157.7173  131.0702  150.6277 LP  0  0  0  0  0  0  0  0  0  0  0  0  # atno 17370 bound_to 10713
  156.6350  130.4442  149.5773 LP  0  0  0  0  0  0  0  0  0  0  0  0  # atno 17371 bound_to 10713
  139.8801  135.0011  156.6049 LP  0  0  0  0  0  0  0  0  0  0  0  0  # atno 17394 bound_to 11000
  140.7838  133.8638  155.8589 LP  0  0  0  0  0  0  0  0  0  0  0  0  # atno 17395 bound_to 11000

$$$$
