AV-unprocessed.smi:1047|AV-procd|sdf|4582|dock4
  -GOLD-   22720 3 53D 1   1.00000     0.00000
 Structure written by MMmdl.
 58 60  0  0  0  0  0  0  0  0  4 V2000
  148.9021  130.2916  153.5199 C   0  0  0  0  0  0  0  0  0  0  0  0
  147.7185  131.1458  153.0441 C   0  0  0  0  0  0  0  0  0  0  0  0
  148.1500  132.4573  152.4913 N   0  3  1  0  0  0  0  0  0  0  0  0
  147.0476  133.2278  151.8660 C   0  0  0  0  0  0  0  0  0  0  0  0
  146.1706  133.9081  152.9319 C   0  0  0  0  0  0  0  0  0  0  0  0
  146.9836  134.7385  153.7525 O   0  0  0  0  0  0  0  0  0  0  0  0
  147.9789  134.0078  154.4616 C   0  0  2  0  0  0  0  0  0  0  0  0
  148.7273  135.0054  155.3620 C   0  0  0  0  0  0  0  0  0  0  0  0
  149.5156  135.9753  154.5739 N   0  3  0  0  0  0  0  0  0  0  0  0
  149.7356  137.2674  155.2554 C   0  0  0  0  0  0  0  0  0  0  0  0
  150.8866  138.0557  154.6072 C   0  0  2  0  0  0  0  0  0  0  0  0
  151.6968  137.1530  153.8795 O   0  0  0  0  0  0  0  0  0  0  0  0
  151.7433  138.7913  155.6573 C   0  0  0  0  0  0  0  0  0  0  0  0
  151.2122  140.1185  156.0033 N   0  0  0  0  0  0  0  0  0  0  0  0
  150.2663  140.8665  155.3715 C   0  0  0  0  0  0  0  0  0  0  0  0
  150.1144  142.0203  156.0780 N   0  3  0  0  0  0  0  0  0  0  0  0
  150.9729  142.0097  157.1791 C   0  0  0  0  0  0  0  0  0  0  0  0
  151.1800  142.9517  158.1795 C   0  0  0  0  0  0  0  0  0  0  0  0
  152.1360  142.6392  159.1718 C   0  0  0  0  0  0  0  0  0  0  0  0
  152.3893  143.6491  160.2783 C   0  0  0  0  0  0  0  0  0  0  0  0
  152.8465  141.4115  159.1397 C   0  0  0  0  0  0  0  0  0  0  0  0
  153.8681  141.0837  160.2153 C   0  0  0  0  0  0  0  0  0  0  0  0
  152.6233  140.4672  158.1120 C   0  0  0  0  0  0  0  0  0  0  0  0
  151.6784  140.7907  157.1405 C   0  0  0  0  0  0  0  0  0  0  0  0
  148.9100  133.3146  153.4381 C   0  0  0  0  0  0  0  0  0  0  0  0
  148.5600  129.3034  153.8289 H   0  0  0  0  0  0  0  0  0  0  0  0
  149.4144  130.7351  154.3730 H   0  0  0  0  0  0  0  0  0  0  0  0
  149.6328  130.1515  152.7228 H   0  0  0  0  0  0  0  0  0  0  0  0
  147.2026  130.5850  152.2639 H   0  0  0  0  0  0  0  0  0  0  0  0
  146.9974  131.2789  153.8501 H   0  0  0  0  0  0  0  0  0  0  0  0
  147.4853  133.9902  151.2202 H   0  0  0  0  0  0  0  0  0  0  0  0
  146.4468  132.5887  151.2180 H   0  0  0  0  0  0  0  0  0  0  0  0
  145.4112  134.5253  152.4518 H   0  0  0  0  0  0  0  0  0  0  0  0
  145.6416  133.1731  153.5404 H   0  0  0  0  0  0  0  0  0  0  0  0
  147.4855  133.2693  155.0954 H   0  0  0  0  0  0  0  0  0  0  0  0
  148.0258  135.5349  156.0082 H   0  0  0  0  0  0  0  0  0  0  0  0
  149.4110  134.4609  156.0149 H   0  0  0  0  0  0  0  0  0  0  0  0
  150.4197  135.5708  154.3731 H   0  0  0  0  0  0  0  0  0  0  0  0
  148.8136  137.8478  155.1982 H   0  0  0  0  0  0  0  0  0  0  0  0
  149.9399  137.0971  156.3138 H   0  0  0  0  0  0  0  0  0  0  0  0
  150.4785  138.7875  153.9085 H   0  0  0  0  0  0  0  0  0  0  0  0
  151.2707  136.9625  153.0569 H   0  0  0  0  0  0  0  0  0  0  0  0
  151.7752  138.2111  156.5804 H   0  0  0  0  0  0  0  0  0  0  0  0
  152.7776  138.8911  155.3276 H   0  0  0  0  0  0  0  0  0  0  0  0
  149.7312  140.5950  154.4730 H   0  0  0  0  0  0  0  0  0  0  0  0
  150.6345  143.8840  158.1986 H   0  0  0  0  0  0  0  0  0  0  0  0
  152.1422  143.2223  161.2506 H   0  0  0  0  0  0  0  0  0  0  0  0
  151.7857  144.5472  160.1449 H   0  0  0  0  0  0  0  0  0  0  0  0
  153.4365  143.9517  160.2883 H   0  0  0  0  0  0  0  0  0  0  0  0
  154.3119  140.1000  160.0588 H   0  0  0  0  0  0  0  0  0  0  0  0
  153.4001  141.0839  161.2002 H   0  0  0  0  0  0  0  0  0  0  0  0
  154.6749  141.8169  160.2142 H   0  0  0  0  0  0  0  0  0  0  0  0
  153.1697  139.5361  158.0881 H   0  0  0  0  0  0  0  0  0  0  0  0
  149.6861  132.7410  153.9432 H   0  0  0  0  0  0  0  0  0  0  0  0
  149.4308  134.0746  152.8539 H   0  0  0  0  0  0  0  0  0  0  0  0
  149.0391  136.1520  153.7011 H   0  0  0  0  0  0  0  0  0  0  0  0
  148.7830  132.2267  151.7381 H   0  0  0  0  0  0  0  0  0  0  0  0
  149.4697  142.7588  155.8263 H   0  0  0  0  0  0  0  0  0  0  0  0
  1  2  1  0  0  0  0
  1 26  1  0  0  0  0
  1 27  1  0  0  0  0
  1 28  1  0  0  0  0
  2  3  1  0  0  0  0
  2 29  1  0  0  0  0
  2 30  1  0  0  0  0
  3 25  1  0  0  0  0
  3  4  1  0  0  0  0
  3 57  1  0  0  0  0
  4  5  1  0  0  0  0
  4 31  1  0  0  0  0
  4 32  1  0  0  0  0
  5  6  1  0  0  0  0
  5 33  1  0  0  0  0
  5 34  1  0  0  0  0
  6  7  1  0  0  0  0
  7  8  1  0  0  0  0
  7 25  1  0  0  0  0
  7 35  1  0  0  0  0
  8  9  1  0  0  0  0
  8 36  1  0  0  0  0
  8 37  1  0  0  0  0
  9 10  1  0  0  0  0
  9 38  1  0  0  0  0
  9 56  1  0  0  0  0
 10 11  1  0  0  0  0
 10 39  1  0  0  0  0
 10 40  1  0  0  0  0
 11 12  1  0  0  0  0
 11 13  1  0  0  0  0
 11 41  1  0  0  0  0
 12 42  1  0  0  0  0
 13 14  1  0  0  0  0
 13 43  1  0  0  0  0
 13 44  1  0  0  0  0
 14 24  1  0  0  0  0
 14 15  1  0  0  0  0
 15 16  2  0  0  0  0
 15 45  1  0  0  0  0
 16 17  1  0  0  0  0
 16 58  1  0  0  0  0
 17 24  2  0  0  0  0
 17 18  1  0  0  0  0
 18 19  2  0  0  0  0
 18 46  1  0  0  0  0
 19 20  1  0  0  0  0
 19 21  1  0  0  0  0
 20 47  1  0  0  0  0
 20 48  1  0  0  0  0
 20 49  1  0  0  0  0
 21 22  1  0  0  0  0
 21 23  2  0  0  0  0
 22 50  1  0  0  0  0
 22 51  1  0  0  0  0
 22 52  1  0  0  0  0
 23 24  1  0  0  0  0
 23 53  1  0  0  0  0
 25 54  1  0  0  0  0
 25 55  1  0  0  0  0
M  CHG  1   3   1
M  CHG  1   9   1
M  CHG  1  16   1
M  END
> <s_m_source_file>
AV-unprocessed.smi

> <i_m_source_file_index>
1047

> <i_lp_mmshare_version>
43012

> <i_f3d_flags>
0

> <s_epik_input>
W0NIM11bQ0gyXU4xW0NIMl1bQ0gyXU9bQ0BIXShbQ0gyXTEpW0NIMl1bTkhdW0NIMl1bQ0BIXShbT0hdKVtDSDJdbihbY0hdbjIpYyhjMjMpW2NIXWMoW0NIM10pYyhbY0hdMylbQ0gzXQ==

> <s_epik_cmdline>
J2VwaWtfcHl0aG9uJywgJy1waCcsICc3LjAnLCAnLXRuJywgJzgnLCAnLW1hJywgJzIwMCcsICctbWV0YWxfYmluZGluZycsICctaW1hZScsICc8aW5maWxlLm1hZT4nLCAnLW9tYWUnLCAnPG91dGZpbGUubWFlPic=

> <r_epik_Ionization_Penalty>
1.6114

> <r_epik_Ionization_Penalty_Charging>
1.61139

> <r_epik_Ionization_Penalty_Neutral>
5.04732e-06

> <r_epik_State_Penalty>
1.63724

> <r_epik_Charging_Adjusted_Penalty>
3.24864

> <i_epik_Tot_Q>
3

> <i_epik_Tot_abs_Q>
3

> <r_epik_Metal_State_Penalty>
5.64594

> <b_epik_Metal_Only>
0

> <s_lp_Force_Field>
OPLS_2005

> <r_lp_Energy>
42.8961

> <b_lp_Chiralities_Consistent>
1

> <s_lp_Variant>
AV-unprocessed.smi:1047-23

> <Gold.Version>
5.8.1

> <Gold.Id.Protein>
6NUR|6NUR_protein|mol2

> <Gold.PLP.Fitness>
67.6571

> <Gold.PLP.PLP>
-49.8696

> <Gold.PLP.part.hbond>
-5.0000

> <Gold.PLP.part.metal>
0.0000

> <Gold.PLP.part.buried>
-5.1726

> <Gold.PLP.part.nonpolar>
-40.2682

> <Gold.PLP.part.repulsive>
0.5339

> <Gold.PLP.ligand.clash>
0.0000

> <Gold.PLP.ligand.torsion>
1.2945

> <Gold.PLP.Chemscore.Hbond>
6.7531

> <Gold.PLP.Chemscore.CHOScore>
0.0000

> <Gold.PLP.Chemscore.Metal>
0.0000

> <Gold.Chemscore.Hbonds>
donor molecule, donor type, donor heavy atom, donor atom, acceptor molecule, acceptor atom, score
      L1  H     3    57       P1 10747  0.82
      L1  H     9    56       P1  7948  2.00
      L1  H    12    42       P1  7949  1.00
      L1  H    16    58       P1  8028  1.89
      P1  H 10752 10763       L1    12  1.00

> <Gold.PLP.Chemscore.Internal.Correction>
0.1173

> <Gold.Rescore>
     Score         DG    S(hbond)    S(metal)    S(lipo)     H(rot)  DE(clash)    DE(int)     intcor
     24.22     -25.63       3.95        0.00     120.36       2.78       0.05       1.36       ----

> <Gold.Chemscore.Fitness>
24.2174

> <Gold.Chemscore.DG>
-25.6290

> <Gold.Chemscore.ZeroCoef>
-5.4800

> <Gold.Chemscore.Hbond>
3.9508

> <Gold.Chemscore.Metal>
0.0000

> <Gold.Chemscore.Lipo>
120.3624

> <Gold.Chemscore.Internal_Hbond>
0.0000

> <Gold.Chemscore.DEClash>
0.0541

> <Gold.Chemscore.DEInternal>
1.3575

> <Gold.Chemscore.Rot>
2.7848

> <Gold.Chemscore.Internal.Correction>
   9.000000E+99

> <Gold.Chemscore.Hbonds>
donor molecule, donor type, donor heavy atom, donor atom, acceptor molecule, acceptor atom, score
      L1  H     3    57       P1 10747  0.76
      L1  H     9    56       P1  7948  0.93
      L1  H    12    42       P1  7949  0.62
      L1  H    16    58       P1  8028  0.88
      P1  H 10752 10763       L1    12  0.54

> <Gold.Chemscore.Hbond.Weighted>
-13.1957

> <Gold.Chemscore.Metal.Weighted>
-0.0000

> <Gold.Chemscore.Lipo.Weighted>
-14.0824

> <Gold.Chemscore.Internal_Hbond.Weighted>
0.0000

> <Gold.Chemscore.DEClash.Weighted>
0.0541

> <Gold.Chemscore.DEInternal.Weighted>
1.3575

> <Gold.Chemscore.Rot.Weighted>
7.1291

> <Gold.Chemscore.Internal.Correction.Weighted>
   9.000000E+99

> <Gold.Protein.RotatedTorsions>
[ 6907 6896 6895 6894 ] final    3.88 input  -60.11 | X-H torsion
[ 7974 7965 7964 7962 ] final  -60.09 input  175.53 | X-H torsion
[ 8008 7997 7996 7995 ] final -172.75 input   59.86 | X-H torsion
[ 10167 10162 10161 10158 ] final -164.90 input  -65.29 | X-H torsion
[ 10718 10713 10712 10709 ] final  -30.40 input   66.30 | X-H torsion
[ 10763 10752 10751 10750 ] final   34.83 input  -60.55 | X-H torsion
[ 11005 11000 10999 10996 ] final  174.98 input  -57.11 | X-H torsion

> <Gold.Protein.ActiveResidues>
 VAL166  LYS551  ARG553  GLY616  TRP617  ASP618  TYR619  PRO620  LYS621  CYS622 
 ASP623  PHE694  ASN695  SER759  ASP760  ASP761  ALA762  ILE779  LEU786  VAL792 
 PHE793  MET794  SER795  GLU796  ALA797  LYS798  CYS799  TRP800  GLU811  SER814 

> <Gold.Protein.RotatedAtoms>
  151.6322  135.1021  160.0123 H   0  0  0  0  0  0  0  0  0  0  0  0  # atno 6907 bound_to 6896
  152.4100  133.6944  159.6398 H   0  0  0  0  0  0  0  0  0  0  0  0  # atno 6908 bound_to 6896
  150.7991  133.8558  159.3259 H   0  0  0  0  0  0  0  0  0  0  0  0  # atno 6909 bound_to 6896
  145.8196  140.8548  143.0139 H   0  0  0  0  0  0  0  0  0  0  0  0  # atno 7974 bound_to 7965
  155.9486  140.1122  157.0996 H   0  0  0  0  0  0  0  0  0  0  0  0  # atno 8008 bound_to 7997
  154.4104  140.1205  156.5088 H   0  0  0  0  0  0  0  0  0  0  0  0  # atno 8009 bound_to 7997
  155.6871  140.3473  155.4881 H   0  0  0  0  0  0  0  0  0  0  0  0  # atno 8010 bound_to 7997
  139.6219  144.0608  152.1940 H   0  0  0  0  0  0  0  0  0  0  0  0  # atno 10167 bound_to 10162
  156.4002  130.4389  149.7328 H   0  0  0  0  0  0  0  0  0  0  0  0  # atno 10718 bound_to 10713
  153.0146  135.6350  154.1731 H   0  0  0  0  0  0  0  0  0  0  0  0  # atno 10763 bound_to 10752
  154.1471  135.2831  155.3147 H   0  0  0  0  0  0  0  0  0  0  0  0  # atno 10764 bound_to 10752
  154.6081  135.5565  153.7506 H   0  0  0  0  0  0  0  0  0  0  0  0  # atno 10765 bound_to 10752
  140.3572  134.7144  157.4307 H   0  0  0  0  0  0  0  0  0  0  0  0  # atno 11005 bound_to 11000
  144.6749  140.0514  143.7478 LP  0  0  0  0  0  0  0  0  0  0  0  0  # atno 17320 bound_to 7965
  145.9689  139.2855  143.1111 LP  0  0  0  0  0  0  0  0  0  0  0  0  # atno 17321 bound_to 7965
  140.0252  144.6123  150.7533 LP  0  0  0  0  0  0  0  0  0  0  0  0  # atno 17342 bound_to 10162
  140.7387  143.2781  151.3679 LP  0  0  0  0  0  0  0  0  0  0  0  0  # atno 17343 bound_to 10162
  156.4347  130.7832  151.2852 LP  0  0  0  0  0  0  0  0  0  0  0  0  # atno 17370 bound_to 10713
  157.7503  131.0143  150.3459 LP  0  0  0  0  0  0  0  0  0  0  0  0  # atno 17371 bound_to 10713
  140.0656  134.5935  155.8699 LP  0  0  0  0  0  0  0  0  0  0  0  0  # atno 17394 bound_to 11000
  141.1995  133.6607  156.5847 LP  0  0  0  0  0  0  0  0  0  0  0  0  # atno 17395 bound_to 11000

$$$$
