AV-unprocessed.smi:2063|AV-procd|sdf|8415|dock5
  -GOLD-   2272011103D 1   1.00000     0.00000
 Structure written by MMmdl.
 38 39  0  0  0  0  0  0  0  0  2 V2000
  152.5960  142.7015  159.9452 C   0  0  0  0  0  0  0  0  0  0  0  0
  152.8440  141.2055  159.7039 C   0  0  0  0  0  0  0  0  0  0  0  0
  154.2670  140.7625  160.0747 C   0  0  0  0  0  0  0  0  0  0  0  0
  152.4669  140.7874  158.3167 C   0  0  0  0  0  0  0  0  0  0  0  0
  153.1335  139.8564  157.6270 N   0  0  0  0  0  0  0  0  0  0  0  0
  152.5879  139.6440  156.3695 N   0  0  0  0  0  0  0  0  0  0  0  0
  151.5250  140.4214  156.1199 C   0  0  0  0  0  0  0  0  0  0  0  0
  150.8475  140.3680  154.9613 N   0  5  0  0  0  0  0  0  0  0  0  0
  149.5009  140.4946  154.9585 C   0  0  0  0  0  0  0  0  0  0  0  0
  148.7473  140.2951  155.9137 O   0  0  0  0  0  0  0  0  0  0  0  0
  149.0004  140.8714  153.7732 N   0  0  0  0  0  0  0  0  0  0  0  0
  147.5885  141.0665  153.4466 C   0  0  1  0  0  0  0  0  0  0  0  0
  146.8248  139.7489  153.6502 C   0  0  0  0  0  0  0  0  0  0  0  0
  147.0124  142.2073  154.3064 C   0  0  1  0  0  0  0  0  0  0  0  0
  145.7287  142.8352  153.7552 C   0  0  0  0  0  0  0  0  0  0  0  0
  145.0046  143.3427  154.9936 C   0  0  0  0  0  0  0  0  0  0  0  0
  145.7903  142.7410  156.1606 C   0  0  0  0  0  0  0  0  0  0  0  0
  146.5910  141.7261  155.5736 O   0  0  0  0  0  0  0  0  0  0  0  0
  151.1001  141.4835  157.4613 S   0  0  0  0  0  0  0  0  0  0  0  0
  151.5539  142.9615  159.7569 H   0  0  0  0  0  0  0  0  0  0  0  0
  153.2163  143.3163  159.2922 H   0  0  0  0  0  0  0  0  0  0  0  0
  152.8241  142.9760  160.9753 H   0  0  0  0  0  0  0  0  0  0  0  0
  152.1725  140.6717  160.3777 H   0  0  0  0  0  0  0  0  0  0  0  0
  154.3821  139.6838  159.9646 H   0  0  0  0  0  0  0  0  0  0  0  0
  154.5005  141.0162  161.1091 H   0  0  0  0  0  0  0  0  0  0  0  0
  155.0105  141.2442  159.4388 H   0  0  0  0  0  0  0  0  0  0  0  0
  149.6615  141.0259  153.0263 H   0  0  0  0  0  0  0  0  0  0  0  0
  147.4925  141.3596  152.3998 H   0  0  0  0  0  0  0  0  0  0  0  0
  145.7710  139.8616  153.3949 H   0  0  0  0  0  0  0  0  0  0  0  0
  146.8828  139.4121  154.6858 H   0  0  0  0  0  0  0  0  0  0  0  0
  147.2316  138.9579  153.0194 H   0  0  0  0  0  0  0  0  0  0  0  0
  147.7639  142.9848  154.4590 H   0  0  0  0  0  0  0  0  0  0  0  0
  145.9300  143.6237  153.0295 H   0  0  0  0  0  0  0  0  0  0  0  0
  145.1178  142.0773  153.2626 H   0  0  0  0  0  0  0  0  0  0  0  0
  145.0001  144.4318  155.0452 H   0  0  0  0  0  0  0  0  0  0  0  0
  143.9687  143.0020  154.9953 H   0  0  0  0  0  0  0  0  0  0  0  0
  146.4396  143.4917  156.6135 H   0  0  0  0  0  0  0  0  0  0  0  0
  145.1434  142.3357  156.9389 H   0  0  0  0  0  0  0  0  0  0  0  0
  1  2  1  0  0  0  0
  1 20  1  0  0  0  0
  1 21  1  0  0  0  0
  1 22  1  0  0  0  0
  2  3  1  0  0  0  0
  2  4  1  0  0  0  0
  2 23  1  0  0  0  0
  3 24  1  0  0  0  0
  3 25  1  0  0  0  0
  3 26  1  0  0  0  0
  4 19  1  0  0  0  0
  4  5  2  0  0  0  0
  5  6  1  0  0  0  0
  6  7  2  0  0  0  0
  7  8  1  0  0  0  0
  7 19  1  0  0  0  0
  8  9  1  0  0  0  0
  9 10  2  0  0  0  0
  9 11  1  0  0  0  0
 11 12  1  0  0  0  0
 11 27  1  0  0  0  0
 12 13  1  0  0  0  0
 12 14  1  0  0  0  0
 12 28  1  0  0  0  0
 13 29  1  0  0  0  0
 13 30  1  0  0  0  0
 13 31  1  0  0  0  0
 14 18  1  0  0  0  0
 14 15  1  0  0  0  0
 14 32  1  0  0  0  0
 15 16  1  0  0  0  0
 15 33  1  0  0  0  0
 15 34  1  0  0  0  0
 16 17  1  0  0  0  0
 16 35  1  0  0  0  0
 16 36  1  0  0  0  0
 17 18  1  0  0  0  0
 17 37  1  0  0  0  0
 17 38  1  0  0  0  0
M  CHG  1   8  -1
M  END
> <s_m_source_file>
AV-unprocessed.smi

> <i_m_source_file_index>
2063

> <i_lp_mmshare_version>
43012

> <i_f3d_flags>
0

> <s_epik_input>
W0NIM11bQ0hdKFtDSDNdKWMxbm5jKHMxKVtOSF1DKD1PKVtOSF1bQ0BIXShbQ0gzXSlbQ0BASF0yW0NIMl1bQ0gyXVtDSDJdTzI=

> <s_epik_cmdline>
J2VwaWtfcHl0aG9uJywgJy1waCcsICc3LjAnLCAnLXRuJywgJzgnLCAnLW1hJywgJzIwMCcsICctbWV0YWxfYmluZGluZycsICctaW1hZScsICc8aW5maWxlLm1hZT4nLCAnLW9tYWUnLCAnPG91dGZpbGUubWFlPic=

> <r_lp_tautomer_probability>
1

> <r_epik_Ionization_Penalty>
4.37022

> <r_epik_Ionization_Penalty_Charging>
4.21437

> <r_epik_Ionization_Penalty_Neutral>
0.15585

> <r_epik_State_Penalty>
4.21389

> <r_epik_Charging_Adjusted_Penalty>
8.42826

> <i_epik_Tot_Q>
-1

> <i_epik_Tot_abs_Q>
1

> <r_epik_Metal_State_Penalty>
0.693772

> <b_epik_Metal_Only>
1

> <s_lp_Force_Field>
OPLS_2005

> <r_lp_Energy>
9.58688

> <b_lp_Chiralities_Consistent>
1

> <s_lp_Variant>
AV-unprocessed.smi:2063-8

> <Gold.Version>
5.8.1

> <Gold.Id.Protein>
6NUR|6NUR_protein|mol2

> <Gold.PLP.Fitness>
43.0281

> <Gold.PLP.PLP>
-38.4468

> <Gold.PLP.part.hbond>
-4.0000

> <Gold.PLP.part.metal>
0.0000

> <Gold.PLP.part.buried>
-5.5873

> <Gold.PLP.part.nonpolar>
-28.9944

> <Gold.PLP.part.repulsive>
0.4019

> <Gold.PLP.ligand.clash>
0.0000

> <Gold.PLP.ligand.torsion>
1.3706

> <Gold.PLP.Chemscore.Hbond>
2.3920

> <Gold.PLP.Chemscore.CHOScore>
0.0000

> <Gold.PLP.Chemscore.Metal>
0.0000

> <Gold.Chemscore.Hbonds>
donor molecule, donor type, donor heavy atom, donor atom, acceptor molecule, acceptor atom, score
      L1  H    11    27       P1  7957  0.42
      P1  H  7989  7998       L1     8  1.00
      P1  H  7997  8009       L1     5  0.67

> <Gold.PLP.Chemscore.Internal.Correction>
0.1464

> <Gold.Rescore>
     Score         DG    S(hbond)    S(metal)    S(lipo)     H(rot)  DE(clash)    DE(int)     intcor
     12.46     -17.39       1.75        0.00      82.28       1.39       0.03       4.90       ----

> <Gold.Chemscore.Fitness>
12.4632

> <Gold.Chemscore.DG>
-17.3877

> <Gold.Chemscore.ZeroCoef>
-5.4800

> <Gold.Chemscore.Hbond>
1.7479

> <Gold.Chemscore.Metal>
0.0000

> <Gold.Chemscore.Lipo>
82.2778

> <Gold.Chemscore.Internal_Hbond>
0.0000

> <Gold.Chemscore.DEClash>
0.0281

> <Gold.Chemscore.DEInternal>
4.8964

> <Gold.Chemscore.Rot>
1.3893

> <Gold.Chemscore.Internal.Correction>
   9.000000E+99

> <Gold.Chemscore.Hbonds>
donor molecule, donor type, donor heavy atom, donor atom, acceptor molecule, acceptor atom, score
      L1  H    11    27       P1  7957  0.40
      P1  H  7989  7998       L1     8  0.86
      P1  H  7997  8009       L1     5  0.15

> <Gold.Chemscore.Hbond.Weighted>
-5.8379

> <Gold.Chemscore.Metal.Weighted>
-0.0000

> <Gold.Chemscore.Lipo.Weighted>
-9.6265

> <Gold.Chemscore.Internal_Hbond.Weighted>
0.0000

> <Gold.Chemscore.DEClash.Weighted>
0.0281

> <Gold.Chemscore.DEInternal.Weighted>
4.8964

> <Gold.Chemscore.Rot.Weighted>
3.5567

> <Gold.Chemscore.Internal.Correction.Weighted>
   9.000000E+99

> <Gold.Protein.RotatedTorsions>
[ 6907 6896 6895 6894 ] final   21.98 input  -60.11 | X-H torsion
[ 7974 7965 7964 7962 ] final  -84.14 input  175.53 | X-H torsion
[ 8008 7997 7996 7995 ] final  139.22 input   59.86 | X-H torsion
[ 10167 10162 10161 10158 ] final  -20.85 input  -65.29 | X-H torsion
[ 10718 10713 10712 10709 ] final   -8.93 input   66.30 | X-H torsion
[ 10763 10752 10751 10750 ] final  107.12 input  -60.55 | X-H torsion
[ 11005 11000 10999 10996 ] final   88.72 input  -57.11 | X-H torsion

> <Gold.Protein.ActiveResidues>
 VAL166  LYS551  ARG553  GLY616  TRP617  ASP618  TYR619  PRO620  LYS621  CYS622 
 ASP623  PHE694  ASN695  SER759  ASP760  ASP761  ALA762  ILE779  LEU786  VAL792 
 PHE793  MET794  SER795  GLU796  ALA797  LYS798  CYS799  TRP800  GLU811  SER814 

> <Gold.Protein.RotatedAtoms>
  151.9201  135.0302  160.0521 H   0  0  0  0  0  0  0  0  0  0  0  0  # atno 6907 bound_to 6896
  152.2207  133.4976  159.5169 H   0  0  0  0  0  0  0  0  0  0  0  0  # atno 6908 bound_to 6896
  150.6999  134.1263  159.4096 H   0  0  0  0  0  0  0  0  0  0  0  0  # atno 6909 bound_to 6896
  145.5106  140.9540  143.1709 H   0  0  0  0  0  0  0  0  0  0  0  0  # atno 7974 bound_to 7965
  156.2991  140.2373  156.4202 H   0  0  0  0  0  0  0  0  0  0  0  0  # atno 8008 bound_to 7997
  154.8362  140.0430  157.1531 H   0  0  0  0  0  0  0  0  0  0  0  0  # atno 8009 bound_to 7997
  154.9153  140.2996  155.5248 H   0  0  0  0  0  0  0  0  0  0  0  0  # atno 8010 bound_to 7997
  140.7278  143.4684  151.0282 H   0  0  0  0  0  0  0  0  0  0  0  0  # atno 10167 bound_to 10162
  156.6954  130.5077  149.5932 H   0  0  0  0  0  0  0  0  0  0  0  0  # atno 10718 bound_to 10713
  153.4024  135.3854  155.1996 H   0  0  0  0  0  0  0  0  0  0  0  0  # atno 10763 bound_to 10752
  154.8730  135.3774  154.4602 H   0  0  0  0  0  0  0  0  0  0  0  0  # atno 10764 bound_to 10752
  153.5101  135.7087  153.5847 H   0  0  0  0  0  0  0  0  0  0  0  0  # atno 10765 bound_to 10752
  139.8890  134.8506  156.3041 H   0  0  0  0  0  0  0  0  0  0  0  0  # atno 11005 bound_to 11000
  144.7729  139.6693  143.7187 LP  0  0  0  0  0  0  0  0  0  0  0  0  # atno 17320 bound_to 7965
  146.2169  139.5565  142.9644 LP  0  0  0  0  0  0  0  0  0  0  0  0  # atno 17321 bound_to 7965
  139.8374  143.7610  152.3180 LP  0  0  0  0  0  0  0  0  0  0  0  0  # atno 17342 bound_to 10162
  139.7747  144.7465  151.0174 LP  0  0  0  0  0  0  0  0  0  0  0  0  # atno 17343 bound_to 10162
  156.1767  130.6472  151.0903 LP  0  0  0  0  0  0  0  0  0  0  0  0  # atno 17370 bound_to 10713
  157.6993  131.0782  150.6870 LP  0  0  0  0  0  0  0  0  0  0  0  0  # atno 17371 bound_to 10713
  140.9894  133.7218  156.0791 LP  0  0  0  0  0  0  0  0  0  0  0  0  # atno 17394 bound_to 11000
  140.7645  134.3902  157.5519 LP  0  0  0  0  0  0  0  0  0  0  0  0  # atno 17395 bound_to 11000

$$$$
