AV-unprocessed.smi:3267|AV-procd|sdf|12507|dock1
  -GOLD-   2272018413D 1   1.00000     0.00000
 Structure written by MMmdl.
 38 39  0  0  0  0  0  0  0  0  1 V2000
  144.0596  137.1316  152.9319 C   0  0  0  0  0  0  0  0  0  0  0  0
  144.9195  135.9020  152.5976 C   0  0  1  0  0  0  0  0  0  0  0  0
  144.7921  135.4448  151.1249 C   0  0  0  0  0  0  0  0  0  0  0  0
  144.9291  134.0087  150.9430 N   0  0  0  0  0  0  0  0  0  0  0  0
  143.9706  133.0995  150.5465 C   0  0  0  0  0  0  0  0  0  0  0  0
  144.5629  131.8697  150.5181 C   0  0  0  0  0  0  0  0  0  0  0  0
  145.9014  132.1301  150.9246 C   0  0  0  0  0  0  0  0  0  0  0  0
  146.1171  133.4102  151.1797 N   0  0  0  0  0  0  0  0  0  0  0  0
  146.3112  136.1780  152.9461 N   0  0  0  0  0  0  0  0  0  0  0  0
  146.7536  136.5262  154.1621 C   0  0  0  0  0  0  0  0  0  0  0  0
  146.0281  136.6766  155.1457 O   0  0  0  0  0  0  0  0  0  0  0  0
  148.0829  136.6906  154.1764 N   0  0  0  0  0  0  0  0  0  0  0  0
  148.8632  137.0908  155.3410 C   0  0  0  0  0  0  0  0  0  0  0  0
  150.3438  137.2970  154.9814 C   0  0  1  0  0  0  0  0  0  0  0  0
  150.6287  138.6074  154.2483 C   0  0  0  0  0  0  0  0  0  0  0  0
  152.0667  138.9325  154.6284 C   0  0  0  0  0  0  0  0  0  0  0  0
  152.3932  137.9416  155.7486 C   0  0  0  0  0  0  0  0  0  0  0  0
  151.1348  137.4241  156.1526 O   0  0  0  0  0  0  0  0  0  0  0  0
  143.0140  136.9587  152.6757 H   0  0  0  0  0  0  0  0  0  0  0  0
  144.3937  138.0188  152.3932 H   0  0  0  0  0  0  0  0  0  0  0  0
  144.1029  137.3597  153.9973 H   0  0  0  0  0  0  0  0  0  0  0  0
  144.5680  135.0834  153.2284 H   0  0  0  0  0  0  0  0  0  0  0  0
  143.8390  135.7642  150.7000 H   0  0  0  0  0  0  0  0  0  0  0  0
  145.5646  135.9311  150.5281 H   0  0  0  0  0  0  0  0  0  0  0  0
  142.9592  133.4013  150.3164 H   0  0  0  0  0  0  0  0  0  0  0  0
  144.1092  130.9275  150.2489 H   0  0  0  0  0  0  0  0  0  0  0  0
  146.7171  131.4319  151.0414 H   0  0  0  0  0  0  0  0  0  0  0  0
  146.9915  136.0759  152.2072 H   0  0  0  0  0  0  0  0  0  0  0  0
  148.5912  136.5441  153.3166 H   0  0  0  0  0  0  0  0  0  0  0  0
  148.4471  138.0042  155.7695 H   0  0  0  0  0  0  0  0  0  0  0  0
  148.7642  136.3174  156.1031 H   0  0  0  0  0  0  0  0  0  0  0  0
  150.7178  136.4595  154.3891 H   0  0  0  0  0  0  0  0  0  0  0  0
  150.4847  138.5197  153.1711 H   0  0  0  0  0  0  0  0  0  0  0  0
  149.9697  139.3973  154.6109 H   0  0  0  0  0  0  0  0  0  0  0  0
  152.7487  138.8074  153.7866 H   0  0  0  0  0  0  0  0  0  0  0  0
  152.1464  139.9636  154.9748 H   0  0  0  0  0  0  0  0  0  0  0  0
  153.0103  137.1251  155.3706 H   0  0  0  0  0  0  0  0  0  0  0  0
  152.9181  138.4069  156.5833 H   0  0  0  0  0  0  0  0  0  0  0  0
  1  2  1  0  0  0  0
  1 19  1  0  0  0  0
  1 20  1  0  0  0  0
  1 21  1  0  0  0  0
  2  3  1  0  0  0  0
  2  9  1  0  0  0  0
  2 22  1  0  0  0  0
  3  4  1  0  0  0  0
  3 23  1  0  0  0  0
  3 24  1  0  0  0  0
  4  8  1  0  0  0  0
  4  5  1  0  0  0  0
  5  6  2  0  0  0  0
  5 25  1  0  0  0  0
  6  7  1  0  0  0  0
  6 26  1  0  0  0  0
  7  8  2  0  0  0  0
  7 27  1  0  0  0  0
  9 10  1  0  0  0  0
  9 28  1  0  0  0  0
 10 11  2  0  0  0  0
 10 12  1  0  0  0  0
 12 13  1  0  0  0  0
 12 29  1  0  0  0  0
 13 14  1  0  0  0  0
 13 30  1  0  0  0  0
 13 31  1  0  0  0  0
 14 18  1  0  0  0  0
 14 15  1  0  0  0  0
 14 32  1  0  0  0  0
 15 16  1  0  0  0  0
 15 33  1  0  0  0  0
 15 34  1  0  0  0  0
 16 17  1  0  0  0  0
 16 35  1  0  0  0  0
 16 36  1  0  0  0  0
 17 18  1  0  0  0  0
 17 37  1  0  0  0  0
 17 38  1  0  0  0  0
M  END
> <s_m_source_file>
AV-unprocessed.smi

> <i_m_source_file_index>
3267

> <i_lp_mmshare_version>
43012

> <i_f3d_flags>
0

> <s_epik_input>
bjFbY0hdW2NIXVtjSF1uMVtDSDJdW0NAQEhdKFtDSDNdKVtOSF1DKD1PKVtOSF1bQ0gyXVtDQEBIXTJbQ0gyXVtDSDJdW0NIMl1PMg==

> <s_epik_cmdline>
J2VwaWtfcHl0aG9uJywgJy1waCcsICc3LjAnLCAnLXRuJywgJzgnLCAnLW1hJywgJzIwMCcsICctbWV0YWxfYmluZGluZycsICctaW1hZScsICc8aW5maWxlLm1hZT4nLCAnLW9tYWUnLCAnPG91dGZpbGUubWFlPic=

> <r_lp_tautomer_probability>
1

> <r_epik_Ionization_Penalty>
6.24796e-05

> <r_epik_Ionization_Penalty_Charging>
0

> <r_epik_Ionization_Penalty_Neutral>
6.24796e-05

> <r_epik_State_Penalty>
-0

> <r_epik_Charging_Adjusted_Penalty>
0

> <i_epik_Tot_Q>
0

> <i_epik_Tot_abs_Q>
0

> <r_epik_Metal_State_Penalty>
-0

> <b_epik_Metal_Only>
0

> <s_lp_Force_Field>
OPLS_2005

> <r_lp_Energy>
14.3103

> <b_lp_Chiralities_Consistent>
1

> <s_lp_Variant>
AV-unprocessed.smi:3267-4

> <Gold.Version>
5.8.1

> <Gold.Id.Protein>
6NUR|6NUR_protein|mol2

> <Gold.PLP.Fitness>
39.8712

> <Gold.PLP.PLP>
-29.3076

> <Gold.PLP.part.hbond>
-1.9689

> <Gold.PLP.part.metal>
0.0000

> <Gold.PLP.part.buried>
-4.4079

> <Gold.PLP.part.nonpolar>
-23.7809

> <Gold.PLP.part.repulsive>
0.2070

> <Gold.PLP.ligand.clash>
0.0000

> <Gold.PLP.ligand.torsion>
0.5547

> <Gold.PLP.Chemscore.Hbond>
1.8640

> <Gold.PLP.Chemscore.CHOScore>
2.0000

> <Gold.PLP.Chemscore.Metal>
0.0000

> <Gold.Chemscore.Hbonds>
donor molecule, donor type, donor heavy atom, donor atom, acceptor molecule, acceptor atom, score
      L1  H     9    28       P1  7948  0.85
      L1  H    12    29       P1  7948  0.99
      L1  C     5    25       P1 10186  1.00
      L1  C     7    27       P1 10747  1.00

> <Gold.PLP.Chemscore.Internal.Correction>
0.0809

> <Gold.Rescore>
     Score         DG    S(hbond)    S(metal)    S(lipo)     H(rot)  DE(clash)    DE(int)     intcor
     14.42     -14.90       1.89        0.00      67.42       1.87       0.00       0.48       ----

> <Gold.Chemscore.Fitness>
14.4171

> <Gold.Chemscore.DG>
-14.9010

> <Gold.Chemscore.ZeroCoef>
-5.4800

> <Gold.Chemscore.Hbond>
1.8939

> <Gold.Chemscore.Metal>
0.0000

> <Gold.Chemscore.Lipo>
67.4228

> <Gold.Chemscore.Internal_Hbond>
0.0000

> <Gold.Chemscore.DEClash>
0.0000

> <Gold.Chemscore.DEInternal>
0.4839

> <Gold.Chemscore.Rot>
1.8724

> <Gold.Chemscore.Internal.Correction>
   9.000000E+99

> <Gold.Chemscore.Hbonds>
donor molecule, donor type, donor heavy atom, donor atom, acceptor molecule, acceptor atom, score
      L1  H     9    28       P1  7948  0.83
      L1  H    12    29       P1  7948  0.92

> <Gold.Chemscore.Hbond.Weighted>
-6.3258

> <Gold.Chemscore.Metal.Weighted>
-0.0000

> <Gold.Chemscore.Lipo.Weighted>
-7.8885

> <Gold.Chemscore.Internal_Hbond.Weighted>
0.0000

> <Gold.Chemscore.DEClash.Weighted>
0.0000

> <Gold.Chemscore.DEInternal.Weighted>
0.4839

> <Gold.Chemscore.Rot.Weighted>
4.7933

> <Gold.Chemscore.Internal.Correction.Weighted>
   9.000000E+99

> <Gold.Protein.RotatedTorsions>
[ 6907 6896 6895 6894 ] final  -87.92 input  -60.11 | X-H torsion
[ 7974 7965 7964 7962 ] final -129.91 input  175.53 | X-H torsion
[ 8008 7997 7996 7995 ] final  125.54 input   59.86 | X-H torsion
[ 10167 10162 10161 10158 ] final  154.26 input  -65.29 | X-H torsion
[ 10718 10713 10712 10709 ] final    0.82 input   66.30 | X-H torsion
[ 10763 10752 10751 10750 ] final -147.13 input  -60.55 | X-H torsion
[ 11005 11000 10999 10996 ] final -114.59 input  -57.11 | X-H torsion

> <Gold.Protein.ActiveResidues>
 VAL166  LYS551  ARG553  GLY616  TRP617  ASP618  TYR619  PRO620  LYS621  CYS622 
 ASP623  PHE694  ASN695  SER759  ASP760  ASP761  ALA762  ILE779  LEU786  VAL792 
 PHE793  MET794  SER795  GLU796  ALA797  LYS798  CYS799  TRP800  GLU811  SER814 

> <Gold.Protein.RotatedAtoms>
  150.6867  134.2822  159.4631 H   0  0  0  0  0  0  0  0  0  0  0  0  # atno 6907 bound_to 6896
  152.0735  134.9515  160.0583 H   0  0  0  0  0  0  0  0  0  0  0  0  # atno 6908 bound_to 6896
  152.0896  133.4159  159.4575 H   0  0  0  0  0  0  0  0  0  0  0  0  # atno 6909 bound_to 6896
  144.9526  140.7361  143.4778 H   0  0  0  0  0  0  0  0  0  0  0  0  # atno 7974 bound_to 7965
  156.2837  140.2714  156.1966 H   0  0  0  0  0  0  0  0  0  0  0  0  # atno 8008 bound_to 7997
  155.0404  140.0386  157.2525 H   0  0  0  0  0  0  0  0  0  0  0  0  # atno 8009 bound_to 7997
  154.7279  140.2701  155.6487 H   0  0  0  0  0  0  0  0  0  0  0  0  # atno 8010 bound_to 7997
  139.4824  144.5202  151.7888 H   0  0  0  0  0  0  0  0  0  0  0  0  # atno 10167 bound_to 10162
  156.8390  130.5514  149.5679 H   0  0  0  0  0  0  0  0  0  0  0  0  # atno 10718 bound_to 10713
  154.8301  135.3368  154.6770 H   0  0  0  0  0  0  0  0  0  0  0  0  # atno 10763 bound_to 10752
  153.7391  135.6947  153.4975 H   0  0  0  0  0  0  0  0  0  0  0  0  # atno 10764 bound_to 10752
  153.2257  135.4434  155.0490 H   0  0  0  0  0  0  0  0  0  0  0  0  # atno 10765 bound_to 10752
  141.0542  133.9639  157.2784 H   0  0  0  0  0  0  0  0  0  0  0  0  # atno 11005 bound_to 11000
  145.2821  139.1914  143.4785 LP  0  0  0  0  0  0  0  0  0  0  0  0  # atno 17320 bound_to 7965
  146.3326  140.2784  142.8609 LP  0  0  0  0  0  0  0  0  0  0  0  0  # atno 17321 bound_to 7965
  140.4715  144.1580  150.5919 LP  0  0  0  0  0  0  0  0  0  0  0  0  # atno 17342 bound_to 10162
  140.4377  143.2540  151.9514 LP  0  0  0  0  0  0  0  0  0  0  0  0  # atno 17343 bound_to 10162
  156.0891  130.5882  150.9701 LP  0  0  0  0  0  0  0  0  0  0  0  0  # atno 17370 bound_to 10713
  157.6366  131.0915  150.8336 LP  0  0  0  0  0  0  0  0  0  0  0  0  # atno 17371 bound_to 10713
  139.9376  135.0195  156.8605 LP  0  0  0  0  0  0  0  0  0  0  0  0  # atno 17394 bound_to 11000
  140.5997  134.0184  155.7532 LP  0  0  0  0  0  0  0  0  0  0  0  0  # atno 17395 bound_to 11000

$$$$
