AV-unprocessed.smi:1889|AV-procd|sdf|7660|dock3
  -GOLD-   22720 9393D 1   1.00000     0.00000
 Structure written by MMmdl.
 36 37  0  0  0  0  0  0  0  0  1 V2000
  151.6851  140.9665  158.6910 C   0  0  0  0  0  0  0  0  0  0  0  0
  150.7976  142.0413  158.0545 C   0  0  0  0  0  0  0  0  0  0  0  0
  151.1295  142.2824  156.5752 C   0  0  0  0  0  0  0  0  0  0  0  0
  150.7257  141.1383  155.7061 C   0  0  0  0  0  0  0  0  0  0  0  0
  151.6132  140.3141  155.1354 N   0  0  0  0  0  0  0  0  0  0  0  0
  151.0040  139.3518  154.3424 N   0  0  0  0  0  0  0  0  0  0  0  0
  149.6710  139.4883  154.3265 C   0  0  0  0  0  0  0  0  0  0  0  0
  148.7995  138.6427  153.5907 N   0  0  0  0  0  0  0  0  0  0  0  0
  147.4553  138.6542  153.5603 C   0  0  0  0  0  0  0  0  0  0  0  0
  146.7344  139.4288  154.1899 O   0  0  0  0  0  0  0  0  0  0  0  0
  146.9808  137.6990  152.7479 N   0  0  0  0  0  0  0  0  0  0  0  0
  145.5673  137.4390  152.4963 C   0  0  0  0  0  0  0  0  0  0  0  0
  145.3504  136.1393  151.6983 C   0  0  1  0  0  0  0  0  0  0  0  0
  146.0203  134.9257  152.3076 C   0  0  0  0  0  0  0  0  0  0  0  0
  145.2784  133.7854  151.6190 C   0  0  0  0  0  0  0  0  0  0  0  0
  143.9488  134.2572  151.4240 O   0  0  0  0  0  0  0  0  0  0  0  0
  143.8964  135.6683  151.6183 C   0  0  0  0  0  0  0  0  0  0  0  0
  149.0462  140.8128  155.2940 S   0  0  0  0  0  0  0  0  0  0  0  0
  151.4231  140.8181  159.7387 H   0  0  0  0  0  0  0  0  0  0  0  0
  152.7375  141.2486  158.6483 H   0  0  0  0  0  0  0  0  0  0  0  0
  151.5721  140.0092  158.1814 H   0  0  0  0  0  0  0  0  0  0  0  0
  149.7522  141.7457  158.1509 H   0  0  0  0  0  0  0  0  0  0  0  0
  150.9078  142.9733  158.6100 H   0  0  0  0  0  0  0  0  0  0  0  0
  150.6322  143.1862  156.2206 H   0  0  0  0  0  0  0  0  0  0  0  0
  152.2004  142.4480  156.4541 H   0  0  0  0  0  0  0  0  0  0  0  0
  149.2540  137.9420  153.0242 H   0  0  0  0  0  0  0  0  0  0  0  0
  147.6441  137.1073  152.2691 H   0  0  0  0  0  0  0  0  0  0  0  0
  145.0233  137.3965  153.4415 H   0  0  0  0  0  0  0  0  0  0  0  0
  145.1617  138.2887  151.9464 H   0  0  0  0  0  0  0  0  0  0  0  0
  145.7324  136.2645  150.6837 H   0  0  0  0  0  0  0  0  0  0  0  0
  147.0966  134.8973  152.1357 H   0  0  0  0  0  0  0  0  0  0  0  0
  145.8441  134.8901  153.3836 H   0  0  0  0  0  0  0  0  0  0  0  0
  145.7208  133.5795  150.6436 H   0  0  0  0  0  0  0  0  0  0  0  0
  145.2952  132.8631  152.2000 H   0  0  0  0  0  0  0  0  0  0  0  0
  143.3731  135.8643  152.5548 H   0  0  0  0  0  0  0  0  0  0  0  0
  143.3452  136.1586  150.8156 H   0  0  0  0  0  0  0  0  0  0  0  0
  1  2  1  0  0  0  0
  1 19  1  0  0  0  0
  1 20  1  0  0  0  0
  1 21  1  0  0  0  0
  2  3  1  0  0  0  0
  2 22  1  0  0  0  0
  2 23  1  0  0  0  0
  3  4  1  0  0  0  0
  3 24  1  0  0  0  0
  3 25  1  0  0  0  0
  4 18  1  0  0  0  0
  4  5  2  0  0  0  0
  5  6  1  0  0  0  0
  6  7  2  0  0  0  0
  7  8  1  0  0  0  0
  7 18  1  0  0  0  0
  8  9  1  0  0  0  0
  8 26  1  0  0  0  0
  9 10  2  0  0  0  0
  9 11  1  0  0  0  0
 11 12  1  0  0  0  0
 11 27  1  0  0  0  0
 12 13  1  0  0  0  0
 12 28  1  0  0  0  0
 12 29  1  0  0  0  0
 13 17  1  0  0  0  0
 13 14  1  0  0  0  0
 13 30  1  0  0  0  0
 14 15  1  0  0  0  0
 14 31  1  0  0  0  0
 14 32  1  0  0  0  0
 15 16  1  0  0  0  0
 15 33  1  0  0  0  0
 15 34  1  0  0  0  0
 16 17  1  0  0  0  0
 17 35  1  0  0  0  0
 17 36  1  0  0  0  0
M  END
> <s_m_source_file>
AV-unprocessed.smi

> <i_m_source_file_index>
1889

> <i_lp_mmshare_version>
43012

> <i_f3d_flags>
0

> <s_epik_input>
W0NIM11bQ0gyXVtDSDJdYzFubmMoczEpW05IXUMoPU8pW05IXVtDSDJdW0NAQEhdMltDSDJdW0NIMl1PW0NIMl0y

> <s_epik_cmdline>
J2VwaWtfcHl0aG9uJywgJy1waCcsICc3LjAnLCAnLXRuJywgJzgnLCAnLW1hJywgJzIwMCcsICctbWV0YWxfYmluZGluZycsICctaW1hZScsICc8aW5maWxlLm1hZT4nLCAnLW9tYWUnLCAnPG91dGZpbGUubWFlPic=

> <r_lp_tautomer_probability>
1

> <r_epik_Ionization_Penalty>
0.000450509

> <r_epik_Ionization_Penalty_Charging>
0

> <r_epik_Ionization_Penalty_Neutral>
0.000450509

> <r_epik_State_Penalty>
-0

> <r_epik_Charging_Adjusted_Penalty>
0

> <i_epik_Tot_Q>
0

> <i_epik_Tot_abs_Q>
0

> <r_epik_Metal_State_Penalty>
0.207747

> <b_epik_Metal_Only>
0

> <s_lp_Force_Field>
OPLS_2005

> <r_lp_Energy>
13.8877

> <b_lp_Chiralities_Consistent>
1

> <s_lp_Variant>
AV-unprocessed.smi:1889-2

> <Gold.Version>
5.8.1

> <Gold.Id.Protein>
6NUR|6NUR_protein|mol2

> <Gold.PLP.Fitness>
36.0945

> <Gold.PLP.PLP>
-30.8409

> <Gold.PLP.part.hbond>
-5.0000

> <Gold.PLP.part.metal>
0.0000

> <Gold.PLP.part.buried>
-3.6168

> <Gold.PLP.part.nonpolar>
-22.2134

> <Gold.PLP.part.repulsive>
0.6041

> <Gold.PLP.ligand.clash>
0.0000

> <Gold.PLP.ligand.torsion>
0.2519

> <Gold.PLP.Chemscore.Hbond>
1.9120

> <Gold.PLP.Chemscore.CHOScore>
0.0000

> <Gold.PLP.Chemscore.Metal>
0.0000

> <Gold.Chemscore.Hbonds>
donor molecule, donor type, donor heavy atom, donor atom, acceptor molecule, acceptor atom, score
      L1  H     8    26       P1  7948  0.86
      L1  H    11    27       P1  7948  1.00

> <Gold.PLP.Chemscore.Internal.Correction>
0.0213

> <Gold.Rescore>
     Score         DG    S(hbond)    S(metal)    S(lipo)     H(rot)  DE(clash)    DE(int)     intcor
     12.96     -14.49       1.86        0.00      59.67       1.63       0.01       1.52       ----

> <Gold.Chemscore.Fitness>
12.9575

> <Gold.Chemscore.DG>
-14.4878

> <Gold.Chemscore.ZeroCoef>
-5.4800

> <Gold.Chemscore.Hbond>
1.8570

> <Gold.Chemscore.Metal>
0.0000

> <Gold.Chemscore.Lipo>
59.6681

> <Gold.Chemscore.Internal_Hbond>
0.0000

> <Gold.Chemscore.DEClash>
0.0124

> <Gold.Chemscore.DEInternal>
1.5179

> <Gold.Chemscore.Rot>
1.6311

> <Gold.Chemscore.Internal.Correction>
   9.000000E+99

> <Gold.Chemscore.Hbonds>
donor molecule, donor type, donor heavy atom, donor atom, acceptor molecule, acceptor atom, score
      L1  H     8    26       P1  7948  0.78
      L1  H    11    27       P1  7948  0.99

> <Gold.Chemscore.Hbond.Weighted>
-6.2023

> <Gold.Chemscore.Metal.Weighted>
-0.0000

> <Gold.Chemscore.Lipo.Weighted>
-6.9812

> <Gold.Chemscore.Internal_Hbond.Weighted>
0.0000

> <Gold.Chemscore.DEClash.Weighted>
0.0124

> <Gold.Chemscore.DEInternal.Weighted>
1.5179

> <Gold.Chemscore.Rot.Weighted>
4.1757

> <Gold.Chemscore.Internal.Correction.Weighted>
   9.000000E+99

> <Gold.Protein.RotatedTorsions>
[ 6907 6896 6895 6894 ] final    6.91 input  -60.11 | X-H torsion
[ 7974 7965 7964 7962 ] final  -14.06 input  175.53 | X-H torsion
[ 8008 7997 7996 7995 ] final   -0.85 input   59.86 | X-H torsion
[ 10167 10162 10161 10158 ] final    3.02 input  -65.29 | X-H torsion
[ 10718 10713 10712 10709 ] final  146.50 input   66.30 | X-H torsion
[ 10763 10752 10751 10750 ] final  -21.28 input  -60.55 | X-H torsion
[ 11005 11000 10999 10996 ] final -124.43 input  -57.11 | X-H torsion

> <Gold.Protein.ActiveResidues>
 VAL166  LYS551  ARG553  GLY616  TRP617  ASP618  TYR619  PRO620  LYS621  CYS622 
 ASP623  PHE694  ASN695  SER759  ASP760  ASP761  ALA762  ILE779  LEU786  VAL792 
 PHE793  MET794  SER795  GLU796  ALA797  LYS798  CYS799  TRP800  GLU811  SER814 

> <Gold.Protein.RotatedAtoms>
  151.6813  135.0961  160.0216 H   0  0  0  0  0  0  0  0  0  0  0  0  # atno 6907 bound_to 6896
  152.3834  133.6573  159.6187 H   0  0  0  0  0  0  0  0  0  0  0  0  # atno 6908 bound_to 6896
  150.7765  133.8993  159.3377 H   0  0  0  0  0  0  0  0  0  0  0  0  # atno 6909 bound_to 6896
  146.2089  140.3293  142.8397 H   0  0  0  0  0  0  0  0  0  0  0  0  # atno 7974 bound_to 7965
  154.6533  140.2574  155.7189 H   0  0  0  0  0  0  0  0  0  0  0  0  # atno 8008 bound_to 7997
  156.2585  140.2863  156.0897 H   0  0  0  0  0  0  0  0  0  0  0  0  # atno 8009 bound_to 7997
  155.1417  140.0380  157.2790 H   0  0  0  0  0  0  0  0  0  0  0  0  # atno 8010 bound_to 7997
  140.6606  143.7313  150.7732 H   0  0  0  0  0  0  0  0  0  0  0  0  # atno 10167 bound_to 10162
  157.3325  131.0922  151.1151 H   0  0  0  0  0  0  0  0  0  0  0  0  # atno 10718 bound_to 10713
  153.6337  135.6988  153.5266 H   0  0  0  0  0  0  0  0  0  0  0  0  # atno 10763 bound_to 10752
  153.2838  135.4177  155.1103 H   0  0  0  0  0  0  0  0  0  0  0  0  # atno 10764 bound_to 10752
  154.8516  135.3608  154.5880 H   0  0  0  0  0  0  0  0  0  0  0  0  # atno 10765 bound_to 10752
  140.9842  134.0631  157.3730 H   0  0  0  0  0  0  0  0  0  0  0  0  # atno 11005 bound_to 11000
  144.8864  140.7467  143.5954 LP  0  0  0  0  0  0  0  0  0  0  0  0  # atno 17320 bound_to 7965
  145.3214  139.1787  143.4585 LP  0  0  0  0  0  0  0  0  0  0  0  0  # atno 17321 bound_to 7965
  140.0981  143.4814  152.2441 LP  0  0  0  0  0  0  0  0  0  0  0  0  # atno 17342 bound_to 10162
  139.5839  144.7523  151.3568 LP  0  0  0  0  0  0  0  0  0  0  0  0  # atno 17343 bound_to 10162
  157.2394  130.6562  149.5883 LP  0  0  0  0  0  0  0  0  0  0  0  0  # atno 17370 bound_to 10713
  155.9697  130.4573  150.5958 LP  0  0  0  0  0  0  0  0  0  0  0  0  # atno 17371 bound_to 10713
  139.8963  135.0145  156.7045 LP  0  0  0  0  0  0  0  0  0  0  0  0  # atno 17394 bound_to 11000
  140.7140  133.9198  155.8103 LP  0  0  0  0  0  0  0  0  0  0  0  0  # atno 17395 bound_to 11000

$$$$
