AV-unprocessed.smi:2627|AV-procd|sdf|10241|dock8
  -GOLD-   2272014253D 1   1.00000     0.00000
 Structure written by MMmdl.
 40 42  0  0  0  0  0  0  0  0  2 V2000
  145.7638  137.4180  152.8420 C   0  0  0  0  0  0  0  0  0  0  0  0
  146.3468  138.7336  152.3109 C   0  0  2  0  0  0  0  0  0  0  0  0
  146.6376  138.5786  150.9373 O   0  0  0  0  0  0  0  0  0  0  0  0
  147.5514  139.1413  153.1015 C   0  0  0  0  0  0  0  0  0  0  0  0
  148.6849  138.4027  153.2748 N   0  3  0  0  0  0  0  0  0  0  0  0
  149.5894  139.1026  154.0739 C   0  0  0  0  0  0  0  0  0  0  0  0
  150.8654  138.7665  154.5154 C   0  0  0  0  0  0  0  0  0  0  0  0
  151.5266  139.7162  155.3217 C   0  0  0  0  0  0  0  0  0  0  0  0
  150.9192  140.9438  155.6581 C   0  0  0  0  0  0  0  0  0  0  0  0
  149.6243  141.2729  155.2052 C   0  0  0  0  0  0  0  0  0  0  0  0
  148.9764  140.3265  154.4118 C   0  0  0  0  0  0  0  0  0  0  0  0
  147.7174  140.3005  153.8018 N   0  0  0  0  0  0  0  0  0  0  0  0
  146.8104  141.4425  153.9736 C   0  0  0  0  0  0  0  0  0  0  0  0
  146.6390  141.8158  155.4505 C   0  0  0  0  0  0  0  0  0  0  0  0
  145.2519  141.9602  155.7179 O   0  0  0  0  0  0  0  0  0  0  0  0
  144.5880  143.0300  155.1576 C   0  0  0  0  0  0  0  0  0  0  0  0
  143.2405  143.2127  155.5316 C   0  0  0  0  0  0  0  0  0  0  0  0
  142.4842  144.2782  155.0067 C   0  0  0  0  0  0  0  0  0  0  0  0
  143.0725  145.1776  154.0985 C   0  0  0  0  0  0  0  0  0  0  0  0
  144.4166  145.0084  153.7175 C   0  0  0  0  0  0  0  0  0  0  0  0
  145.1727  143.9420  154.2420 C   0  0  0  0  0  0  0  0  0  0  0  0
  145.4790  137.5107  153.8905 H   0  0  0  0  0  0  0  0  0  0  0  0
  146.4839  136.6028  152.7635 H   0  0  0  0  0  0  0  0  0  0  0  0
  144.8721  137.1300  152.2842 H   0  0  0  0  0  0  0  0  0  0  0  0
  145.5926  139.5168  152.3930 H   0  0  0  0  0  0  0  0  0  0  0  0
  145.8225  138.5257  150.4614 H   0  0  0  0  0  0  0  0  0  0  0  0
  151.3334  137.8275  154.2579 H   0  0  0  0  0  0  0  0  0  0  0  0
  152.5194  139.4996  155.6888 H   0  0  0  0  0  0  0  0  0  0  0  0
  151.4572  141.6476  156.2768 H   0  0  0  0  0  0  0  0  0  0  0  0
  149.1698  142.2168  155.4678 H   0  0  0  0  0  0  0  0  0  0  0  0
  147.2277  142.2836  153.4193 H   0  0  0  0  0  0  0  0  0  0  0  0
  145.8511  141.2147  153.5083 H   0  0  0  0  0  0  0  0  0  0  0  0
  147.0689  141.0392  156.0851 H   0  0  0  0  0  0  0  0  0  0  0  0
  147.1608  142.7523  155.6542 H   0  0  0  0  0  0  0  0  0  0  0  0
  142.7811  142.5263  156.2277 H   0  0  0  0  0  0  0  0  0  0  0  0
  141.4529  144.4045  155.3009 H   0  0  0  0  0  0  0  0  0  0  0  0
  142.4943  145.9958  153.6953 H   0  0  0  0  0  0  0  0  0  0  0  0
  144.8697  145.6985  153.0211 H   0  0  0  0  0  0  0  0  0  0  0  0
  146.2004  143.8463  153.9266 H   0  0  0  0  0  0  0  0  0  0  0  0
  148.8244  137.4863  152.8686 H   0  0  0  0  0  0  0  0  0  0  0  0
  1  2  1  0  0  0  0
  1 22  1  0  0  0  0
  1 23  1  0  0  0  0
  1 24  1  0  0  0  0
  2  3  1  0  0  0  0
  2  4  1  0  0  0  0
  2 25  1  0  0  0  0
  3 26  1  0  0  0  0
  4 12  1  0  0  0  0
  4  5  2  0  0  0  0
  5  6  1  0  0  0  0
  5 40  1  0  0  0  0
  6 11  2  0  0  0  0
  6  7  1  0  0  0  0
  7  8  2  0  0  0  0
  7 27  1  0  0  0  0
  8  9  1  0  0  0  0
  8 28  1  0  0  0  0
  9 10  2  0  0  0  0
  9 29  1  0  0  0  0
 10 11  1  0  0  0  0
 10 30  1  0  0  0  0
 11 12  1  0  0  0  0
 12 13  1  0  0  0  0
 13 14  1  0  0  0  0
 13 31  1  0  0  0  0
 13 32  1  0  0  0  0
 14 15  1  0  0  0  0
 14 33  1  0  0  0  0
 14 34  1  0  0  0  0
 15 16  1  0  0  0  0
 16 21  1  0  0  0  0
 16 17  2  0  0  0  0
 17 18  1  0  0  0  0
 17 35  1  0  0  0  0
 18 19  2  0  0  0  0
 18 36  1  0  0  0  0
 19 20  1  0  0  0  0
 19 37  1  0  0  0  0
 20 21  2  0  0  0  0
 20 38  1  0  0  0  0
 21 39  1  0  0  0  0
M  CHG  1   5   1
M  END
> <s_m_source_file>
AV-unprocessed.smi

> <i_m_source_file_index>
2627

> <i_lp_mmshare_version>
43012

> <i_f3d_flags>
0

> <s_epik_input>
W2NIXTFbY0hdW2NIXVtjSF1jKGMxMiluKGMobjIpW0NASF0oW0NIM10pW09IXSlbQ0gyXVtDSDJdT2MzW2NIXVtjSF1bY0hdW2NIXVtjSF0z

> <s_epik_cmdline>
J2VwaWtfcHl0aG9uJywgJy1waCcsICc3LjAnLCAnLXRuJywgJzgnLCAnLW1hJywgJzIwMCcsICctbWV0YWxfYmluZGluZycsICctaW1hZScsICc8aW5maWxlLm1hZT4nLCAnLW9tYWUnLCAnPG91dGZpbGUubWFlPic=

> <r_lp_tautomer_probability>
1

> <r_epik_Ionization_Penalty>
1.52183

> <r_epik_Ionization_Penalty_Charging>
1.5218

> <r_epik_Ionization_Penalty_Neutral>
2.92192e-05

> <r_epik_State_Penalty>
1.61369

> <r_epik_Charging_Adjusted_Penalty>
3.13549

> <i_epik_Tot_Q>
1

> <i_epik_Tot_abs_Q>
1

> <r_epik_Metal_State_Penalty>
5.66625

> <b_epik_Metal_Only>
0

> <s_lp_Force_Field>
OPLS_2005

> <r_lp_Energy>
19.9406

> <b_lp_Chiralities_Consistent>
1

> <s_lp_Variant>
AV-unprocessed.smi:2627-3

> <Gold.Version>
5.8.1

> <Gold.Id.Protein>
6NUR|6NUR_protein|mol2

> <Gold.PLP.Fitness>
53.6261

> <Gold.PLP.PLP>
-42.6441

> <Gold.PLP.part.hbond>
-4.2402

> <Gold.PLP.part.metal>
0.0000

> <Gold.PLP.part.buried>
-1.5078

> <Gold.PLP.part.nonpolar>
-38.2227

> <Gold.PLP.part.repulsive>
0.1689

> <Gold.PLP.ligand.clash>
0.0000

> <Gold.PLP.ligand.torsion>
0.4775

> <Gold.PLP.Chemscore.Hbond>
3.9673

> <Gold.PLP.Chemscore.CHOScore>
0.0000

> <Gold.PLP.Chemscore.Metal>
0.0000

> <Gold.Chemscore.Hbonds>
donor molecule, donor type, donor heavy atom, donor atom, acceptor molecule, acceptor atom, score
      L1  H     3    26       P1 10171  0.99
      L1  H     5    40       P1  7948  2.00
      P1  H  7954  7966       L1     3  0.98

> <Gold.PLP.Chemscore.Internal.Correction>
0.0352

> <Gold.Rescore>
     Score         DG    S(hbond)    S(metal)    S(lipo)     H(rot)  DE(clash)    DE(int)     intcor
     18.20     -19.22       2.61        0.00      89.42       2.13       0.60       0.42       ----

> <Gold.Chemscore.Fitness>
18.1991

> <Gold.Chemscore.DG>
-19.2217

> <Gold.Chemscore.ZeroCoef>
-5.4800

> <Gold.Chemscore.Hbond>
2.6142

> <Gold.Chemscore.Metal>
0.0000

> <Gold.Chemscore.Lipo>
89.4249

> <Gold.Chemscore.Internal_Hbond>
0.0000

> <Gold.Chemscore.DEClash>
0.6013

> <Gold.Chemscore.DEInternal>
0.4213

> <Gold.Chemscore.Rot>
2.1299

> <Gold.Chemscore.Internal.Correction>
   9.000000E+99

> <Gold.Chemscore.Hbonds>
donor molecule, donor type, donor heavy atom, donor atom, acceptor molecule, acceptor atom, score
      L1  H     3    26       P1 10171  0.92
      L1  H     5    40       P1  7948  0.98
      P1  H  7954  7966       L1     3  0.74

> <Gold.Chemscore.Hbond.Weighted>
-8.7316

> <Gold.Chemscore.Metal.Weighted>
-0.0000

> <Gold.Chemscore.Lipo.Weighted>
-10.4627

> <Gold.Chemscore.Internal_Hbond.Weighted>
0.0000

> <Gold.Chemscore.DEClash.Weighted>
0.6013

> <Gold.Chemscore.DEInternal.Weighted>
0.4213

> <Gold.Chemscore.Rot.Weighted>
5.4526

> <Gold.Chemscore.Internal.Correction.Weighted>
   9.000000E+99

> <Gold.Protein.RotatedTorsions>
[ 6907 6896 6895 6894 ] final   -9.75 input  -60.11 | X-H torsion
[ 7974 7965 7964 7962 ] final -112.50 input  175.53 | X-H torsion
[ 8008 7997 7996 7995 ] final -156.10 input   59.86 | X-H torsion
[ 10167 10162 10161 10158 ] final  -74.19 input  -65.29 | X-H torsion
[ 10718 10713 10712 10709 ] final -170.57 input   66.30 | X-H torsion
[ 10763 10752 10751 10750 ] final   36.48 input  -60.55 | X-H torsion
[ 11005 11000 10999 10996 ] final   38.40 input  -57.11 | X-H torsion

> <Gold.Protein.ActiveResidues>
 VAL166  LYS551  ARG553  GLY616  TRP617  ASP618  TYR619  PRO620  LYS621  CYS622 
 ASP623  PHE694  ASN695  SER759  ASP760  ASP761  ALA762  ILE779  LEU786  VAL792 
 PHE793  MET794  SER795  GLU796  ALA797  LYS798  CYS799  TRP800  GLU811  SER814 

> <Gold.Protein.RotatedAtoms>
  151.4129  135.0987  159.9590 H   0  0  0  0  0  0  0  0  0  0  0  0  # atno 6907 bound_to 6896
  152.5014  133.8780  159.7342 H   0  0  0  0  0  0  0  0  0  0  0  0  # atno 6908 bound_to 6896
  150.9279  133.6745  159.2845 H   0  0  0  0  0  0  0  0  0  0  0  0  # atno 6909 bound_to 6896
  145.1433  140.8789  143.3689 H   0  0  0  0  0  0  0  0  0  0  0  0  # atno 7974 bound_to 7965
  155.7121  140.0779  157.2367 H   0  0  0  0  0  0  0  0  0  0  0  0  # atno 8008 bound_to 7997
  154.4057  140.1628  156.2361 H   0  0  0  0  0  0  0  0  0  0  0  0  # atno 8009 bound_to 7997
  155.9273  140.3393  155.6224 H   0  0  0  0  0  0  0  0  0  0  0  0  # atno 8010 bound_to 7997
  140.5048  143.2355  151.7692 H   0  0  0  0  0  0  0  0  0  0  0  0  # atno 10167 bound_to 10162
  156.7281  130.9296  151.3102 H   0  0  0  0  0  0  0  0  0  0  0  0  # atno 10718 bound_to 10713
  153.0075  135.6304  154.1992 H   0  0  0  0  0  0  0  0  0  0  0  0  # atno 10763 bound_to 10752
  154.1735  135.2817  155.3075 H   0  0  0  0  0  0  0  0  0  0  0  0  # atno 10764 bound_to 10752
  154.5890  135.5623  153.7319 H   0  0  0  0  0  0  0  0  0  0  0  0  # atno 10765 bound_to 10752
  140.2129  134.3733  155.8040 H   0  0  0  0  0  0  0  0  0  0  0  0  # atno 11005 bound_to 11000
  145.0509  139.3182  143.5929 LP  0  0  0  0  0  0  0  0  0  0  0  0  # atno 17320 bound_to 7965
  146.3503  139.9917  142.8685 LP  0  0  0  0  0  0  0  0  0  0  0  0  # atno 17321 bound_to 7965
  139.4881  144.4472  151.9696 LP  0  0  0  0  0  0  0  0  0  0  0  0  # atno 17342 bound_to 10162
  140.3563  144.3028  150.5941 LP  0  0  0  0  0  0  0  0  0  0  0  0  # atno 17343 bound_to 10162
  157.6870  130.9195  150.0412 LP  0  0  0  0  0  0  0  0  0  0  0  0  # atno 17370 bound_to 10713
  156.1547  130.3643  149.9386 LP  0  0  0  0  0  0  0  0  0  0  0  0  # atno 17371 bound_to 10713
  141.2225  133.7153  156.8449 LP  0  0  0  0  0  0  0  0  0  0  0  0  # atno 17394 bound_to 11000
  140.1931  134.8951  157.3083 LP  0  0  0  0  0  0  0  0  0  0  0  0  # atno 17395 bound_to 11000

$$$$
