#       Name:                AV-unprocessed.smi:1535
#       Creating user name   scv26
#       Creation time:       Fri Mar 27 06:33:04 2020


#       File generated by GOLD software.
#

@<TRIPOS>MOLECULE
AV-unprocessed.smi:1535
    51    52     1
SMALL
NO_CHARGES


@<TRIPOS>ATOM
      1 ****        -5.3472   1.4823   1.7654 C.3            1 S1                 0.0000
      2 ****        -4.1866   1.0050   0.9092 C.ar           1 S1                 0.0000
      3 ****        -4.4530   0.5775  -0.4111 C.ar           1 S1                 0.0000
      4 ****        -3.3706   0.1465  -1.1691 C.ar           1 S1                 0.0000
      5 ****        -3.3051  -0.3301  -2.4800 N.pl3          1 S1                 1.0000
      6 ****        -2.0140  -0.6320  -2.7899 C.2            1 S1                 0.0000
      7 ****        -1.2532  -0.3537  -1.6968 N.pl3          1 S1                 0.0000
      8 ****         0.1966  -0.4962  -1.5030 C.3            1 S1                 0.0000
      9 ****         0.6044  -1.9328  -1.1183 C.3            1 S1                 0.0000
     10 ****        -0.0071  -2.3200   0.0961 O.3            1 S1                 0.0000
     11 ****         2.1220  -2.2101  -1.0178 C.3            1 S1                 0.0000
     12 ****         2.8480  -1.4183  -0.0184 N.3            1 S1                 0.0000
     13 ****         3.9349  -2.2036   0.5588 C.3            1 S1                 0.0000
     14 ****         3.3695  -0.1666  -0.5770 C.3            1 S1                 0.0000
     15 ****         3.7553   0.8936   0.4704 C.3            1 S1                 0.0000
     16 ****         4.3653   2.1336  -0.1941 C.3            1 S1                 0.0000
     17 ****         2.5962   1.2672   1.2981 C.1            1 S1                 0.0000
     18 ****         1.6840   1.5604   1.9470 N.1            1 S1                 0.0000
     19 ****        -2.0580   0.1316  -0.6585 C.ar           1 S1                 0.0000
     20 ****        -1.7798   0.5462   0.6421 C.ar           1 S1                 0.0000
     21 ****        -2.8664   0.9892   1.4290 C.ar           1 S1                 0.0000
     22 ****        -2.5896   1.4505   2.8497 C.3            1 S1                 0.0000
     23 ****        -6.2913   1.4322   1.2222 H              1 S1                 0.0000
     24 ****        -5.1949   2.5168   2.0744 H              1 S1                 0.0000
     25 ****        -5.4437   0.8641   2.6579 H              1 S1                 0.0000
     26 ****        -5.4555   0.5853  -0.8132 H              1 S1                 0.0000
     27 ****        -1.6581  -1.0221  -3.7326 H              1 S1                 0.0000
     28 ****         0.6729  -0.2131  -2.4423 H              1 S1                 0.0000
     29 ****         0.5217   0.2270  -0.7563 H              1 S1                 0.0000
     30 ****         0.2084  -2.6019  -1.8831 H              1 S1                 0.0000
     31 ****         0.3878  -1.8253   0.7981 H              1 S1                 0.0000
     32 ****         2.2257  -3.2719  -0.7874 H              1 S1                 0.0000
     33 ****         2.5888  -2.0881  -1.9966 H              1 S1                 0.0000
     34 ****         4.4501  -1.6540   1.3455 H              1 S1                 0.0000
     35 ****         4.6675  -2.4818  -0.2001 H              1 S1                 0.0000
     36 ****         3.5522  -3.1198   1.0100 H              1 S1                 0.0000
     37 ****         4.2316  -0.3851  -1.2091 H              1 S1                 0.0000
     38 ****         2.6418   0.2848  -1.2467 H              1 S1                 0.0000
     39 ****         4.4991   0.4842   1.1528 H              1 S1                 0.0000
     40 ****         4.6593   2.8720   0.5525 H              1 S1                 0.0000
     41 ****         3.6538   2.6094  -0.8699 H              1 S1                 0.0000
     42 ****         5.2534   1.8741  -0.7707 H              1 S1                 0.0000
     43 ****        -0.7779   0.5302   1.0434 H              1 S1                 0.0000
     44 ****        -1.5308   1.3670   3.0975 H              1 S1                 0.0000
     45 ****        -3.1472   0.8457   3.5650 H              1 S1                 0.0000
     46 ****        -2.8797   2.4938   2.9763 H              1 S1                 0.0000
     47 ****        -4.0825  -0.4432  -3.1177 H              1 S1                 0.0000
     48 ****         0.1354  -3.2978   0.2497 LP             1 S1                 0.0000
     49 ****        -0.9877  -2.1281   0.0571 LP             1 S1                 0.0000
     50 ****         2.1957  -1.1768   0.7000 LP             1 S1                 0.0000
     51 ****         0.8958   1.8138   2.5077 LP             1 S1                 0.0000
@<TRIPOS>BOND
    1    1    2 1     
    2    1   23 1     
    3    1   24 1     
    4    1   25 1     
    5    2   21 ar    
    6    2    3 ar    
    7    3    4 ar    
    8    3   26 1     
    9    4   19 ar    
   10    4    5 1     
   11    5    6 2     
   12    5   47 1     
   13    6    7 1     
   14    6   27 1     
   15    7    8 1     
   16    7   19 1     
   17    8    9 1     
   18    8   28 1     
   19    8   29 1     
   20    9   10 1     
   21    9   11 1     
   22    9   30 1     
   23   10   31 1     
   24   11   12 1     
   25   11   32 1     
   26   11   33 1     
   27   12   13 1     
   28   12   14 1     
   29   13   34 1     
   30   13   35 1     
   31   13   36 1     
   32   14   15 1     
   33   14   37 1     
   34   14   38 1     
   35   15   16 1     
   36   15   17 1     
   37   15   39 1     
   38   16   40 1     
   39   16   41 1     
   40   16   42 1     
   41   17   18 3     
   42   19   20 ar    
   43   20   21 ar    
   44   20   43 1     
   45   21   22 1     
   46   22   44 1     
   47   22   45 1     
   48   22   46 1     
   49   10   48 1     
   50   10   49 1     
   51   12   50 1     
   52   18   51 1     
@<TRIPOS>SUBSTRUCTURE
      1 S1             1
@<TRIPOS>SET
LONE_PAIRS      STATIC     ATOMS    <user>   **** ""
4 48 49 50 51
DONOR_HYDROGENS      STATIC     ATOMS    <user>   **** ""
2 47 31
ATOM$BLUE        STATIC     ATOMS    COLORGROUP SYSTEM
4 48 49 50 51
ATOM$RED        STATIC     ATOMS    COLORGROUP SYSTEM
2 47 31
