AV-unprocessed.smi:592|AV-procd|sdf|3011|dock3
  -GOLD-   2262023513D 1   1.00000     0.00000
 Structure written by MMmdl.
 28 29  0  0  0  0  0  0  0  0  2 V2000
  151.3695  140.1131  156.1166 O   0  0  0  0  0  0  0  0  0  0  0  0
  150.3716  140.7680  155.8187 C   0  0  0  0  0  0  0  0  0  0  0  0
  149.3261  140.2394  154.8224 C   0  0  0  0  0  0  0  0  0  0  0  0
  148.0404  140.9560  154.8933 N   0  0  0  0  0  0  0  0  0  0  0  0
  147.6034  141.6050  153.7209 C   0  0  0  0  0  0  0  0  0  0  0  0
  146.4467  142.2845  153.6739 C   0  0  0  0  0  0  0  0  0  0  0  0
  145.6392  142.3411  154.8693 C   0  0  0  0  0  0  0  0  0  0  0  0
  146.0498  141.7287  155.9976 C   0  0  0  0  0  0  0  0  0  0  0  0
  147.3156  140.9883  156.0546 C   0  0  0  0  0  0  0  0  0  0  0  0
  147.7028  140.4325  157.0828 O   0  0  0  0  0  0  0  0  0  0  0  0
  150.2130  142.0665  156.4279 N   0  0  0  0  0  0  0  0  0  0  0  0
  150.9802  142.7438  157.3187 C   0  0  0  0  0  0  0  0  0  0  0  0
  150.9104  144.0697  157.5060 N   0  3  0  0  0  0  0  0  0  0  0  0
  151.8031  144.6983  158.4918 C   0  0  0  0  0  0  0  0  0  0  0  0
  152.6735  143.6146  159.1483 C   0  0  0  0  0  0  0  0  0  0  0  0
  152.2289  142.0381  158.3933 S   0  0  0  0  0  0  0  0  0  0  0  0
  149.7285  140.3243  153.8130 H   0  0  0  0  0  0  0  0  0  0  0  0
  149.1551  139.1784  155.0064 H   0  0  0  0  0  0  0  0  0  0  0  0
  148.2662  141.5206  152.8719 H   0  0  0  0  0  0  0  0  0  0  0  0
  146.1302  142.7785  152.7671 H   0  0  0  0  0  0  0  0  0  0  0  0
  144.7018  142.8776  154.8592 H   0  0  0  0  0  0  0  0  0  0  0  0
  145.4328  141.7831  156.8825 H   0  0  0  0  0  0  0  0  0  0  0  0
  149.4105  142.6207  156.1664 H   0  0  0  0  0  0  0  0  0  0  0  0
  152.4252  145.4405  157.9908 H   0  0  0  0  0  0  0  0  0  0  0  0
  151.2067  145.2216  159.2395 H   0  0  0  0  0  0  0  0  0  0  0  0
  153.7340  143.8116  158.9893 H   0  0  0  0  0  0  0  0  0  0  0  0
  152.4987  143.5676  160.2235 H   0  0  0  0  0  0  0  0  0  0  0  0
  150.2652  144.6447  156.9827 H   0  0  0  0  0  0  0  0  0  0  0  0
  1  2  2  0  0  0  0
  2  3  1  0  0  0  0
  2 11  1  0  0  0  0
  3  4  1  0  0  0  0
  3 17  1  0  0  0  0
  3 18  1  0  0  0  0
  4  9  1  0  0  0  0
  4  5  1  0  0  0  0
  5  6  2  0  0  0  0
  5 19  1  0  0  0  0
  6  7  1  0  0  0  0
  6 20  1  0  0  0  0
  7  8  2  0  0  0  0
  7 21  1  0  0  0  0
  8  9  1  0  0  0  0
  8 22  1  0  0  0  0
  9 10  2  0  0  0  0
 11 12  1  0  0  0  0
 11 23  1  0  0  0  0
 12 16  1  0  0  0  0
 12 13  2  0  0  0  0
 13 14  1  0  0  0  0
 13 28  1  0  0  0  0
 14 15  1  0  0  0  0
 14 24  1  0  0  0  0
 14 25  1  0  0  0  0
 15 16  1  0  0  0  0
 15 26  1  0  0  0  0
 15 27  1  0  0  0  0
M  CHG  1  13   1
M  END
> <s_m_source_file>
AV-unprocessed.smi

> <i_m_source_file_index>
592

> <i_lp_mmshare_version>
43012

> <i_f3d_flags>
0

> <s_epik_input>
UzFbQ0gyXVtDSDJdTj1DMVtOSF1DKD1PKVtDSDJdbjJbY0hdW2NIXVtjSF1bY0hdYzI9Tw==

> <s_epik_cmdline>
J2VwaWtfcHl0aG9uJywgJy1waCcsICc3LjAnLCAnLXRuJywgJzgnLCAnLW1hJywgJzIwMCcsICctbWV0YWxfYmluZGluZycsICctaW1hZScsICc8aW5maWxlLm1hZT4nLCAnLW9tYWUnLCAnPG91dGZpbGUubWFlPic=

> <r_lp_tautomer_probability>
1

> <r_epik_Ionization_Penalty>
1.98499

> <r_epik_Ionization_Penalty_Charging>
1.98499

> <r_epik_Ionization_Penalty_Neutral>
2.63117e-16

> <r_epik_State_Penalty>
1.64719

> <r_epik_Charging_Adjusted_Penalty>
3.63218

> <i_epik_Tot_Q>
1

> <i_epik_Tot_abs_Q>
1

> <r_epik_Metal_State_Penalty>
5.35038

> <b_epik_Metal_Only>
0

> <s_epik_Chemistry_Notes>
This compound has an imine and may undergo hydrolysis.

> <s_lp_Force_Field>
OPLS_2005

> <r_lp_Energy>
33.1972

> <b_lp_Chiralities_Consistent>
1

> <s_lp_Variant>
AV-unprocessed.smi:592-2

> <Gold.Version>
5.8.1

> <Gold.Id.Protein>
6NUR|6NUR_protein|mol2

> <Gold.PLP.Fitness>
42.2074

> <Gold.PLP.PLP>
-32.4510

> <Gold.PLP.part.hbond>
-1.9272

> <Gold.PLP.part.metal>
0.0000

> <Gold.PLP.part.buried>
-6.4880

> <Gold.PLP.part.nonpolar>
-24.6027

> <Gold.PLP.part.repulsive>
0.1207

> <Gold.PLP.ligand.clash>
0.0000

> <Gold.PLP.ligand.torsion>
0.3161

> <Gold.PLP.Chemscore.Hbond>
2.4619

> <Gold.PLP.Chemscore.CHOScore>
1.0000

> <Gold.PLP.Chemscore.Metal>
0.0000

> <Gold.Chemscore.Hbonds>
donor molecule, donor type, donor heavy atom, donor atom, acceptor molecule, acceptor atom, score
      L1  H    11    23       P1  8028  0.42
      L1  H    13    28       P1  8028  1.95
      L1  C     5    19       P1  7957  0.79

> <Gold.PLP.Chemscore.Internal.Correction>
0.0030

> <Gold.Rescore>
     Score         DG    S(hbond)    S(metal)    S(lipo)     H(rot)  DE(clash)    DE(int)     intcor
     13.19     -14.31       1.40        0.00      65.00       1.35       0.01       1.12       ----

> <Gold.Chemscore.Fitness>
13.1884

> <Gold.Chemscore.DG>
-14.3144

> <Gold.Chemscore.ZeroCoef>
-5.4800

> <Gold.Chemscore.Hbond>
1.4027

> <Gold.Chemscore.Metal>
0.0000

> <Gold.Chemscore.Lipo>
64.9968

> <Gold.Chemscore.Internal_Hbond>
0.0000

> <Gold.Chemscore.DEClash>
0.0057

> <Gold.Chemscore.DEInternal>
1.1202

> <Gold.Chemscore.Rot>
1.3497

> <Gold.Chemscore.Internal.Correction>
   9.000000E+99

> <Gold.Chemscore.Hbonds>
donor molecule, donor type, donor heavy atom, donor atom, acceptor molecule, acceptor atom, score
      L1  H    11    23       P1  8028  0.41
      L1  H    13    28       P1  8028  0.56

> <Gold.Chemscore.Hbond.Weighted>
-4.6850

> <Gold.Chemscore.Metal.Weighted>
-0.0000

> <Gold.Chemscore.Lipo.Weighted>
-7.6046

> <Gold.Chemscore.Internal_Hbond.Weighted>
0.0000

> <Gold.Chemscore.DEClash.Weighted>
0.0057

> <Gold.Chemscore.DEInternal.Weighted>
1.1202

> <Gold.Chemscore.Rot.Weighted>
3.4552

> <Gold.Chemscore.Internal.Correction.Weighted>
   9.000000E+99

> <Gold.Protein.RotatedTorsions>
[ 6907 6896 6895 6894 ] final -119.56 input  -60.11 | X-H torsion
[ 7974 7965 7964 7962 ] final   11.74 input  175.53 | X-H torsion
[ 8008 7997 7996 7995 ] final -173.03 input   59.86 | X-H torsion
[ 10167 10162 10161 10158 ] final -140.70 input  -65.29 | X-H torsion
[ 10718 10713 10712 10709 ] final  -72.91 input   66.30 | X-H torsion
[ 10763 10752 10751 10750 ] final   85.56 input  -60.55 | X-H torsion
[ 11005 11000 10999 10996 ] final  149.38 input  -57.11 | X-H torsion

> <Gold.Protein.ActiveResidues>
 VAL166  LYS551  ARG553  GLY616  TRP617  ASP618  TYR619  PRO620  LYS621  CYS622 
 ASP623  PHE694  ASN695  SER759  ASP760  ASP761  ALA762  ILE779  LEU786  VAL792 
 PHE793  MET794  SER795  GLU796  ALA797  LYS798  CYS799  TRP800  GLU811  SER814 

> <Gold.Protein.RotatedAtoms>
  150.8316  133.8082  159.3096 H   0  0  0  0  0  0  0  0  0  0  0  0  # atno 6907 bound_to 6896
  151.5810  135.1057  160.0027 H   0  0  0  0  0  0  0  0  0  0  0  0  # atno 6908 bound_to 6896
  152.4394  133.7379  159.6680 H   0  0  0  0  0  0  0  0  0  0  0  0  # atno 6909 bound_to 6896
  146.2365  139.9440  142.8479 H   0  0  0  0  0  0  0  0  0  0  0  0  # atno 7974 bound_to 7965
  155.9522  140.1128  157.0967 H   0  0  0  0  0  0  0  0  0  0  0  0  # atno 8008 bound_to 7997
  154.4112  140.1198  156.5133 H   0  0  0  0  0  0  0  0  0  0  0  0  # atno 8009 bound_to 7997
  155.6828  140.3473  155.4864 H   0  0  0  0  0  0  0  0  0  0  0  0  # atno 8010 bound_to 7997
  139.8257  143.7515  152.2666 H   0  0  0  0  0  0  0  0  0  0  0  0  # atno 10167 bound_to 10162
  156.0301  130.4382  150.2663 H   0  0  0  0  0  0  0  0  0  0  0  0  # atno 10718 bound_to 10713
  153.1486  135.4613  154.9603 H   0  0  0  0  0  0  0  0  0  0  0  0  # atno 10763 bound_to 10752
  154.7807  135.3187  154.7999 H   0  0  0  0  0  0  0  0  0  0  0  0  # atno 10764 bound_to 10752
  153.8508  135.6921  153.4847 H   0  0  0  0  0  0  0  0  0  0  0  0  # atno 10765 bound_to 10752
  140.1040  134.8965  157.1839 H   0  0  0  0  0  0  0  0  0  0  0  0  # atno 11005 bound_to 11000
  145.1925  140.9818  143.4202 LP  0  0  0  0  0  0  0  0  0  0  0  0  # atno 17320 bound_to 7965
  144.9844  139.3751  143.6246 LP  0  0  0  0  0  0  0  0  0  0  0  0  # atno 17321 bound_to 7965
  139.7706  144.7477  151.0229 LP  0  0  0  0  0  0  0  0  0  0  0  0  # atno 17342 bound_to 10162
  140.7810  143.4649  151.0226 LP  0  0  0  0  0  0  0  0  0  0  0  0  # atno 17343 bound_to 10162
  157.0765  131.0131  151.3171 LP  0  0  0  0  0  0  0  0  0  0  0  0  # atno 17370 bound_to 10713
  157.4959  130.7850  149.7555 LP  0  0  0  0  0  0  0  0  0  0  0  0  # atno 17371 bound_to 10713
  140.3181  134.2948  155.7252 LP  0  0  0  0  0  0  0  0  0  0  0  0  # atno 17394 bound_to 11000
  141.2113  133.7692  156.9871 LP  0  0  0  0  0  0  0  0  0  0  0  0  # atno 17395 bound_to 11000

$$$$
