AV-unprocessed.smi:1803|AV-procd|sdf|7290|dock2
  -GOLD-   22720 8543D 1   1.00000     0.00000
 Structure written by MMmdl.
 35 37  0  0  0  0  0  0  0  0  3 V2000
  148.3052  140.0514  155.4712 O   0  0  0  0  0  0  0  0  0  0  0  0
  149.0059  139.9560  154.4648 C   0  0  0  0  0  0  0  0  0  0  0  0
  150.3219  140.2921  154.4297 N   0  5  0  0  0  0  0  0  0  0  0  0
  151.2563  139.6242  155.1327 C   0  0  0  0  0  0  0  0  0  0  0  0
  151.8039  140.1163  156.2558 N   0  0  0  0  0  0  0  0  0  0  0  0
  152.7613  139.2771  156.8090 N   0  0  0  0  0  0  0  0  0  0  0  0
  152.9017  138.1615  156.0937 C   0  0  0  0  0  0  0  0  0  0  0  0
  151.8841  138.0392  154.6743 S   0  0  0  0  0  0  0  0  0  0  0  0
  148.4517  139.4987  153.3271 N   0  0  0  0  0  0  0  0  0  0  0  0
  147.0665  139.0813  153.1397 C   0  0  1  0  0  0  0  0  0  0  0  0
  146.6886  138.8334  151.6628 C   0  0  0  0  0  0  0  0  0  0  0  0
  145.9398  137.4970  151.6639 C   0  0  0  0  0  0  0  0  0  0  0  0
  146.5562  136.7707  152.7805 N   0  3  2  0  0  0  0  0  0  0  0  0
  145.9074  135.5294  153.2514 C   0  0  0  0  0  0  0  0  0  0  0  0
  146.8121  134.8724  154.3162 C   0  0  0  0  0  0  0  0  0  0  0  0
  147.1940  135.8550  155.4460 C   0  0  0  0  0  0  0  0  0  0  0  0
  147.7585  137.1759  154.8822 C   0  0  0  0  0  0  0  0  0  0  0  0
  146.7607  137.7512  153.8597 C   0  0  1  0  0  0  0  0  0  0  0  0
  153.6093  137.4068  156.4034 H   0  0  0  0  0  0  0  0  0  0  0  0
  149.0547  139.4360  152.5198 H   0  0  0  0  0  0  0  0  0  0  0  0
  146.4194  139.8543  153.5588 H   0  0  0  0  0  0  0  0  0  0  0  0
  146.0913  139.6430  151.2428 H   0  0  0  0  0  0  0  0  0  0  0  0
  147.5877  138.7403  151.0513 H   0  0  0  0  0  0  0  0  0  0  0  0
  144.8791  137.6531  151.8662 H   0  0  0  0  0  0  0  0  0  0  0  0
  146.0379  136.9582  150.7211 H   0  0  0  0  0  0  0  0  0  0  0  0
  144.9225  135.7541  153.6634 H   0  0  0  0  0  0  0  0  0  0  0  0
  145.7603  134.8501  152.4113 H   0  0  0  0  0  0  0  0  0  0  0  0
  146.3194  133.9944  154.7349 H   0  0  0  0  0  0  0  0  0  0  0  0
  147.7234  134.5125  153.8366 H   0  0  0  0  0  0  0  0  0  0  0  0
  146.3113  136.0692  156.0499 H   0  0  0  0  0  0  0  0  0  0  0  0
  147.9198  135.3930  156.1156 H   0  0  0  0  0  0  0  0  0  0  0  0
  147.9284  137.8868  155.6916 H   0  0  0  0  0  0  0  0  0  0  0  0
  148.7261  136.9930  154.4122 H   0  0  0  0  0  0  0  0  0  0  0  0
  145.8012  137.8864  154.3640 H   0  0  0  0  0  0  0  0  0  0  0  0
  147.4789  136.5138  152.4597 H   0  0  0  0  0  0  0  0  0  0  0  0
  1  2  2  0  0  0  0
  2  3  1  0  0  0  0
  2  9  1  0  0  0  0
  3  4  1  0  0  0  0
  4  8  1  0  0  0  0
  4  5  2  0  0  0  0
  5  6  1  0  0  0  0
  6  7  2  0  0  0  0
  7  8  1  0  0  0  0
  7 19  1  0  0  0  0
  9 10  1  0  0  0  0
  9 20  1  0  0  0  0
 10 18  1  0  0  0  0
 10 11  1  0  0  0  0
 10 21  1  0  0  0  0
 11 12  1  0  0  0  0
 11 22  1  0  0  0  0
 11 23  1  0  0  0  0
 12 13  1  0  0  0  0
 12 24  1  0  0  0  0
 12 25  1  0  0  0  0
 13 18  1  0  0  0  0
 13 14  1  0  0  0  0
 13 35  1  0  0  0  0
 14 15  1  0  0  0  0
 14 26  1  0  0  0  0
 14 27  1  0  0  0  0
 15 16  1  0  0  0  0
 15 28  1  0  0  0  0
 15 29  1  0  0  0  0
 16 17  1  0  0  0  0
 16 30  1  0  0  0  0
 16 31  1  0  0  0  0
 17 18  1  0  0  0  0
 17 32  1  0  0  0  0
 17 33  1  0  0  0  0
 18 34  1  0  0  0  0
M  CHG  1   3  -1
M  CHG  1  13   1
M  END
> <s_m_source_file>
AV-unprocessed.smi

> <i_m_source_file_index>
1803

> <i_lp_mmshare_version>
43012

> <i_f3d_flags>
0

> <s_epik_input>
czFbY0hdbm5jMVtOSF1DKD1PKVtOSF1bQ0BIXShbQ0gyXVtDSDJdMilbQ0BASF0oTjIzKVtDSDJdW0NIMl1bQ0gyXVtDSDJdMw==

> <s_epik_cmdline>
J2VwaWtfcHl0aG9uJywgJy1waCcsICc3LjAnLCAnLXRuJywgJzgnLCAnLW1hJywgJzIwMCcsICctbWV0YWxfYmluZGluZycsICctaW1hZScsICc8aW5maWxlLm1hZT4nLCAnLW9tYWUnLCAnPG91dGZpbGUubWFlPic=

> <r_lp_tautomer_probability>
1

> <r_epik_Ionization_Penalty>
3.78828

> <r_epik_Ionization_Penalty_Charging>
3.7591

> <r_epik_Ionization_Penalty_Neutral>
0.0291838

> <r_epik_State_Penalty>
3.757

> <r_epik_Charging_Adjusted_Penalty>
7.51609

> <i_epik_Tot_Q>
0

> <i_epik_Tot_abs_Q>
2

> <r_epik_Metal_State_Penalty>
0.558016

> <b_epik_Metal_Only>
1

> <s_lp_Force_Field>
OPLS_2005

> <r_lp_Energy>
34.7934

> <b_lp_Chiralities_Consistent>
1

> <s_lp_Variant>
AV-unprocessed.smi:1803-12

> <Gold.Version>
5.8.1

> <Gold.Id.Protein>
6NUR|6NUR_protein|mol2

> <Gold.PLP.Fitness>
36.2637

> <Gold.PLP.PLP>
-26.0239

> <Gold.PLP.part.hbond>
-3.9111

> <Gold.PLP.part.metal>
0.0000

> <Gold.PLP.part.buried>
-0.9034

> <Gold.PLP.part.nonpolar>
-23.3382

> <Gold.PLP.part.repulsive>
0.2685

> <Gold.PLP.ligand.clash>
0.0000

> <Gold.PLP.ligand.torsion>
1.4240

> <Gold.PLP.Chemscore.Hbond>
4.3500

> <Gold.PLP.Chemscore.CHOScore>
0.0000

> <Gold.PLP.Chemscore.Metal>
0.0000

> <Gold.Chemscore.Hbonds>
donor molecule, donor type, donor heavy atom, donor atom, acceptor molecule, acceptor atom, score
      L1  H     9    20       P1  7957  1.00
      L1  H    13    35       P1  7948  2.00
      P1  H  7989  7998       L1     3  0.30
      P1  H  7997  8010       L1     6  0.95

> <Gold.PLP.Chemscore.Internal.Correction>
0.0377

> <Gold.Rescore>
     Score         DG    S(hbond)    S(metal)    S(lipo)     H(rot)  DE(clash)    DE(int)     intcor
     15.34     -17.04       2.58        0.00      47.12       1.00       0.21       1.48       ----

> <Gold.Chemscore.Fitness>
15.3444

> <Gold.Chemscore.DG>
-17.0365

> <Gold.Chemscore.ZeroCoef>
-5.4800

> <Gold.Chemscore.Hbond>
2.5757

> <Gold.Chemscore.Metal>
0.0000

> <Gold.Chemscore.Lipo>
47.1244

> <Gold.Chemscore.Internal_Hbond>
0.0000

> <Gold.Chemscore.DEClash>
0.2085

> <Gold.Chemscore.DEInternal>
1.4836

> <Gold.Chemscore.Rot>
1.0000

> <Gold.Chemscore.Internal.Correction>
   9.000000E+99

> <Gold.Chemscore.Hbonds>
donor molecule, donor type, donor heavy atom, donor atom, acceptor molecule, acceptor atom, score
      L1  H     9    20       P1  7957  0.93
      L1  H    13    35       P1  7948  0.99
      P1  H  7997  8010       L1     6  0.07

> <Gold.Chemscore.Hbond.Weighted>
-8.6029

> <Gold.Chemscore.Metal.Weighted>
-0.0000

> <Gold.Chemscore.Lipo.Weighted>
-5.5136

> <Gold.Chemscore.Internal_Hbond.Weighted>
0.0000

> <Gold.Chemscore.DEClash.Weighted>
0.2085

> <Gold.Chemscore.DEInternal.Weighted>
1.4836

> <Gold.Chemscore.Rot.Weighted>
2.5600

> <Gold.Chemscore.Internal.Correction.Weighted>
   9.000000E+99

> <Gold.Protein.RotatedTorsions>
[ 6907 6896 6895 6894 ] final  -92.92 input  -60.11 | X-H torsion
[ 7974 7965 7964 7962 ] final  155.94 input  175.53 | X-H torsion
[ 8008 7997 7996 7995 ] final   78.49 input   59.86 | X-H torsion
[ 10167 10162 10161 10158 ] final  169.06 input  -65.29 | X-H torsion
[ 10718 10713 10712 10709 ] final  175.89 input   66.30 | X-H torsion
[ 10763 10752 10751 10750 ] final  145.47 input  -60.55 | X-H torsion
[ 11005 11000 10999 10996 ] final  -44.91 input  -57.11 | X-H torsion

> <Gold.Protein.ActiveResidues>
 VAL166  LYS551  ARG553  GLY616  TRP617  ASP618  TYR619  PRO620  LYS621  CYS622 
 ASP623  PHE694  ASN695  SER759  ASP760  ASP761  ALA762  ILE779  LEU786  VAL792 
 PHE793  MET794  SER795  GLU796  ALA797  LYS798  CYS799  TRP800  GLU811  SER814 

> <Gold.Protein.RotatedAtoms>
  150.6914  134.2048  159.4335 H   0  0  0  0  0  0  0  0  0  0  0  0  # atno 6907 bound_to 6896
  152.0012  134.9925  160.0574 H   0  0  0  0  0  0  0  0  0  0  0  0  # atno 6908 bound_to 6896
  152.1577  133.4526  159.4882 H   0  0  0  0  0  0  0  0  0  0  0  0  # atno 6909 bound_to 6896
  144.7993  139.7137  143.6188 H   0  0  0  0  0  0  0  0  0  0  0  0  # atno 7974 bound_to 7965
  155.8564  140.3456  155.5727 H   0  0  0  0  0  0  0  0  0  0  0  0  # atno 8008 bound_to 7997
  155.7981  140.0881  157.1992 H   0  0  0  0  0  0  0  0  0  0  0  0  # atno 8009 bound_to 7997
  154.4010  140.1470  156.3229 H   0  0  0  0  0  0  0  0  0  0  0  0  # atno 8010 bound_to 7997
  139.4983  144.3747  151.9687 H   0  0  0  0  0  0  0  0  0  0  0  0  # atno 10167 bound_to 10162
  156.9281  130.9962  151.2992 H   0  0  0  0  0  0  0  0  0  0  0  0  # atno 10718 bound_to 10713
  154.0059  135.2919  155.3397 H   0  0  0  0  0  0  0  0  0  0  0  0  # atno 10763 bound_to 10752
  154.7132  135.5141  153.8701 H   0  0  0  0  0  0  0  0  0  0  0  0  # atno 10764 bound_to 10752
  153.0745  135.6659  154.0296 H   0  0  0  0  0  0  0  0  0  0  0  0  # atno 10765 bound_to 10752
  141.0481  133.6753  156.2938 H   0  0  0  0  0  0  0  0  0  0  0  0  # atno 11005 bound_to 11000
  146.2270  139.5742  142.9580 LP  0  0  0  0  0  0  0  0  0  0  0  0  # atno 17320 bound_to 7965
  145.5593  141.0406  143.2235 LP  0  0  0  0  0  0  0  0  0  0  0  0  # atno 17321 bound_to 7965
  140.3183  144.3457  150.6016 LP  0  0  0  0  0  0  0  0  0  0  0  0  # atno 17342 bound_to 10162
  140.5743  143.2178  151.7543 LP  0  0  0  0  0  0  0  0  0  0  0  0  # atno 17343 bound_to 10162
  157.5864  130.8413  149.8596 LP  0  0  0  0  0  0  0  0  0  0  0  0  # atno 17370 bound_to 10713
  156.0459  130.3728  150.1318 LP  0  0  0  0  0  0  0  0  0  0  0  0  # atno 17371 bound_to 10713
  140.6108  134.5460  157.5533 LP  0  0  0  0  0  0  0  0  0  0  0  0  # atno 17394 bound_to 11000
  139.9328  134.7931  156.0884 LP  0  0  0  0  0  0  0  0  0  0  0  0  # atno 17395 bound_to 11000

$$$$
