AV-unprocessed.smi:73|AV-procd|sdf|759|dock9
  -GOLD-   2262017 93D 1   1.00000     0.00000
 Structure written by MMmdl.
 35 36  0  0  0  0  0  0  0  0  2 V2000
  152.0761  137.9154  155.5434 C   0  0  0  0  0  0  0  0  0  0  0  0
  150.7299  137.6917  156.2477 C   0  0  0  0  0  0  0  0  0  0  0  0
  150.1486  138.8114  157.0239 N   0  0  0  0  0  0  0  0  0  0  0  0
  148.7829  138.4283  157.4288 C   0  0  0  0  0  0  0  0  0  0  0  0
  148.7173  137.2150  158.3025 C   0  0  0  0  0  0  0  0  0  0  0  0
  149.2118  136.0022  158.0434 N   0  0  0  0  0  0  0  0  0  0  0  0
  148.8921  135.2271  159.1361 N   0  0  0  0  0  0  0  0  0  0  0  0
  148.2303  136.0317  159.9713 C   0  0  0  0  0  0  0  0  0  0  0  0
  147.6622  135.6841  161.3045 C   0  0  0  0  0  0  0  0  0  0  0  0
  148.0903  137.2992  159.5043 O   0  0  0  0  0  0  0  0  0  0  0  0
  150.1471  140.0833  156.2571 C   0  0  2  0  0  0  0  0  0  0  0  0
  149.3864  141.2452  156.9544 C   0  0  0  0  0  0  0  0  0  0  0  0
  148.3865  141.7840  156.0187 N   0  3  0  0  0  0  0  0  0  0  0  0
  148.8051  141.3945  154.6744 C   0  0  0  0  0  0  0  0  0  0  0  0
  149.4517  140.0280  154.8705 C   0  0  1  0  0  0  0  0  0  0  0  0
  150.3767  139.8062  153.8242 O   0  0  0  0  0  0  0  0  0  0  0  0
  148.6673  139.2695  154.8550 H   0  0  0  0  0  0  0  0  0  0  0  0
  152.4987  136.9592  155.2341 H   0  0  0  0  0  0  0  0  0  0  0  0
  152.8000  138.3892  156.2070 H   0  0  0  0  0  0  0  0  0  0  0  0
  151.9775  138.5130  154.6387 H   0  0  0  0  0  0  0  0  0  0  0  0
  150.0010  137.3292  155.5211 H   0  0  0  0  0  0  0  0  0  0  0  0
  150.9098  136.8470  156.9118 H   0  0  0  0  0  0  0  0  0  0  0  0
  148.3067  139.2175  158.0060 H   0  0  0  0  0  0  0  0  0  0  0  0
  148.1576  138.2703  156.5487 H   0  0  0  0  0  0  0  0  0  0  0  0
  147.4780  134.6116  161.3686 H   0  0  0  0  0  0  0  0  0  0  0  0
  146.7203  136.2103  161.4616 H   0  0  0  0  0  0  0  0  0  0  0  0
  148.3599  135.9691  162.0918 H   0  0  0  0  0  0  0  0  0  0  0  0
  151.1780  140.4074  156.1026 H   0  0  0  0  0  0  0  0  0  0  0  0
  148.8330  140.9292  157.8368 H   0  0  0  0  0  0  0  0  0  0  0  0
  150.0775  142.0368  157.2454 H   0  0  0  0  0  0  0  0  0  0  0  0
  147.5005  141.3394  156.2135 H   0  0  0  0  0  0  0  0  0  0  0  0
  147.9692  141.3763  153.9745 H   0  0  0  0  0  0  0  0  0  0  0  0
  149.5338  142.1257  154.3194 H   0  0  0  0  0  0  0  0  0  0  0  0
  149.9227  139.8762  152.9982 H   0  0  0  0  0  0  0  0  0  0  0  0
  148.2941  142.7860  156.1065 H   0  0  0  0  0  0  0  0  0  0  0  0
  1  2  1  0  0  0  0
  1 18  1  0  0  0  0
  1 19  1  0  0  0  0
  1 20  1  0  0  0  0
  2  3  1  0  0  0  0
  2 21  1  0  0  0  0
  2 22  1  0  0  0  0
  3  4  1  0  0  0  0
  3 11  1  0  0  0  0
  4  5  1  0  0  0  0
  4 23  1  0  0  0  0
  4 24  1  0  0  0  0
  5 10  1  0  0  0  0
  5  6  2  0  0  0  0
  6  7  1  0  0  0  0
  7  8  2  0  0  0  0
  8  9  1  0  0  0  0
  8 10  1  0  0  0  0
  9 25  1  0  0  0  0
  9 26  1  0  0  0  0
  9 27  1  0  0  0  0
 11 15  1  0  0  0  0
 11 12  1  0  0  0  0
 11 28  1  0  0  0  0
 12 13  1  0  0  0  0
 12 29  1  0  0  0  0
 12 30  1  0  0  0  0
 13 14  1  0  0  0  0
 13 31  1  0  0  0  0
 13 35  1  0  0  0  0
 14 15  1  0  0  0  0
 14 32  1  0  0  0  0
 14 33  1  0  0  0  0
 15 17  1  0  0  0  0
 15 16  1  0  0  0  0
 16 34  1  0  0  0  0
M  CHG  1  13   1
M  END
> <s_m_source_file>
AV-unprocessed.smi

> <i_m_source_file_index>
73

> <i_lp_mmshare_version>
43012

> <i_f3d_flags>
0

> <s_epik_input>
W09IXVtDQEBIXTFbQ0gyXVtOSF1bQ0gyXVtDQEhdMU4oW0NIMl1bQ0gzXSlbQ0gyXWMybm5jKG8yKVtDSDNd

> <s_epik_cmdline>
J2VwaWtfcHl0aG9uJywgJy1waCcsICc3LjAnLCAnLXRuJywgJzgnLCAnLW1hJywgJzIwMCcsICctbWV0YWxfYmluZGluZycsICctaW1hZScsICc8aW5maWxlLm1hZT4nLCAnLW9tYWUnLCAnPG91dGZpbGUubWFlPic=

> <r_lp_tautomer_probability>
1

> <r_epik_Ionization_Penalty>
0.00160433

> <r_epik_Ionization_Penalty_Charging>
0.000122314

> <r_epik_Ionization_Penalty_Neutral>
0.00148202

> <r_epik_State_Penalty>
-0

> <r_epik_Charging_Adjusted_Penalty>
0.000122314

> <i_epik_Tot_Q>
1

> <i_epik_Tot_abs_Q>
1

> <r_epik_Metal_State_Penalty>
-0

> <b_epik_Metal_Only>
0

> <s_lp_Force_Field>
OPLS_2005

> <r_lp_Energy>
42.0904

> <b_lp_Chiralities_Consistent>
1

> <s_lp_Variant>
AV-unprocessed.smi:73-1

> <Gold.Version>
5.8.1

> <Gold.Id.Protein>
6NUR|6NUR_protein|mol2

> <Gold.PLP.Fitness>
38.3107

> <Gold.PLP.PLP>
-22.8793

> <Gold.PLP.part.hbond>
-6.0000

> <Gold.PLP.part.metal>
0.0000

> <Gold.PLP.part.buried>
-4.3021

> <Gold.PLP.part.nonpolar>
-13.8556

> <Gold.PLP.part.repulsive>
0.0319

> <Gold.PLP.ligand.clash>
0.0000

> <Gold.PLP.ligand.torsion>
0.1277

> <Gold.PLP.Chemscore.Hbond>
5.2239

> <Gold.PLP.Chemscore.CHOScore>
0.0000

> <Gold.PLP.Chemscore.Metal>
0.0000

> <Gold.Chemscore.Hbonds>
donor molecule, donor type, donor heavy atom, donor atom, acceptor molecule, acceptor atom, score
      L1  H    13    35       P1  8028  1.85
      L1  H    16    34       P1  7957  1.00
      P1  H  6896  6907       L1     7  1.00
      P1  H  6934  6947       L1    10  0.05
      P1  H  7989  7998       L1    16  0.83

> <Gold.PLP.Chemscore.Internal.Correction>
0.0152

> <Gold.Rescore>
     Score         DG    S(hbond)    S(metal)    S(lipo)     H(rot)  DE(clash)    DE(int)     intcor
     14.50     -16.11       3.47        0.00      46.69       2.51       0.03       1.59       ----

> <Gold.Chemscore.Fitness>
14.4993

> <Gold.Chemscore.DG>
-16.1109

> <Gold.Chemscore.ZeroCoef>
-5.4800

> <Gold.Chemscore.Hbond>
3.4674

> <Gold.Chemscore.Metal>
0.0000

> <Gold.Chemscore.Lipo>
46.6911

> <Gold.Chemscore.Internal_Hbond>
0.0000

> <Gold.Chemscore.DEClash>
0.0255

> <Gold.Chemscore.DEInternal>
1.5861

> <Gold.Chemscore.Rot>
2.5051

> <Gold.Chemscore.Internal.Correction>
   9.000000E+99

> <Gold.Chemscore.Hbonds>
donor molecule, donor type, donor heavy atom, donor atom, acceptor molecule, acceptor atom, score
      L1  H    13    35       P1  8028  0.78
      L1  H    16    34       P1  7957  1.00
      P1  H  6896  6907       L1     7  0.25
      P1  H  6934  6947       L1    10  0.08
      P1  H  7989  7998       L1    16  0.14

> <Gold.Chemscore.Hbond.Weighted>
-11.5811

> <Gold.Chemscore.Metal.Weighted>
-0.0000

> <Gold.Chemscore.Lipo.Weighted>
-5.4629

> <Gold.Chemscore.Internal_Hbond.Weighted>
0.0000

> <Gold.Chemscore.DEClash.Weighted>
0.0255

> <Gold.Chemscore.DEInternal.Weighted>
1.5861

> <Gold.Chemscore.Rot.Weighted>
6.4131

> <Gold.Chemscore.Internal.Correction.Weighted>
   9.000000E+99

> <Gold.Protein.RotatedTorsions>
[ 6907 6896 6895 6894 ] final  -84.60 input  -60.11 | X-H torsion
[ 7974 7965 7964 7962 ] final  124.02 input  175.53 | X-H torsion
[ 8008 7997 7996 7995 ] final  166.40 input   59.86 | X-H torsion
[ 10167 10162 10161 10158 ] final  128.29 input  -65.29 | X-H torsion
[ 10718 10713 10712 10709 ] final  175.17 input   66.30 | X-H torsion
[ 10763 10752 10751 10750 ] final  112.88 input  -60.55 | X-H torsion
[ 11005 11000 10999 10996 ] final   46.39 input  -57.11 | X-H torsion

> <Gold.Protein.ActiveResidues>
 VAL166  LYS551  ARG553  GLY616  TRP617  ASP618  TYR619  PRO620  LYS621  CYS622 
 ASP623  PHE694  ASN695  SER759  ASP760  ASP761  ALA762  ILE779  LEU786  VAL792 
 PHE793  MET794  SER795  GLU796  ALA797  LYS798  CYS799  TRP800  GLU811  SER814 

> <Gold.Protein.RotatedAtoms>
  150.6875  134.3334  159.4836 H   0  0  0  0  0  0  0  0  0  0  0  0  # atno 6907 bound_to 6896
  152.1196  134.9213  160.0573 H   0  0  0  0  0  0  0  0  0  0  0  0  # atno 6908 bound_to 6896
  152.0424  133.3948  159.4379 H   0  0  0  0  0  0  0  0  0  0  0  0  # atno 6909 bound_to 6896
  145.0892  139.3599  143.4869 H   0  0  0  0  0  0  0  0  0  0  0  0  # atno 7974 bound_to 7965
  156.1721  140.1644  156.8428 H   0  0  0  0  0  0  0  0  0  0  0  0  # atno 8008 bound_to 7997
  154.5268  140.0765  156.8307 H   0  0  0  0  0  0  0  0  0  0  0  0  # atno 8009 bound_to 7997
  155.3489  140.3389  155.4241 H   0  0  0  0  0  0  0  0  0  0  0  0  # atno 8010 bound_to 7997
  139.5534  144.6831  151.4254 H   0  0  0  0  0  0  0  0  0  0  0  0  # atno 10167 bound_to 10162
  156.9388  130.9994  151.2972 H   0  0  0  0  0  0  0  0  0  0  0  0  # atno 10718 bound_to 10713
  153.4843  135.3672  155.2458 H   0  0  0  0  0  0  0  0  0  0  0  0  # atno 10763 bound_to 10752
  154.8754  135.3962  154.3663 H   0  0  0  0  0  0  0  0  0  0  0  0  # atno 10764 bound_to 10752
  153.4272  135.7081  153.6320 H   0  0  0  0  0  0  0  0  0  0  0  0  # atno 10765 bound_to 10752
  140.1373  134.4628  155.8476 H   0  0  0  0  0  0  0  0  0  0  0  0  # atno 11005 bound_to 11000
  146.3531  140.0718  142.8623 LP  0  0  0  0  0  0  0  0  0  0  0  0  # atno 17320 bound_to 7965
  145.1086  140.9391  143.4670 LP  0  0  0  0  0  0  0  0  0  0  0  0  # atno 17321 bound_to 7965
  140.6802  143.8099  150.7111 LP  0  0  0  0  0  0  0  0  0  0  0  0  # atno 17342 bound_to 10162
  140.1550  143.4325  152.2106 LP  0  0  0  0  0  0  0  0  0  0  0  0  # atno 17343 bound_to 10162
  157.5798  130.8369  149.8507 LP  0  0  0  0  0  0  0  0  0  0  0  0  # atno 17370 bound_to 10713
  156.0414  130.3738  150.1427 LP  0  0  0  0  0  0  0  0  0  0  0  0  # atno 17371 bound_to 10713
  141.2180  133.6819  156.7181 LP  0  0  0  0  0  0  0  0  0  0  0  0  # atno 17394 bound_to 11000
  140.2766  134.8350  157.3896 LP  0  0  0  0  0  0  0  0  0  0  0  0  # atno 17395 bound_to 11000

$$$$
