AV-unprocessed.smi:1010|AV-procd|sdf|4416|dock4
  -GOLD-   22720 2363D 1   1.00000     0.00000
 Structure written by MMmdl.
 56 58  0  0  0  0  0  0  0  0  3 V2000
  148.5776  139.6114  153.4692 C   0  0  0  0  0  0  0  0  0  0  0  0
  148.8135  138.2823  154.0887 N   0  3  0  0  0  0  0  0  0  0  0  0
  147.6268  137.8728  154.8854 C   0  0  0  0  0  0  0  0  0  0  0  0
  150.1474  138.0765  154.7690 C   0  0  0  0  0  0  0  0  0  0  0  0
  150.2221  136.5950  155.2631 C   0  0  0  0  0  0  0  0  0  0  0  0
  149.5870  135.6404  154.3539 N   0  0  0  0  0  0  0  0  0  0  0  0
  149.4199  134.3293  154.5773 C   0  0  0  0  0  0  0  0  0  0  0  0
  149.7631  133.7678  155.6166 O   0  0  0  0  0  0  0  0  0  0  0  0
  148.8452  133.7258  153.5240 N   0  0  0  0  0  0  0  0  0  0  0  0
  148.5185  132.3485  153.3660 C   0  0  0  0  0  0  0  0  0  0  0  0
  149.3383  131.3034  153.8643 C   0  0  0  0  0  0  0  0  0  0  0  0
  148.9420  129.9623  153.6928 C   0  0  0  0  0  0  0  0  0  0  0  0
  147.7292  129.6849  153.0359 C   0  0  0  0  0  0  0  0  0  0  0  0
  146.9646  130.7016  152.5861 N   0  3  0  0  0  0  0  0  0  0  0  0
  147.3005  132.0078  152.7236 C   0  0  0  0  0  0  0  0  0  0  0  0
  146.4318  132.9911  152.2189 N   0  0  0  0  0  0  0  0  0  0  0  0
  146.1808  132.9300  150.7884 C   0  0  0  0  0  0  0  0  0  0  0  0
  144.9508  133.8103  150.5529 C   0  0  0  0  0  0  0  0  0  0  0  0
  144.2531  133.8873  151.9167 C   0  0  0  0  0  0  0  0  0  0  0  0
  145.1258  133.0480  152.8536 C   0  0  0  0  0  0  0  0  0  0  0  0
  151.3419  138.3616  153.8049 C   0  0  0  0  0  0  0  0  0  0  0  0
  152.7070  138.3410  154.5148 C   0  0  0  0  0  0  0  0  0  0  0  0
  152.7063  139.3039  155.5600 O   0  0  0  0  0  0  0  0  0  0  0  0
  151.7392  139.0327  156.5655 C   0  0  0  0  0  0  0  0  0  0  0  0
  150.3176  139.0495  155.9688 C   0  0  0  0  0  0  0  0  0  0  0  0
  148.6817  140.4150  154.1989 H   0  0  0  0  0  0  0  0  0  0  0  0
  147.5714  139.6695  153.0527 H   0  0  0  0  0  0  0  0  0  0  0  0
  149.2581  139.7943  152.6377 H   0  0  0  0  0  0  0  0  0  0  0  0
  147.4183  138.5850  155.6848 H   0  0  0  0  0  0  0  0  0  0  0  0
  147.7395  136.8859  155.3300 H   0  0  0  0  0  0  0  0  0  0  0  0
  146.7439  137.8293  154.2470 H   0  0  0  0  0  0  0  0  0  0  0  0
  151.2536  136.2665  155.3706 H   0  0  0  0  0  0  0  0  0  0  0  0
  149.8078  136.4881  156.2654 H   0  0  0  0  0  0  0  0  0  0  0  0
  149.2764  136.0088  153.4661 H   0  0  0  0  0  0  0  0  0  0  0  0
  148.7043  134.2999  152.7053 H   0  0  0  0  0  0  0  0  0  0  0  0
  150.2594  131.5054  154.3890 H   0  0  0  0  0  0  0  0  0  0  0  0
  149.5584  129.1573  154.0661 H   0  0  0  0  0  0  0  0  0  0  0  0
  147.3470  128.6889  152.8637 H   0  0  0  0  0  0  0  0  0  0  0  0
  147.0426  133.2849  150.2224 H   0  0  0  0  0  0  0  0  0  0  0  0
  145.9720  131.9053  150.4779 H   0  0  0  0  0  0  0  0  0  0  0  0
  145.2534  134.8085  150.2341 H   0  0  0  0  0  0  0  0  0  0  0  0
  144.3044  133.3965  149.7782 H   0  0  0  0  0  0  0  0  0  0  0  0
  144.2176  134.9230  152.2568 H   0  0  0  0  0  0  0  0  0  0  0  0
  143.2291  133.5143  151.8811 H   0  0  0  0  0  0  0  0  0  0  0  0
  144.7079  132.0458  152.9589 H   0  0  0  0  0  0  0  0  0  0  0  0
  145.1899  133.4925  153.8473 H   0  0  0  0  0  0  0  0  0  0  0  0
  151.3464  137.6681  152.9636 H   0  0  0  0  0  0  0  0  0  0  0  0
  151.2641  139.3596  153.3744 H   0  0  0  0  0  0  0  0  0  0  0  0
  152.9588  137.3531  154.9001 H   0  0  0  0  0  0  0  0  0  0  0  0
  153.4937  138.6040  153.8076 H   0  0  0  0  0  0  0  0  0  0  0  0
  151.9603  138.0822  157.0517 H   0  0  0  0  0  0  0  0  0  0  0  0
  151.8223  139.7975  157.3379 H   0  0  0  0  0  0  0  0  0  0  0  0
  150.0971  140.0686  155.6488 H   0  0  0  0  0  0  0  0  0  0  0  0
  149.6082  138.8184  156.7637 H   0  0  0  0  0  0  0  0  0  0  0  0
  148.8320  137.6424  153.3074 H   0  0  0  0  0  0  0  0  0  0  0  0
  146.0871  130.4739  152.1179 H   0  0  0  0  0  0  0  0  0  0  0  0
  1  2  1  0  0  0  0
  1 26  1  0  0  0  0
  1 27  1  0  0  0  0
  1 28  1  0  0  0  0
  2  3  1  0  0  0  0
  2  4  1  0  0  0  0
  2 55  1  0  0  0  0
  3 29  1  0  0  0  0
  3 30  1  0  0  0  0
  3 31  1  0  0  0  0
  4 25  1  0  0  0  0
  4  5  1  0  0  0  0
  4 21  1  0  0  0  0
  5  6  1  0  0  0  0
  5 32  1  0  0  0  0
  5 33  1  0  0  0  0
  6  7  1  0  0  0  0
  6 34  1  0  0  0  0
  7  8  2  0  0  0  0
  7  9  1  0  0  0  0
  9 10  1  0  0  0  0
  9 35  1  0  0  0  0
 10 15  1  0  0  0  0
 10 11  2  0  0  0  0
 11 12  1  0  0  0  0
 11 36  1  0  0  0  0
 12 13  2  0  0  0  0
 12 37  1  0  0  0  0
 13 14  1  0  0  0  0
 13 38  1  0  0  0  0
 14 15  2  0  0  0  0
 14 56  1  0  0  0  0
 15 16  1  0  0  0  0
 16 20  1  0  0  0  0
 16 17  1  0  0  0  0
 17 18  1  0  0  0  0
 17 39  1  0  0  0  0
 17 40  1  0  0  0  0
 18 19  1  0  0  0  0
 18 41  1  0  0  0  0
 18 42  1  0  0  0  0
 19 20  1  0  0  0  0
 19 43  1  0  0  0  0
 19 44  1  0  0  0  0
 20 45  1  0  0  0  0
 20 46  1  0  0  0  0
 21 22  1  0  0  0  0
 21 47  1  0  0  0  0
 21 48  1  0  0  0  0
 22 23  1  0  0  0  0
 22 49  1  0  0  0  0
 22 50  1  0  0  0  0
 23 24  1  0  0  0  0
 24 25  1  0  0  0  0
 24 51  1  0  0  0  0
 24 52  1  0  0  0  0
 25 53  1  0  0  0  0
 25 54  1  0  0  0  0
M  CHG  1   2   1
M  CHG  1  14   1
M  END
> <s_m_source_file>
AV-unprocessed.smi

> <i_m_source_file_index>
1010

> <i_lp_mmshare_version>
43012

> <i_f3d_flags>
0

> <s_epik_input>
W0NIMl0xW0NIMl1PW0NIMl1bQ0gyXUMxKE4oW0NIM10pW0NIM10pW0NIMl1bTkhdQyg9TylbTkhdYzJbY0hdW2NIXVtjSF1uYzJOM1tDSDJdW0NIMl1bQ0gyXVtDSDJdMw==

> <s_epik_cmdline>
J2VwaWtfcHl0aG9uJywgJy1waCcsICc3LjAnLCAnLXRuJywgJzgnLCAnLW1hJywgJzIwMCcsICctbWV0YWxfYmluZGluZycsICctaW1hZScsICc8aW5maWxlLm1hZT4nLCAnLW9tYWUnLCAnPG91dGZpbGUubWFlPic=

> <r_lp_tautomer_probability>
0.999994

> <r_epik_Ionization_Penalty>
1.20932

> <r_epik_Ionization_Penalty_Charging>
1.2093

> <r_epik_Ionization_Penalty_Neutral>
2.0507e-05

> <r_epik_State_Penalty>
1.27047

> <r_epik_Charging_Adjusted_Penalty>
2.47977

> <i_epik_Tot_Q>
2

> <i_epik_Tot_abs_Q>
2

> <r_epik_Metal_State_Penalty>
1.34666

> <b_epik_Metal_Only>
0

> <s_lp_Force_Field>
OPLS_2005

> <r_lp_Energy>
72.2457

> <b_lp_Chiralities_Consistent>
1

> <s_lp_Variant>
AV-unprocessed.smi:1010-2

> <Gold.Version>
5.8.1

> <Gold.Id.Protein>
6NUR|6NUR_protein|mol2

> <Gold.PLP.Fitness>
47.2247

> <Gold.PLP.PLP>
-35.1692

> <Gold.PLP.part.hbond>
-4.9539

> <Gold.PLP.part.metal>
0.0000

> <Gold.PLP.part.buried>
-0.8410

> <Gold.PLP.part.nonpolar>
-30.0957

> <Gold.PLP.part.repulsive>
0.1877

> <Gold.PLP.ligand.clash>
0.0000

> <Gold.PLP.ligand.torsion>
0.7513

> <Gold.PLP.Chemscore.Hbond>
4.4634

> <Gold.PLP.Chemscore.CHOScore>
0.0000

> <Gold.PLP.Chemscore.Metal>
0.0000

> <Gold.Chemscore.Hbonds>
donor molecule, donor type, donor heavy atom, donor atom, acceptor molecule, acceptor atom, score
      L1  H     2    55       P1  7948  2.00
      L1  H     6    34       P1  7948  1.00
      L1  H     9    35       P1  7948  0.42
      P1  H  7997  8010       L1    23  1.00

> <Gold.PLP.Chemscore.Internal.Correction>
0.1678

> <Gold.Rescore>
     Score         DG    S(hbond)    S(metal)    S(lipo)     H(rot)  DE(clash)    DE(int)     intcor
     17.41     -21.33       2.73        0.00      93.30       1.63       2.45       1.47       ----

> <Gold.Chemscore.Fitness>
17.4062

> <Gold.Chemscore.DG>
-21.3286

> <Gold.Chemscore.ZeroCoef>
-5.4800

> <Gold.Chemscore.Hbond>
2.7287

> <Gold.Chemscore.Metal>
0.0000

> <Gold.Chemscore.Lipo>
93.2988

> <Gold.Chemscore.Internal_Hbond>
0.0000

> <Gold.Chemscore.DEClash>
2.4514

> <Gold.Chemscore.DEInternal>
1.4711

> <Gold.Chemscore.Rot>
1.6332

> <Gold.Chemscore.Internal.Correction>
   9.000000E+99

> <Gold.Chemscore.Hbonds>
donor molecule, donor type, donor heavy atom, donor atom, acceptor molecule, acceptor atom, score
      L1  H     2    55       P1  7948  0.95
      L1  H     6    34       P1  7948  0.74
      L1  H     9    35       P1  7948  0.02
      P1  H  7997  8010       L1    23  0.93

> <Gold.Chemscore.Hbond.Weighted>
-9.1137

> <Gold.Chemscore.Metal.Weighted>
-0.0000

> <Gold.Chemscore.Lipo.Weighted>
-10.9160

> <Gold.Chemscore.Internal_Hbond.Weighted>
0.0000

> <Gold.Chemscore.DEClash.Weighted>
2.4514

> <Gold.Chemscore.DEInternal.Weighted>
1.4711

> <Gold.Chemscore.Rot.Weighted>
4.1810

> <Gold.Chemscore.Internal.Correction.Weighted>
   9.000000E+99

> <Gold.Protein.RotatedTorsions>
[ 6907 6896 6895 6894 ] final   50.44 input  -60.11 | X-H torsion
[ 7974 7965 7964 7962 ] final  -68.05 input  175.53 | X-H torsion
[ 8008 7997 7996 7995 ] final   93.91 input   59.86 | X-H torsion
[ 10167 10162 10161 10158 ] final  -54.75 input  -65.29 | X-H torsion
[ 10718 10713 10712 10709 ] final -158.05 input   66.30 | X-H torsion
[ 10763 10752 10751 10750 ] final  123.05 input  -60.55 | X-H torsion
[ 11005 11000 10999 10996 ] final   17.82 input  -57.11 | X-H torsion

> <Gold.Protein.ActiveResidues>
 VAL166  LYS551  ARG553  GLY616  TRP617  ASP618  TYR619  PRO620  LYS621  CYS622 
 ASP623  PHE694  ASN695  SER759  ASP760  ASP761  ALA762  ILE779  LEU786  VAL792 
 PHE793  MET794  SER795  GLU796  ALA797  LYS798  CYS799  TRP800  GLU811  SER814 

> <Gold.Protein.RotatedAtoms>
  152.3018  134.7601  160.0355 H   0  0  0  0  0  0  0  0  0  0  0  0  # atno 6907 bound_to 6896
  151.8112  133.3377  159.3564 H   0  0  0  0  0  0  0  0  0  0  0  0  # atno 6908 bound_to 6896
  150.7277  134.5592  159.5878 H   0  0  0  0  0  0  0  0  0  0  0  0  # atno 6909 bound_to 6896
  145.7214  140.9037  143.0628 H   0  0  0  0  0  0  0  0  0  0  0  0  # atno 7974 bound_to 7965
  156.0520  140.3307  155.7362 H   0  0  0  0  0  0  0  0  0  0  0  0  # atno 8008 bound_to 7997
  155.5587  140.0617  157.2851 H   0  0  0  0  0  0  0  0  0  0  0  0  # atno 8009 bound_to 7997
  154.4440  140.1881  156.0748 H   0  0  0  0  0  0  0  0  0  0  0  0  # atno 8010 bound_to 7997
  140.6413  143.2509  151.4981 H   0  0  0  0  0  0  0  0  0  0  0  0  # atno 10167 bound_to 10162
  156.5487  130.8596  151.2773 H   0  0  0  0  0  0  0  0  0  0  0  0  # atno 10718 bound_to 10713
  153.6395  135.3382  155.3067 H   0  0  0  0  0  0  0  0  0  0  0  0  # atno 10763 bound_to 10752
  154.8563  135.4315  154.2020 H   0  0  0  0  0  0  0  0  0  0  0  0  # atno 10764 bound_to 10752
  153.2935  135.7019  153.7344 H   0  0  0  0  0  0  0  0  0  0  0  0  # atno 10765 bound_to 10752
  140.4317  134.1413  155.7681 H   0  0  0  0  0  0  0  0  0  0  0  0  # atno 11005 bound_to 11000
  144.6916  139.9207  143.7467 LP  0  0  0  0  0  0  0  0  0  0  0  0  # atno 17320 bound_to 7965
  146.0622  139.3615  143.0574 LP  0  0  0  0  0  0  0  0  0  0  0  0  # atno 17321 bound_to 7965
  139.5622  144.2128  152.1709 LP  0  0  0  0  0  0  0  0  0  0  0  0  # atno 17342 bound_to 10162
  140.1399  144.5211  150.6750 LP  0  0  0  0  0  0  0  0  0  0  0  0  # atno 17343 bound_to 10162
  157.7391  130.9826  150.2296 LP  0  0  0  0  0  0  0  0  0  0  0  0  # atno 17370 bound_to 10713
  156.2904  130.3745  149.7847 LP  0  0  0  0  0  0  0  0  0  0  0  0  # atno 17371 bound_to 10713
  141.1742  133.8547  157.1473 LP  0  0  0  0  0  0  0  0  0  0  0  0  # atno 17394 bound_to 11000
  140.0129  134.9980  157.0434 LP  0  0  0  0  0  0  0  0  0  0  0  0  # atno 17395 bound_to 11000

$$$$
