AV-unprocessed.smi:1289|AV-procd|sdf|5388|dock8
  -GOLD-   22720 4543D 1   1.00000     0.00000
 Structure written by MMmdl.
 38 40  0  0  0  0  0  0  0  0  2 V2000
  142.9756  146.1096  153.7301 N   0  0  0  0  0  0  0  0  0  0  0  0
  143.7553  145.3039  154.0157 C   0  0  0  0  0  0  0  0  0  0  0  0
  144.7346  144.2916  154.3741 C   0  0  0  0  0  0  0  0  0  0  0  0
  144.7675  143.7703  155.6822 C   0  0  0  0  0  0  0  0  0  0  0  0
  145.7213  142.7937  156.0279 C   0  0  0  0  0  0  0  0  0  0  0  0
  146.6521  142.3241  155.0787 C   0  0  0  0  0  0  0  0  0  0  0  0
  147.5544  141.3733  155.5051 O   0  0  0  0  0  0  0  0  0  0  0  0
  148.6793  141.0954  154.6815 C   0  0  0  0  0  0  0  0  0  0  0  0
  149.7854  140.4662  155.5415 C   0  0  1  0  0  0  0  0  0  0  0  0
  150.7880  139.9646  154.6799 O   0  0  0  0  0  0  0  0  0  0  0  0
  150.3944  141.4739  156.5373 C   0  0  0  0  0  0  0  0  0  0  0  0
  151.2545  140.8366  157.5444 N   0  0  0  0  0  0  0  0  0  0  0  0
  151.5775  139.5246  157.7041 C   0  0  0  0  0  0  0  0  0  0  0  0
  152.4015  139.4315  158.7844 N   0  3  0  0  0  0  0  0  0  0  0  0
  152.6101  140.7030  159.3228 C   0  0  0  0  0  0  0  0  0  0  0  0
  153.3660  141.1165  160.4155 C   0  0  0  0  0  0  0  0  0  0  0  0
  153.3694  142.4986  160.6963 C   0  0  0  0  0  0  0  0  0  0  0  0
  152.6422  143.4108  159.9044 C   0  0  0  0  0  0  0  0  0  0  0  0
  151.8785  142.9802  158.7996 C   0  0  0  0  0  0  0  0  0  0  0  0
  151.8779  141.6119  158.5295 C   0  0  0  0  0  0  0  0  0  0  0  0
  146.6085  142.8492  153.7621 C   0  0  0  0  0  0  0  0  0  0  0  0
  145.6565  143.8278  153.4149 C   0  0  0  0  0  0  0  0  0  0  0  0
  144.0651  144.1163  156.4270 H   0  0  0  0  0  0  0  0  0  0  0  0
  145.7397  142.4020  157.0344 H   0  0  0  0  0  0  0  0  0  0  0  0
  148.3826  140.4019  153.8926 H   0  0  0  0  0  0  0  0  0  0  0  0
  149.0521  142.0059  154.2091 H   0  0  0  0  0  0  0  0  0  0  0  0
  149.3735  139.6179  156.0895 H   0  0  0  0  0  0  0  0  0  0  0  0
  150.4061  139.2948  154.1330 H   0  0  0  0  0  0  0  0  0  0  0  0
  150.9584  142.2507  156.0207 H   0  0  0  0  0  0  0  0  0  0  0  0
  149.5988  141.9874  157.0782 H   0  0  0  0  0  0  0  0  0  0  0  0
  151.2400  138.7051  157.0861 H   0  0  0  0  0  0  0  0  0  0  0  0
  153.9259  140.4204  161.0227 H   0  0  0  0  0  0  0  0  0  0  0  0
  153.9429  142.8670  161.5345 H   0  0  0  0  0  0  0  0  0  0  0  0
  152.6715  144.4629  160.1480 H   0  0  0  0  0  0  0  0  0  0  0  0
  151.3305  143.6889  158.1964 H   0  0  0  0  0  0  0  0  0  0  0  0
  147.2959  142.5193  152.9983 H   0  0  0  0  0  0  0  0  0  0  0  0
  145.6403  144.2195  152.4080 H   0  0  0  0  0  0  0  0  0  0  0  0
  152.7915  138.5625  159.1264 H   0  0  0  0  0  0  0  0  0  0  0  0
  1  2  3  0  0  0  0
  2  3  1  0  0  0  0
  3 22  1  0  0  0  0
  3  4  2  0  0  0  0
  4  5  1  0  0  0  0
  4 23  1  0  0  0  0
  5  6  2  0  0  0  0
  5 24  1  0  0  0  0
  6  7  1  0  0  0  0
  6 21  1  0  0  0  0
  7  8  1  0  0  0  0
  8  9  1  0  0  0  0
  8 25  1  0  0  0  0
  8 26  1  0  0  0  0
  9 10  1  0  0  0  0
  9 11  1  0  0  0  0
  9 27  1  0  0  0  0
 10 28  1  0  0  0  0
 11 12  1  0  0  0  0
 11 29  1  0  0  0  0
 11 30  1  0  0  0  0
 12 20  1  0  0  0  0
 12 13  1  0  0  0  0
 13 14  2  0  0  0  0
 13 31  1  0  0  0  0
 14 15  1  0  0  0  0
 14 38  1  0  0  0  0
 15 20  2  0  0  0  0
 15 16  1  0  0  0  0
 16 17  2  0  0  0  0
 16 32  1  0  0  0  0
 17 18  1  0  0  0  0
 17 33  1  0  0  0  0
 18 19  2  0  0  0  0
 18 34  1  0  0  0  0
 19 20  1  0  0  0  0
 19 35  1  0  0  0  0
 21 22  2  0  0  0  0
 21 36  1  0  0  0  0
 22 37  1  0  0  0  0
M  CHG  1  14   1
M  END
> <s_m_source_file>
AV-unprocessed.smi

> <i_m_source_file_index>
1289

> <i_lp_mmshare_version>
43012

> <i_f3d_flags>
0

> <s_epik_input>
TiNDYzFbY0hdW2NIXWMoW2NIXVtjSF0xKU9bQ0gyXVtDQEhdKFtPSF0pW0NIMl1uKFtjSF1uMiljKGMyMylbY0hdW2NIXVtjSF1bY0hdMw==

> <s_epik_cmdline>
J2VwaWtfcHl0aG9uJywgJy1waCcsICc3LjAnLCAnLXRuJywgJzgnLCAnLW1hJywgJzIwMCcsICctbWV0YWxfYmluZGluZycsICctaW1hZScsICc8aW5maWxlLm1hZT4nLCAnLW9tYWUnLCAnPG91dGZpbGUubWFlPic=

> <r_epik_Ionization_Penalty>
1.39523

> <r_epik_Ionization_Penalty_Charging>
1.39523

> <r_epik_Ionization_Penalty_Neutral>
2.3993e-06

> <r_epik_State_Penalty>
1.47691

> <r_epik_Charging_Adjusted_Penalty>
2.87215

> <i_epik_Tot_Q>
1

> <i_epik_Tot_abs_Q>
1

> <r_epik_Metal_State_Penalty>
5.51858

> <b_epik_Metal_Only>
0

> <s_lp_Force_Field>
OPLS_2005

> <r_lp_Energy>
20.386

> <b_lp_Chiralities_Consistent>
1

> <s_lp_Variant>
AV-unprocessed.smi:1289-4

> <Gold.Version>
5.8.1

> <Gold.Id.Protein>
6NUR|6NUR_protein|mol2

> <Gold.PLP.Fitness>
50.9869

> <Gold.PLP.PLP>
-48.7155

> <Gold.PLP.part.hbond>
-2.0000

> <Gold.PLP.part.metal>
0.0000

> <Gold.PLP.part.buried>
-8.9037

> <Gold.PLP.part.nonpolar>
-38.2368

> <Gold.PLP.part.repulsive>
0.2466

> <Gold.PLP.ligand.clash>
0.0000

> <Gold.PLP.ligand.torsion>
0.3838

> <Gold.PLP.Chemscore.Hbond>
1.0000

> <Gold.PLP.Chemscore.CHOScore>
0.0000

> <Gold.PLP.Chemscore.Metal>
0.0000

> <Gold.Chemscore.Hbonds>
donor molecule, donor type, donor heavy atom, donor atom, acceptor molecule, acceptor atom, score
      P1  H  7989  7998       L1    10  1.00

> <Gold.PLP.Chemscore.Internal.Correction>
0.0390

> <Gold.Rescore>
     Score         DG    S(hbond)    S(metal)    S(lipo)     H(rot)  DE(clash)    DE(int)     intcor
     14.75     -15.20       0.94        0.00     112.83       2.58       0.01       0.45       ----

> <Gold.Chemscore.Fitness>
14.7465

> <Gold.Chemscore.DG>
-15.2036

> <Gold.Chemscore.ZeroCoef>
-5.4800

> <Gold.Chemscore.Hbond>
0.9361

> <Gold.Chemscore.Metal>
0.0000

> <Gold.Chemscore.Lipo>
112.8333

> <Gold.Chemscore.Internal_Hbond>
0.0000

> <Gold.Chemscore.DEClash>
0.0106

> <Gold.Chemscore.DEInternal>
0.4465

> <Gold.Chemscore.Rot>
2.5798

> <Gold.Chemscore.Internal.Correction>
   9.000000E+99

> <Gold.Chemscore.Hbonds>
donor molecule, donor type, donor heavy atom, donor atom, acceptor molecule, acceptor atom, score
      P1  H  7989  7998       L1    10  0.26

> <Gold.Chemscore.Hbond.Weighted>
-3.1264

> <Gold.Chemscore.Metal.Weighted>
-0.0000

> <Gold.Chemscore.Lipo.Weighted>
-13.2015

> <Gold.Chemscore.Internal_Hbond.Weighted>
0.0000

> <Gold.Chemscore.DEClash.Weighted>
0.0106

> <Gold.Chemscore.DEInternal.Weighted>
0.4465

> <Gold.Chemscore.Rot.Weighted>
6.6043

> <Gold.Chemscore.Internal.Correction.Weighted>
   9.000000E+99

> <Gold.Protein.RotatedTorsions>
[ 6907 6896 6895 6894 ] final -153.57 input  -60.11 | X-H torsion
[ 7974 7965 7964 7962 ] final  -92.79 input  175.53 | X-H torsion
[ 8008 7997 7996 7995 ] final   99.44 input   59.86 | X-H torsion
[ 10167 10162 10161 10158 ] final  129.27 input  -65.29 | X-H torsion
[ 10718 10713 10712 10709 ] final  170.14 input   66.30 | X-H torsion
[ 10763 10752 10751 10750 ] final  120.44 input  -60.55 | X-H torsion
[ 11005 11000 10999 10996 ] final -128.12 input  -57.11 | X-H torsion

> <Gold.Protein.ActiveResidues>
 VAL166  LYS551  ARG553  GLY616  TRP617  ASP618  TYR619  PRO620  LYS621  CYS622 
 ASP623  PHE694  ASN695  SER759  ASP760  ASP761  ALA762  ILE779  LEU786  VAL792 
 PHE793  MET794  SER795  GLU796  ALA797  LYS798  CYS799  TRP800  GLU811  SER814 

> <Gold.Protein.RotatedAtoms>
  151.2445  133.4382  159.2608 H   0  0  0  0  0  0  0  0  0  0  0  0  # atno 6907 bound_to 6896
  151.0674  134.9777  159.8302 H   0  0  0  0  0  0  0  0  0  0  0  0  # atno 6908 bound_to 6896
  152.5407  134.2392  159.8908 H   0  0  0  0  0  0  0  0  0  0  0  0  # atno 6909 bound_to 6896
  145.3952  140.9532  143.2318 H   0  0  0  0  0  0  0  0  0  0  0  0  # atno 7974 bound_to 7965
  156.1105  140.3229  155.8065 H   0  0  0  0  0  0  0  0  0  0  0  0  # atno 8008 bound_to 7997
  155.4682  140.0544  157.3000 H   0  0  0  0  0  0  0  0  0  0  0  0  # atno 8009 bound_to 7997
  154.4756  140.2031  155.9900 H   0  0  0  0  0  0  0  0  0  0  0  0  # atno 8010 bound_to 7997
  139.5486  144.6794  151.4394 H   0  0  0  0  0  0  0  0  0  0  0  0  # atno 10167 bound_to 10162
  157.0125  131.0208  151.2799 H   0  0  0  0  0  0  0  0  0  0  0  0  # atno 10718 bound_to 10713
  153.5986  135.3452  155.2937 H   0  0  0  0  0  0  0  0  0  0  0  0  # atno 10763 bound_to 10752
  154.8640  135.4222  154.2438 H   0  0  0  0  0  0  0  0  0  0  0  0  # atno 10764 bound_to 10752
  153.3261  135.7041  153.7059 H   0  0  0  0  0  0  0  0  0  0  0  0  # atno 10765 bound_to 10752
  140.9543  134.1023  157.4032 H   0  0  0  0  0  0  0  0  0  0  0  0  # atno 11005 bound_to 11000
  144.8412  139.5469  143.6899 LP  0  0  0  0  0  0  0  0  0  0  0  0  # atno 17320 bound_to 7965
  146.2778  139.6799  142.9250 LP  0  0  0  0  0  0  0  0  0  0  0  0  # atno 17321 bound_to 7965
  140.6742  143.8227  150.7037 LP  0  0  0  0  0  0  0  0  0  0  0  0  # atno 17342 bound_to 10162
  140.1660  143.4235  152.2034 LP  0  0  0  0  0  0  0  0  0  0  0  0  # atno 17343 bound_to 10162
  157.5310  130.8058  149.7917 LP  0  0  0  0  0  0  0  0  0  0  0  0  # atno 17370 bound_to 10713
  156.0131  130.3825  150.2199 LP  0  0  0  0  0  0  0  0  0  0  0  0  # atno 17371 bound_to 10713
  139.8857  135.0075  156.6452 LP  0  0  0  0  0  0  0  0  0  0  0  0  # atno 17394 bound_to 11000
  140.7559  133.8858  155.8381 LP  0  0  0  0  0  0  0  0  0  0  0  0  # atno 17395 bound_to 11000

$$$$
