#       Name:                AV-unprocessed.smi:2362
#       Creating user name   scv26
#       Creation time:       Fri Mar 27 13:05:02 2020


#       File generated by GOLD software.
#

@<TRIPOS>MOLECULE
AV-unprocessed.smi:2362
    48    49     1
SMALL
NO_CHARGES


@<TRIPOS>ATOM
      1 ****        -5.7724   3.2419  -0.8188 C.3            1 S1                 0.0000
      2 ****        -4.6051   2.3046  -1.0480 C.ar           1 S1                 0.0000
      3 ****        -4.7923   1.0297  -1.6152 C.ar           1 S1                 0.0000
      4 ****        -3.6704   0.1996  -1.8036 C.ar           1 S1                 0.0000
      5 ****        -2.3908   0.6623  -1.4228 C.ar           1 S1                 0.0000
      6 ****        -1.3273  -0.2517  -1.6510 N.am           1 S1                 0.0000
      7 ****        -0.0173  -0.0768  -1.4040 C.2            1 S1                 0.0000
      8 ****         0.4924   0.9522  -0.9601 O.2            1 S1                 0.0000
      9 ****         0.6869  -1.1824  -1.6922 N.am           1 S1                 0.0000
     10 ****         2.1375  -1.3329  -1.5632 C.3            1 S1                 0.0000
     11 ****         2.6468  -2.2519  -2.6818 C.3            1 S1                 0.0000
     12 ****         2.5301  -1.8783  -0.1700 C.3            1 S1                 0.0000
     13 ****         2.0775  -1.0114   0.9484 N.4            1 S1                 1.0000
     14 ****         1.8669  -1.7640   2.2118 C.3            1 S1                 0.0000
     15 ****         1.2457  -0.8634   3.2934 C.3            1 S1                 0.0000
     16 ****         2.1057   0.3844   3.5336 C.3            1 S1                 0.0000
     17 ****         2.3425   1.1212   2.2088 C.3            1 S1                 0.0000
     18 ****         2.9464   0.1772   1.1562 C.3            1 S1                 0.0000
     19 ****        -2.2209   1.8916  -0.8751 N.ar           1 S1                 0.0000
     20 ****        -3.2965   2.6868  -0.6952 C.ar           1 S1                 0.0000
     21 ****        -6.7049   2.8119  -1.1859 H              1 S1                 0.0000
     22 ****        -5.6061   4.1870  -1.3362 H              1 S1                 0.0000
     23 ****        -5.8869   3.4480   0.2455 H              1 S1                 0.0000
     24 ****        -5.7765   0.6893  -1.9020 H              1 S1                 0.0000
     25 ****        -3.7972  -0.7817  -2.2374 H              1 S1                 0.0000
     26 ****        -1.5993  -1.1450  -2.0343 H              1 S1                 0.0000
     27 ****         0.1824  -1.9797  -2.0524 H              1 S1                 0.0000
     28 ****         2.6110  -0.3623  -1.7169 H              1 S1                 0.0000
     29 ****         3.7324  -2.3479  -2.6453 H              1 S1                 0.0000
     30 ****         2.3864  -1.8576  -3.6648 H              1 S1                 0.0000
     31 ****         2.2223  -3.2532  -2.6006 H              1 S1                 0.0000
     32 ****         2.0847  -2.8684  -0.0602 H              1 S1                 0.0000
     33 ****         3.6093  -2.0252  -0.1026 H              1 S1                 0.0000
     34 ****         1.2034  -2.6106   2.0317 H              1 S1                 0.0000
     35 ****         2.8179  -2.1719   2.5576 H              1 S1                 0.0000
     36 ****         0.2430  -0.5625   2.9864 H              1 S1                 0.0000
     37 ****         1.1303  -1.4212   4.2232 H              1 S1                 0.0000
     38 ****         1.6200   1.0457   4.2518 H              1 S1                 0.0000
     39 ****         3.0620   0.0948   3.9710 H              1 S1                 0.0000
     40 ****         1.3990   1.5254   1.8388 H              1 S1                 0.0000
     41 ****         3.0030   1.9739   2.3689 H              1 S1                 0.0000
     42 ****         3.9409  -0.1459   1.4679 H              1 S1                 0.0000
     43 ****         3.0717   0.7226   0.2213 H              1 S1                 0.0000
     44 ****        -3.1055   3.6552  -0.2561 H              1 S1                 0.0000
     45 ****         1.1691  -0.6606   0.6790 H              1 S1                 0.0000
     46 ****        -0.0807   1.7452  -0.7535 LP             1 S1                 0.0000
     47 ****         1.4796   0.9951  -0.8062 LP             1 S1                 0.0000
     48 ****        -1.3096   2.2049  -0.6078 LP             1 S1                 0.0000
@<TRIPOS>BOND
    1    1    2 1     
    2    1   21 1     
    3    1   22 1     
    4    1   23 1     
    5    2   20 ar    
    6    2    3 ar    
    7    3    4 ar    
    8    3   24 1     
    9    4    5 ar    
   10    4   25 1     
   11    5    6 1     
   12    5   19 ar    
   13    6    7 am    
   14    6   26 1     
   15    7    8 2     
   16    7    9 am    
   17    9   10 1     
   18    9   27 1     
   19   10   11 1     
   20   10   12 1     
   21   10   28 1     
   22   11   29 1     
   23   11   30 1     
   24   11   31 1     
   25   12   13 1     
   26   12   32 1     
   27   12   33 1     
   28   13   18 1     
   29   13   14 1     
   30   13   45 1     
   31   14   15 1     
   32   14   34 1     
   33   14   35 1     
   34   15   16 1     
   35   15   36 1     
   36   15   37 1     
   37   16   17 1     
   38   16   38 1     
   39   16   39 1     
   40   17   18 1     
   41   17   40 1     
   42   17   41 1     
   43   18   42 1     
   44   18   43 1     
   45   19   20 ar    
   46   20   44 1     
   47    8   46 1     
   48    8   47 1     
   49   19   48 1     
@<TRIPOS>SUBSTRUCTURE
      1 S1             1
@<TRIPOS>SET
LONE_PAIRS      STATIC     ATOMS    <user>   **** ""
3 46 47 48
DONOR_HYDROGENS      STATIC     ATOMS    <user>   **** ""
3 26 27 45
ATOM$BLUE        STATIC     ATOMS    COLORGROUP SYSTEM
3 46 47 48
ATOM$RED        STATIC     ATOMS    COLORGROUP SYSTEM
3 26 27 45
