#       Name:                AV-unprocessed.smi:609
#       Creating user name   scv26
#       Creation time:       Thu Mar 26 23:57:10 2020


#       File generated by GOLD software.
#

@<TRIPOS>MOLECULE
AV-unprocessed.smi:609
    46    48     1
SMALL
NO_CHARGES


@<TRIPOS>ATOM
      1 ****        -4.0172   2.8397  -0.8025 C.3            1 S1                 0.0000
      2 ****        -3.2822   1.7475  -0.0441 C.ar           1 S1                 0.0000
      3 ****        -3.0521   1.9244   1.3389 C.ar           1 S1                 0.0000
      4 ****        -2.3718   0.9111   2.0037 C.ar           1 S1                 0.0000
      5 ****        -1.9919   0.7909   3.3420 N.pl3          1 S1                 1.0000
      6 ****        -1.3342  -0.3874   3.5238 C.2            1 S1                 0.0000
      7 ****        -1.2874  -1.0217   2.3208 N.pl3          1 S1                 0.0000
      8 ****        -0.6943  -2.3207   1.9733 C.3            1 S1                 0.0000
      9 ****         0.8220  -2.2392   1.7061 C.3            1 S1                 0.0000
     10 ****         1.2858  -3.5517   1.4666 O.3            1 S1                 0.0000
     11 ****         1.2004  -1.3458   0.5098 C.3            1 S1                 0.0000
     12 ****         2.9976  -1.2045   0.2960 S.3            1 S1                 0.0000
     13 ****         3.2317  -0.2254  -1.1566 C.2            1 S1                 0.0000
     14 ****         2.2637   0.2394  -1.9521 N.pl3          1 S1                 1.0000
     15 ****         2.8125   0.9549  -2.9825 C.2            1 S1                 0.0000
     16 ****         4.1725   0.9213  -2.8009 C.2            1 S1                 0.0000
     17 ****         4.4015   0.1848  -1.6663 N.pl3          1 S1                 0.0000
     18 ****         5.6985  -0.1306  -1.0662 C.3            1 S1                 0.0000
     19 ****        -1.9282  -0.2511   1.3427 C.ar           1 S1                 0.0000
     20 ****        -2.1523  -0.4434  -0.0188 C.ar           1 S1                 0.0000
     21 ****        -2.8378   0.5782  -0.7141 C.ar           1 S1                 0.0000
     22 ****        -3.0890   0.3987  -2.2016 C.3            1 S1                 0.0000
     23 ****        -4.3023   3.6606  -0.1439 H              1 S1                 0.0000
     24 ****        -4.9273   2.4464  -1.2557 H              1 S1                 0.0000
     25 ****        -3.3858   3.2492  -1.5914 H              1 S1                 0.0000
     26 ****        -3.3887   2.8111   1.8563 H              1 S1                 0.0000
     27 ****        -0.9241  -0.7528   4.4545 H              1 S1                 0.0000
     28 ****        -0.8856  -2.9892   2.8140 H              1 S1                 0.0000
     29 ****        -1.2254  -2.7469   1.1220 H              1 S1                 0.0000
     30 ****         1.3193  -1.8683   2.6033 H              1 S1                 0.0000
     31 ****         2.2269  -3.5279   1.3801 H              1 S1                 0.0000
     32 ****         0.7608  -1.7370  -0.4085 H              1 S1                 0.0000
     33 ****         0.8111  -0.3376   0.6483 H              1 S1                 0.0000
     34 ****         2.2108   1.4224  -3.7483 H              1 S1                 0.0000
     35 ****         4.9732   1.3561  -3.3817 H              1 S1                 0.0000
     36 ****         6.4953   0.3108  -1.6654 H              1 S1                 0.0000
     37 ****         5.8275  -1.2129  -1.0335 H              1 S1                 0.0000
     38 ****         5.7367   0.2779  -0.0559 H              1 S1                 0.0000
     39 ****        -1.8160  -1.3322  -0.5315 H              1 S1                 0.0000
     40 ****        -2.7047  -0.5571  -2.5590 H              1 S1                 0.0000
     41 ****        -2.5988   1.1890  -2.7706 H              1 S1                 0.0000
     42 ****        -4.1574   0.4278  -2.4166 H              1 S1                 0.0000
     43 ****         1.2740   0.0808  -1.8132 H              1 S1                 0.0000
     44 ****        -2.1683   1.4612   4.0796 H              1 S1                 0.0000
     45 ****         0.8789  -3.9043   0.6239 LP             1 S1                 0.0000
     46 ****         1.0327  -4.1434   2.2320 LP             1 S1                 0.0000
@<TRIPOS>BOND
    1    1    2 1     
    2    1   23 1     
    3    1   24 1     
    4    1   25 1     
    5    2   21 ar    
    6    2    3 ar    
    7    3    4 ar    
    8    3   26 1     
    9    4   19 ar    
   10    4    5 1     
   11    5    6 2     
   12    5   44 1     
   13    6    7 1     
   14    6   27 1     
   15    7    8 1     
   16    7   19 1     
   17    8    9 1     
   18    8   28 1     
   19    8   29 1     
   20    9   10 1     
   21    9   11 1     
   22    9   30 1     
   23   10   31 1     
   24   11   12 1     
   25   11   32 1     
   26   11   33 1     
   27   12   13 1     
   28   13   17 1     
   29   13   14 2     
   30   14   15 1     
   31   14   43 1     
   32   15   16 2     
   33   15   34 1     
   34   16   17 1     
   35   16   35 1     
   36   17   18 1     
   37   18   36 1     
   38   18   37 1     
   39   18   38 1     
   40   19   20 ar    
   41   20   21 ar    
   42   20   39 1     
   43   21   22 1     
   44   22   40 1     
   45   22   41 1     
   46   22   42 1     
   47   10   45 1     
   48   10   46 1     
@<TRIPOS>SUBSTRUCTURE
      1 S1             1
@<TRIPOS>SET
LONE_PAIRS      STATIC     ATOMS    <user>   **** ""
2 45 46
DONOR_HYDROGENS      STATIC     ATOMS    <user>   **** ""
3 44 31 43
ATOM$BLUE        STATIC     ATOMS    COLORGROUP SYSTEM
2 45 46
ATOM$RED        STATIC     ATOMS    COLORGROUP SYSTEM
3 44 31 43
