AV-unprocessed.smi:844|AV-procd|sdf|3923|dock6
  -GOLD-   22720 1383D 1   1.00000     0.00000
 Structure written by MMmdl.
 32 34  0  0  0  0  0  0  0  0  1 V2000
  151.2378  144.1785  157.3876 O   0  0  0  0  0  0  0  0  0  0  0  0
  151.4926  142.8955  157.9230 C   0  0  2  0  0  0  0  0  0  0  0  0
  150.2083  142.0550  157.7845 C   0  0  0  0  0  0  0  0  0  0  0  0
  150.1179  141.4023  156.4912 N   0  0  0  0  0  0  0  0  0  0  0  0
  151.0628  140.6535  155.8902 C   0  0  0  0  0  0  0  0  0  0  0  0
  150.7744  140.1565  154.6908 N   0  0  0  0  0  0  0  0  0  0  0  0
  149.4910  140.6358  154.4912 C   0  0  0  0  0  0  0  0  0  0  0  0
  148.6079  140.4674  153.4006 C   0  0  0  0  0  0  0  0  0  0  0  0
  147.3281  141.0604  153.4194 C   0  0  0  0  0  0  0  0  0  0  0  0
  146.9121  141.8292  154.5261 C   0  0  0  0  0  0  0  0  0  0  0  0
  147.7744  142.0110  155.6243 C   0  0  0  0  0  0  0  0  0  0  0  0
  149.0501  141.4176  155.6013 C   0  0  0  0  0  0  0  0  0  0  0  0
  151.9880  142.9584  159.3639 C   0  0  0  0  0  0  0  0  0  0  0  0
  152.7883  141.9183  159.8872 C   0  0  0  0  0  0  0  0  0  0  0  0
  153.2636  141.9821  161.2112 C   0  0  0  0  0  0  0  0  0  0  0  0
  152.9445  143.0882  162.0212 C   0  0  0  0  0  0  0  0  0  0  0  0
  153.4026  143.1504  163.2938 F   0  0  0  0  0  0  0  0  0  0  0  0
  152.1512  144.1306  161.5055 C   0  0  0  0  0  0  0  0  0  0  0  0
  151.6745  144.0688  160.1815 C   0  0  0  0  0  0  0  0  0  0  0  0
  150.9218  145.0868  159.6987 F   0  0  0  0  0  0  0  0  0  0  0  0
  150.4502  144.1345  156.8669 H   0  0  0  0  0  0  0  0  0  0  0  0
  152.2711  142.4589  157.2966 H   0  0  0  0  0  0  0  0  0  0  0  0
  150.1532  141.2979  158.5683 H   0  0  0  0  0  0  0  0  0  0  0  0
  149.3278  142.6887  157.8998 H   0  0  0  0  0  0  0  0  0  0  0  0
  152.0199  140.4699  156.3563 H   0  0  0  0  0  0  0  0  0  0  0  0
  148.9161  139.8810  152.5478 H   0  0  0  0  0  0  0  0  0  0  0  0
  146.6618  140.9250  152.5801 H   0  0  0  0  0  0  0  0  0  0  0  0
  145.9301  142.2792  154.5313 H   0  0  0  0  0  0  0  0  0  0  0  0
  147.4602  142.5995  156.4735 H   0  0  0  0  0  0  0  0  0  0  0  0
  153.0457  141.0681  159.2726 H   0  0  0  0  0  0  0  0  0  0  0  0
  153.8749  141.1831  161.6043 H   0  0  0  0  0  0  0  0  0  0  0  0
  151.9100  144.9813  162.1259 H   0  0  0  0  0  0  0  0  0  0  0  0
  1  2  1  0  0  0  0
  1 21  1  0  0  0  0
  2  3  1  0  0  0  0
  2 13  1  0  0  0  0
  2 22  1  0  0  0  0
  3  4  1  0  0  0  0
  3 23  1  0  0  0  0
  3 24  1  0  0  0  0
  4 12  1  0  0  0  0
  4  5  1  0  0  0  0
  5  6  2  0  0  0  0
  5 25  1  0  0  0  0
  6  7  1  0  0  0  0
  7 12  2  0  0  0  0
  7  8  1  0  0  0  0
  8  9  2  0  0  0  0
  8 26  1  0  0  0  0
  9 10  1  0  0  0  0
  9 27  1  0  0  0  0
 10 11  2  0  0  0  0
 10 28  1  0  0  0  0
 11 12  1  0  0  0  0
 11 29  1  0  0  0  0
 13 19  1  0  0  0  0
 13 14  2  0  0  0  0
 14 15  1  0  0  0  0
 14 30  1  0  0  0  0
 15 16  2  0  0  0  0
 15 31  1  0  0  0  0
 16 17  1  0  0  0  0
 16 18  1  0  0  0  0
 18 19  2  0  0  0  0
 18 32  1  0  0  0  0
 19 20  1  0  0  0  0
M  END
> <s_m_source_file>
AV-unprocessed.smi

> <i_m_source_file_index>
844

> <i_lp_mmshare_version>
43012

> <i_f3d_flags>
0

> <s_epik_input>
RmMxW2NIXWMoRilbY0hdW2NIXWMxW0NASF0oW09IXSlbQ0gyXW4oW2NIXW4yKWMoYzIzKVtjSF1bY0hdW2NIXVtjSF0z

> <s_epik_cmdline>
J2VwaWtfcHl0aG9uJywgJy1waCcsICc3LjAnLCAnLXRuJywgJzgnLCAnLW1hJywgJzIwMCcsICctbWV0YWxfYmluZGluZycsICctaW1hZScsICc8aW5maWxlLm1hZT4nLCAnLW9tYWUnLCAnPG91dGZpbGUubWFlPic=

> <r_epik_Ionization_Penalty>
0.0696514

> <r_epik_Ionization_Penalty_Charging>
0

> <r_epik_Ionization_Penalty_Neutral>
0.0696514

> <r_epik_State_Penalty>
0.0610247

> <r_epik_Charging_Adjusted_Penalty>
0.0610247

> <i_epik_Tot_Q>
0

> <i_epik_Tot_abs_Q>
0

> <r_epik_Metal_State_Penalty>
6.42746e-05

> <b_epik_Metal_Only>
0

> <s_lp_Force_Field>
OPLS_2005

> <r_lp_Energy>
12.41

> <b_lp_Chiralities_Consistent>
1

> <s_lp_Variant>
AV-unprocessed.smi:844-1

> <Gold.Version>
5.8.1

> <Gold.Id.Protein>
6NUR|6NUR_protein|mol2

> <Gold.PLP.Fitness>
56.5381

> <Gold.PLP.PLP>
-52.8647

> <Gold.PLP.part.hbond>
-2.0000

> <Gold.PLP.part.metal>
0.0000

> <Gold.PLP.part.buried>
-0.9104

> <Gold.PLP.part.nonpolar>
-49.1263

> <Gold.PLP.part.repulsive>
0.0764

> <Gold.PLP.ligand.clash>
0.0000

> <Gold.PLP.ligand.torsion>
1.1074

> <Gold.PLP.Chemscore.Hbond>
1.9588

> <Gold.PLP.Chemscore.CHOScore>
0.0000

> <Gold.PLP.Chemscore.Metal>
0.0000

> <Gold.Chemscore.Hbonds>
donor molecule, donor type, donor heavy atom, donor atom, acceptor molecule, acceptor atom, score
      L1  H     1    21       P1  8028  0.98
      P1  H  7989  7998       L1     6  1.00

> <Gold.PLP.Chemscore.Internal.Correction>
0.0120

> <Gold.Rescore>
     Score         DG    S(hbond)    S(metal)    S(lipo)     H(rot)  DE(clash)    DE(int)     intcor
     14.98     -20.20       1.65        0.00     122.51       2.00       2.46       2.75       ----

> <Gold.Chemscore.Fitness>
14.9846

> <Gold.Chemscore.DG>
-20.1969

> <Gold.Chemscore.ZeroCoef>
-5.4800

> <Gold.Chemscore.Hbond>
1.6509

> <Gold.Chemscore.Metal>
0.0000

> <Gold.Chemscore.Lipo>
122.5054

> <Gold.Chemscore.Internal_Hbond>
0.0000

> <Gold.Chemscore.DEClash>
2.4578

> <Gold.Chemscore.DEInternal>
2.7545

> <Gold.Chemscore.Rot>
2.0040

> <Gold.Chemscore.Internal.Correction>
   9.000000E+99

> <Gold.Chemscore.Hbonds>
donor molecule, donor type, donor heavy atom, donor atom, acceptor molecule, acceptor atom, score
      L1  H     1    21       P1  8028  0.90
      P1  H  7989  7998       L1     6  0.32

> <Gold.Chemscore.Hbond.Weighted>
-5.5141

> <Gold.Chemscore.Metal.Weighted>
-0.0000

> <Gold.Chemscore.Lipo.Weighted>
-14.3331

> <Gold.Chemscore.Internal_Hbond.Weighted>
0.0000

> <Gold.Chemscore.DEClash.Weighted>
2.4578

> <Gold.Chemscore.DEInternal.Weighted>
2.7545

> <Gold.Chemscore.Rot.Weighted>
5.1303

> <Gold.Chemscore.Internal.Correction.Weighted>
   9.000000E+99

> <Gold.Protein.RotatedTorsions>
[ 6907 6896 6895 6894 ] final  172.62 input  -60.11 | X-H torsion
[ 7974 7965 7964 7962 ] final   27.54 input  175.53 | X-H torsion
[ 8008 7997 7996 7995 ] final   14.68 input   59.86 | X-H torsion
[ 10167 10162 10161 10158 ] final   80.08 input  -65.29 | X-H torsion
[ 10718 10713 10712 10709 ] final   92.53 input   66.30 | X-H torsion
[ 10763 10752 10751 10750 ] final -150.74 input  -60.55 | X-H torsion
[ 11005 11000 10999 10996 ] final -177.91 input  -57.11 | X-H torsion

> <Gold.Protein.ActiveResidues>
 VAL166  LYS551  ARG553  GLY616  TRP617  ASP618  TYR619  PRO620  LYS621  CYS622 
 ASP623  PHE694  ASN695  SER759  ASP760  ASP761  ALA762  ILE779  LEU786  VAL792 
 PHE793  MET794  SER795  GLU796  ALA797  LYS798  CYS799  TRP800  GLU811  SER814 

> <Gold.Protein.RotatedAtoms>
  151.7814  133.3350  159.3472 H   0  0  0  0  0  0  0  0  0  0  0  0  # atno 6907 bound_to 6896
  150.7425  134.5927  159.6005 H   0  0  0  0  0  0  0  0  0  0  0  0  # atno 6908 bound_to 6896
  152.3273  134.7306  160.0350 H   0  0  0  0  0  0  0  0  0  0  0  0  # atno 6909 bound_to 6896
  146.1778  139.7177  142.8922 H   0  0  0  0  0  0  0  0  0  0  0  0  # atno 7974 bound_to 7965
  154.8519  140.2931  155.5593 H   0  0  0  0  0  0  0  0  0  0  0  0  # atno 8008 bound_to 7997
  156.3017  140.2494  156.3412 H   0  0  0  0  0  0  0  0  0  0  0  0  # atno 8009 bound_to 7997
  154.9011  140.0391  157.1883 H   0  0  0  0  0  0  0  0  0  0  0  0  # atno 8010 bound_to 7997
  139.9535  144.6010  150.8138 H   0  0  0  0  0  0  0  0  0  0  0  0  # atno 10167 bound_to 10162
  157.6958  131.0446  150.3895 H   0  0  0  0  0  0  0  0  0  0  0  0  # atno 10718 bound_to 10713
  154.8101  135.3277  154.7329 H   0  0  0  0  0  0  0  0  0  0  0  0  # atno 10763 bound_to 10752
  153.7980  135.6906  153.4865 H   0  0  0  0  0  0  0  0  0  0  0  0  # atno 10764 bound_to 10752
  153.1873  135.4564  155.0050 H   0  0  0  0  0  0  0  0  0  0  0  0  # atno 10765 bound_to 10752
  140.4356  134.6478  157.4733 H   0  0  0  0  0  0  0  0  0  0  0  0  # atno 11005 bound_to 11000
  145.4161  141.0402  143.2990 LP  0  0  0  0  0  0  0  0  0  0  0  0  # atno 17320 bound_to 7965
  144.8265  139.5701  143.6963 LP  0  0  0  0  0  0  0  0  0  0  0  0  # atno 17321 bound_to 7965
  140.7575  143.3088  151.2895 LP  0  0  0  0  0  0  0  0  0  0  0  0  # atno 17342 bound_to 10162
  139.6609  144.0190  152.2692 LP  0  0  0  0  0  0  0  0  0  0  0  0  # atno 17343 bound_to 10162
  156.4300  130.3970  149.6766 LP  0  0  0  0  0  0  0  0  0  0  0  0  # atno 17370 bound_to 10713
  156.3987  130.7664  151.2670 LP  0  0  0  0  0  0  0  0  0  0  0  0  # atno 17371 bound_to 10713
  140.0104  134.6699  155.9389 LP  0  0  0  0  0  0  0  0  0  0  0  0  # atno 17394 bound_to 11000
  141.1727  133.6538  156.4712 LP  0  0  0  0  0  0  0  0  0  0  0  0  # atno 17395 bound_to 11000

$$$$
