#       Name:                AV-unprocessed.smi:517
#       Creating user name   scv26
#       Creation time:       Thu Mar 26 23:26:37 2020


#       File generated by GOLD software.
#

@<TRIPOS>MOLECULE
AV-unprocessed.smi:517
    40    41     1
SMALL
NO_CHARGES


@<TRIPOS>ATOM
      1 ****        -3.5547   2.1178  -0.1781 C.3            1 S1                 0.0000
      2 ****        -2.9829   1.2042  -1.2645 C.3            1 S1                 0.0000
      3 ****        -1.5846   1.0898  -1.0699 O.3            1 S1                 0.0000
      4 ****        -0.9578   0.2511  -2.0270 C.3            1 S1                 0.0000
      5 ****         0.5464   0.1784  -1.7287 C.3            1 S1                 0.0000
      6 ****         0.8147  -0.2676  -0.3539 N.pl3          1 S1                 0.0000
      7 ****         1.0200   0.4529   0.7873 C.2            1 S1                 0.0000
      8 ****         1.0424   1.9443   0.9227 C.3            1 S1                 0.0000
      9 ****         2.4827   2.4721   0.9104 C.3            1 S1                 0.0000
     10 ****         0.4074   2.3793   2.1067 O.3            1 S1                 0.0000
     11 ****         1.2225  -0.4432   1.7956 N.pl3          1 S1                 1.0000
     12 ****         1.1330  -1.7440   1.2996 C.ar           1 S1                 0.0000
     13 ****         1.2605  -2.9742   1.9376 C.ar           1 S1                 0.0000
     14 ****         1.1083  -4.1228   1.1333 C.ar           1 S1                 0.0000
     15 ****         0.8376  -4.0221  -0.2469 C.ar           1 S1                 0.0000
     16 ****         0.7102  -2.7692  -0.8823 C.ar           1 S1                 0.0000
     17 ****         0.8666  -1.6387  -0.0806 C.ar           1 S1                 0.0000
     18 ****        -4.6328   2.2326  -0.2926 H              1 S1                 0.0000
     19 ****        -3.1055   3.1101  -0.2256 H              1 S1                 0.0000
     20 ****        -3.3645   1.7104   0.8151 H              1 S1                 0.0000
     21 ****        -3.4533   0.2214  -1.2101 H              1 S1                 0.0000
     22 ****        -3.1937   1.6191  -2.2512 H              1 S1                 0.0000
     23 ****        -1.3951  -0.7478  -1.9900 H              1 S1                 0.0000
     24 ****        -1.1185   0.6416  -3.0328 H              1 S1                 0.0000
     25 ****         1.0546  -0.4873  -2.4268 H              1 S1                 0.0000
     26 ****         1.0030   1.1601  -1.8567 H              1 S1                 0.0000
     27 ****         0.4966   2.3854   0.0889 H              1 S1                 0.0000
     28 ****         2.9924   2.1947  -0.0129 H              1 S1                 0.0000
     29 ****         3.0621   2.0723   1.7434 H              1 S1                 0.0000
     30 ****         2.5030   3.5601   0.9825 H              1 S1                 0.0000
     31 ****        -0.5139   2.1773   2.0437 H              1 S1                 0.0000
     32 ****         1.4653  -3.0535   2.9953 H              1 S1                 0.0000
     33 ****         1.1996  -5.1005   1.5839 H              1 S1                 0.0000
     34 ****         0.7253  -4.9243  -0.8307 H              1 S1                 0.0000
     35 ****         0.5007  -2.7035  -1.9396 H              1 S1                 0.0000
     36 ****         1.4037  -0.1759   2.7547 H              1 S1                 0.0000
     37 ****        -1.4197   0.7121  -0.1588 LP             1 S1                 0.0000
     38 ****        -1.1789   2.0017  -1.1311 LP             1 S1                 0.0000
     39 ****         0.5301   3.3661   2.2125 LP             1 S1                 0.0000
     40 ****         0.8032   1.9078   2.8948 LP             1 S1                 0.0000
@<TRIPOS>BOND
    1    1    2 1     
    2    1   18 1     
    3    1   19 1     
    4    1   20 1     
    5    2    3 1     
    6    2   21 1     
    7    2   22 1     
    8    3    4 1     
    9    4    5 1     
   10    4   23 1     
   11    4   24 1     
   12    5    6 1     
   13    5   25 1     
   14    5   26 1     
   15    6   17 1     
   16    6    7 1     
   17    7    8 1     
   18    7   11 2     
   19    8    9 1     
   20    8   10 1     
   21    8   27 1     
   22    9   28 1     
   23    9   29 1     
   24    9   30 1     
   25   10   31 1     
   26   11   12 1     
   27   11   36 1     
   28   12   17 ar    
   29   12   13 ar    
   30   13   14 ar    
   31   13   32 1     
   32   14   15 ar    
   33   14   33 1     
   34   15   16 ar    
   35   15   34 1     
   36   16   17 ar    
   37   16   35 1     
   38    3   37 1     
   39    3   38 1     
   40   10   39 1     
   41   10   40 1     
@<TRIPOS>SUBSTRUCTURE
      1 S1             1
@<TRIPOS>SET
LONE_PAIRS      STATIC     ATOMS    <user>   **** ""
4 37 38 39 40
DONOR_HYDROGENS      STATIC     ATOMS    <user>   **** ""
2 31 36
ATOM$BLUE        STATIC     ATOMS    COLORGROUP SYSTEM
4 37 38 39 40
ATOM$RED        STATIC     ATOMS    COLORGROUP SYSTEM
2 31 36
