AV-unprocessed.smi:1899|AV-procd|sdf|7708|dock9
  -GOLD-   22720 9443D 1   1.00000     0.00000
 Structure written by MMmdl.
 33 34  0  0  0  0  0  0  0  0  1 V2000
  153.2279  139.8860  158.2913 O   0  0  0  0  0  0  0  0  0  0  0  0
  152.0632  140.2023  158.5353 C   0  0  0  0  0  0  0  0  0  0  0  0
  151.0429  139.3318  158.4990 N   0  0  0  0  0  0  0  0  0  0  0  0
  151.1631  137.9050  158.2152 C   0  0  0  0  0  0  0  0  0  0  0  0
  152.0321  137.6224  156.9743 C   0  0  0  0  0  0  0  0  0  0  0  0
  151.5061  138.2533  155.7785 N   0  0  0  0  0  0  0  0  0  0  0  0
  150.9830  137.6216  154.6583 C   0  0  0  0  0  0  0  0  0  0  0  0
  150.6179  138.6175  153.7808 C   0  0  0  0  0  0  0  0  0  0  0  0
  150.9056  139.8620  154.3369 N   0  0  0  0  0  0  0  0  0  0  0  0
  151.4267  139.5662  155.5206 C   0  0  0  0  0  0  0  0  0  0  0  0
  151.7169  141.6479  158.9146 C   0  0  1  0  0  0  0  0  0  0  0  0
  152.5901  142.1342  160.0941 C   0  0  0  0  0  0  0  0  0  0  0  0
  152.4684  143.6307  160.3210 C   0  0  0  0  0  0  0  0  0  0  0  0
  151.9433  144.4757  159.4173 C   0  0  0  0  0  0  0  0  0  0  0  0
  151.4149  144.0303  158.0653 C   0  0  0  0  0  0  0  0  0  0  0  0
  151.8579  142.5987  157.7088 C   0  0  0  0  0  0  0  0  0  0  0  0
  150.1178  139.6776  158.7100 H   0  0  0  0  0  0  0  0  0  0  0  0
  151.5934  137.4169  159.0901 H   0  0  0  0  0  0  0  0  0  0  0  0
  150.1694  137.4747  158.0813 H   0  0  0  0  0  0  0  0  0  0  0  0
  153.0439  137.9942  157.1384 H   0  0  0  0  0  0  0  0  0  0  0  0
  152.1223  136.5498  156.7964 H   0  0  0  0  0  0  0  0  0  0  0  0
  150.9173  136.5463  154.5798 H   0  0  0  0  0  0  0  0  0  0  0  0
  150.1744  138.5348  152.7995 H   0  0  0  0  0  0  0  0  0  0  0  0
  151.7653  140.3221  156.2142 H   0  0  0  0  0  0  0  0  0  0  0  0
  150.6730  141.6756  159.2337 H   0  0  0  0  0  0  0  0  0  0  0  0
  152.2931  141.6194  161.0086 H   0  0  0  0  0  0  0  0  0  0  0  0
  153.6439  141.9047  159.9298 H   0  0  0  0  0  0  0  0  0  0  0  0
  152.8416  144.0131  161.2598 H   0  0  0  0  0  0  0  0  0  0  0  0
  151.8737  145.5294  159.6442 H   0  0  0  0  0  0  0  0  0  0  0  0
  150.3268  144.0929  158.0915 H   0  0  0  0  0  0  0  0  0  0  0  0
  151.7551  144.7260  157.2978 H   0  0  0  0  0  0  0  0  0  0  0  0
  152.8987  142.6201  157.3814 H   0  0  0  0  0  0  0  0  0  0  0  0
  151.2768  142.2364  156.8594 H   0  0  0  0  0  0  0  0  0  0  0  0
  1  2  2  0  0  0  0
  2  3  1  0  0  0  0
  2 11  1  0  0  0  0
  3  4  1  0  0  0  0
  3 17  1  0  0  0  0
  4  5  1  0  0  0  0
  4 18  1  0  0  0  0
  4 19  1  0  0  0  0
  5  6  1  0  0  0  0
  5 20  1  0  0  0  0
  5 21  1  0  0  0  0
  6 10  1  0  0  0  0
  6  7  1  0  0  0  0
  7  8  2  0  0  0  0
  7 22  1  0  0  0  0
  8  9  1  0  0  0  0
  8 23  1  0  0  0  0
  9 10  2  0  0  0  0
 10 24  1  0  0  0  0
 11 16  1  0  0  0  0
 11 12  1  0  0  0  0
 11 25  1  0  0  0  0
 12 13  1  0  0  0  0
 12 26  1  0  0  0  0
 12 27  1  0  0  0  0
 13 14  2  0  0  0  0
 13 28  1  0  0  0  0
 14 15  1  0  0  0  0
 14 29  1  0  0  0  0
 15 16  1  0  0  0  0
 15 30  1  0  0  0  0
 15 31  1  0  0  0  0
 16 32  1  0  0  0  0
 16 33  1  0  0  0  0
M  END
> <s_m_source_file>
AV-unprocessed.smi

> <i_m_source_file_index>
1899

> <i_lp_mmshare_version>
43012

> <i_f3d_flags>
0

> <s_epik_input>
W0NIMl0xW0NIMl1bQ0hdPVtDSF1bQ0gyXVtDQEhdMUMoPU8pW05IXVtDSDJdW0NIMl1uMltjSF1bY0hdbltjSF0y

> <s_epik_cmdline>
J2VwaWtfcHl0aG9uJywgJy1waCcsICc3LjAnLCAnLXRuJywgJzgnLCAnLW1hJywgJzIwMCcsICctbWV0YWxfYmluZGluZycsICctaW1hZScsICc8aW5maWxlLm1hZT4nLCAnLW9tYWUnLCAnPG91dGZpbGUubWFlPic=

> <r_lp_tautomer_probability>
1

> <r_epik_Ionization_Penalty>
0.598506

> <r_epik_Ionization_Penalty_Charging>
0.598506

> <r_epik_Ionization_Penalty_Neutral>
1.57027e-08

> <r_epik_State_Penalty>
0.612686

> <r_epik_Charging_Adjusted_Penalty>
1.21119

> <i_epik_Tot_Q>
0

> <i_epik_Tot_abs_Q>
0

> <r_epik_Metal_State_Penalty>
0.300712

> <b_epik_Metal_Only>
0

> <s_lp_Force_Field>
OPLS_2005

> <r_lp_Energy>
10.0214

> <b_lp_Chiralities_Consistent>
1

> <s_lp_Variant>
AV-unprocessed.smi:1899-4

> <Gold.Version>
5.8.1

> <Gold.Id.Protein>
6NUR|6NUR_protein|mol2

> <Gold.PLP.Fitness>
44.4057

> <Gold.PLP.PLP>
-32.9284

> <Gold.PLP.part.hbond>
-2.0000

> <Gold.PLP.part.metal>
0.0000

> <Gold.PLP.part.buried>
-5.1524

> <Gold.PLP.part.nonpolar>
-26.7866

> <Gold.PLP.part.repulsive>
0.2525

> <Gold.PLP.ligand.clash>
0.0000

> <Gold.PLP.ligand.torsion>
0.2504

> <Gold.PLP.Chemscore.Hbond>
2.0000

> <Gold.PLP.Chemscore.CHOScore>
1.9844

> <Gold.PLP.Chemscore.Metal>
0.0000

> <Gold.Chemscore.Hbonds>
donor molecule, donor type, donor heavy atom, donor atom, acceptor molecule, acceptor atom, score
      P1  H  7989  7998       L1     9  0.91
      P1  H  7997  8010       L1     1  1.00
      L1  C     8    23       P1  7948  0.46
      L1  C     8    23       P1  7957  1.00

> <Gold.PLP.Chemscore.Internal.Correction>
0.0251

> <Gold.Rescore>
     Score         DG    S(hbond)    S(metal)    S(lipo)     H(rot)  DE(clash)    DE(int)     intcor
     15.87     -17.80       1.95        0.00      89.02       1.80       0.28       1.65       ----

> <Gold.Chemscore.Fitness>
15.8683

> <Gold.Chemscore.DG>
-17.7953

> <Gold.Chemscore.ZeroCoef>
-5.4800

> <Gold.Chemscore.Hbond>
1.9520

> <Gold.Chemscore.Metal>
0.0000

> <Gold.Chemscore.Lipo>
89.0244

> <Gold.Chemscore.Internal_Hbond>
0.0000

> <Gold.Chemscore.DEClash>
0.2800

> <Gold.Chemscore.DEInternal>
1.6470

> <Gold.Chemscore.Rot>
1.8048

> <Gold.Chemscore.Internal.Correction>
   9.000000E+99

> <Gold.Chemscore.Hbonds>
donor molecule, donor type, donor heavy atom, donor atom, acceptor molecule, acceptor atom, score
      P1  H  7989  7998       L1     9  0.81
      P1  H  7997  8010       L1     1  0.97

> <Gold.Chemscore.Hbond.Weighted>
-6.5198

> <Gold.Chemscore.Metal.Weighted>
-0.0000

> <Gold.Chemscore.Lipo.Weighted>
-10.4159

> <Gold.Chemscore.Internal_Hbond.Weighted>
0.0000

> <Gold.Chemscore.DEClash.Weighted>
0.2800

> <Gold.Chemscore.DEInternal.Weighted>
1.6470

> <Gold.Chemscore.Rot.Weighted>
4.6203

> <Gold.Chemscore.Internal.Correction.Weighted>
   9.000000E+99

> <Gold.Protein.RotatedTorsions>
[ 6907 6896 6895 6894 ] final  -52.05 input  -60.11 | X-H torsion
[ 7974 7965 7964 7962 ] final   -1.65 input  175.53 | X-H torsion
[ 8008 7997 7996 7995 ] final   23.47 input   59.86 | X-H torsion
[ 10167 10162 10161 10158 ] final   82.90 input  -65.29 | X-H torsion
[ 10718 10713 10712 10709 ] final   81.86 input   66.30 | X-H torsion
[ 10763 10752 10751 10750 ] final  -92.70 input  -60.55 | X-H torsion
[ 11005 11000 10999 10996 ] final  110.11 input  -57.11 | X-H torsion

> <Gold.Protein.ActiveResidues>
 VAL166  LYS551  ARG553  GLY616  TRP617  ASP618  TYR619  PRO620  LYS621  CYS622 
 ASP623  PHE694  ASN695  SER759  ASP760  ASP761  ALA762  ILE779  LEU786  VAL792 
 PHE793  MET794  SER795  GLU796  ALA797  LYS798  CYS799  TRP800  GLU811  SER814 

> <Gold.Protein.RotatedAtoms>
  150.8553  134.7891  159.7040 H   0  0  0  0  0  0  0  0  0  0  0  0  # atno 6907 bound_to 6896
  152.4607  134.5188  159.9786 H   0  0  0  0  0  0  0  0  0  0  0  0  # atno 6908 bound_to 6896
  151.5301  133.3412  159.2952 H   0  0  0  0  0  0  0  0  0  0  0  0  # atno 6909 bound_to 6896
  146.2414  140.1452  142.8335 H   0  0  0  0  0  0  0  0  0  0  0  0  # atno 7974 bound_to 7965
  154.9814  140.3102  155.4945 H   0  0  0  0  0  0  0  0  0  0  0  0  # atno 8008 bound_to 7997
  156.2953  140.2266  156.4852 H   0  0  0  0  0  0  0  0  0  0  0  0  # atno 8009 bound_to 7997
  154.7786  140.0447  157.1097 H   0  0  0  0  0  0  0  0  0  0  0  0  # atno 8010 bound_to 7997
  139.9239  144.6195  150.8412 H   0  0  0  0  0  0  0  0  0  0  0  0  # atno 10167 bound_to 10162
  157.6843  131.0022  150.2288 H   0  0  0  0  0  0  0  0  0  0  0  0  # atno 10718 bound_to 10713
  154.6887  135.5221  153.8362 H   0  0  0  0  0  0  0  0  0  0  0  0  # atno 10763 bound_to 10752
  153.0616  135.6570  154.0459 H   0  0  0  0  0  0  0  0  0  0  0  0  # atno 10764 bound_to 10752
  154.0336  135.2983  155.3345 H   0  0  0  0  0  0  0  0  0  0  0  0  # atno 10765 bound_to 10752
  139.8875  134.9476  156.6229 H   0  0  0  0  0  0  0  0  0  0  0  0  # atno 11005 bound_to 11000
  145.0213  140.8796  143.5165 LP  0  0  0  0  0  0  0  0  0  0  0  0  # atno 17320 bound_to 7965
  145.1501  139.2519  143.5445 LP  0  0  0  0  0  0  0  0  0  0  0  0  # atno 17321 bound_to 7965
  140.7655  143.3277  151.2479 LP  0  0  0  0  0  0  0  0  0  0  0  0  # atno 17342 bound_to 10162
  139.6838  143.9808  152.2823 LP  0  0  0  0  0  0  0  0  0  0  0  0  # atno 17343 bound_to 10162
  156.2925  130.3747  149.7828 LP  0  0  0  0  0  0  0  0  0  0  0  0  # atno 17370 bound_to 10713
  156.5483  130.8330  151.3291 LP  0  0  0  0  0  0  0  0  0  0  0  0  # atno 17371 bound_to 10713
  140.7725  133.8726  155.8503 LP  0  0  0  0  0  0  0  0  0  0  0  0  # atno 17394 bound_to 11000
  140.9829  134.1381  157.4478 LP  0  0  0  0  0  0  0  0  0  0  0  0  # atno 17395 bound_to 11000

$$$$
