AV-unprocessed.smi:1381|AV-procd|sdf|5602|dock7
  -GOLD-   22720 5213D 1   1.00000     0.00000
 Structure written by MMmdl.
 42 43  0  0  0  0  0  0  0  0  1 V2000
  151.8228  139.8583  158.0457 C   0  0  0  0  0  0  0  0  0  0  0  0
  151.4181  139.5762  156.6392 C   0  0  0  0  0  0  0  0  0  0  0  0
  150.2731  139.0769  156.0849 C   0  0  0  0  0  0  0  0  0  0  0  0
  150.5672  139.0693  154.6954 C   0  0  0  0  0  0  0  0  0  0  0  0
  149.6123  138.6113  153.7519 N   0  0  0  0  0  0  0  0  0  0  0  0
  148.4033  139.1360  153.4890 C   0  0  0  0  0  0  0  0  0  0  0  0
  147.9221  140.1239  154.0449 O   0  0  0  0  0  0  0  0  0  0  0  0
  147.7689  138.4439  152.5316 N   0  0  0  0  0  0  0  0  0  0  0  0
  146.4402  138.7545  152.0180 C   0  0  0  0  0  0  0  0  0  0  0  0
  145.9076  137.6216  151.1207 C   0  0  0  0  0  0  0  0  0  0  0  0
  145.4856  136.4170  151.8330 N   0  0  0  0  0  0  0  0  0  0  0  0
  144.1214  136.5188  152.3467 C   0  0  0  0  0  0  0  0  0  0  0  0
  143.6798  135.2322  153.0714 C   0  0  1  0  0  0  0  0  0  0  0  0
  142.2213  135.3001  153.5361 C   0  0  0  0  0  0  0  0  0  0  0  0
  143.8162  134.1250  152.1849 O   0  0  0  0  0  0  0  0  0  0  0  0
  145.1433  133.9568  151.6948 C   0  0  1  0  0  0  0  0  0  0  0  0
  145.1638  132.7356  150.7697 C   0  0  0  0  0  0  0  0  0  0  0  0
  145.5769  135.2450  150.9699 C   0  0  0  0  0  0  0  0  0  0  0  0
  151.7822  139.5219  154.4258 N   0  0  0  0  0  0  0  0  0  0  0  0
  152.3339  139.8486  155.6702 O   0  0  0  0  0  0  0  0  0  0  0  0
  152.2056  138.9569  158.5243 H   0  0  0  0  0  0  0  0  0  0  0  0
  150.9743  140.2171  158.6286 H   0  0  0  0  0  0  0  0  0  0  0  0
  152.6028  140.6191  158.0838 H   0  0  0  0  0  0  0  0  0  0  0  0
  149.3725  138.7678  156.5942 H   0  0  0  0  0  0  0  0  0  0  0  0
  149.8785  137.7955  153.2207 H   0  0  0  0  0  0  0  0  0  0  0  0
  148.2353  137.6432  152.1311 H   0  0  0  0  0  0  0  0  0  0  0  0
  145.7740  138.8973  152.8693 H   0  0  0  0  0  0  0  0  0  0  0  0
  146.4745  139.7051  151.4847 H   0  0  0  0  0  0  0  0  0  0  0  0
  145.0832  137.9919  150.5091 H   0  0  0  0  0  0  0  0  0  0  0  0
  146.7011  137.3544  150.4215 H   0  0  0  0  0  0  0  0  0  0  0  0
  144.0413  137.3532  153.0424 H   0  0  0  0  0  0  0  0  0  0  0  0
  143.4334  136.7286  151.5260 H   0  0  0  0  0  0  0  0  0  0  0  0
  144.3169  135.0674  153.9421 H   0  0  0  0  0  0  0  0  0  0  0  0
  142.0682  136.1279  154.2290 H   0  0  0  0  0  0  0  0  0  0  0  0
  141.9325  134.3814  154.0471 H   0  0  0  0  0  0  0  0  0  0  0  0
  141.5445  135.4394  152.6927 H   0  0  0  0  0  0  0  0  0  0  0  0
  145.8108  133.7696  152.5379 H   0  0  0  0  0  0  0  0  0  0  0  0
  146.1648  132.5582  150.3761 H   0  0  0  0  0  0  0  0  0  0  0  0
  144.4899  132.8708  149.9233 H   0  0  0  0  0  0  0  0  0  0  0  0
  144.8519  131.8376  151.3035 H   0  0  0  0  0  0  0  0  0  0  0  0
  144.9550  135.3903  150.0848 H   0  0  0  0  0  0  0  0  0  0  0  0
  146.6016  135.1294  150.6144 H   0  0  0  0  0  0  0  0  0  0  0  0
  1  2  1  0  0  0  0
  1 21  1  0  0  0  0
  1 22  1  0  0  0  0
  1 23  1  0  0  0  0
  2 20  1  0  0  0  0
  2  3  2  0  0  0  0
  3  4  1  0  0  0  0
  3 24  1  0  0  0  0
  4  5  1  0  0  0  0
  4 19  2  0  0  0  0
  5  6  1  0  0  0  0
  5 25  1  0  0  0  0
  6  7  2  0  0  0  0
  6  8  1  0  0  0  0
  8  9  1  0  0  0  0
  8 26  1  0  0  0  0
  9 10  1  0  0  0  0
  9 27  1  0  0  0  0
  9 28  1  0  0  0  0
 10 11  1  0  0  0  0
 10 29  1  0  0  0  0
 10 30  1  0  0  0  0
 11 18  1  0  0  0  0
 11 12  1  0  0  0  0
 12 13  1  0  0  0  0
 12 31  1  0  0  0  0
 12 32  1  0  0  0  0
 13 14  1  0  0  0  0
 13 15  1  0  0  0  0
 13 33  1  0  0  0  0
 14 34  1  0  0  0  0
 14 35  1  0  0  0  0
 14 36  1  0  0  0  0
 15 16  1  0  0  0  0
 16 17  1  0  0  0  0
 16 18  1  0  0  0  0
 16 37  1  0  0  0  0
 17 38  1  0  0  0  0
 17 39  1  0  0  0  0
 17 40  1  0  0  0  0
 18 41  1  0  0  0  0
 18 42  1  0  0  0  0
 19 20  1  0  0  0  0
M  END
> <s_m_source_file>
AV-unprocessed.smi

> <i_m_source_file_index>
1381

> <i_lp_mmshare_version>
43012

> <i_f3d_flags>
0

> <s_epik_input>
W0NIM11jMVtjSF1jKG5vMSlbTkhdQyg9TylbTkhdW0NIMl1bQ0gyXU4yW0NIMl1bQ0BASF0oW0NIM10pT1tDQEBIXShbQ0gzXSlbQ0gyXTI=

> <s_epik_cmdline>
J2VwaWtfcHl0aG9uJywgJy1waCcsICc3LjAnLCAnLXRuJywgJzgnLCAnLW1hJywgJzIwMCcsICctbWV0YWxfYmluZGluZycsICctaW1hZScsICc8aW5maWxlLm1hZT4nLCAnLW9tYWUnLCAnPG91dGZpbGUubWFlPic=

> <r_epik_Ionization_Penalty>
0.214073

> <r_epik_Ionization_Penalty_Charging>
0

> <r_epik_Ionization_Penalty_Neutral>
0.214073

> <r_epik_State_Penalty>
0.204211

> <r_epik_Charging_Adjusted_Penalty>
0.204211

> <i_epik_Tot_Q>
0

> <i_epik_Tot_abs_Q>
0

> <r_epik_Metal_State_Penalty>
0.217067

> <b_epik_Metal_Only>
0

> <s_lp_Force_Field>
OPLS_2005

> <r_lp_Energy>
17.1752

> <b_lp_Chiralities_Consistent>
1

> <s_lp_Variant>
AV-unprocessed.smi:1381-1

> <Gold.Version>
5.8.1

> <Gold.Id.Protein>
6NUR|6NUR_protein|mol2

> <Gold.PLP.Fitness>
39.1482

> <Gold.PLP.PLP>
-30.5231

> <Gold.PLP.part.hbond>
-5.9752

> <Gold.PLP.part.metal>
0.0000

> <Gold.PLP.part.buried>
0.5255

> <Gold.PLP.part.nonpolar>
-27.3268

> <Gold.PLP.part.repulsive>
0.7146

> <Gold.PLP.ligand.clash>
0.0000

> <Gold.PLP.ligand.torsion>
0.9607

> <Gold.PLP.Chemscore.Hbond>
3.5094

> <Gold.PLP.Chemscore.CHOScore>
0.0000

> <Gold.PLP.Chemscore.Metal>
0.0000

> <Gold.Chemscore.Hbonds>
donor molecule, donor type, donor heavy atom, donor atom, acceptor molecule, acceptor atom, score
      L1  H     5    25       P1  7948  0.42
      L1  H     8    26       P1  7948  1.00
      P1  H  7989  7998       L1    19  1.00
      P1  H  7997  8009       L1    20  0.83

> <Gold.PLP.Chemscore.Internal.Correction>
0.0184

> <Gold.Rescore>
     Score         DG    S(hbond)    S(metal)    S(lipo)     H(rot)  DE(clash)    DE(int)     intcor
     16.43     -19.47       3.15        0.00      64.04       1.57       1.81       1.23       ----

> <Gold.Chemscore.Fitness>
16.4311

> <Gold.Chemscore.DG>
-19.4695

> <Gold.Chemscore.ZeroCoef>
-5.4800

> <Gold.Chemscore.Hbond>
3.1482

> <Gold.Chemscore.Metal>
0.0000

> <Gold.Chemscore.Lipo>
64.0421

> <Gold.Chemscore.Internal_Hbond>
0.0000

> <Gold.Chemscore.DEClash>
1.8132

> <Gold.Chemscore.DEInternal>
1.2252

> <Gold.Chemscore.Rot>
1.5697

> <Gold.Chemscore.Internal.Correction>
   9.000000E+99

> <Gold.Chemscore.Hbonds>
donor molecule, donor type, donor heavy atom, donor atom, acceptor molecule, acceptor atom, score
      L1  H     5    25       P1  7948  0.23
      L1  H     8    26       P1  7948  0.97
      P1  H  7989  7998       L1    19  0.49
      P1  H  7997  8009       L1    20  0.80

> <Gold.Chemscore.Hbond.Weighted>
-10.5150

> <Gold.Chemscore.Metal.Weighted>
-0.0000

> <Gold.Chemscore.Lipo.Weighted>
-7.4929

> <Gold.Chemscore.Internal_Hbond.Weighted>
0.0000

> <Gold.Chemscore.DEClash.Weighted>
1.8132

> <Gold.Chemscore.DEInternal.Weighted>
1.2252

> <Gold.Chemscore.Rot.Weighted>
4.0185

> <Gold.Chemscore.Internal.Correction.Weighted>
   9.000000E+99

> <Gold.Protein.RotatedTorsions>
[ 6907 6896 6895 6894 ] final   37.42 input  -60.11 | X-H torsion
[ 7974 7965 7964 7962 ] final   31.93 input  175.53 | X-H torsion
[ 8008 7997 7996 7995 ] final -147.06 input   59.86 | X-H torsion
[ 10167 10162 10161 10158 ] final  -23.67 input  -65.29 | X-H torsion
[ 10718 10713 10712 10709 ] final    8.65 input   66.30 | X-H torsion
[ 10763 10752 10751 10750 ] final   97.08 input  -60.55 | X-H torsion
[ 11005 11000 10999 10996 ] final  -37.96 input  -57.11 | X-H torsion

> <Gold.Protein.ActiveResidues>
 VAL166  LYS551  ARG553  GLY616  TRP617  ASP618  TYR619  PRO620  LYS621  CYS622 
 ASP623  PHE694  ASN695  SER759  ASP760  ASP761  ALA762  ILE779  LEU786  VAL792 
 PHE793  MET794  SER795  GLU796  ALA797  LYS798  CYS799  TRP800  GLU811  SER814 

> <Gold.Protein.RotatedAtoms>
  152.1429  134.9048  160.0552 H   0  0  0  0  0  0  0  0  0  0  0  0  # atno 6907 bound_to 6896
  152.0109  133.3856  159.4227 H   0  0  0  0  0  0  0  0  0  0  0  0  # atno 6908 bound_to 6896
  150.6867  134.3653  159.5012 H   0  0  0  0  0  0  0  0  0  0  0  0  # atno 6909 bound_to 6896
  146.1519  139.6592  142.9093 H   0  0  0  0  0  0  0  0  0  0  0  0  # atno 7974 bound_to 7965
  155.5694  140.0633  157.2810 H   0  0  0  0  0  0  0  0  0  0  0  0  # atno 8008 bound_to 7997
  154.4365  140.1871  156.0909 H   0  0  0  0  0  0  0  0  0  0  0  0  # atno 8009 bound_to 7997
  156.0388  140.3298  155.7224 H   0  0  0  0  0  0  0  0  0  0  0  0  # atno 8010 bound_to 7997
  140.7288  143.4422  151.0639 H   0  0  0  0  0  0  0  0  0  0  0  0  # atno 10167 bound_to 10162
  156.9548  130.5910  149.5658 H   0  0  0  0  0  0  0  0  0  0  0  0  # atno 10718 bound_to 10713
  153.2726  135.4196  155.1002 H   0  0  0  0  0  0  0  0  0  0  0  0  # atno 10763 bound_to 10752
  154.8461  135.3476  154.6223 H   0  0  0  0  0  0  0  0  0  0  0  0  # atno 10764 bound_to 10752
  153.6643  135.7047  153.5225 H   0  0  0  0  0  0  0  0  0  0  0  0  # atno 10765 bound_to 10752
  140.9991  133.6964  156.1989 H   0  0  0  0  0  0  0  0  0  0  0  0  # atno 11005 bound_to 11000
  145.4803  141.0438  143.2650 LP  0  0  0  0  0  0  0  0  0  0  0  0  # atno 17320 bound_to 7965
  144.7914  139.6320  143.7111 LP  0  0  0  0  0  0  0  0  0  0  0  0  # atno 17321 bound_to 7965
  139.8091  143.7977  152.3170 LP  0  0  0  0  0  0  0  0  0  0  0  0  # atno 17342 bound_to 10162
  139.8020  144.7370  150.9812 LP  0  0  0  0  0  0  0  0  0  0  0  0  # atno 17343 bound_to 10162
  156.0347  130.5436  150.8624 LP  0  0  0  0  0  0  0  0  0  0  0  0  # atno 17370 bound_to 10713
  157.5698  131.0946  150.9435 LP  0  0  0  0  0  0  0  0  0  0  0  0  # atno 17371 bound_to 10713
  140.6918  134.4658  157.5588 LP  0  0  0  0  0  0  0  0  0  0  0  0  # atno 17394 bound_to 11000
  139.9030  134.8513  156.1820 LP  0  0  0  0  0  0  0  0  0  0  0  0  # atno 17395 bound_to 11000

$$$$
