AV-unprocessed.smi:356|AV-procd|sdf|2408|dock8
  -GOLD-   2262022343D 1   1.00000     0.00000
 Structure written by MMmdl.
 41 43  0  0  0  0  0  0  0  0  1 V2000
  152.1624  138.9164  155.7349 C   0  0  0  0  0  0  0  0  0  0  0  0
  152.1081  139.9826  156.7830 C   0  0  0  0  0  0  0  0  0  0  0  0
  152.8605  139.9380  157.8826 N   0  0  0  0  0  0  0  0  0  0  0  0
  152.4901  141.0903  158.5491 C   0  0  0  0  0  0  0  0  0  0  0  0
  152.9306  141.6180  159.7840 C   0  0  0  0  0  0  0  0  0  0  0  0
  152.4011  142.8309  160.2713 C   0  0  0  0  0  0  0  0  0  0  0  0
  151.4256  143.5319  159.5331 C   0  0  0  0  0  0  0  0  0  0  0  0
  150.9719  143.0233  158.3009 C   0  0  0  0  0  0  0  0  0  0  0  0
  151.5037  141.8123  157.8182 C   0  0  0  0  0  0  0  0  0  0  0  0
  151.2852  141.0541  156.6716 N   0  0  0  0  0  0  0  0  0  0  0  0
  150.3614  141.3603  155.5883 C   0  0  0  0  0  0  0  0  0  0  0  0
  148.8895  141.3778  156.0507 C   0  0  2  0  0  0  0  0  0  0  0  0
  148.5749  140.1431  156.6621 O   0  0  0  0  0  0  0  0  0  0  0  0
  147.9023  141.5933  154.8862 C   0  0  0  0  0  0  0  0  0  0  0  0
  146.7507  142.4456  155.1862 N   0  0  0  0  0  0  0  0  0  0  0  0
  145.7661  141.7853  156.0412 C   0  0  0  0  0  0  0  0  0  0  0  0
  144.5509  142.6870  156.3203 C   0  0  0  0  0  0  0  0  0  0  0  0
  143.9635  143.0960  155.0897 O   0  0  0  0  0  0  0  0  0  0  0  0
  144.8802  143.7869  154.2477 C   0  0  0  0  0  0  0  0  0  0  0  0
  146.0935  142.8858  153.9601 C   0  0  0  0  0  0  0  0  0  0  0  0
  152.9044  138.1613  155.9958 H   0  0  0  0  0  0  0  0  0  0  0  0
  152.4348  139.3443  154.7705 H   0  0  0  0  0  0  0  0  0  0  0  0
  151.1930  138.4264  155.6432 H   0  0  0  0  0  0  0  0  0  0  0  0
  153.6777  141.0886  160.3566 H   0  0  0  0  0  0  0  0  0  0  0  0
  152.7463  143.2251  161.2161 H   0  0  0  0  0  0  0  0  0  0  0  0
  151.0263  144.4608  159.9131 H   0  0  0  0  0  0  0  0  0  0  0  0
  150.2264  143.5590  157.7327 H   0  0  0  0  0  0  0  0  0  0  0  0
  150.6382  142.3242  155.1610 H   0  0  0  0  0  0  0  0  0  0  0  0
  150.5016  140.6296  154.7909 H   0  0  0  0  0  0  0  0  0  0  0  0
  148.7468  142.1442  156.8111 H   0  0  0  0  0  0  0  0  0  0  0  0
  148.0426  139.6394  156.0657 H   0  0  0  0  0  0  0  0  0  0  0  0
  148.4568  142.0285  154.0535 H   0  0  0  0  0  0  0  0  0  0  0  0
  147.5469  140.6244  154.5313 H   0  0  0  0  0  0  0  0  0  0  0  0
  145.4294  140.8598  155.5718 H   0  0  0  0  0  0  0  0  0  0  0  0
  146.2142  141.5084  156.9941 H   0  0  0  0  0  0  0  0  0  0  0  0
  143.8072  142.1504  156.9094 H   0  0  0  0  0  0  0  0  0  0  0  0
  144.8463  143.5633  156.8994 H   0  0  0  0  0  0  0  0  0  0  0  0
  144.3778  144.0553  153.3185 H   0  0  0  0  0  0  0  0  0  0  0  0
  145.1934  144.7171  154.7240 H   0  0  0  0  0  0  0  0  0  0  0  0
  146.8027  143.4283  153.3342 H   0  0  0  0  0  0  0  0  0  0  0  0
  145.7681  142.0186  153.3829 H   0  0  0  0  0  0  0  0  0  0  0  0
  1  2  1  0  0  0  0
  1 21  1  0  0  0  0
  1 22  1  0  0  0  0
  1 23  1  0  0  0  0
  2 10  1  0  0  0  0
  2  3  2  0  0  0  0
  3  4  1  0  0  0  0
  4  9  2  0  0  0  0
  4  5  1  0  0  0  0
  5  6  2  0  0  0  0
  5 24  1  0  0  0  0
  6  7  1  0  0  0  0
  6 25  1  0  0  0  0
  7  8  2  0  0  0  0
  7 26  1  0  0  0  0
  8  9  1  0  0  0  0
  8 27  1  0  0  0  0
  9 10  1  0  0  0  0
 10 11  1  0  0  0  0
 11 12  1  0  0  0  0
 11 28  1  0  0  0  0
 11 29  1  0  0  0  0
 12 13  1  0  0  0  0
 12 14  1  0  0  0  0
 12 30  1  0  0  0  0
 13 31  1  0  0  0  0
 14 15  1  0  0  0  0
 14 32  1  0  0  0  0
 14 33  1  0  0  0  0
 15 20  1  0  0  0  0
 15 16  1  0  0  0  0
 16 17  1  0  0  0  0
 16 34  1  0  0  0  0
 16 35  1  0  0  0  0
 17 18  1  0  0  0  0
 17 36  1  0  0  0  0
 17 37  1  0  0  0  0
 18 19  1  0  0  0  0
 19 20  1  0  0  0  0
 19 38  1  0  0  0  0
 19 39  1  0  0  0  0
 20 40  1  0  0  0  0
 20 41  1  0  0  0  0
M  END
> <s_m_source_file>
AV-unprocessed.smi

> <i_m_source_file_index>
356

> <i_lp_mmshare_version>
43012

> <i_f3d_flags>
0

> <s_epik_input>
W2NIXTFbY0hdW2NIXVtjSF1jKGMxMiluKGMobjIpW0NIM10pW0NIMl1bQ0BIXShbT0hdKVtDSDJdTjNbQ0gyXVtDSDJdT1tDSDJdW0NIMl0z

> <s_epik_cmdline>
J2VwaWtfcHl0aG9uJywgJy1waCcsICc3LjAnLCAnLXRuJywgJzgnLCAnLW1hJywgJzIwMCcsICctbWV0YWxfYmluZGluZycsICctaW1hZScsICc8aW5maWxlLm1hZT4nLCAnLW9tYWUnLCAnPG91dGZpbGUubWFlPic=

> <r_epik_Ionization_Penalty>
0.355661

> <r_epik_Ionization_Penalty_Charging>
0

> <r_epik_Ionization_Penalty_Neutral>
0.355661

> <r_epik_State_Penalty>
0.325123

> <r_epik_Charging_Adjusted_Penalty>
0.325123

> <i_epik_Tot_Q>
0

> <i_epik_Tot_abs_Q>
0

> <r_epik_Metal_State_Penalty>
0.239925

> <b_epik_Metal_Only>
0

> <s_lp_Force_Field>
OPLS_2005

> <r_lp_Energy>
27.9323

> <b_lp_Chiralities_Consistent>
1

> <s_lp_Variant>
AV-unprocessed.smi:356-1

> <Gold.Version>
5.8.1

> <Gold.Id.Protein>
6NUR|6NUR_protein|mol2

> <Gold.PLP.Fitness>
40.6881

> <Gold.PLP.PLP>
-39.0571

> <Gold.PLP.part.hbond>
-1.0000

> <Gold.PLP.part.metal>
0.0000

> <Gold.PLP.part.buried>
-5.7176

> <Gold.PLP.part.nonpolar>
-33.6077

> <Gold.PLP.part.repulsive>
1.1206

> <Gold.PLP.ligand.clash>
0.0000

> <Gold.PLP.ligand.torsion>
0.6521

> <Gold.PLP.Chemscore.Hbond>
0.9760

> <Gold.PLP.Chemscore.CHOScore>
0.0000

> <Gold.PLP.Chemscore.Metal>
0.0000

> <Gold.Chemscore.Hbonds>
donor molecule, donor type, donor heavy atom, donor atom, acceptor molecule, acceptor atom, score
      P1  H  7997  8008       L1     3  0.94

> <Gold.PLP.Chemscore.Internal.Correction>
0.0072

> <Gold.Rescore>
     Score         DG    S(hbond)    S(metal)    S(lipo)     H(rot)  DE(clash)    DE(int)     intcor
     12.91     -13.89       0.46        0.00     102.12       1.99       0.24       0.74       ----

> <Gold.Chemscore.Fitness>
12.9113

> <Gold.Chemscore.DG>
-13.8913

> <Gold.Chemscore.ZeroCoef>
-5.4800

> <Gold.Chemscore.Hbond>
0.4634

> <Gold.Chemscore.Metal>
0.0000

> <Gold.Chemscore.Lipo>
102.1249

> <Gold.Chemscore.Internal_Hbond>
0.0000

> <Gold.Chemscore.DEClash>
0.2366

> <Gold.Chemscore.DEInternal>
0.7435

> <Gold.Chemscore.Rot>
1.9863

> <Gold.Chemscore.Internal.Correction>
   9.000000E+99

> <Gold.Chemscore.Hbonds>
donor molecule, donor type, donor heavy atom, donor atom, acceptor molecule, acceptor atom, score
      P1  H  7997  8008       L1     3  0.20

> <Gold.Chemscore.Hbond.Weighted>
-1.5478

> <Gold.Chemscore.Metal.Weighted>
-0.0000

> <Gold.Chemscore.Lipo.Weighted>
-11.9486

> <Gold.Chemscore.Internal_Hbond.Weighted>
0.0000

> <Gold.Chemscore.DEClash.Weighted>
0.2366

> <Gold.Chemscore.DEInternal.Weighted>
0.7435

> <Gold.Chemscore.Rot.Weighted>
5.0850

> <Gold.Chemscore.Internal.Correction.Weighted>
   9.000000E+99

> <Gold.Protein.RotatedTorsions>
[ 6907 6896 6895 6894 ] final  -42.59 input  -60.11 | X-H torsion
[ 7974 7965 7964 7962 ] final -104.26 input  175.53 | X-H torsion
[ 8008 7997 7996 7995 ] final  -91.66 input   59.86 | X-H torsion
[ 10167 10162 10161 10158 ] final  -50.25 input  -65.29 | X-H torsion
[ 10718 10713 10712 10709 ] final  -95.42 input   66.30 | X-H torsion
[ 10763 10752 10751 10750 ] final  160.75 input  -60.55 | X-H torsion
[ 11005 11000 10999 10996 ] final   98.37 input  -57.11 | X-H torsion

> <Gold.Protein.ActiveResidues>
 VAL166  LYS551  ARG553  GLY616  TRP617  ASP618  TYR619  PRO620  LYS621  CYS622 
 ASP623  PHE694  ASN695  SER759  ASP760  ASP761  ALA762  ILE779  LEU786  VAL792 
 PHE793  MET794  SER795  GLU796  ALA797  LYS798  CYS799  TRP800  GLU811  SER814 

> <Gold.Protein.RotatedAtoms>
  150.9535  134.8932  159.7686 H   0  0  0  0  0  0  0  0  0  0  0  0  # atno 6907 bound_to 6896
  152.5129  134.3772  159.9349 H   0  0  0  0  0  0  0  0  0  0  0  0  # atno 6908 bound_to 6896
  151.3787  133.3788  159.2742 H   0  0  0  0  0  0  0  0  0  0  0  0  # atno 6909 bound_to 6896
  145.2454  140.9219  143.3126 H   0  0  0  0  0  0  0  0  0  0  0  0  # atno 7974 bound_to 7965
  154.7135  140.0517  157.0572 H   0  0  0  0  0  0  0  0  0  0  0  0  # atno 8008 bound_to 7997
  155.0523  140.3180  155.4669 H   0  0  0  0  0  0  0  0  0  0  0  0  # atno 8009 bound_to 7997
  156.2796  140.2113  156.5649 H   0  0  0  0  0  0  0  0  0  0  0  0  # atno 8010 bound_to 7997
  140.6646  143.2665  151.4332 H   0  0  0  0  0  0  0  0  0  0  0  0  # atno 10167 bound_to 10162
  156.0043  130.5108  150.6073 H   0  0  0  0  0  0  0  0  0  0  0  0  # atno 10718 bound_to 10713
  154.2522  135.2771  155.2812 H   0  0  0  0  0  0  0  0  0  0  0  0  # atno 10763 bound_to 10752
  154.5455  135.5690  153.6879 H   0  0  0  0  0  0  0  0  0  0  0  0  # atno 10764 bound_to 10752
  152.9978  135.6261  154.2670 H   0  0  0  0  0  0  0  0  0  0  0  0  # atno 10765 bound_to 10752
  139.8772  134.9046  156.4446 H   0  0  0  0  0  0  0  0  0  0  0  0  # atno 11005 bound_to 11000
  144.9551  139.4040  143.6383 LP  0  0  0  0  0  0  0  0  0  0  0  0  # atno 17320 bound_to 7965
  146.3317  139.8578  142.8861 LP  0  0  0  0  0  0  0  0  0  0  0  0  # atno 17321 bound_to 7965
  139.5891  144.1539  152.2066 LP  0  0  0  0  0  0  0  0  0  0  0  0  # atno 17342 bound_to 10162
  140.0887  144.5639  150.7070 LP  0  0  0  0  0  0  0  0  0  0  0  0  # atno 17343 bound_to 10162
  157.3912  131.0796  151.1392 LP  0  0  0  0  0  0  0  0  0  0  0  0  # atno 17370 bound_to 10713
  157.2083  130.6426  149.5764 LP  0  0  0  0  0  0  0  0  0  0  0  0  # atno 17371 bound_to 10713
  140.8975  133.7803  155.9642 LP  0  0  0  0  0  0  0  0  0  0  0  0  # atno 17394 bound_to 11000
  140.8687  134.2753  157.5201 LP  0  0  0  0  0  0  0  0  0  0  0  0  # atno 17395 bound_to 11000

$$$$
