#       Name:                AV-unprocessed.smi:72
#       Creating user name   scv26
#       Creation time:       Thu Mar 26 17:02:00 2020


#       File generated by GOLD software.
#

@<TRIPOS>MOLECULE
AV-unprocessed.smi:72
    41    42     1
SMALL
NO_CHARGES


@<TRIPOS>ATOM
      1 ****        -4.9226   0.0261   0.1108 N.pl3          1 S1                 0.0000
      2 ****        -3.5998  -0.3643   0.1131 C.2            1 S1                 0.0000
      3 ****        -2.6959   0.4327   0.7911 N.pl3          1 S1                 1.0000
      4 ****        -1.3784   0.2049   0.8762 C.2            1 S1                 0.0000
      5 ****        -0.8657  -0.8381   0.2509 N.am           1 S1                 0.0000
      6 ****         0.6112  -1.1592   0.3078 C.3            1 S1                 0.0000
      7 ****         1.2452  -0.1971   1.0881 O.3            1 S1                 0.0000
      8 ****         1.6570   0.8775   0.2539 C.3            1 S1                 0.0000
      9 ****         2.7126   1.7270   0.9760 C.3            1 S1                 0.0000
     10 ****         2.0763   2.6388   1.8458 O.3            1 S1                 0.0000
     11 ****         2.1912   0.1357  -0.9734 C.3            1 S1                 0.0000
     12 ****         2.0846   0.9546  -2.1203 O.3            1 S1                 0.0000
     13 ****         1.2646  -1.0744  -1.0906 C.3            1 S1                 0.0000
     14 ****         2.0084  -2.2384  -1.3864 O.3            1 S1                 0.0000
     15 ****        -1.7267  -1.7493  -0.4152 C.2            1 S1                 0.0000
     16 ****        -1.2721  -2.7695  -0.9319 O.2            1 S1                 0.0000
     17 ****        -3.0900  -1.4235  -0.4518 N.2            1 S1                 0.0000
     18 ****         0.6665  -2.1400   0.7837 H              1 S1                 0.0000
     19 ****         0.7939   1.4839  -0.0295 H              1 S1                 0.0000
     20 ****         3.2267  -0.1702  -0.8128 H              1 S1                 0.0000
     21 ****         0.5058  -0.9226  -1.8598 H              1 S1                 0.0000
     22 ****        -5.6528  -0.4977  -0.3508 H              1 S1                 0.0000
     23 ****        -5.2667   0.8592   0.5666 H              1 S1                 0.0000
     24 ****        -0.7739   0.8793   1.4683 H              1 S1                 0.0000
     25 ****         3.4190   1.1038   1.5254 H              1 S1                 0.0000
     26 ****         3.2857   2.3081   0.2528 H              1 S1                 0.0000
     27 ****         2.7396   3.1644   2.2668 H              1 S1                 0.0000
     28 ****         2.4070   0.4693  -2.8650 H              1 S1                 0.0000
     29 ****         1.4120  -2.9695  -1.4514 H              1 S1                 0.0000
     30 ****        -3.0618   1.2480   1.2622 H              1 S1                 0.0000
     31 ****         2.0441  -0.6004   1.5341 LP             1 S1                 0.0000
     32 ****         0.6111   0.1420   1.7831 LP             1 S1                 0.0000
     33 ****         1.5541   2.1381   2.5362 LP             1 S1                 0.0000
     34 ****         1.4595   3.2283   1.3241 LP             1 S1                 0.0000
     35 ****         2.6302   1.7833  -1.9954 LP             1 S1                 0.0000
     36 ****         1.1278   1.2048  -2.2688 LP             1 S1                 0.0000
     37 ****         2.6716  -2.4085  -0.6576 LP             1 S1                 0.0000
     38 ****         2.4903  -2.1186  -2.2544 LP             1 S1                 0.0000
     39 ****        -0.2916  -2.9601  -0.8838 LP             1 S1                 0.0000
     40 ****        -1.8832  -3.4079  -1.3999 LP             1 S1                 0.0000
     41 ****        -3.7080  -2.0398  -0.9400 LP             1 S1                 0.0000
@<TRIPOS>BOND
    1    1    2 1     
    2    1   22 1     
    3    1   23 1     
    4    2   17 2     
    5    2    3 1     
    6    3    4 2     
    7    3   30 1     
    8    4    5 1     
    9    4   24 1     
   10    5    6 1     
   11    5   15 am    
   12    6   18 1     
   13    6   13 1     
   14    6    7 1     
   15    7    8 1     
   16    8   19 1     
   17    8    9 1     
   18    8   11 1     
   19    9   10 1     
   20    9   25 1     
   21    9   26 1     
   22   10   27 1     
   23   11   20 1     
   24   11   12 1     
   25   11   13 1     
   26   12   28 1     
   27   13   21 1     
   28   13   14 1     
   29   14   29 1     
   30   15   16 2     
   31   15   17 1     
   32    7   31 1     
   33    7   32 1     
   34   10   33 1     
   35   10   34 1     
   36   12   35 1     
   37   12   36 1     
   38   14   37 1     
   39   14   38 1     
   40   16   39 1     
   41   16   40 1     
   42   17   41 1     
@<TRIPOS>SUBSTRUCTURE
      1 S1             1
@<TRIPOS>SET
LONE_PAIRS      STATIC     ATOMS    <user>   **** ""
11 31 32 33 34 35 36 37 38 39 40 41
DONOR_HYDROGENS      STATIC     ATOMS    <user>   **** ""
6 22 23 30 27 28 29
ATOM$BLUE        STATIC     ATOMS    COLORGROUP SYSTEM
11 31 32 33 34 35 36 37 38 39 40 41
ATOM$RED        STATIC     ATOMS    COLORGROUP SYSTEM
6 22 23 30 27 28 29
