#       Name:                AV-unprocessed.smi:1106
#       Creating user name   scv26
#       Creation time:       Fri Mar 27 03:31:53 2020


#       File generated by GOLD software.
#

@<TRIPOS>MOLECULE
AV-unprocessed.smi:1106
    55    56     1
SMALL
NO_CHARGES


@<TRIPOS>ATOM
      1 ****        -5.5473   2.9185   2.4352 C.3            1 S1                 0.0000
      2 ****        -4.0764   3.3348   2.2869 C.3            1 S1                 0.0000
      3 ****        -3.4670   2.8246   1.0865 N.am           1 S1                 0.0000
      4 ****        -3.3423   3.6002  -0.0498 C.2            1 S1                 0.0000
      5 ****        -2.7786   3.1447  -1.1894 C.2            1 S1                 0.0000
      6 ****        -2.6546   3.9685  -2.3461 C.1            1 S1                 0.0000
      7 ****        -2.5568   4.6566  -3.2713 N.1            1 S1                 0.0000
      8 ****        -2.2651   1.7800  -1.2853 C.2            1 S1                 0.0000
      9 ****        -1.7161   1.3240  -2.2908 O.2            1 S1                 0.0000
     10 ****        -2.4308   1.0051  -0.1094 N.am           1 S1                 0.0000
     11 ****        -1.9309  -0.3604  -0.1266 C.3            1 S1                 0.0000
     12 ****        -0.4158  -0.4567   0.1571 C.3            1 S1                 0.0000
     13 ****        -0.2231  -0.5047   1.5573 O.3            1 S1                 0.0000
     14 ****         0.1870  -1.7498  -0.4265 C.3            1 S1                 0.0000
     15 ****         1.6645  -1.7901  -0.2842 N.4            1 S1                 1.0000
     16 ****         2.3744  -1.0218  -1.3406 C.3            1 S1                 0.0000
     17 ****         3.8863  -0.9699  -1.0655 C.3            1 S1                 0.0000
     18 ****         4.4799  -2.3833  -0.9360 C.3            1 S1                 0.0000
     19 ****         5.9834  -2.3415  -0.6288 C.3            1 S1                 0.0000
     20 ****         3.6993  -3.1656   0.1340 C.3            1 S1                 0.0000
     21 ****         2.1913  -3.1735  -0.1684 C.3            1 S1                 0.0000
     22 ****        -3.0076   1.4868   1.0902 C.2            1 S1                 0.0000
     23 ****        -3.1003   0.7793   2.0970 O.2            1 S1                 0.0000
     24 ****        -5.9816   3.3562   3.3338 H              1 S1                 0.0000
     25 ****        -5.6539   1.8363   2.5119 H              1 S1                 0.0000
     26 ****        -6.1388   3.2540   1.5829 H              1 S1                 0.0000
     27 ****        -3.9885   4.4206   2.2296 H              1 S1                 0.0000
     28 ****        -3.4617   3.0161   3.1307 H              1 S1                 0.0000
     29 ****        -3.7090   4.6167  -0.0261 H              1 S1                 0.0000
     30 ****        -2.5271  -0.9691   0.5556 H              1 S1                 0.0000
     31 ****        -2.1732  -0.7583  -1.1136 H              1 S1                 0.0000
     32 ****         0.0976   0.4159  -0.2459 H              1 S1                 0.0000
     33 ****        -0.6427   0.2482   1.9465 H              1 S1                 0.0000
     34 ****        -0.2657  -2.6039   0.0803 H              1 S1                 0.0000
     35 ****        -0.0721  -1.8548  -1.4813 H              1 S1                 0.0000
     36 ****         2.1878  -1.4804  -2.3129 H              1 S1                 0.0000
     37 ****         1.9876  -0.0047  -1.3948 H              1 S1                 0.0000
     38 ****         4.3857  -0.4276  -1.8690 H              1 S1                 0.0000
     39 ****         4.0697  -0.4042  -0.1507 H              1 S1                 0.0000
     40 ****         4.3515  -2.8951  -1.8909 H              1 S1                 0.0000
     41 ****         6.1823  -1.8356   0.3164 H              1 S1                 0.0000
     42 ****         6.5286  -1.8119  -1.4106 H              1 S1                 0.0000
     43 ****         6.3994  -3.3473  -0.5620 H              1 S1                 0.0000
     44 ****         4.0664  -4.1909   0.1914 H              1 S1                 0.0000
     45 ****         3.8703  -2.7217   1.1159 H              1 S1                 0.0000
     46 ****         1.6714  -3.7007   0.6326 H              1 S1                 0.0000
     47 ****         1.9919  -3.7200  -1.0916 H              1 S1                 0.0000
     48 ****         1.8690  -1.3416   0.5978 H              1 S1                 0.0000
     49 ****        -2.4722   5.2512  -4.0709 LP             1 S1                 0.0000
     50 ****        -1.6019   1.8977  -3.1018 LP             1 S1                 0.0000
     51 ****        -1.3850   0.3804  -2.2953 LP             1 S1                 0.0000
     52 ****         0.7554  -0.4888   1.7632 LP             1 S1                 0.0000
     53 ****        -0.6273  -1.3426   1.9242 LP             1 S1                 0.0000
     54 ****        -3.5067   1.1492   2.9324 LP             1 S1                 0.0000
     55 ****        -2.7689  -0.1641   2.0774 LP             1 S1                 0.0000
@<TRIPOS>BOND
    1    1    2 1     
    2    1   24 1     
    3    1   25 1     
    4    1   26 1     
    5    2    3 1     
    6    2   27 1     
    7    2   28 1     
    8    3   22 am    
    9    3    4 1     
   10    4    5 2     
   11    4   29 1     
   12    5    6 1     
   13    5    8 1     
   14    6    7 3     
   15    8    9 2     
   16    8   10 am    
   17   10   11 1     
   18   10   22 am    
   19   11   12 1     
   20   11   30 1     
   21   11   31 1     
   22   12   13 1     
   23   12   14 1     
   24   12   32 1     
   25   13   33 1     
   26   14   15 1     
   27   14   34 1     
   28   14   35 1     
   29   15   21 1     
   30   15   16 1     
   31   15   48 1     
   32   16   17 1     
   33   16   36 1     
   34   16   37 1     
   35   17   18 1     
   36   17   38 1     
   37   17   39 1     
   38   18   19 1     
   39   18   20 1     
   40   18   40 1     
   41   19   41 1     
   42   19   42 1     
   43   19   43 1     
   44   20   21 1     
   45   20   44 1     
   46   20   45 1     
   47   21   46 1     
   48   21   47 1     
   49   22   23 2     
   50    7   49 1     
   51    9   50 1     
   52    9   51 1     
   53   13   52 1     
   54   13   53 1     
   55   23   54 1     
   56   23   55 1     
@<TRIPOS>SUBSTRUCTURE
      1 S1             1
@<TRIPOS>SET
LONE_PAIRS      STATIC     ATOMS    <user>   **** ""
7 49 50 51 52 53 54 55
DONOR_HYDROGENS      STATIC     ATOMS    <user>   **** ""
2 33 48
ATOM$BLUE        STATIC     ATOMS    COLORGROUP SYSTEM
7 49 50 51 52 53 54 55
ATOM$RED        STATIC     ATOMS    COLORGROUP SYSTEM
2 33 48
