#       Name:                AV-unprocessed.smi:38
#       Creating user name   scv26
#       Creation time:       Thu Mar 26 16:17:32 2020


#       File generated by GOLD software.
#

@<TRIPOS>MOLECULE
AV-unprocessed.smi:38
    38    39     1
SMALL
NO_CHARGES


@<TRIPOS>ATOM
      1 ****        -4.1776   3.0005   1.7494 O.2            1 S1                 0.0000
      2 ****        -3.2471   2.3963   1.2198 C.2            1 S1                 0.0000
      3 ****        -3.0032   2.5412  -0.1492 N.am           1 S1                 0.0000
      4 ****        -1.9808   1.9125  -0.8626 C.2            1 S1                 0.0000
      5 ****        -1.8727   2.1026  -2.0732 O.2            1 S1                 0.0000
      6 ****        -1.1138   1.0667  -0.1352 N.am           1 S1                 0.0000
      7 ****         0.0166   0.3621  -0.8495 C.3            1 S1                 0.0000
      8 ****        -0.3532  -1.0930  -1.1553 C.3            1 S1                 0.0000
      9 ****         0.9483  -1.8192  -0.8791 C.3            1 S1                 0.0000
     10 ****         1.7662  -1.8325  -2.0340 O.3            1 S1                 0.0000
     11 ****         1.5517  -0.9781   0.2551 C.3            1 S1                 0.0000
     12 ****         3.0758  -1.0600   0.4488 C.3            1 S1                 0.0000
     13 ****         3.4501  -2.3623   0.8449 O.3            1 S1                 0.0000
     14 ****         1.1437   0.3595  -0.0223 O.3            1 S1                 0.0000
     15 ****        -1.3272   0.8819   1.2242 C.2            1 S1                 0.0000
     16 ****        -2.3253   1.4942   1.9038 C.2            1 S1                 0.0000
     17 ****        -2.4706   1.2639   3.2198 F              1 S1                 0.0000
     18 ****        -3.6219   3.1490  -0.6663 H              1 S1                 0.0000
     19 ****         0.2690   0.9392  -1.7404 H              1 S1                 0.0000
     20 ****         0.7778  -2.8509  -0.5692 H              1 S1                 0.0000
     21 ****         1.0643  -1.2671   1.1873 H              1 S1                 0.0000
     22 ****        -1.1214  -1.4317  -0.4584 H              1 S1                 0.0000
     23 ****        -0.7291  -1.2046  -2.1731 H              1 S1                 0.0000
     24 ****         2.5762  -2.2711  -1.8215 H              1 S1                 0.0000
     25 ****         3.6123  -0.7807  -0.4581 H              1 S1                 0.0000
     26 ****         3.3876  -0.3638   1.2277 H              1 S1                 0.0000
     27 ****         4.3838  -2.3746   0.9913 H              1 S1                 0.0000
     28 ****        -0.6785   0.2190   1.7763 H              1 S1                 0.0000
     29 ****        -4.3515   2.8923   2.7282 LP             1 S1                 0.0000
     30 ****        -4.7608   3.6002   1.2013 LP             1 S1                 0.0000
     31 ****        -2.5163   2.7062  -2.5440 LP             1 S1                 0.0000
     32 ****        -1.1414   1.6536  -2.5866 LP             1 S1                 0.0000
     33 ****         1.9561  -0.8945  -2.3240 LP             1 S1                 0.0000
     34 ****         1.3008  -2.3216  -2.7717 LP             1 S1                 0.0000
     35 ****         3.2129  -3.0149   0.1253 LP             1 S1                 0.0000
     36 ****         2.9732  -2.6084   1.6886 LP             1 S1                 0.0000
     37 ****         0.9234   0.8220   0.8365 LP             1 S1                 0.0000
     38 ****         1.8895   0.8437  -0.4798 LP             1 S1                 0.0000
@<TRIPOS>BOND
    1    1    2 2     
    2    2   16 1     
    3    2    3 1     
    4    3   18 1     
    5    3    4 1     
    6    4    5 2     
    7    4    6 1     
    8    6    7 1     
    9    6   15 1     
   10    7   19 1     
   11    7   14 1     
   12    7    8 1     
   13    8    9 1     
   14    8   22 1     
   15    8   23 1     
   16    9   20 1     
   17    9   10 1     
   18    9   11 1     
   19   10   24 1     
   20   11   21 1     
   21   11   12 1     
   22   11   14 1     
   23   12   13 1     
   24   12   25 1     
   25   12   26 1     
   26   13   27 1     
   27   15   16 2     
   28   15   28 1     
   29   16   17 1     
   30    1   29 1     
   31    1   30 1     
   32    5   31 1     
   33    5   32 1     
   34   10   33 1     
   35   10   34 1     
   36   13   35 1     
   37   13   36 1     
   38   14   37 1     
   39   14   38 1     
@<TRIPOS>SUBSTRUCTURE
      1 S1             1
@<TRIPOS>SET
LONE_PAIRS      STATIC     ATOMS    <user>   **** ""
10 29 30 31 32 33 34 35 36 37 38
DONOR_HYDROGENS      STATIC     ATOMS    <user>   **** ""
3 18 24 27
ATOM$BLUE        STATIC     ATOMS    COLORGROUP SYSTEM
10 29 30 31 32 33 34 35 36 37 38
ATOM$RED        STATIC     ATOMS    COLORGROUP SYSTEM
3 18 24 27
