AV-unprocessed.smi:1291|AV-procd|sdf|5394|dock5
  -GOLD-   22720 4553D 1   1.00000     0.00000
 Structure written by MMmdl.
 44 46  0  0  0  0  0  0  0  0  2 V2000
  148.9944  141.8971  154.8958 O   0  0  0  0  0  0  0  0  0  0  0  0
  149.8527  140.9420  155.4822 C   0  0  0  0  0  0  0  0  0  0  0  0
  150.5465  141.4535  156.7042 C   0  0  0  0  0  0  0  0  0  0  0  0
  150.3757  142.6833  157.2679 N   0  3  0  0  0  0  0  0  0  0  0  0
  151.1821  142.8029  158.3997 C   0  0  0  0  0  0  0  0  0  0  0  0
  151.3498  143.8582  159.2909 C   0  0  0  0  0  0  0  0  0  0  0  0
  152.2596  143.6537  160.3490 C   0  0  0  0  0  0  0  0  0  0  0  0
  152.9620  142.4393  160.4888 C   0  0  0  0  0  0  0  0  0  0  0  0
  152.7840  141.3770  159.5782 C   0  0  0  0  0  0  0  0  0  0  0  0
  151.8801  141.5855  158.5363 C   0  0  0  0  0  0  0  0  0  0  0  0
  151.4549  140.7830  157.4701 N   0  0  0  0  0  0  0  0  0  0  0  0
  151.9967  139.4220  157.3253 C   0  0  0  0  0  0  0  0  0  0  0  0
  150.9479  138.3267  157.6072 C   0  0  1  0  0  0  0  0  0  0  0  0
  151.0883  137.2237  156.7346 O   0  0  0  0  0  0  0  0  0  0  0  0
  150.9608  137.8241  159.0598 C   0  0  0  0  0  0  0  0  0  0  0  0
  150.1090  136.6966  159.1905 O   0  0  0  0  0  0  0  0  0  0  0  0
  148.7818  137.0435  159.5453 C   0  0  0  0  0  0  0  0  0  0  0  0
  148.2134  136.0681  160.5576 C   0  0  0  0  0  0  0  0  0  0  0  0
  147.9055  136.5086  161.8620 C   0  0  0  0  0  0  0  0  0  0  0  0
  147.3832  135.6070  162.8099 C   0  0  0  0  0  0  0  0  0  0  0  0
  147.1665  134.2611  162.4569 C   0  0  0  0  0  0  0  0  0  0  0  0
  147.4758  133.8166  161.1570 C   0  0  0  0  0  0  0  0  0  0  0  0
  148.0003  134.7163  160.2084 C   0  0  0  0  0  0  0  0  0  0  0  0
  148.3000  134.2744  158.9633 F   0  0  0  0  0  0  0  0  0  0  0  0
  149.2821  142.7594  155.1555 H   0  0  0  0  0  0  0  0  0  0  0  0
  149.2731  140.0574  155.7465 H   0  0  0  0  0  0  0  0  0  0  0  0
  150.5912  140.6372  154.7406 H   0  0  0  0  0  0  0  0  0  0  0  0
  150.8143  144.7901  159.1842 H   0  0  0  0  0  0  0  0  0  0  0  0
  152.4233  144.4447  161.0668 H   0  0  0  0  0  0  0  0  0  0  0  0
  153.6528  142.3196  161.3108 H   0  0  0  0  0  0  0  0  0  0  0  0
  153.3328  140.4538  159.6931 H   0  0  0  0  0  0  0  0  0  0  0  0
  152.4294  139.3163  156.3305 H   0  0  0  0  0  0  0  0  0  0  0  0
  152.8278  139.3260  158.0247 H   0  0  0  0  0  0  0  0  0  0  0  0
  149.9576  138.7380  157.4087 H   0  0  0  0  0  0  0  0  0  0  0  0
  151.3205  136.4648  157.2471 H   0  0  0  0  0  0  0  0  0  0  0  0
  151.9773  137.5340  159.3300 H   0  0  0  0  0  0  0  0  0  0  0  0
  150.6606  138.6189  159.7446 H   0  0  0  0  0  0  0  0  0  0  0  0
  148.7613  138.0508  159.9648 H   0  0  0  0  0  0  0  0  0  0  0  0
  148.1459  137.0580  158.6587 H   0  0  0  0  0  0  0  0  0  0  0  0
  148.0706  137.5393  162.1399 H   0  0  0  0  0  0  0  0  0  0  0  0
  147.1498  135.9472  163.8081 H   0  0  0  0  0  0  0  0  0  0  0  0
  146.7655  133.5697  163.1831 H   0  0  0  0  0  0  0  0  0  0  0  0
  147.3127  132.7836  160.8871 H   0  0  0  0  0  0  0  0  0  0  0  0
  149.7513  143.3882  156.8969 H   0  0  0  0  0  0  0  0  0  0  0  0
  1  2  1  0  0  0  0
  1 25  1  0  0  0  0
  2  3  1  0  0  0  0
  2 26  1  0  0  0  0
  2 27  1  0  0  0  0
  3 11  1  0  0  0  0
  3  4  2  0  0  0  0
  4  5  1  0  0  0  0
  4 44  1  0  0  0  0
  5 10  2  0  0  0  0
  5  6  1  0  0  0  0
  6  7  2  0  0  0  0
  6 28  1  0  0  0  0
  7  8  1  0  0  0  0
  7 29  1  0  0  0  0
  8  9  2  0  0  0  0
  8 30  1  0  0  0  0
  9 10  1  0  0  0  0
  9 31  1  0  0  0  0
 10 11  1  0  0  0  0
 11 12  1  0  0  0  0
 12 13  1  0  0  0  0
 12 32  1  0  0  0  0
 12 33  1  0  0  0  0
 13 14  1  0  0  0  0
 13 15  1  0  0  0  0
 13 34  1  0  0  0  0
 14 35  1  0  0  0  0
 15 16  1  0  0  0  0
 15 36  1  0  0  0  0
 15 37  1  0  0  0  0
 16 17  1  0  0  0  0
 17 18  1  0  0  0  0
 17 38  1  0  0  0  0
 17 39  1  0  0  0  0
 18 23  1  0  0  0  0
 18 19  2  0  0  0  0
 19 20  1  0  0  0  0
 19 40  1  0  0  0  0
 20 21  2  0  0  0  0
 20 41  1  0  0  0  0
 21 22  1  0  0  0  0
 21 42  1  0  0  0  0
 22 23  2  0  0  0  0
 22 43  1  0  0  0  0
 23 24  1  0  0  0  0
M  CHG  1   4   1
M  END
> <s_m_source_file>
AV-unprocessed.smi

> <i_m_source_file_index>
1291

> <i_lp_mmshare_version>
43012

> <i_f3d_flags>
0

> <s_epik_input>
W2NIXTFbY0hdW2NIXVtjSF1jKGMxMiluKGMobjIpW0NIMl1bT0hdKVtDSDJdW0NASF0oW09IXSlbQ0gyXU9bQ0gyXWMzW2NIXVtjSF1bY0hdW2NIXWMzRg==

> <s_epik_cmdline>
J2VwaWtfcHl0aG9uJywgJy1waCcsICc3LjAnLCAnLXRuJywgJzgnLCAnLW1hJywgJzIwMCcsICctbWV0YWxfYmluZGluZycsICctaW1hZScsICc8aW5maWxlLm1hZT4nLCAnLW9tYWUnLCAnPG91dGZpbGUubWFlPic=

> <r_epik_Ionization_Penalty>
1.34314

> <r_epik_Ionization_Penalty_Charging>
1.34228

> <r_epik_Ionization_Penalty_Neutral>
0.000856861

> <r_epik_State_Penalty>
1.41963

> <r_epik_Charging_Adjusted_Penalty>
2.76191

> <i_epik_Tot_Q>
1

> <i_epik_Tot_abs_Q>
1

> <r_epik_Metal_State_Penalty>
5.45585

> <b_epik_Metal_Only>
0

> <s_lp_Force_Field>
OPLS_2005

> <r_lp_Energy>
19.0817

> <b_lp_Chiralities_Consistent>
1

> <s_lp_Variant>
AV-unprocessed.smi:1291-4

> <Gold.Version>
5.8.1

> <Gold.Id.Protein>
6NUR|6NUR_protein|mol2

> <Gold.PLP.Fitness>
62.1847

> <Gold.PLP.PLP>
-52.0698

> <Gold.PLP.part.hbond>
-3.0000

> <Gold.PLP.part.metal>
0.0000

> <Gold.PLP.part.buried>
-6.1409

> <Gold.PLP.part.nonpolar>
-44.1446

> <Gold.PLP.part.repulsive>
0.0146

> <Gold.PLP.ligand.clash>
0.0000

> <Gold.PLP.ligand.torsion>
1.1444

> <Gold.PLP.Chemscore.Hbond>
4.0000

> <Gold.PLP.Chemscore.CHOScore>
0.0000

> <Gold.PLP.Chemscore.Metal>
0.0000

> <Gold.Chemscore.Hbonds>
donor molecule, donor type, donor heavy atom, donor atom, acceptor molecule, acceptor atom, score
      L1  H     1    25       P1  8028  0.94
      L1  H     4    44       P1  8028  2.00
      P1  H  6896  6907       L1    16  0.99

> <Gold.PLP.Chemscore.Internal.Correction>
0.4037

> <Gold.Rescore>
     Score         DG    S(hbond)    S(metal)    S(lipo)     H(rot)  DE(clash)    DE(int)     intcor
     20.46     -21.85       2.86        0.00     133.41       3.44       0.15       1.25       ----

> <Gold.Chemscore.Fitness>
20.4575

> <Gold.Chemscore.DG>
-21.8528

> <Gold.Chemscore.ZeroCoef>
-5.4800

> <Gold.Chemscore.Hbond>
2.8619

> <Gold.Chemscore.Metal>
0.0000

> <Gold.Chemscore.Lipo>
133.4054

> <Gold.Chemscore.Internal_Hbond>
0.0000

> <Gold.Chemscore.DEClash>
0.1454

> <Gold.Chemscore.DEInternal>
1.2499

> <Gold.Chemscore.Rot>
3.4353

> <Gold.Chemscore.Internal.Correction>
   9.000000E+99

> <Gold.Chemscore.Hbonds>
donor molecule, donor type, donor heavy atom, donor atom, acceptor molecule, acceptor atom, score
      L1  H     1    25       P1  8028  0.86
      L1  H     4    44       P1  8028  0.95
      P1  H  6896  6907       L1    16  0.89

> <Gold.Chemscore.Hbond.Weighted>
-9.5587

> <Gold.Chemscore.Metal.Weighted>
-0.0000

> <Gold.Chemscore.Lipo.Weighted>
-15.6084

> <Gold.Chemscore.Internal_Hbond.Weighted>
0.0000

> <Gold.Chemscore.DEClash.Weighted>
0.1454

> <Gold.Chemscore.DEInternal.Weighted>
1.2499

> <Gold.Chemscore.Rot.Weighted>
8.7944

> <Gold.Chemscore.Internal.Correction.Weighted>
   9.000000E+99

> <Gold.Protein.RotatedTorsions>
[ 6907 6896 6895 6894 ] final  -49.95 input  -60.11 | X-H torsion
[ 7974 7965 7964 7962 ] final  -52.83 input  175.53 | X-H torsion
[ 8008 7997 7996 7995 ] final -111.13 input   59.86 | X-H torsion
[ 10167 10162 10161 10158 ] final -162.89 input  -65.29 | X-H torsion
[ 10718 10713 10712 10709 ] final -126.32 input   66.30 | X-H torsion
[ 10763 10752 10751 10750 ] final  174.45 input  -60.55 | X-H torsion
[ 11005 11000 10999 10996 ] final  -92.70 input  -57.11 | X-H torsion

> <Gold.Protein.ActiveResidues>
 VAL166  LYS551  ARG553  GLY616  TRP617  ASP618  TYR619  PRO620  LYS621  CYS622 
 ASP623  PHE694  ASN695  SER759  ASP760  ASP761  ALA762  ILE779  LEU786  VAL792 
 PHE793  MET794  SER795  GLU796  ALA797  LYS798  CYS799  TRP800  GLU811  SER814 

> <Gold.Protein.RotatedAtoms>
  150.8754  134.8136  159.7185 H   0  0  0  0  0  0  0  0  0  0  0  0  # atno 6907 bound_to 6896
  152.4743  134.4880  159.9696 H   0  0  0  0  0  0  0  0  0  0  0  0  # atno 6908 bound_to 6896
  151.4962  133.3475  159.2897 H   0  0  0  0  0  0  0  0  0  0  0  0  # atno 6909 bound_to 6896
  145.9036  140.7974  142.9731 H   0  0  0  0  0  0  0  0  0  0  0  0  # atno 7974 bound_to 7965
  154.9851  140.0396  157.2295 H   0  0  0  0  0  0  0  0  0  0  0  0  # atno 8008 bound_to 7997
  154.7678  140.2796  155.6139 H   0  0  0  0  0  0  0  0  0  0  0  0  # atno 8009 bound_to 7997
  156.2916  140.2616  156.2473 H   0  0  0  0  0  0  0  0  0  0  0  0  # atno 8010 bound_to 7997
  139.6359  144.0350  152.2054 H   0  0  0  0  0  0  0  0  0  0  0  0  # atno 10167 bound_to 10162
  156.1755  130.6696  151.0236 H   0  0  0  0  0  0  0  0  0  0  0  0  # atno 10718 bound_to 10713
  154.4541  135.2765  155.1760 H   0  0  0  0  0  0  0  0  0  0  0  0  # atno 10763 bound_to 10752
  154.3575  135.6136  153.5677 H   0  0  0  0  0  0  0  0  0  0  0  0  # atno 10764 bound_to 10752
  152.9849  135.5826  154.4891 H   0  0  0  0  0  0  0  0  0  0  0  0  # atno 10765 bound_to 10752
  141.1515  133.7838  157.0057 H   0  0  0  0  0  0  0  0  0  0  0  0  # atno 11005 bound_to 11000
  144.6737  140.1715  143.7414 LP  0  0  0  0  0  0  0  0  0  0  0  0  # atno 17320 bound_to 7965
  145.8760  139.2297  143.1633 LP  0  0  0  0  0  0  0  0  0  0  0  0  # atno 17321 bound_to 7965
  140.0027  144.6281  150.7715 LP  0  0  0  0  0  0  0  0  0  0  0  0  # atno 17342 bound_to 10162
  140.7465  143.2892  151.3378 LP  0  0  0  0  0  0  0  0  0  0  0  0  # atno 17343 bound_to 10162
  157.6832  131.0832  150.7313 LP  0  0  0  0  0  0  0  0  0  0  0  0  # atno 17370 bound_to 10713
  156.7371  130.4727  149.5486 LP  0  0  0  0  0  0  0  0  0  0  0  0  # atno 17371 bound_to 10713
  140.0911  134.9592  157.1777 LP  0  0  0  0  0  0  0  0  0  0  0  0  # atno 17394 bound_to 11000
  140.3445  134.2667  155.7207 LP  0  0  0  0  0  0  0  0  0  0  0  0  # atno 17395 bound_to 11000

$$$$
