AV-unprocessed.smi:2451|AV-procd|sdf|9681|dock3
  -GOLD-   2272013323D 1   1.00000     0.00000
 Structure written by MMmdl.
 37 38  0  0  0  0  0  0  0  0  2 V2000
  152.2037  143.1362  161.4018 C   0  0  0  0  0  0  0  0  0  0  0  0
  152.9594  143.3063  160.0626 C   0  0  2  0  0  0  0  0  0  0  0  0
  152.1155  144.1035  159.0381 C   0  0  0  0  0  0  0  0  0  0  0  0
  151.0230  143.2070  158.4207 C   0  0  0  0  0  0  0  0  0  0  0  0
  151.6063  141.9209  157.7903 C   0  0  0  0  0  0  0  0  0  0  0  0
  152.4540  141.0775  158.7732 C   0  0  1  0  0  0  0  0  0  0  0  0
  153.0805  139.9829  158.0444 N   0  5  0  0  0  0  0  0  0  0  0  0
  152.1800  138.7212  157.5707 S   0  0  0  0  0  0  0  0  0  0  0  0
  152.7556  137.4280  157.9755 O   0  0  0  0  0  0  0  0  0  0  0  0
  150.7453  138.9238  157.8318 O   0  0  0  0  0  0  0  0  0  0  0  0
  152.3901  138.8239  155.7423 C   0  0  0  0  0  0  0  0  0  0  0  0
  151.0703  139.1159  155.0859 C   0  0  0  0  0  0  0  0  0  0  0  0
  150.1306  138.1971  154.5412 C   0  0  0  0  0  0  0  0  0  0  0  0
  149.1261  139.0005  154.0849 C   0  0  0  0  0  0  0  0  0  0  0  0
  149.4096  140.3039  154.3331 O   0  0  0  0  0  0  0  0  0  0  0  0
  150.6512  140.3675  154.9756 N   0  0  0  0  0  0  0  0  0  0  0  0
  153.5363  141.9827  159.4501 C   0  0  2  0  0  0  0  0  0  0  0  0
  154.4250  141.2299  160.4701 C   0  0  0  0  0  0  0  0  0  0  0  0
  151.3320  142.4891  161.3063 H   0  0  0  0  0  0  0  0  0  0  0  0
  151.8537  144.0992  161.7738 H   0  0  0  0  0  0  0  0  0  0  0  0
  152.8453  142.7153  162.1752 H   0  0  0  0  0  0  0  0  0  0  0  0
  153.8178  143.9371  160.2976 H   0  0  0  0  0  0  0  0  0  0  0  0
  151.6710  144.9850  159.5011 H   0  0  0  0  0  0  0  0  0  0  0  0
  152.7659  144.4704  158.2431 H   0  0  0  0  0  0  0  0  0  0  0  0
  150.2770  142.9545  159.1764 H   0  0  0  0  0  0  0  0  0  0  0  0
  150.4869  143.7697  157.6562 H   0  0  0  0  0  0  0  0  0  0  0  0
  150.7927  141.3133  157.3921 H   0  0  0  0  0  0  0  0  0  0  0  0
  152.2186  142.2052  156.9330 H   0  0  0  0  0  0  0  0  0  0  0  0
  151.7885  140.7129  159.5567 H   0  0  0  0  0  0  0  0  0  0  0  0
  153.1164  139.6067  155.5257 H   0  0  0  0  0  0  0  0  0  0  0  0
  152.8071  137.8782  155.3952 H   0  0  0  0  0  0  0  0  0  0  0  0
  150.1909  137.1203  154.4882 H   0  0  0  0  0  0  0  0  0  0  0  0
  148.1880  138.8053  153.5870 H   0  0  0  0  0  0  0  0  0  0  0  0
  154.2086  142.3038  158.6520 H   0  0  0  0  0  0  0  0  0  0  0  0
  153.8458  140.7790  161.2776 H   0  0  0  0  0  0  0  0  0  0  0  0
  155.1455  141.9086  160.9269 H   0  0  0  0  0  0  0  0  0  0  0  0
  155.0051  140.4327  160.0019 H   0  0  0  0  0  0  0  0  0  0  0  0
  1  2  1  0  0  0  0
  1 19  1  0  0  0  0
  1 20  1  0  0  0  0
  1 21  1  0  0  0  0
  2 17  1  0  0  0  0
  2  3  1  0  0  0  0
  2 22  1  0  0  0  0
  3  4  1  0  0  0  0
  3 23  1  0  0  0  0
  3 24  1  0  0  0  0
  4  5  1  0  0  0  0
  4 25  1  0  0  0  0
  4 26  1  0  0  0  0
  5  6  1  0  0  0  0
  5 27  1  0  0  0  0
  5 28  1  0  0  0  0
  6  7  1  0  0  0  0
  6 17  1  0  0  0  0
  6 29  1  0  0  0  0
  7  8  1  0  0  0  0
  8  9  2  0  0  0  0
  8 10  2  0  0  0  0
  8 11  1  0  0  0  0
 11 12  1  0  0  0  0
 11 30  1  0  0  0  0
 11 31  1  0  0  0  0
 12 16  2  0  0  0  0
 12 13  1  0  0  0  0
 13 14  2  0  0  0  0
 13 32  1  0  0  0  0
 14 15  1  0  0  0  0
 14 33  1  0  0  0  0
 15 16  1  0  0  0  0
 17 18  1  0  0  0  0
 17 34  1  0  0  0  0
 18 35  1  0  0  0  0
 18 36  1  0  0  0  0
 18 37  1  0  0  0  0
M  CHG  1   7  -1
M  END
> <s_m_source_file>
AV-unprocessed.smi

> <i_m_source_file_index>
2451

> <i_lp_mmshare_version>
43012

> <i_f3d_flags>
0

> <s_epik_input>
W0NIM11bQ0BASF0xW0NIMl1bQ0gyXVtDSDJdW0NASF0oW0NASF0xW0NIM10pW05IXVMoPU8pKD1PKVtDSDJdYzJbY0hdW2NIXW9uMg==

> <s_epik_cmdline>
J2VwaWtfcHl0aG9uJywgJy1waCcsICc3LjAnLCAnLXRuJywgJzgnLCAnLW1hJywgJzIwMCcsICctbWV0YWxfYmluZGluZycsICctaW1hZScsICc8aW5maWxlLm1hZT4nLCAnLW9tYWUnLCAnPG91dGZpbGUubWFlPic=

> <r_lp_tautomer_probability>
1

> <r_epik_Ionization_Penalty>
5.22693

> <r_epik_Ionization_Penalty_Charging>
5.22693

> <r_epik_Ionization_Penalty_Neutral>
2.67702e-10

> <r_epik_State_Penalty>
5.22685

> <r_epik_Charging_Adjusted_Penalty>
10.4538

> <i_epik_Tot_Q>
-1

> <i_epik_Tot_abs_Q>
1

> <r_epik_Metal_State_Penalty>
1.28716

> <b_epik_Metal_Only>
1

> <s_lp_Force_Field>
OPLS_2005

> <r_lp_Energy>
14.4343

> <b_lp_Chiralities_Consistent>
1

> <s_lp_Variant>
AV-unprocessed.smi:2451-13

> <Gold.Version>
5.8.1

> <Gold.Id.Protein>
6NUR|6NUR_protein|mol2

> <Gold.PLP.Fitness>
45.1772

> <Gold.PLP.PLP>
-37.7945

> <Gold.PLP.part.hbond>
-2.2651

> <Gold.PLP.part.metal>
0.0000

> <Gold.PLP.part.buried>
-4.1078

> <Gold.PLP.part.nonpolar>
-31.6468

> <Gold.PLP.part.repulsive>
0.1873

> <Gold.PLP.ligand.clash>
0.0000

> <Gold.PLP.ligand.torsion>
1.0819

> <Gold.PLP.Chemscore.Hbond>
2.8500

> <Gold.PLP.Chemscore.CHOScore>
0.0000

> <Gold.PLP.Chemscore.Metal>
0.0000

> <Gold.Chemscore.Hbonds>
donor molecule, donor type, donor heavy atom, donor atom, acceptor molecule, acceptor atom, score
      P1  H  7989  7998       L1    16  0.81
      P1  H  7997  8010       L1     7  2.00

> <Gold.PLP.Chemscore.Internal.Correction>
0.9965

> <Gold.Rescore>
     Score         DG    S(hbond)    S(metal)    S(lipo)     H(rot)  DE(clash)    DE(int)     intcor
     18.28     -19.44       1.46        0.00     108.36       1.40       0.06       1.10       ----

> <Gold.Chemscore.Fitness>
18.2818

> <Gold.Chemscore.DG>
-19.4400

> <Gold.Chemscore.ZeroCoef>
-5.4800

> <Gold.Chemscore.Hbond>
1.4559

> <Gold.Chemscore.Metal>
0.0000

> <Gold.Chemscore.Lipo>
108.3563

> <Gold.Chemscore.Internal_Hbond>
0.0000

> <Gold.Chemscore.DEClash>
0.0614

> <Gold.Chemscore.DEInternal>
1.0969

> <Gold.Chemscore.Rot>
1.3986

> <Gold.Chemscore.Internal.Correction>
   9.000000E+99

> <Gold.Chemscore.Hbonds>
donor molecule, donor type, donor heavy atom, donor atom, acceptor molecule, acceptor atom, score
      P1  H  7989  7998       L1    16  0.03
      P1  H  7997  8010       L1     7  0.71

> <Gold.Chemscore.Hbond.Weighted>
-4.8627

> <Gold.Chemscore.Metal.Weighted>
-0.0000

> <Gold.Chemscore.Lipo.Weighted>
-12.6777

> <Gold.Chemscore.Internal_Hbond.Weighted>
0.0000

> <Gold.Chemscore.DEClash.Weighted>
0.0614

> <Gold.Chemscore.DEInternal.Weighted>
1.0969

> <Gold.Chemscore.Rot.Weighted>
3.5804

> <Gold.Chemscore.Internal.Correction.Weighted>
   9.000000E+99

> <Gold.Protein.RotatedTorsions>
[ 6907 6896 6895 6894 ] final    0.68 input  -60.11 | X-H torsion
[ 7974 7965 7964 7962 ] final  -75.89 input  175.53 | X-H torsion
[ 8008 7997 7996 7995 ] final   29.05 input   59.86 | X-H torsion
[ 10167 10162 10161 10158 ] final  142.84 input  -65.29 | X-H torsion
[ 10718 10713 10712 10709 ] final  -82.67 input   66.30 | X-H torsion
[ 10763 10752 10751 10750 ] final  -63.83 input  -60.55 | X-H torsion
[ 11005 11000 10999 10996 ] final    8.91 input  -57.11 | X-H torsion

> <Gold.Protein.ActiveResidues>
 VAL166  LYS551  ARG553  GLY616  TRP617  ASP618  TYR619  PRO620  LYS621  CYS622 
 ASP623  PHE694  ASN695  SER759  ASP760  ASP761  ALA762  ILE779  LEU786  VAL792 
 PHE793  MET794  SER795  GLU796  ALA797  LYS798  CYS799  TRP800  GLU811  SER814 

> <Gold.Protein.RotatedAtoms>
  151.5804  135.1058  160.0015 H   0  0  0  0  0  0  0  0  0  0  0  0  # atno 6907 bound_to 6896
  152.4357  133.7352  159.6621 H   0  0  0  0  0  0  0  0  0  0  0  0  # atno 6908 bound_to 6896
  150.8254  133.8110  159.3144 H   0  0  0  0  0  0  0  0  0  0  0  0  # atno 6909 bound_to 6896
  145.6200  140.9365  143.1143 H   0  0  0  0  0  0  0  0  0  0  0  0  # atno 7974 bound_to 7965
  155.0684  140.3197  155.4638 H   0  0  0  0  0  0  0  0  0  0  0  0  # atno 8008 bound_to 7997
  156.2796  140.2116  156.5756 H   0  0  0  0  0  0  0  0  0  0  0  0  # atno 8009 bound_to 7997
  154.7075  140.0501  157.0505 H   0  0  0  0  0  0  0  0  0  0  0  0  # atno 8010 bound_to 7997
  139.4984  144.6080  151.6335 H   0  0  0  0  0  0  0  0  0  0  0  0  # atno 10167 bound_to 10162
  156.0029  130.4641  150.4141 H   0  0  0  0  0  0  0  0  0  0  0  0  # atno 10718 bound_to 10713
  154.3209  135.6196  153.5507 H   0  0  0  0  0  0  0  0  0  0  0  0  # atno 10763 bound_to 10752
  152.9820  135.5724  154.5070 H   0  0  0  0  0  0  0  0  0  0  0  0  # atno 10764 bound_to 10752
  154.4738  135.2860  155.1599 H   0  0  0  0  0  0  0  0  0  0  0  0  # atno 10765 bound_to 10752
  140.5317  134.0460  155.7875 H   0  0  0  0  0  0  0  0  0  0  0  0  # atno 11005 bound_to 11000
  144.7235  139.7952  143.7373 LP  0  0  0  0  0  0  0  0  0  0  0  0  # atno 17320 bound_to 7965
  146.1438  139.4502  143.0092 LP  0  0  0  0  0  0  0  0  0  0  0  0  # atno 17321 bound_to 7965
  140.5747  144.0049  150.6235 LP  0  0  0  0  0  0  0  0  0  0  0  0  # atno 17342 bound_to 10162
  140.3178  143.3156  152.0815 LP  0  0  0  0  0  0  0  0  0  0  0  0  # atno 17343 bound_to 10162
  157.2201  131.0480  151.2551 LP  0  0  0  0  0  0  0  0  0  0  0  0  # atno 17370 bound_to 10713
  157.3808  130.7230  149.6629 LP  0  0  0  0  0  0  0  0  0  0  0  0  # atno 17371 bound_to 10713
  141.1278  133.9354  157.2600 LP  0  0  0  0  0  0  0  0  0  0  0  0  # atno 17394 bound_to 11000
  139.9551  135.0167  156.9104 LP  0  0  0  0  0  0  0  0  0  0  0  0  # atno 17395 bound_to 11000

$$$$
