AV-unprocessed.smi:3331|AV-procd|sdf|12822|dock4
  -GOLD-   2272019193D 1   1.00000     0.00000
 Structure written by MMmdl.
 47 48  0  0  0  0  0  0  0  0  2 V2000
  153.3665  142.2822  162.4081 C   0  0  0  0  0  0  0  0  0  0  0  0
  152.5255  142.9012  161.2830 C   0  0  1  0  0  0  0  0  0  0  0  0
  152.2007  144.3853  161.5704 C   0  0  0  0  0  0  0  0  0  0  0  0
  151.4745  145.0825  160.3973 C   0  0  2  0  0  0  0  0  0  0  0  0
  149.9846  144.7012  160.3263 C   0  0  0  0  0  0  0  0  0  0  0  0
  152.2281  144.8071  159.0774 C   0  0  0  0  0  0  0  0  0  0  0  0
  152.3622  143.3568  158.8789 N   0  0  0  0  0  0  0  0  0  0  0  0
  151.7179  142.6087  157.9477 C   0  0  0  0  0  0  0  0  0  0  0  0
  150.9267  143.1069  157.1443 O   0  0  0  0  0  0  0  0  0  0  0  0
  151.9634  141.0862  157.8688 C   0  0  1  0  0  0  0  0  0  0  0  0
  151.2433  140.3748  159.0256 C   0  0  0  0  0  0  0  0  0  0  0  0
  151.5027  140.5226  156.5779 N   0  3  0  0  0  0  0  0  0  0  0  0
  151.6148  139.0524  156.4631 C   0  0  0  0  0  0  0  0  0  0  0  0
  151.2045  138.5769  155.0626 C   0  0  0  0  0  0  0  0  0  0  0  0
  149.9930  139.2307  154.6072 N   0  0  0  0  0  0  0  0  0  0  0  0
  148.8173  138.6541  154.1745 C   0  0  0  0  0  0  0  0  0  0  0  0
  147.9650  139.6688  153.8448 C   0  0  0  0  0  0  0  0  0  0  0  0
  148.7207  140.8451  154.1098 C   0  0  0  0  0  0  0  0  0  0  0  0
  149.9350  140.5794  154.5646 N   0  0  0  0  0  0  0  0  0  0  0  0
  153.2197  142.7600  159.9118 C   0  0  0  0  0  0  0  0  0  0  0  0
  154.3318  142.7805  162.5028 H   0  0  0  0  0  0  0  0  0  0  0  0
  153.5547  141.2246  162.2209 H   0  0  0  0  0  0  0  0  0  0  0  0
  152.8552  142.3602  163.3680 H   0  0  0  0  0  0  0  0  0  0  0  0
  151.5853  142.3495  161.2416 H   0  0  0  0  0  0  0  0  0  0  0  0
  151.6154  144.4762  162.4863 H   0  0  0  0  0  0  0  0  0  0  0  0
  153.1348  144.9161  161.7597 H   0  0  0  0  0  0  0  0  0  0  0  0
  151.5119  146.1571  160.5809 H   0  0  0  0  0  0  0  0  0  0  0  0
  149.8420  143.6343  160.1556 H   0  0  0  0  0  0  0  0  0  0  0  0
  149.4825  145.2356  159.5196 H   0  0  0  0  0  0  0  0  0  0  0  0
  149.4721  144.9563  161.2542 H   0  0  0  0  0  0  0  0  0  0  0  0
  151.7564  145.3301  158.2482 H   0  0  0  0  0  0  0  0  0  0  0  0
  153.2278  145.2407  159.1367 H   0  0  0  0  0  0  0  0  0  0  0  0
  153.0273  140.8632  157.9289 H   0  0  0  0  0  0  0  0  0  0  0  0
  151.5776  140.7447  159.9954 H   0  0  0  0  0  0  0  0  0  0  0  0
  151.4351  139.3015  159.0042 H   0  0  0  0  0  0  0  0  0  0  0  0
  150.1632  140.5183  158.9726 H   0  0  0  0  0  0  0  0  0  0  0  0
  150.5293  140.7643  156.4606 H   0  0  0  0  0  0  0  0  0  0  0  0
  152.6399  138.7423  156.6694 H   0  0  0  0  0  0  0  0  0  0  0  0
  150.9807  138.5855  157.2182 H   0  0  0  0  0  0  0  0  0  0  0  0
  151.9985  138.7749  154.3409 H   0  0  0  0  0  0  0  0  0  0  0  0
  151.0364  137.4991  155.0631 H   0  0  0  0  0  0  0  0  0  0  0  0
  148.6848  137.5827  154.1377 H   0  0  0  0  0  0  0  0  0  0  0  0
  146.9560  139.5840  153.4696 H   0  0  0  0  0  0  0  0  0  0  0  0
  148.4247  141.8763  153.9854 H   0  0  0  0  0  0  0  0  0  0  0  0
  154.1844  143.2699  159.9212 H   0  0  0  0  0  0  0  0  0  0  0  0
  153.4466  141.7107  159.7176 H   0  0  0  0  0  0  0  0  0  0  0  0
  152.0345  140.9535  155.8348 H   0  0  0  0  0  0  0  0  0  0  0  0
  1  2  1  0  0  0  0
  1 21  1  0  0  0  0
  1 22  1  0  0  0  0
  1 23  1  0  0  0  0
  2 20  1  0  0  0  0
  2  3  1  0  0  0  0
  2 24  1  0  0  0  0
  3  4  1  0  0  0  0
  3 25  1  0  0  0  0
  3 26  1  0  0  0  0
  4  5  1  0  0  0  0
  4  6  1  0  0  0  0
  4 27  1  0  0  0  0
  5 28  1  0  0  0  0
  5 29  1  0  0  0  0
  5 30  1  0  0  0  0
  6  7  1  0  0  0  0
  6 31  1  0  0  0  0
  6 32  1  0  0  0  0
  7  8  1  0  0  0  0
  7 20  1  0  0  0  0
  8  9  2  0  0  0  0
  8 10  1  0  0  0  0
 10 11  1  0  0  0  0
 10 12  1  0  0  0  0
 10 33  1  0  0  0  0
 11 34  1  0  0  0  0
 11 35  1  0  0  0  0
 11 36  1  0  0  0  0
 12 13  1  0  0  0  0
 12 37  1  0  0  0  0
 12 47  1  0  0  0  0
 13 14  1  0  0  0  0
 13 38  1  0  0  0  0
 13 39  1  0  0  0  0
 14 15  1  0  0  0  0
 14 40  1  0  0  0  0
 14 41  1  0  0  0  0
 15 19  1  0  0  0  0
 15 16  1  0  0  0  0
 16 17  2  0  0  0  0
 16 42  1  0  0  0  0
 17 18  1  0  0  0  0
 17 43  1  0  0  0  0
 18 19  2  0  0  0  0
 18 44  1  0  0  0  0
 20 45  1  0  0  0  0
 20 46  1  0  0  0  0
M  CHG  1  12   1
M  END
> <s_m_source_file>
AV-unprocessed.smi

> <i_m_source_file_index>
3331

> <i_lp_mmshare_version>
43012

> <i_f3d_flags>
0

> <s_epik_input>
W0NIM11bQ0BASF0xW0NIMl1bQ0BASF0oW0NIM10pW0NIMl1OKFtDSDJdMSlDKD1PKVtDQEhdKFtDSDNdKVtOSF1bQ0gyXVtDSDJdbjJbY0hdW2NIXVtjSF1uMg==

> <s_epik_cmdline>
J2VwaWtfcHl0aG9uJywgJy1waCcsICc3LjAnLCAnLXRuJywgJzgnLCAnLW1hJywgJzIwMCcsICctbWV0YWxfYmluZGluZycsICctaW1hZScsICc8aW5maWxlLm1hZT4nLCAnLW9tYWUnLCAnPG91dGZpbGUubWFlPic=

> <r_lp_tautomer_probability>
1

> <r_epik_Ionization_Penalty>
0.189706

> <r_epik_Ionization_Penalty_Charging>
0.189703

> <r_epik_Ionization_Penalty_Neutral>
2.45875e-06

> <r_epik_State_Penalty>
0.179341

> <r_epik_Charging_Adjusted_Penalty>
0.369044

> <i_epik_Tot_Q>
1

> <i_epik_Tot_abs_Q>
1

> <r_epik_Metal_State_Penalty>
0.179578

> <b_epik_Metal_Only>
0

> <s_lp_Force_Field>
OPLS_2005

> <r_lp_Energy>
28.0969

> <b_lp_Chiralities_Consistent>
1

> <s_lp_Variant>
AV-unprocessed.smi:3331-6

> <Gold.Version>
5.8.1

> <Gold.Id.Protein>
6NUR|6NUR_protein|mol2

> <Gold.PLP.Fitness>
52.7489

> <Gold.PLP.PLP>
-49.1645

> <Gold.PLP.part.hbond>
-1.0000

> <Gold.PLP.part.metal>
0.0000

> <Gold.PLP.part.buried>
-4.2107

> <Gold.PLP.part.nonpolar>
-45.0401

> <Gold.PLP.part.repulsive>
1.1871

> <Gold.PLP.ligand.clash>
0.0000

> <Gold.PLP.ligand.torsion>
0.5081

> <Gold.PLP.Chemscore.Hbond>
0.7072

> <Gold.PLP.Chemscore.CHOScore>
0.8011

> <Gold.PLP.Chemscore.Metal>
0.0000

> <Gold.Chemscore.Hbonds>
donor molecule, donor type, donor heavy atom, donor atom, acceptor molecule, acceptor atom, score
      P1  H  7989  7998       L1    19  0.75
      L1  C    16    42       P1  7948  0.58

> <Gold.PLP.Chemscore.Internal.Correction>
0.0757

> <Gold.Rescore>
     Score         DG    S(hbond)    S(metal)    S(lipo)     H(rot)  DE(clash)    DE(int)     intcor
     15.84     -18.06       0.81        0.00     122.06       1.73       0.18       2.05       ----

> <Gold.Chemscore.Fitness>
15.8357

> <Gold.Chemscore.DG>
-18.0647

> <Gold.Chemscore.ZeroCoef>
-5.4800

> <Gold.Chemscore.Hbond>
0.8145

> <Gold.Chemscore.Metal>
0.0000

> <Gold.Chemscore.Lipo>
122.0627

> <Gold.Chemscore.Internal_Hbond>
0.0000

> <Gold.Chemscore.DEClash>
0.1790

> <Gold.Chemscore.DEInternal>
2.0501

> <Gold.Chemscore.Rot>
1.7254

> <Gold.Chemscore.Internal.Correction>
   9.000000E+99

> <Gold.Chemscore.Hbonds>
donor molecule, donor type, donor heavy atom, donor atom, acceptor molecule, acceptor atom, score
      P1  H  7989  7998       L1    19  0.14

> <Gold.Chemscore.Hbond.Weighted>
-2.7204

> <Gold.Chemscore.Metal.Weighted>
-0.0000

> <Gold.Chemscore.Lipo.Weighted>
-14.2813

> <Gold.Chemscore.Internal_Hbond.Weighted>
0.0000

> <Gold.Chemscore.DEClash.Weighted>
0.1790

> <Gold.Chemscore.DEInternal.Weighted>
2.0501

> <Gold.Chemscore.Rot.Weighted>
4.4170

> <Gold.Chemscore.Internal.Correction.Weighted>
   9.000000E+99

> <Gold.Protein.RotatedTorsions>
[ 6907 6896 6895 6894 ] final  102.75 input  -60.11 | X-H torsion
[ 7974 7965 7964 7962 ] final   11.00 input  175.53 | X-H torsion
[ 8008 7997 7996 7995 ] final -115.81 input   59.86 | X-H torsion
[ 10167 10162 10161 10158 ] final -119.70 input  -65.29 | X-H torsion
[ 10718 10713 10712 10709 ] final  -96.92 input   66.30 | X-H torsion
[ 10763 10752 10751 10750 ] final   17.66 input  -60.55 | X-H torsion
[ 11005 11000 10999 10996 ] final  -86.14 input  -57.11 | X-H torsion

> <Gold.Protein.ActiveResidues>
 VAL166  LYS551  ARG553  GLY616  TRP617  ASP618  TYR619  PRO620  LYS621  CYS622 
 ASP623  PHE694  ASN695  SER759  ASP760  ASP761  ALA762  ILE779  LEU786  VAL792 
 PHE793  MET794  SER795  GLU796  ALA797  LYS798  CYS799  TRP800  GLU811  SER814 

> <Gold.Protein.RotatedAtoms>
  152.5315  133.9929  159.7858 H   0  0  0  0  0  0  0  0  0  0  0  0  # atno 6907 bound_to 6896
  151.0161  133.5911  159.2684 H   0  0  0  0  0  0  0  0  0  0  0  0  # atno 6908 bound_to 6896
  151.2968  135.0764  159.9277 H   0  0  0  0  0  0  0  0  0  0  0  0  # atno 6909 bound_to 6896
  146.2379  139.9550  142.8466 H   0  0  0  0  0  0  0  0  0  0  0  0  # atno 7974 bound_to 7965
  155.0580  140.0393  157.2567 H   0  0  0  0  0  0  0  0  0  0  0  0  # atno 8008 bound_to 7997
  154.7083  140.2687  155.6629 H   0  0  0  0  0  0  0  0  0  0  0  0  # atno 8009 bound_to 7997
  156.2782  140.2727  156.1716 H   0  0  0  0  0  0  0  0  0  0  0  0  # atno 8010 bound_to 7997
  140.0438  143.5127  152.2116 H   0  0  0  0  0  0  0  0  0  0  0  0  # atno 10167 bound_to 10162
  156.0072  130.5172  150.6298 H   0  0  0  0  0  0  0  0  0  0  0  0  # atno 10718 bound_to 10713
  153.1319  135.6742  153.9165 H   0  0  0  0  0  0  0  0  0  0  0  0  # atno 10763 bound_to 10752
  153.8648  135.3077  155.3441 H   0  0  0  0  0  0  0  0  0  0  0  0  # atno 10764 bound_to 10752
  154.7714  135.4937  153.9739 H   0  0  0  0  0  0  0  0  0  0  0  0  # atno 10765 bound_to 10752
  141.1633  133.7438  156.9117 H   0  0  0  0  0  0  0  0  0  0  0  0  # atno 11005 bound_to 11000
  145.1825  140.9774  143.4258 LP  0  0  0  0  0  0  0  0  0  0  0  0  # atno 17320 bound_to 7965
  144.9929  139.3672  143.6206 LP  0  0  0  0  0  0  0  0  0  0  0  0  # atno 17321 bound_to 7965
  139.5996  144.7578  151.3203 LP  0  0  0  0  0  0  0  0  0  0  0  0  # atno 17342 bound_to 10162
  140.7248  143.7035  150.7826 LP  0  0  0  0  0  0  0  0  0  0  0  0  # atno 17343 bound_to 10162
  157.4098  131.0822  151.1231 LP  0  0  0  0  0  0  0  0  0  0  0  0  # atno 17370 bound_to 10713
  157.1867  130.6333  149.5690 LP  0  0  0  0  0  0  0  0  0  0  0  0  # atno 17371 bound_to 10713
  140.1512  134.9229  157.2595 LP  0  0  0  0  0  0  0  0  0  0  0  0  # atno 17394 bound_to 11000
  140.2720  134.3449  155.7370 LP  0  0  0  0  0  0  0  0  0  0  0  0  # atno 17395 bound_to 11000

$$$$
