AV-unprocessed.smi:2539|AV-procd|sdf|9985|dock4
  -GOLD-   2272014 33D 1   1.00000     0.00000
 Structure written by MMmdl.
 40 41  0  0  0  0  0  0  0  0  1 V2000
  144.7293  136.8766  154.5043 O   0  0  0  0  0  0  0  0  0  0  0  0
  145.4711  136.8277  153.5221 C   0  0  0  0  0  0  0  0  0  0  0  0
  146.7869  137.0943  153.6027 N   0  0  0  0  0  0  0  0  0  0  0  0
  147.5290  137.3637  154.8318 C   0  0  0  0  0  0  0  0  0  0  0  0
  148.8578  136.5837  154.8871 C   0  0  0  0  0  0  0  0  0  0  0  0
  150.0728  137.4664  155.1170 C   0  0  0  0  0  0  0  0  0  0  0  0
  151.0235  137.1524  156.1109 C   0  0  0  0  0  0  0  0  0  0  0  0
  152.1131  138.0224  156.3058 C   0  0  0  0  0  0  0  0  0  0  0  0
  152.2077  139.1709  155.4950 C   0  0  0  0  0  0  0  0  0  0  0  0
  151.3074  139.4787  154.5369 N   0  0  0  0  0  0  0  0  0  0  0  0
  150.2644  138.6401  154.3572 C   0  0  0  0  0  0  0  0  0  0  0  0
  145.0487  136.4376  152.2934 N   0  0  0  0  0  0  0  0  0  0  0  0
  145.8884  136.2430  151.1020 C   0  0  0  0  0  0  0  0  0  0  0  0
  146.0717  134.7305  150.8730 C   0  0  0  0  0  0  0  0  0  0  0  0
  144.7159  133.9847  150.7579 C   0  0  0  0  0  0  0  0  0  0  0  0
  144.1275  134.3514  149.5222 O   0  0  0  0  0  0  0  0  0  0  0  0
  144.9129  132.4499  150.7301 C   0  0  0  0  0  0  0  0  0  0  0  0
  145.4284  132.0320  151.8865 F   0  0  0  0  0  0  0  0  0  0  0  0
  143.7460  131.8302  150.5475 F   0  0  0  0  0  0  0  0  0  0  0  0
  145.7505  132.0997  149.7529 F   0  0  0  0  0  0  0  0  0  0  0  0
  143.7429  134.4176  151.8870 C   0  0  0  0  0  0  0  0  0  0  0  0
  143.6865  135.9489  152.0591 C   0  0  0  0  0  0  0  0  0  0  0  0
  147.3284  137.0312  152.7532 H   0  0  0  0  0  0  0  0  0  0  0  0
  147.7319  138.4336  154.8794 H   0  0  0  0  0  0  0  0  0  0  0  0
  146.9206  137.1321  155.7077 H   0  0  0  0  0  0  0  0  0  0  0  0
  148.8097  135.8336  155.6776 H   0  0  0  0  0  0  0  0  0  0  0  0
  148.9979  136.0327  153.9565 H   0  0  0  0  0  0  0  0  0  0  0  0
  150.9156  136.2686  156.7221 H   0  0  0  0  0  0  0  0  0  0  0  0
  152.8577  137.8165  157.0602 H   0  0  0  0  0  0  0  0  0  0  0  0
  153.0296  139.8605  155.6184 H   0  0  0  0  0  0  0  0  0  0  0  0
  149.5554  138.9198  153.5918 H   0  0  0  0  0  0  0  0  0  0  0  0
  145.3979  136.6959  150.2392 H   0  0  0  0  0  0  0  0  0  0  0  0
  146.8586  136.7357  151.1653 H   0  0  0  0  0  0  0  0  0  0  0  0
  146.6759  134.5608  149.9811 H   0  0  0  0  0  0  0  0  0  0  0  0
  146.6431  134.3215  151.7072 H   0  0  0  0  0  0  0  0  0  0  0  0
  144.8178  134.5908  148.9226 H   0  0  0  0  0  0  0  0  0  0  0  0
  142.7418  134.0282  151.6988 H   0  0  0  0  0  0  0  0  0  0  0  0
  144.0642  133.9764  152.8316 H   0  0  0  0  0  0  0  0  0  0  0  0
  143.0002  136.2053  152.8675 H   0  0  0  0  0  0  0  0  0  0  0  0
  143.2752  136.4196  151.1651 H   0  0  0  0  0  0  0  0  0  0  0  0
  1  2  2  0  0  0  0
  2  3  1  0  0  0  0
  2 12  1  0  0  0  0
  3  4  1  0  0  0  0
  3 23  1  0  0  0  0
  4  5  1  0  0  0  0
  4 24  1  0  0  0  0
  4 25  1  0  0  0  0
  5  6  1  0  0  0  0
  5 26  1  0  0  0  0
  5 27  1  0  0  0  0
  6 11  1  0  0  0  0
  6  7  2  0  0  0  0
  7  8  1  0  0  0  0
  7 28  1  0  0  0  0
  8  9  2  0  0  0  0
  8 29  1  0  0  0  0
  9 10  1  0  0  0  0
  9 30  1  0  0  0  0
 10 11  2  0  0  0  0
 11 31  1  0  0  0  0
 12 22  1  0  0  0  0
 12 13  1  0  0  0  0
 13 14  1  0  0  0  0
 13 32  1  0  0  0  0
 13 33  1  0  0  0  0
 14 15  1  0  0  0  0
 14 34  1  0  0  0  0
 14 35  1  0  0  0  0
 15 16  1  0  0  0  0
 15 17  1  0  0  0  0
 15 21  1  0  0  0  0
 16 36  1  0  0  0  0
 17 18  1  0  0  0  0
 17 19  1  0  0  0  0
 17 20  1  0  0  0  0
 21 22  1  0  0  0  0
 21 37  1  0  0  0  0
 21 38  1  0  0  0  0
 22 39  1  0  0  0  0
 22 40  1  0  0  0  0
M  END
> <s_m_source_file>
AV-unprocessed.smi

> <i_m_source_file_index>
2539

> <i_lp_mmshare_version>
43012

> <i_f3d_flags>
0

> <s_epik_input>
RkMoRikoRilDMShbT0hdKVtDSDJdW0NIMl1OKFtDSDJdW0NIMl0xKUMoPU8pW05IXVtDSDJdW0NIMl1jMltjSF1bY0hdW2NIXW5bY0hdMg==

> <s_epik_cmdline>
J2VwaWtfcHl0aG9uJywgJy1waCcsICc3LjAnLCAnLXRuJywgJzgnLCAnLW1hJywgJzIwMCcsICctbWV0YWxfYmluZGluZycsICctaW1hZScsICc8aW5maWxlLm1hZT4nLCAnLW9tYWUnLCAnPG91dGZpbGUubWFlPic=

> <r_epik_Ionization_Penalty>
0.0144431

> <r_epik_Ionization_Penalty_Charging>
0

> <r_epik_Ionization_Penalty_Neutral>
0.0144431

> <r_epik_State_Penalty>
0.0112443

> <r_epik_Charging_Adjusted_Penalty>
0.0112443

> <i_epik_Tot_Q>
0

> <i_epik_Tot_abs_Q>
0

> <r_epik_Metal_State_Penalty>
0.0109773

> <b_epik_Metal_Only>
0

> <s_lp_Force_Field>
OPLS_2005

> <r_lp_Energy>
34.3491

> <b_lp_Chiralities_Consistent>
1

> <s_lp_Variant>
AV-unprocessed.smi:2539-1

> <Gold.Version>
5.8.1

> <Gold.Id.Protein>
6NUR|6NUR_protein|mol2

> <Gold.PLP.Fitness>
47.9719

> <Gold.PLP.PLP>
-37.5226

> <Gold.PLP.part.hbond>
-3.7606

> <Gold.PLP.part.metal>
0.0000

> <Gold.PLP.part.buried>
-3.0341

> <Gold.PLP.part.nonpolar>
-29.5547

> <Gold.PLP.part.repulsive>
0.1569

> <Gold.PLP.ligand.clash>
0.0000

> <Gold.PLP.ligand.torsion>
0.6023

> <Gold.PLP.Chemscore.Hbond>
2.8800

> <Gold.PLP.Chemscore.CHOScore>
0.9879

> <Gold.PLP.Chemscore.Metal>
0.0000

> <Gold.Chemscore.Hbonds>
donor molecule, donor type, donor heavy atom, donor atom, acceptor molecule, acceptor atom, score
      L1  H     3    23       P1  7948  0.93
      L1  H    16    36       P1  7921  1.00
      P1  H  7989  7998       L1    10  1.00
      L1  C    11    31       P1  7957  0.65

> <Gold.PLP.Chemscore.Internal.Correction>
0.0503

> <Gold.Rescore>
     Score         DG    S(hbond)    S(metal)    S(lipo)     H(rot)  DE(clash)    DE(int)     intcor
     16.83     -18.21       2.82        0.00      71.41       1.97       0.85       0.52       ----

> <Gold.Chemscore.Fitness>
16.8334

> <Gold.Chemscore.DG>
-18.2056

> <Gold.Chemscore.ZeroCoef>
-5.4800

> <Gold.Chemscore.Hbond>
2.8213

> <Gold.Chemscore.Metal>
0.0000

> <Gold.Chemscore.Lipo>
71.4112

> <Gold.Chemscore.Internal_Hbond>
0.0000

> <Gold.Chemscore.DEClash>
0.8530

> <Gold.Chemscore.DEInternal>
0.5192

> <Gold.Chemscore.Rot>
1.9737

> <Gold.Chemscore.Internal.Correction>
   9.000000E+99

> <Gold.Chemscore.Hbonds>
donor molecule, donor type, donor heavy atom, donor atom, acceptor molecule, acceptor atom, score
      L1  H     3    23       P1  7948  0.87
      L1  H    16    36       P1  7921  1.00
      P1  H  7989  7998       L1    10  0.95

> <Gold.Chemscore.Hbond.Weighted>
-9.4233

> <Gold.Chemscore.Metal.Weighted>
-0.0000

> <Gold.Chemscore.Lipo.Weighted>
-8.3551

> <Gold.Chemscore.Internal_Hbond.Weighted>
0.0000

> <Gold.Chemscore.DEClash.Weighted>
0.8530

> <Gold.Chemscore.DEInternal.Weighted>
0.5192

> <Gold.Chemscore.Rot.Weighted>
5.0528

> <Gold.Chemscore.Internal.Correction.Weighted>
   9.000000E+99

> <Gold.Protein.RotatedTorsions>
[ 6907 6896 6895 6894 ] final  -11.95 input  -60.11 | X-H torsion
[ 7974 7965 7964 7962 ] final   88.80 input  175.53 | X-H torsion
[ 8008 7997 7996 7995 ] final   36.18 input   59.86 | X-H torsion
[ 10167 10162 10161 10158 ] final    7.83 input  -65.29 | X-H torsion
[ 10718 10713 10712 10709 ] final -136.13 input   66.30 | X-H torsion
[ 10763 10752 10751 10750 ] final   78.51 input  -60.55 | X-H torsion
[ 11005 11000 10999 10996 ] final -114.05 input  -57.11 | X-H torsion

> <Gold.Protein.ActiveResidues>
 VAL166  LYS551  ARG553  GLY616  TRP617  ASP618  TYR619  PRO620  LYS621  CYS622 
 ASP623  PHE694  ASN695  SER759  ASP760  ASP761  ALA762  ILE779  LEU786  VAL792 
 PHE793  MET794  SER795  GLU796  ALA797  LYS798  CYS799  TRP800  GLU811  SER814 

> <Gold.Protein.RotatedAtoms>
  151.3782  135.0935  159.9487 H   0  0  0  0  0  0  0  0  0  0  0  0  # atno 6907 bound_to 6896
  152.5116  133.9098  159.7492 H   0  0  0  0  0  0  0  0  0  0  0  0  # atno 6908 bound_to 6896
  150.9525  133.6478  159.2798 H   0  0  0  0  0  0  0  0  0  0  0  0  # atno 6909 bound_to 6896
  145.5408  139.2288  143.2567 H   0  0  0  0  0  0  0  0  0  0  0  0  # atno 7974 bound_to 7965
  155.1831  140.3301  155.4371 H   0  0  0  0  0  0  0  0  0  0  0  0  # atno 8008 bound_to 7997
  156.2469  140.1923  156.6878 H   0  0  0  0  0  0  0  0  0  0  0  0  # atno 8009 bound_to 7997
  154.6257  140.0589  156.9657 H   0  0  0  0  0  0  0  0  0  0  0  0  # atno 8010 bound_to 7997
  140.6349  143.7908  150.7346 H   0  0  0  0  0  0  0  0  0  0  0  0  # atno 10167 bound_to 10162
  156.2737  130.7280  151.1255 H   0  0  0  0  0  0  0  0  0  0  0  0  # atno 10718 bound_to 10713
  153.0880  135.4874  154.8634 H   0  0  0  0  0  0  0  0  0  0  0  0  # atno 10763 bound_to 10752
  154.7234  135.3044  154.9012 H   0  0  0  0  0  0  0  0  0  0  0  0  # atno 10764 bound_to 10752
  153.9670  135.6805  153.4799 H   0  0  0  0  0  0  0  0  0  0  0  0  # atno 10765 bound_to 10752
  141.0576  133.9587  157.2725 H   0  0  0  0  0  0  0  0  0  0  0  0  # atno 11005 bound_to 11000
  146.1982  140.6228  142.9114 LP  0  0  0  0  0  0  0  0  0  0  0  0  # atno 17320 bound_to 7965
  144.7578  140.5349  143.6757 LP  0  0  0  0  0  0  0  0  0  0  0  0  # atno 17321 bound_to 7965
  140.1527  143.4343  152.2120 LP  0  0  0  0  0  0  0  0  0  0  0  0  # atno 17342 bound_to 10162
  139.5561  144.7373  151.4292 LP  0  0  0  0  0  0  0  0  0  0  0  0  # atno 17343 bound_to 10162
  157.7292  131.0626  150.5784 LP  0  0  0  0  0  0  0  0  0  0  0  0  # atno 17370 bound_to 10713
  156.5883  130.4322  149.5947 LP  0  0  0  0  0  0  0  0  0  0  0  0  # atno 17371 bound_to 10713
  139.9404  135.0192  156.8690 LP  0  0  0  0  0  0  0  0  0  0  0  0  # atno 17394 bound_to 11000
  140.5932  134.0241  155.7508 LP  0  0  0  0  0  0  0  0  0  0  0  0  # atno 17395 bound_to 11000

$$$$
