AV-unprocessed.smi:2881|AV-procd|sdf|11070|dock9
  -GOLD-   2272015543D 1   1.00000     0.00000
 Structure written by MMmdl.
 40 42  0  0  0  0  0  0  0  0  1 V2000
  142.9687  135.1071  152.7475 C   0  0  0  0  0  0  0  0  0  0  0  0
  144.2115  135.8752  152.4062 C   0  0  0  0  0  0  0  0  0  0  0  0
  144.3894  137.2892  152.3671 C   0  0  0  0  0  0  0  0  0  0  0  0
  145.6980  137.4560  152.0092 C   0  0  0  0  0  0  0  0  0  0  0  0
  146.5152  138.6908  151.8036 C   0  0  0  0  0  0  0  0  0  0  0  0
  147.1367  139.1555  153.1203 C   0  0  0  0  0  0  0  0  0  0  0  0
  146.5618  139.9981  153.8087 O   0  0  0  0  0  0  0  0  0  0  0  0
  148.3089  138.5970  153.4588 N   0  0  0  0  0  0  0  0  0  0  0  0
  149.0564  138.8884  154.6790 C   0  0  1  0  0  0  0  0  0  0  0  0
  149.8660  137.6517  155.1273 C   0  0  2  0  0  0  0  0  0  0  0  0
  150.2998  137.8486  156.5909 C   0  0  0  0  0  0  0  0  0  0  0  0
  151.3937  138.9263  156.4716 C   0  0  0  0  0  0  0  0  0  0  0  0
  151.4313  139.2164  154.9555 C   0  0  1  0  0  0  0  0  0  0  0  0
  151.1905  137.8230  154.3884 C   0  0  0  0  0  0  0  0  0  0  0  0
  150.1599  139.9574  154.4708 C   0  0  2  0  0  0  0  0  0  0  0  0
  149.8605  141.3093  155.1475 C   0  0  0  0  0  0  0  0  0  0  0  0
  149.0300  142.0997  154.3238 O   0  0  0  0  0  0  0  0  0  0  0  0
  146.2155  136.1901  151.8500 N   0  0  0  0  0  0  0  0  0  0  0  0
  145.3173  135.2174  152.0913 N   0  0  0  0  0  0  0  0  0  0  0  0
  147.1659  135.9775  151.5821 H   0  0  0  0  0  0  0  0  0  0  0  0
  142.1842  135.7699  153.1133 H   0  0  0  0  0  0  0  0  0  0  0  0
  143.1639  134.3660  153.5231 H   0  0  0  0  0  0  0  0  0  0  0  0
  142.5798  134.5831  151.8742 H   0  0  0  0  0  0  0  0  0  0  0  0
  143.6666  138.0641  152.5759 H   0  0  0  0  0  0  0  0  0  0  0  0
  145.8893  139.4867  151.3985 H   0  0  0  0  0  0  0  0  0  0  0  0
  147.3034  138.5120  151.0708 H   0  0  0  0  0  0  0  0  0  0  0  0
  148.7082  137.9133  152.8325 H   0  0  0  0  0  0  0  0  0  0  0  0
  148.3539  139.1784  155.4630 H   0  0  0  0  0  0  0  0  0  0  0  0
  149.3594  136.7013  154.9551 H   0  0  0  0  0  0  0  0  0  0  0  0
  149.4753  138.1594  157.2337 H   0  0  0  0  0  0  0  0  0  0  0  0
  150.7144  136.9272  157.0017 H   0  0  0  0  0  0  0  0  0  0  0  0
  151.1881  139.8071  157.0780 H   0  0  0  0  0  0  0  0  0  0  0  0
  152.3524  138.5258  156.8037 H   0  0  0  0  0  0  0  0  0  0  0  0
  152.3591  139.6841  154.6250 H   0  0  0  0  0  0  0  0  0  0  0  0
  151.9488  137.0957  154.6845 H   0  0  0  0  0  0  0  0  0  0  0  0
  151.0880  137.8070  153.3019 H   0  0  0  0  0  0  0  0  0  0  0  0
  150.2802  140.1458  153.4018 H   0  0  0  0  0  0  0  0  0  0  0  0
  149.3431  141.1444  156.0924 H   0  0  0  0  0  0  0  0  0  0  0  0
  150.7709  141.8585  155.3853 H   0  0  0  0  0  0  0  0  0  0  0  0
  148.8522  142.9139  154.7696 H   0  0  0  0  0  0  0  0  0  0  0  0
  1 21  1  0  0  0  0
  1 22  1  0  0  0  0
  1 23  1  0  0  0  0
  1  2  1  0  0  0  0
  2 19  2  0  0  0  0
  2  3  1  0  0  0  0
  3  4  2  0  0  0  0
  3 24  1  0  0  0  0
  4 18  1  0  0  0  0
  4  5  1  0  0  0  0
  5  6  1  0  0  0  0
  5 25  1  0  0  0  0
  5 26  1  0  0  0  0
  6  7  2  0  0  0  0
  6  8  1  0  0  0  0
  8  9  1  0  0  0  0
  8 27  1  0  0  0  0
  9 15  1  0  0  0  0
  9 10  1  0  0  0  0
  9 28  1  0  0  0  0
 10 14  1  0  0  0  0
 10 11  1  0  0  0  0
 10 29  1  0  0  0  0
 11 12  1  0  0  0  0
 11 30  1  0  0  0  0
 11 31  1  0  0  0  0
 12 13  1  0  0  0  0
 12 32  1  0  0  0  0
 12 33  1  0  0  0  0
 13 14  1  0  0  0  0
 13 15  1  0  0  0  0
 13 34  1  0  0  0  0
 14 35  1  0  0  0  0
 14 36  1  0  0  0  0
 15 16  1  0  0  0  0
 15 37  1  0  0  0  0
 16 17  1  0  0  0  0
 16 38  1  0  0  0  0
 16 39  1  0  0  0  0
 17 40  1  0  0  0  0
 18 19  1  0  0  0  0
 18 20  1  0  0  0  0
M  END
> <s_m_source_file>
AV-unprocessed.smi

> <i_m_source_file_index>
2881

> <i_lp_mmshare_version>
43012

> <i_f3d_flags>
0

> <s_epik_input>
W0NIM11jMVtjSF1jKG5bbkhdMSlbQ0gyXUMoPU8pW05IXVtDQEhdKFtDQEBIXTIzKVtDQEhdKFtDSDJdW09IXSlbQ0BASF0oW0NIMl0zKVtDSDJdW0NIMl0y

> <s_epik_cmdline>
J2VwaWtfcHl0aG9uJywgJy1waCcsICc3LjAnLCAnLXRuJywgJzgnLCAnLW1hJywgJzIwMCcsICctbWV0YWxfYmluZGluZycsICctaW1hZScsICc8aW5maWxlLm1hZT4nLCAnLW9tYWUnLCAnPG91dGZpbGUubWFlPic=

> <r_lp_tautomer_probability>
0.5

> <r_epik_Ionization_Penalty>
0.00013396

> <r_epik_Ionization_Penalty_Charging>
0

> <r_epik_Ionization_Penalty_Neutral>
0.00013396

> <r_epik_State_Penalty>
0.41068

> <r_epik_Charging_Adjusted_Penalty>
0.41068

> <i_epik_Tot_Q>
0

> <i_epik_Tot_abs_Q>
0

> <r_epik_Metal_State_Penalty>
0.41066

> <b_epik_Metal_Only>
0

> <s_lp_Force_Field>
OPLS_2005

> <r_lp_Energy>
46.6194

> <b_lp_Chiralities_Consistent>
1

> <s_lp_Variant>
AV-unprocessed.smi:2881-16

> <Gold.Version>
5.8.1

> <Gold.Id.Protein>
6NUR|6NUR_protein|mol2

> <Gold.PLP.Fitness>
40.3025

> <Gold.PLP.PLP>
-33.4447

> <Gold.PLP.part.hbond>
-5.0000

> <Gold.PLP.part.metal>
0.0000

> <Gold.PLP.part.buried>
-0.6371

> <Gold.PLP.part.nonpolar>
-29.4021

> <Gold.PLP.part.repulsive>
0.3589

> <Gold.PLP.ligand.clash>
0.0000

> <Gold.PLP.ligand.torsion>
1.3224

> <Gold.PLP.Chemscore.Hbond>
3.1613

> <Gold.PLP.Chemscore.CHOScore>
0.0000

> <Gold.PLP.Chemscore.Metal>
0.0000

> <Gold.Chemscore.Hbonds>
donor molecule, donor type, donor heavy atom, donor atom, acceptor molecule, acceptor atom, score
      L1  H     8    27       P1  7948  1.00
      L1  H    17    40       P1  8028  1.00
      L1  H    18    20       P1  7948  1.00
      P1  H  8011  8017       L1    17  0.23

> <Gold.PLP.Chemscore.Internal.Correction>
0.0187

> <Gold.Rescore>
     Score         DG    S(hbond)    S(metal)    S(lipo)     H(rot)  DE(clash)    DE(int)     intcor
     17.17     -19.01       3.11        0.00      76.50       2.28       0.41       1.42       ----

> <Gold.Chemscore.Fitness>
17.1723

> <Gold.Chemscore.DG>
-19.0073

> <Gold.Chemscore.ZeroCoef>
-5.4800

> <Gold.Chemscore.Hbond>
3.1142

> <Gold.Chemscore.Metal>
0.0000

> <Gold.Chemscore.Lipo>
76.5042

> <Gold.Chemscore.Internal_Hbond>
0.0000

> <Gold.Chemscore.DEClash>
0.4101

> <Gold.Chemscore.DEInternal>
1.4250

> <Gold.Chemscore.Rot>
2.2755

> <Gold.Chemscore.Internal.Correction>
   9.000000E+99

> <Gold.Chemscore.Hbonds>
donor molecule, donor type, donor heavy atom, donor atom, acceptor molecule, acceptor atom, score
      L1  H     8    27       P1  7948  0.99
      L1  H    17    40       P1  8028  0.97
      L1  H    18    20       P1  7948  0.94
      P1  H  8011  8017       L1    17  0.16

> <Gold.Chemscore.Hbond.Weighted>
-10.4015

> <Gold.Chemscore.Metal.Weighted>
-0.0000

> <Gold.Chemscore.Lipo.Weighted>
-8.9510

> <Gold.Chemscore.Internal_Hbond.Weighted>
0.0000

> <Gold.Chemscore.DEClash.Weighted>
0.4101

> <Gold.Chemscore.DEInternal.Weighted>
1.4250

> <Gold.Chemscore.Rot.Weighted>
5.8252

> <Gold.Chemscore.Internal.Correction.Weighted>
   9.000000E+99

> <Gold.Protein.RotatedTorsions>
[ 6907 6896 6895 6894 ] final  -51.27 input  -60.11 | X-H torsion
[ 7974 7965 7964 7962 ] final -139.21 input  175.53 | X-H torsion
[ 8008 7997 7996 7995 ] final -178.69 input   59.86 | X-H torsion
[ 10167 10162 10161 10158 ] final   91.49 input  -65.29 | X-H torsion
[ 10718 10713 10712 10709 ] final   72.89 input   66.30 | X-H torsion
[ 10763 10752 10751 10750 ] final  -57.71 input  -60.55 | X-H torsion
[ 11005 11000 10999 10996 ] final  -16.14 input  -57.11 | X-H torsion

> <Gold.Protein.ActiveResidues>
 VAL166  LYS551  ARG553  GLY616  TRP617  ASP618  TYR619  PRO620  LYS621  CYS622 
 ASP623  PHE694  ASN695  SER759  ASP760  ASP761  ALA762  ILE779  LEU786  VAL792 
 PHE793  MET794  SER795  GLU796  ALA797  LYS798  CYS799  TRP800  GLU811  SER814 

> <Gold.Protein.RotatedAtoms>
  150.8627  134.7983  159.7095 H   0  0  0  0  0  0  0  0  0  0  0  0  # atno 6907 bound_to 6896
  152.4659  134.5073  159.9753 H   0  0  0  0  0  0  0  0  0  0  0  0  # atno 6908 bound_to 6896
  151.5174  133.3435  159.2931 H   0  0  0  0  0  0  0  0  0  0  0  0  # atno 6909 bound_to 6896
  144.8695  140.6345  143.5276 H   0  0  0  0  0  0  0  0  0  0  0  0  # atno 7974 bound_to 7965
  156.0217  140.1262  157.0350 H   0  0  0  0  0  0  0  0  0  0  0  0  # atno 8008 bound_to 7997
  154.4314  140.1067  156.6043 H   0  0  0  0  0  0  0  0  0  0  0  0  # atno 8009 bound_to 7997
  155.5934  140.3469  155.4575 H   0  0  0  0  0  0  0  0  0  0  0  0  # atno 8010 bound_to 7997
  139.8370  144.6660  150.9330 H   0  0  0  0  0  0  0  0  0  0  0  0  # atno 10167 bound_to 10162
  157.6522  130.9601  150.0992 H   0  0  0  0  0  0  0  0  0  0  0  0  # atno 10718 bound_to 10713
  154.2267  135.6368  153.5162 H   0  0  0  0  0  0  0  0  0  0  0  0  # atno 10763 bound_to 10752
  152.9957  135.5509  154.6056 H   0  0  0  0  0  0  0  0  0  0  0  0  # atno 10764 bound_to 10752
  154.5529  135.2903  155.0966 H   0  0  0  0  0  0  0  0  0  0  0  0  # atno 10765 bound_to 10752
  140.8037  133.8194  155.9495 H   0  0  0  0  0  0  0  0  0  0  0  0  # atno 11005 bound_to 11000
  145.4157  139.1572  143.4102 LP  0  0  0  0  0  0  0  0  0  0  0  0  # atno 17320 bound_to 7965
  146.2920  140.4264  142.8736 LP  0  0  0  0  0  0  0  0  0  0  0  0  # atno 17321 bound_to 7965
  140.7802  143.3948  151.1248 LP  0  0  0  0  0  0  0  0  0  0  0  0  # atno 17342 bound_to 10162
  139.7597  143.8654  152.3097 LP  0  0  0  0  0  0  0  0  0  0  0  0  # atno 17343 bound_to 10162
  156.1919  130.3655  149.8898 LP  0  0  0  0  0  0  0  0  0  0  0  0  # atno 17370 bound_to 10713
  156.6824  130.8863  151.3577 LP  0  0  0  0  0  0  0  0  0  0  0  0  # atno 17371 bound_to 10713
  140.9268  134.2072  157.4890 LP  0  0  0  0  0  0  0  0  0  0  0  0  # atno 17394 bound_to 11000
  139.8719  134.9816  156.5122 LP  0  0  0  0  0  0  0  0  0  0  0  0  # atno 17395 bound_to 11000

$$$$
