AV-unprocessed.smi:193|AV-procd|sdf|1501|dock10
  -GOLD-   2262019333D 1   1.00000     0.00000
 Structure written by MMmdl.
 62 66  0  0  0  0  0  0  0  0  2 V2000
  146.5975  128.4278  154.6764 C   0  0  0  0  0  0  0  0  0  0  0  0
  147.2302  129.7831  154.3249 C   0  0  1  0  0  0  0  0  0  0  0  0
  148.7047  129.7885  154.7888 C   0  0  0  0  0  0  0  0  0  0  0  0
  149.3360  131.1070  154.7488 N   0  0  0  0  0  0  0  0  0  0  0  0
  149.3284  131.8667  155.8769 C   0  0  0  0  0  0  0  0  0  0  0  0
  149.0067  131.2941  157.0676 N   0  0  0  0  0  0  0  0  0  0  0  0
  148.9702  132.0271  158.1840 C   0  0  0  0  0  0  0  0  0  0  0  0
  149.2162  133.3291  158.3342 N   0  0  0  0  0  0  0  0  0  0  0  0
  149.5477  133.9104  157.1464 C   0  0  0  0  0  0  0  0  0  0  0  0
  149.6307  133.2589  155.8828 C   0  0  0  0  0  0  0  0  0  0  0  0
  150.0177  134.1716  154.9080 N   0  0  0  0  0  0  0  0  0  0  0  0
  150.1461  135.2974  155.5552 C   0  0  0  0  0  0  0  0  0  0  0  0
  149.8696  135.2341  156.9020 N   0  0  0  0  0  0  0  0  0  0  0  0
  149.9241  136.3317  157.8555 C   0  0  0  0  0  0  0  0  0  0  0  0
  151.3491  136.6402  158.3796 C   0  0  0  0  0  0  0  0  0  0  0  0
  151.5652  135.8543  159.5389 O   0  0  0  0  0  0  0  0  0  0  0  0
  152.4040  136.2500  157.3245 C   0  0  0  0  0  0  0  0  0  0  0  0
  153.8207  136.6977  157.7258 C   0  0  0  0  0  0  0  0  0  0  0  0
  153.8348  138.0976  157.9759 O   0  0  0  0  0  0  0  0  0  0  0  0
  153.0027  138.4686  159.0680 C   0  0  0  0  0  0  0  0  0  0  0  0
  151.5346  138.1265  158.7577 C   0  0  0  0  0  0  0  0  0  0  0  0
  149.3414  131.8282  153.4780 C   0  0  0  0  0  0  0  0  0  0  0  0
  147.9538  132.4088  153.1477 C   0  0  0  0  0  0  0  0  0  0  0  0
  147.0587  131.4800  152.4081 N   0  3  2  0  0  0  0  0  0  0  0  0
  145.6664  131.9872  152.3603 C   0  0  1  0  0  0  0  0  0  0  0  0
  145.5543  133.4408  151.9586 C   0  0  0  0  0  0  0  0  0  0  0  0
  145.1574  132.3582  150.9786 C   0  0  1  0  0  0  0  0  0  0  0  0
  145.9581  132.1482  149.7061 C   0  0  0  0  0  0  0  0  0  0  0  0
  147.1153  130.0450  152.8042 C   0  0  0  0  0  0  0  0  0  0  0  0
  147.1006  127.6082  154.1619 H   0  0  0  0  0  0  0  0  0  0  0  0
  145.5434  128.3993  154.3985 H   0  0  0  0  0  0  0  0  0  0  0  0
  146.6552  128.2332  155.7478 H   0  0  0  0  0  0  0  0  0  0  0  0
  146.6648  130.5391  154.8711 H   0  0  0  0  0  0  0  0  0  0  0  0
  148.7811  129.3833  155.7991 H   0  0  0  0  0  0  0  0  0  0  0  0
  149.2909  129.1119  154.1661 H   0  0  0  0  0  0  0  0  0  0  0  0
  148.7032  131.4948  159.0850 H   0  0  0  0  0  0  0  0  0  0  0  0
  150.4396  136.2136  155.0634 H   0  0  0  0  0  0  0  0  0  0  0  0
  149.4928  137.2166  157.3851 H   0  0  0  0  0  0  0  0  0  0  0  0
  149.2660  136.0831  158.6890 H   0  0  0  0  0  0  0  0  0  0  0  0
  151.8493  136.4218  160.2389 H   0  0  0  0  0  0  0  0  0  0  0  0
  152.3883  135.1738  157.1469 H   0  0  0  0  0  0  0  0  0  0  0  0
  152.1524  136.7190  156.3722 H   0  0  0  0  0  0  0  0  0  0  0  0
  154.1721  136.1550  158.6048 H   0  0  0  0  0  0  0  0  0  0  0  0
  154.5222  136.4793  156.9205 H   0  0  0  0  0  0  0  0  0  0  0  0
  153.3373  137.9721  159.9799 H   0  0  0  0  0  0  0  0  0  0  0  0
  153.1060  139.5404  159.2383 H   0  0  0  0  0  0  0  0  0  0  0  0
  151.2007  138.7518  157.9287 H   0  0  0  0  0  0  0  0  0  0  0  0
  150.9120  138.3923  159.6129 H   0  0  0  0  0  0  0  0  0  0  0  0
  150.0604  132.6444  153.5202 H   0  0  0  0  0  0  0  0  0  0  0  0
  149.6940  131.1761  152.6785 H   0  0  0  0  0  0  0  0  0  0  0  0
  147.4625  132.7701  154.0527 H   0  0  0  0  0  0  0  0  0  0  0  0
  148.0913  133.2875  152.5173 H   0  0  0  0  0  0  0  0  0  0  0  0
  144.9878  131.5788  153.1075 H   0  0  0  0  0  0  0  0  0  0  0  0
  144.7518  134.0244  152.4047 H   0  0  0  0  0  0  0  0  0  0  0  0
  146.4688  133.9944  151.7537 H   0  0  0  0  0  0  0  0  0  0  0  0
  144.0873  132.2241  150.8316 H   0  0  0  0  0  0  0  0  0  0  0  0
  147.0129  132.3795  149.8553 H   0  0  0  0  0  0  0  0  0  0  0  0
  145.5765  132.7973  148.9176 H   0  0  0  0  0  0  0  0  0  0  0  0
  145.8692  131.1144  149.3721 H   0  0  0  0  0  0  0  0  0  0  0  0
  147.9511  129.5752  152.2848 H   0  0  0  0  0  0  0  0  0  0  0  0
  146.2287  129.5490  152.4062 H   0  0  0  0  0  0  0  0  0  0  0  0
  147.3813  131.4956  151.4512 H   0  0  0  0  0  0  0  0  0  0  0  0
  1  2  1  0  0  0  0
  1 30  1  0  0  0  0
  1 31  1  0  0  0  0
  1 32  1  0  0  0  0
  2 29  1  0  0  0  0
  2  3  1  0  0  0  0
  2 33  1  0  0  0  0
  3  4  1  0  0  0  0
  3 34  1  0  0  0  0
  3 35  1  0  0  0  0
  4  5  1  0  0  0  0
  4 22  1  0  0  0  0
  5 10  1  0  0  0  0
  5  6  2  0  0  0  0
  6  7  1  0  0  0  0
  7  8  2  0  0  0  0
  7 36  1  0  0  0  0
  8  9  1  0  0  0  0
  9 13  1  0  0  0  0
  9 10  2  0  0  0  0
 10 11  1  0  0  0  0
 11 12  2  0  0  0  0
 12 13  1  0  0  0  0
 12 37  1  0  0  0  0
 13 14  1  0  0  0  0
 14 15  1  0  0  0  0
 14 38  1  0  0  0  0
 14 39  1  0  0  0  0
 15 21  1  0  0  0  0
 15 16  1  0  0  0  0
 15 17  1  0  0  0  0
 16 40  1  0  0  0  0
 17 18  1  0  0  0  0
 17 41  1  0  0  0  0
 17 42  1  0  0  0  0
 18 19  1  0  0  0  0
 18 43  1  0  0  0  0
 18 44  1  0  0  0  0
 19 20  1  0  0  0  0
 20 21  1  0  0  0  0
 20 45  1  0  0  0  0
 20 46  1  0  0  0  0
 21 47  1  0  0  0  0
 21 48  1  0  0  0  0
 22 23  1  0  0  0  0
 22 49  1  0  0  0  0
 22 50  1  0  0  0  0
 23 24  1  0  0  0  0
 23 51  1  0  0  0  0
 23 52  1  0  0  0  0
 24 25  1  0  0  0  0
 24 29  1  0  0  0  0
 24 62  1  0  0  0  0
 25 27  1  0  0  0  0
 25 26  1  0  0  0  0
 25 53  1  0  0  0  0
 26 27  1  0  0  0  0
 26 54  1  0  0  0  0
 26 55  1  0  0  0  0
 27 28  1  0  0  0  0
 27 56  1  0  0  0  0
 28 57  1  0  0  0  0
 28 58  1  0  0  0  0
 28 59  1  0  0  0  0
 29 60  1  0  0  0  0
 29 61  1  0  0  0  0
M  CHG  1  24   1
M  END
> <s_m_source_file>
AV-unprocessed.smi

> <i_m_source_file_index>
193

> <i_lp_mmshare_version>
43012

> <i_f3d_flags>
0

> <s_epik_input>
W0NIM11bQ0BASF0xW0NIMl1bQ0BIXTFOKFtDSDJdMilbQ0gyXVtDSDJdTihbQ0gyXVtDQEhdMltDSDNdKWMobltjSF1uMyljKGMzNCluW2NIXW40W0NIMl1DNShbT0hdKVtDSDJdW0NIMl1PW0NIMl1bQ0gyXTU=

> <s_epik_cmdline>
J2VwaWtfcHl0aG9uJywgJy1waCcsICc3LjAnLCAnLXRuJywgJzgnLCAnLW1hJywgJzIwMCcsICctbWV0YWxfYmluZGluZycsICctaW1hZScsICc8aW5maWxlLm1hZT4nLCAnLW9tYWUnLCAnPG91dGZpbGUubWFlPic=

> <r_lp_tautomer_probability>
1

> <r_epik_Ionization_Penalty>
0.0540825

> <r_epik_Ionization_Penalty_Charging>
0.0538476

> <r_epik_Ionization_Penalty_Neutral>
0.000234891

> <r_epik_State_Penalty>
0.0200719

> <r_epik_Charging_Adjusted_Penalty>
0.0739194

> <i_epik_Tot_Q>
1

> <i_epik_Tot_abs_Q>
1

> <r_epik_Metal_State_Penalty>
0.0199414

> <b_epik_Metal_Only>
0

> <s_lp_Force_Field>
OPLS_2005

> <r_lp_Energy>
56.4216

> <b_lp_Chiralities_Consistent>
1

> <s_lp_Variant>
AV-unprocessed.smi:193-6

> <Gold.Version>
5.8.1

> <Gold.Id.Protein>
6NUR|6NUR_protein|mol2

> <Gold.PLP.Fitness>
43.5530

> <Gold.PLP.PLP>
-34.9676

> <Gold.PLP.part.hbond>
-4.0000

> <Gold.PLP.part.metal>
0.0000

> <Gold.PLP.part.buried>
-6.4669

> <Gold.PLP.part.nonpolar>
-25.0383

> <Gold.PLP.part.repulsive>
0.1555

> <Gold.PLP.ligand.clash>
0.0000

> <Gold.PLP.ligand.torsion>
1.7546

> <Gold.PLP.Chemscore.Hbond>
3.5433

> <Gold.PLP.Chemscore.CHOScore>
0.0000

> <Gold.PLP.Chemscore.Metal>
0.0000

> <Gold.Chemscore.Hbonds>
donor molecule, donor type, donor heavy atom, donor atom, acceptor molecule, acceptor atom, score
      L1  H    24    62       P1 10747  0.70
      P1  H  6896  6908       L1     8  0.85
      P1  H  7997  8008       L1    19  0.27

> <Gold.PLP.Chemscore.Internal.Correction>
1.4647

> <Gold.Rescore>
     Score         DG    S(hbond)    S(metal)    S(lipo)     H(rot)  DE(clash)    DE(int)     intcor
     15.41     -19.81       2.88        0.00      82.54       1.93       0.52       3.88       ----

> <Gold.Chemscore.Fitness>
15.4083

> <Gold.Chemscore.DG>
-19.8076

> <Gold.Chemscore.ZeroCoef>
-5.4800

> <Gold.Chemscore.Hbond>
2.8770

> <Gold.Chemscore.Metal>
0.0000

> <Gold.Chemscore.Lipo>
82.5362

> <Gold.Chemscore.Internal_Hbond>
0.0000

> <Gold.Chemscore.DEClash>
0.5196

> <Gold.Chemscore.DEInternal>
3.8796

> <Gold.Chemscore.Rot>
1.9290

> <Gold.Chemscore.Internal.Correction>
   9.000000E+99

> <Gold.Chemscore.Hbonds>
donor molecule, donor type, donor heavy atom, donor atom, acceptor molecule, acceptor atom, score
      L1  H    24    62       P1 10747  0.68
      P1  H  6896  6908       L1     8  0.14
      P1  H  7997  8008       L1    19  0.19

> <Gold.Chemscore.Hbond.Weighted>
-9.6092

> <Gold.Chemscore.Metal.Weighted>
-0.0000

> <Gold.Chemscore.Lipo.Weighted>
-9.6567

> <Gold.Chemscore.Internal_Hbond.Weighted>
0.0000

> <Gold.Chemscore.DEClash.Weighted>
0.5196

> <Gold.Chemscore.DEInternal.Weighted>
3.8796

> <Gold.Chemscore.Rot.Weighted>
4.9383

> <Gold.Chemscore.Internal.Correction.Weighted>
   9.000000E+99

> <Gold.Protein.RotatedTorsions>
[ 6907 6896 6895 6894 ] final  128.82 input  -60.11 | X-H torsion
[ 7974 7965 7964 7962 ] final   32.46 input  175.53 | X-H torsion
[ 8008 7997 7996 7995 ] final  -75.75 input   59.86 | X-H torsion
[ 10167 10162 10161 10158 ] final  150.06 input  -65.29 | X-H torsion
[ 10718 10713 10712 10709 ] final  -21.34 input   66.30 | X-H torsion
[ 10763 10752 10751 10750 ] final -166.21 input  -60.55 | X-H torsion
[ 11005 11000 10999 10996 ] final  -13.11 input  -57.11 | X-H torsion

> <Gold.Protein.ActiveResidues>
 VAL166  LYS551  ARG553  GLY616  TRP617  ASP618  TYR619  PRO620  LYS621  CYS622 
 ASP623  PHE694  ASN695  SER759  ASP760  ASP761  ALA762  ILE779  LEU786  VAL792 
 PHE793  MET794  SER795  GLU796  ALA797  LYS798  CYS799  TRP800  GLU811  SER814 

> <Gold.Protein.RotatedAtoms>
  152.3683  133.6386  159.6067 H   0  0  0  0  0  0  0  0  0  0  0  0  # atno 6907 bound_to 6896
  150.7650  133.9311  159.3436 H   0  0  0  0  0  0  0  0  0  0  0  0  # atno 6908 bound_to 6896
  151.7138  135.0908  160.0323 H   0  0  0  0  0  0  0  0  0  0  0  0  # atno 6909 bound_to 6896
  146.1485  139.6523  142.9115 H   0  0  0  0  0  0  0  0  0  0  0  0  # atno 7974 bound_to 7965
  154.5444  140.0739  156.8564 H   0  0  0  0  0  0  0  0  0  0  0  0  # atno 8008 bound_to 7997
  155.3116  140.3390  155.4225 H   0  0  0  0  0  0  0  0  0  0  0  0  # atno 8009 bound_to 7997
  156.1904  140.1684  156.8088 H   0  0  0  0  0  0  0  0  0  0  0  0  # atno 8010 bound_to 7997
  139.4854  144.5552  151.7330 H   0  0  0  0  0  0  0  0  0  0  0  0  # atno 10167 bound_to 10162
  156.5194  130.4629  149.6605 H   0  0  0  0  0  0  0  0  0  0  0  0  # atno 10718 bound_to 10713
  154.6856  135.2962  154.9552 H   0  0  0  0  0  0  0  0  0  0  0  0  # atno 10763 bound_to 10752
  154.0532  135.6641  153.4807 H   0  0  0  0  0  0  0  0  0  0  0  0  # atno 10764 bound_to 10752
  153.0577  135.5135  154.7922 H   0  0  0  0  0  0  0  0  0  0  0  0  # atno 10765 bound_to 10752
  140.7727  133.8426  155.9221 H   0  0  0  0  0  0  0  0  0  0  0  0  # atno 11005 bound_to 11000
  145.4881  141.0438  143.2608 LP  0  0  0  0  0  0  0  0  0  0  0  0  # atno 17320 bound_to 7965
  144.7875  139.6397  143.7128 LP  0  0  0  0  0  0  0  0  0  0  0  0  # atno 17321 bound_to 7965
  140.5113  144.1021  150.5996 LP  0  0  0  0  0  0  0  0  0  0  0  0  # atno 17342 bound_to 10162
  140.3947  143.2734  152.0018 LP  0  0  0  0  0  0  0  0  0  0  0  0  # atno 17343 bound_to 10162
  156.3164  130.7256  151.2160 LP  0  0  0  0  0  0  0  0  0  0  0  0  # atno 17370 bound_to 10713
  157.7439  131.0467  150.4909 LP  0  0  0  0  0  0  0  0  0  0  0  0  # atno 17371 bound_to 10713
  140.9559  134.1719  157.4692 LP  0  0  0  0  0  0  0  0  0  0  0  0  # atno 17394 bound_to 11000
  139.8753  134.9926  156.5607 LP  0  0  0  0  0  0  0  0  0  0  0  0  # atno 17395 bound_to 11000

$$$$
