#       Name:                AV-unprocessed.smi:1406
#       Creating user name   scv26
#       Creation time:       Fri Mar 27 05:34:52 2020


#       File generated by GOLD software.
#

@<TRIPOS>MOLECULE
AV-unprocessed.smi:1406
    45    47     1
SMALL
NO_CHARGES


@<TRIPOS>ATOM
      1 ****        -3.3353  -3.3434   1.0902 C.3            1 S1                 0.0000
      2 ****        -2.7646  -1.9858   0.6325 C.3            1 S1                 0.0000
      3 ****        -1.2986  -1.7736   1.0532 C.2            1 S1                 0.0000
      4 ****        -0.6853  -2.6427   1.6738 O.2            1 S1                 0.0000
      5 ****        -0.7442  -0.6004   0.7100 N.am           1 S1                 0.0000
      6 ****         0.6419  -0.2269   0.9625 C.3            1 S1                 0.0000
      7 ****         0.9039   0.2882   2.3901 C.3            1 S1                 0.0000
      8 ****         1.9252   1.4324   2.2278 C.3            1 S1                 0.0000
      9 ****         2.2603   1.4571   0.7906 N.4            1 S1                 1.0000
     10 ****         2.7536   2.7346   0.2319 C.3            1 S1                 0.0000
     11 ****         3.1181   2.5328  -1.2531 C.3            1 S1                 0.0000
     12 ****         1.9504   1.9188  -2.0531 C.3            1 S1                 0.0000
     13 ****         1.4194   0.6424  -1.3721 C.3            1 S1                 0.0000
     14 ****         1.0695   0.9523   0.0920 C.3            1 S1                 0.0000
     15 ****        -2.9230  -1.7949  -0.8052 N.pl3          1 S1                 0.0000
     16 ****        -3.4378  -0.7673  -1.4842 C.2            1 S1                 0.0000
     17 ****        -3.3797  -0.9087  -2.8007 N.2            1 S1                 0.0000
     18 ****        -2.7754  -2.1319  -2.8727 C.2            1 S1                 0.0000
     19 ****        -2.4707  -2.7018  -1.7071 N.2            1 S1                 0.0000
     20 ****        -3.2940  -3.4440   2.1754 H              1 S1                 0.0000
     21 ****        -2.7876  -4.1821   0.6581 H              1 S1                 0.0000
     22 ****        -4.3800  -3.4449   0.7947 H              1 S1                 0.0000
     23 ****        -3.3468  -1.2055   1.1253 H              1 S1                 0.0000
     24 ****        -1.3145   0.0636   0.2063 H              1 S1                 0.0000
     25 ****         1.3011  -1.0736   0.7587 H              1 S1                 0.0000
     26 ****        -0.0090   0.6707   2.8489 H              1 S1                 0.0000
     27 ****         1.2830  -0.5090   3.0307 H              1 S1                 0.0000
     28 ****         1.4744   2.3805   2.5252 H              1 S1                 0.0000
     29 ****         2.8209   1.2795   2.8303 H              1 S1                 0.0000
     30 ****         1.9894   3.5063   0.3364 H              1 S1                 0.0000
     31 ****         3.6278   3.0669   0.7925 H              1 S1                 0.0000
     32 ****         3.4165   3.4829  -1.6973 H              1 S1                 0.0000
     33 ****         3.9854   1.8752  -1.3244 H              1 S1                 0.0000
     34 ****         1.1440   2.6487  -2.1343 H              1 S1                 0.0000
     35 ****         2.2689   1.6965  -3.0720 H              1 S1                 0.0000
     36 ****         0.5413   0.2710  -1.9015 H              1 S1                 0.0000
     37 ****         2.1723  -0.1454  -1.4213 H              1 S1                 0.0000
     38 ****         0.2951   1.7227   0.1255 H              1 S1                 0.0000
     39 ****        -3.8565   0.1061  -1.0058 H              1 S1                 0.0000
     40 ****        -2.5459  -2.6131  -3.8121 H              1 S1                 0.0000
     41 ****         2.9856   0.7676   0.6532 H              1 S1                 0.0000
     42 ****        -1.1390  -3.5015   1.9117 LP             1 S1                 0.0000
     43 ****         0.2665  -2.4897   1.9398 LP             1 S1                 0.0000
     44 ****        -3.6884  -0.2977  -3.5295 LP             1 S1                 0.0000
     45 ****        -2.0209  -3.5791  -1.5392 LP             1 S1                 0.0000
@<TRIPOS>BOND
    1    1    2 1     
    2    1   20 1     
    3    1   21 1     
    4    1   22 1     
    5    2    3 1     
    6    2   15 1     
    7    2   23 1     
    8    3    4 2     
    9    3    5 am    
   10    5    6 1     
   11    5   24 1     
   12    6   14 1     
   13    6    7 1     
   14    6   25 1     
   15    7    8 1     
   16    7   26 1     
   17    7   27 1     
   18    8    9 1     
   19    8   28 1     
   20    8   29 1     
   21    9   14 1     
   22    9   10 1     
   23    9   41 1     
   24   10   11 1     
   25   10   30 1     
   26   10   31 1     
   27   11   12 1     
   28   11   32 1     
   29   11   33 1     
   30   12   13 1     
   31   12   34 1     
   32   12   35 1     
   33   13   14 1     
   34   13   36 1     
   35   13   37 1     
   36   14   38 1     
   37   15   19 1     
   38   15   16 1     
   39   16   17 2     
   40   16   39 1     
   41   17   18 1     
   42   18   19 2     
   43   18   40 1     
   44    4   42 1     
   45    4   43 1     
   46   17   44 1     
   47   19   45 1     
@<TRIPOS>SUBSTRUCTURE
      1 S1             1
@<TRIPOS>SET
LONE_PAIRS      STATIC     ATOMS    <user>   **** ""
4 42 43 44 45
DONOR_HYDROGENS      STATIC     ATOMS    <user>   **** ""
2 24 41
ATOM$BLUE        STATIC     ATOMS    COLORGROUP SYSTEM
4 42 43 44 45
ATOM$RED        STATIC     ATOMS    COLORGROUP SYSTEM
2 24 41
