AV-unprocessed.smi:2001|AV-procd|sdf|8111|dock3
  -GOLD-   2272010343D 1   1.00000     0.00000
 Structure written by MMmdl.
 50 51  0  0  0  0  0  0  0  0  3 V2000
  143.3892  137.0664  161.5610 C   0  0  0  0  0  0  0  0  0  0  0  0
  143.8818  135.7408  161.4838 O   0  0  0  0  0  0  0  0  0  0  0  0
  144.3609  135.2648  162.7308 C   0  0  0  0  0  0  0  0  0  0  0  0
  144.7145  133.7729  162.6189 C   0  0  0  0  0  0  0  0  0  0  0  0
  145.8189  133.5459  161.6807 N   0  0  0  0  0  0  0  0  0  0  0  0
  146.4718  134.7045  161.2968 N   0  0  0  0  0  0  0  0  0  0  0  0
  147.4744  134.6544  160.4808 C   0  0  0  0  0  0  0  0  0  0  0  0
  148.1790  135.9102  160.0678 C   0  0  0  0  0  0  0  0  0  0  0  0
  147.8772  136.9206  160.7182 O   0  0  0  0  0  0  0  0  0  0  0  0
  149.0761  135.8630  159.0368 N   0  5  0  0  0  0  0  0  0  0  0  0
  149.3074  136.9376  158.0741 C   0  0  0  0  0  0  0  0  0  0  0  0
  150.1081  138.0713  158.7428 C   0  0  0  0  0  0  0  0  0  0  0  0
  150.5613  139.0859  157.7548 N   0  3  1  0  0  0  0  0  0  0  0  0
  151.3960  138.5131  156.6728 C   0  0  0  0  0  0  0  0  0  0  0  0
  151.9426  139.6327  155.7683 C   0  0  1  0  0  0  0  0  0  0  0  0
  152.7368  139.0768  154.5815 C   0  0  0  0  0  0  0  0  0  0  0  0
  150.8592  140.4003  155.2490 O   0  0  0  0  0  0  0  0  0  0  0  0
  150.0105  140.9863  156.2366 C   0  0  2  0  0  0  0  0  0  0  0  0
  150.6947  142.1456  156.9829 C   0  0  0  0  0  0  0  0  0  0  0  0
  149.4585  139.8955  157.1735 C   0  0  0  0  0  0  0  0  0  0  0  0
  147.9323  133.3748  159.9532 C   0  0  0  0  0  0  0  0  0  0  0  0
  147.2884  132.2521  160.3405 C   0  0  0  0  0  0  0  0  0  0  0  0
  146.1540  132.2879  161.2641 C   0  0  0  0  0  0  0  0  0  0  0  0
  145.5570  131.2769  161.6337 O   0  0  0  0  0  0  0  0  0  0  0  0
  143.0516  137.3885  160.5759 H   0  0  0  0  0  0  0  0  0  0  0  0
  144.1645  137.7574  161.8945 H   0  0  0  0  0  0  0  0  0  0  0  0
  142.5421  137.1327  162.2452 H   0  0  0  0  0  0  0  0  0  0  0  0
  145.2513  135.8284  163.0126 H   0  0  0  0  0  0  0  0  0  0  0  0
  143.6177  135.4221  163.5144 H   0  0  0  0  0  0  0  0  0  0  0  0
  144.9300  133.3602  163.6059 H   0  0  0  0  0  0  0  0  0  0  0  0
  143.8375  133.2265  162.2670 H   0  0  0  0  0  0  0  0  0  0  0  0
  149.8565  136.5923  157.1973 H   0  0  0  0  0  0  0  0  0  0  0  0
  148.3684  137.3430  157.6955 H   0  0  0  0  0  0  0  0  0  0  0  0
  149.4652  138.5444  159.4870 H   0  0  0  0  0  0  0  0  0  0  0  0
  150.9642  137.6761  159.2923 H   0  0  0  0  0  0  0  0  0  0  0  0
  152.2295  137.9581  157.1055 H   0  0  0  0  0  0  0  0  0  0  0  0
  150.8031  137.8044  156.0921 H   0  0  0  0  0  0  0  0  0  0  0  0
  152.6059  140.2775  156.3450 H   0  0  0  0  0  0  0  0  0  0  0  0
  153.5900  138.4887  154.9203 H   0  0  0  0  0  0  0  0  0  0  0  0
  153.1183  139.8844  153.9559 H   0  0  0  0  0  0  0  0  0  0  0  0
  152.1153  138.4360  153.9555 H   0  0  0  0  0  0  0  0  0  0  0  0
  149.1677  141.4151  155.6937 H   0  0  0  0  0  0  0  0  0  0  0  0
  149.9830  142.6619  157.6274 H   0  0  0  0  0  0  0  0  0  0  0  0
  151.0944  142.8779  156.2809 H   0  0  0  0  0  0  0  0  0  0  0  0
  151.5142  141.8054  157.6155 H   0  0  0  0  0  0  0  0  0  0  0  0
  148.7906  139.2376  156.6149 H   0  0  0  0  0  0  0  0  0  0  0  0
  148.8581  140.3531  157.9605 H   0  0  0  0  0  0  0  0  0  0  0  0
  148.7668  133.3065  159.2714 H   0  0  0  0  0  0  0  0  0  0  0  0
  147.6202  131.2978  159.9582 H   0  0  0  0  0  0  0  0  0  0  0  0
  151.1594  139.7198  158.2657 H   0  0  0  0  0  0  0  0  0  0  0  0
  1  2  1  0  0  0  0
  1 25  1  0  0  0  0
  1 26  1  0  0  0  0
  1 27  1  0  0  0  0
  2  3  1  0  0  0  0
  3  4  1  0  0  0  0
  3 28  1  0  0  0  0
  3 29  1  0  0  0  0
  4  5  1  0  0  0  0
  4 30  1  0  0  0  0
  4 31  1  0  0  0  0
  5 23  1  0  0  0  0
  5  6  1  0  0  0  0
  6  7  2  0  0  0  0
  7  8  1  0  0  0  0
  7 21  1  0  0  0  0
  8  9  2  0  0  0  0
  8 10  1  0  0  0  0
 10 11  1  0  0  0  0
 11 12  1  0  0  0  0
 11 32  1  0  0  0  0
 11 33  1  0  0  0  0
 12 13  1  0  0  0  0
 12 34  1  0  0  0  0
 12 35  1  0  0  0  0
 13 20  1  0  0  0  0
 13 14  1  0  0  0  0
 13 50  1  0  0  0  0
 14 15  1  0  0  0  0
 14 36  1  0  0  0  0
 14 37  1  0  0  0  0
 15 16  1  0  0  0  0
 15 17  1  0  0  0  0
 15 38  1  0  0  0  0
 16 39  1  0  0  0  0
 16 40  1  0  0  0  0
 16 41  1  0  0  0  0
 17 18  1  0  0  0  0
 18 19  1  0  0  0  0
 18 20  1  0  0  0  0
 18 42  1  0  0  0  0
 19 43  1  0  0  0  0
 19 44  1  0  0  0  0
 19 45  1  0  0  0  0
 20 46  1  0  0  0  0
 20 47  1  0  0  0  0
 21 22  2  0  0  0  0
 21 48  1  0  0  0  0
 22 23  1  0  0  0  0
 22 49  1  0  0  0  0
 23 24  2  0  0  0  0
M  CHG  1  10  -1
M  CHG  1  13   1
M  END
> <s_m_source_file>
AV-unprocessed.smi

> <i_m_source_file_index>
2001

> <i_lp_mmshare_version>
43012

> <i_f3d_flags>
0

> <s_epik_input>
W0NIM11PW0NIMl1bQ0gyXW4xbmMoW2NIXVtjSF1jMT1PKUMoPU8pW05IXVtDSDJdW0NIMl1OMltDSDJdW0NAQEhdKFtDSDNdKU9bQ0BASF0oW0NIM10pW0NIMl0y

> <s_epik_cmdline>
J2VwaWtfcHl0aG9uJywgJy1waCcsICc3LjAnLCAnLXRuJywgJzgnLCAnLW1hJywgJzIwMCcsICctbWV0YWxfYmluZGluZycsICctaW1hZScsICc8aW5maWxlLm1hZT4nLCAnLW9tYWUnLCAnPG91dGZpbGUubWFlPic=

> <r_lp_tautomer_probability>
1

> <r_epik_Ionization_Penalty>
6.90846

> <r_epik_Ionization_Penalty_Charging>
6.90846

> <r_epik_Ionization_Penalty_Neutral>
1.08445e-11

> <r_epik_State_Penalty>
7.54671

> <r_epik_Charging_Adjusted_Penalty>
14.4552

> <i_epik_Tot_Q>
0

> <i_epik_Tot_abs_Q>
2

> <r_epik_Metal_State_Penalty>
3.46181

> <b_epik_Metal_Only>
1

> <s_lp_Force_Field>
OPLS_2005

> <r_lp_Energy>
43.982

> <b_lp_Chiralities_Consistent>
1

> <s_lp_Variant>
AV-unprocessed.smi:2001-10

> <Gold.Version>
5.8.1

> <Gold.Id.Protein>
6NUR|6NUR_protein|mol2

> <Gold.PLP.Fitness>
49.1437

> <Gold.PLP.PLP>
-36.0735

> <Gold.PLP.part.hbond>
-4.0000

> <Gold.PLP.part.metal>
0.0000

> <Gold.PLP.part.buried>
-6.2188

> <Gold.PLP.part.nonpolar>
-26.6447

> <Gold.PLP.part.repulsive>
0.1719

> <Gold.PLP.ligand.clash>
0.0000

> <Gold.PLP.ligand.torsion>
0.5554

> <Gold.PLP.Chemscore.Hbond>
4.6640

> <Gold.PLP.Chemscore.CHOScore>
0.0000

> <Gold.PLP.Chemscore.Metal>
0.0000

> <Gold.Chemscore.Hbonds>
donor molecule, donor type, donor heavy atom, donor atom, acceptor molecule, acceptor atom, score
      P1  H  6896  6907       L1    10  1.66
      P1  H  6931  6943       L1     9  0.74
      P1  H  6934  6947       L1     9  0.45
      P1  H  7989  7998       L1    17  0.95

> <Gold.PLP.Chemscore.Internal.Correction>
0.1889

> <Gold.Rescore>
     Score         DG    S(hbond)    S(metal)    S(lipo)     H(rot)  DE(clash)    DE(int)     intcor
     19.01     -20.44       3.33        0.00      76.86       2.02       0.15       1.29       ----

> <Gold.Chemscore.Fitness>
19.0062

> <Gold.Chemscore.DG>
-20.4399

> <Gold.Chemscore.ZeroCoef>
-5.4800

> <Gold.Chemscore.Hbond>
3.3332

> <Gold.Chemscore.Metal>
0.0000

> <Gold.Chemscore.Lipo>
76.8626

> <Gold.Chemscore.Internal_Hbond>
0.0000

> <Gold.Chemscore.DEClash>
0.1468

> <Gold.Chemscore.DEInternal>
1.2868

> <Gold.Chemscore.Rot>
2.0179

> <Gold.Chemscore.Internal.Correction>
   9.000000E+99

> <Gold.Chemscore.Hbonds>
donor molecule, donor type, donor heavy atom, donor atom, acceptor molecule, acceptor atom, score
      P1  H  6896  6907       L1    10  0.54
      P1  H  6931  6943       L1     9  0.70
      P1  H  6934  6947       L1     9  0.44
      P1  H  7989  7998       L1    17  0.20

> <Gold.Chemscore.Hbond.Weighted>
-11.1328

> <Gold.Chemscore.Metal.Weighted>
-0.0000

> <Gold.Chemscore.Lipo.Weighted>
-8.9929

> <Gold.Chemscore.Internal_Hbond.Weighted>
0.0000

> <Gold.Chemscore.DEClash.Weighted>
0.1468

> <Gold.Chemscore.DEInternal.Weighted>
1.2868

> <Gold.Chemscore.Rot.Weighted>
5.1659

> <Gold.Chemscore.Internal.Correction.Weighted>
   9.000000E+99

> <Gold.Protein.RotatedTorsions>
[ 6907 6896 6895 6894 ] final  -58.02 input  -60.11 | X-H torsion
[ 7974 7965 7964 7962 ] final -100.59 input  175.53 | X-H torsion
[ 8008 7997 7996 7995 ] final   26.25 input   59.86 | X-H torsion
[ 10167 10162 10161 10158 ] final   34.89 input  -65.29 | X-H torsion
[ 10718 10713 10712 10709 ] final -162.65 input   66.30 | X-H torsion
[ 10763 10752 10751 10750 ] final   74.47 input  -60.55 | X-H torsion
[ 11005 11000 10999 10996 ] final  -90.18 input  -57.11 | X-H torsion

> <Gold.Protein.ActiveResidues>
 VAL166  LYS551  ARG553  GLY616  TRP617  ASP618  TYR619  PRO620  LYS621  CYS622 
 ASP623  PHE694  ASN695  SER759  ASP760  ASP761  ALA762  ILE779  LEU786  VAL792 
 PHE793  MET794  SER795  GLU796  ALA797  LYS798  CYS799  TRP800  GLU811  SER814 

> <Gold.Protein.RotatedAtoms>
  150.8040  134.7152  159.6626 H   0  0  0  0  0  0  0  0  0  0  0  0  # atno 6907 bound_to 6896
  152.4158  134.6041  160.0017 H   0  0  0  0  0  0  0  0  0  0  0  0  # atno 6908 bound_to 6896
  151.6270  133.3298  159.3136 H   0  0  0  0  0  0  0  0  0  0  0  0  # atno 6909 bound_to 6896
  145.2926  140.9357  143.2869 H   0  0  0  0  0  0  0  0  0  0  0  0  # atno 7974 bound_to 7965
  155.0243  140.3151  155.4782 H   0  0  0  0  0  0  0  0  0  0  0  0  # atno 8008 bound_to 7997
  156.2886  140.2192  156.5304 H   0  0  0  0  0  0  0  0  0  0  0  0  # atno 8009 bound_to 7997
  154.7425  140.0472  157.0811 H   0  0  0  0  0  0  0  0  0  0  0  0  # atno 8010 bound_to 7997
  140.4273  144.1374  150.6155 H   0  0  0  0  0  0  0  0  0  0  0  0  # atno 10167 bound_to 10162
  156.6135  130.8860  151.2942 H   0  0  0  0  0  0  0  0  0  0  0  0  # atno 10718 bound_to 10713
  153.0589  135.5024  154.8047 H   0  0  0  0  0  0  0  0  0  0  0  0  # atno 10763 bound_to 10752
  154.6851  135.2975  154.9561 H   0  0  0  0  0  0  0  0  0  0  0  0  # atno 10764 bound_to 10752
  154.0334  135.6726  153.4835 H   0  0  0  0  0  0  0  0  0  0  0  0  # atno 10765 bound_to 10752
  141.1571  133.7676  156.9700 H   0  0  0  0  0  0  0  0  0  0  0  0  # atno 11005 bound_to 11000
  144.9160  139.4470  143.6564 LP  0  0  0  0  0  0  0  0  0  0  0  0  # atno 17320 bound_to 7965
  146.3179  139.7994  142.8968 LP  0  0  0  0  0  0  0  0  0  0  0  0  # atno 17321 bound_to 7965
  140.4466  143.2504  151.9402 LP  0  0  0  0  0  0  0  0  0  0  0  0  # atno 17342 bound_to 10162
  139.4784  144.5602  151.8250 LP  0  0  0  0  0  0  0  0  0  0  0  0  # atno 17343 bound_to 10162
  157.7248  130.9607  150.1587 LP  0  0  0  0  0  0  0  0  0  0  0  0  # atno 17370 bound_to 10713
  156.2370  130.3687  149.8380 LP  0  0  0  0  0  0  0  0  0  0  0  0  # atno 17371 bound_to 10713
  140.1135  134.9462  157.2101 LP  0  0  0  0  0  0  0  0  0  0  0  0  # atno 17394 bound_to 11000
  140.3163  134.2967  155.7256 LP  0  0  0  0  0  0  0  0  0  0  0  0  # atno 17395 bound_to 11000

$$$$
