#       Name:                AV-unprocessed.smi:2655
#       Creating user name   scv26
#       Creation time:       Fri Mar 27 14:31:51 2020


#       File generated by GOLD software.
#

@<TRIPOS>MOLECULE
AV-unprocessed.smi:2655
    41    42     1
SMALL
NO_CHARGES


@<TRIPOS>ATOM
      1 ****        -1.9682   2.8224   3.3994 C.3            1 S1                 0.0000
      2 ****        -2.1111   3.1327   1.9251 C.2            1 S1                 0.0000
      3 ****        -2.8272   4.2098   1.4892 N.pl3          1 S1                 0.0000
      4 ****        -2.8358   4.2004   0.1173 N.am           1 S1                 0.0000
      5 ****        -2.1166   3.1606  -0.3359 C.2            1 S1                 0.0000
      6 ****        -1.9206   2.8809  -1.5166 O.2            1 S1                 0.0000
      7 ****        -1.6452   2.4686   0.8589 C.2            1 S1                 0.0000
      8 ****        -0.8310   1.1889   0.8318 C.3            1 S1                 0.0000
      9 ****         0.6454   1.4493   0.4912 C.3            1 S1                 0.0000
     10 ****         1.4252   0.2169   0.5126 N.am           1 S1                 0.0000
     11 ****         1.4859  -0.6903  -0.4729 C.2            1 S1                 0.0000
     12 ****         0.8464  -0.5128  -1.5124 O.2            1 S1                 0.0000
     13 ****         2.2815  -1.7483  -0.1915 N.pl3          1 S1                -1.0000
     14 ****         2.4378  -2.7327  -1.0899 C.2            1 S1                 0.0000
     15 ****         1.5597  -3.8337  -1.2858 C.2            1 S1                 0.0000
     16 ****         2.1626  -4.5397  -2.2878 C.2            1 S1                 0.0000
     17 ****         1.7984  -5.7973  -3.0002 C.3            1 S1                 0.0000
     18 ****         3.3182  -3.9296  -2.6657 O.3            1 S1                 0.0000
     19 ****         3.4901  -2.7769  -1.8900 N.2            1 S1                 0.0000
     20 ****        -0.9143   2.7933   3.6770 H              1 S1                 0.0000
     21 ****        -2.4112   1.8525   3.6258 H              1 S1                 0.0000
     22 ****        -2.4639   3.5780   4.0096 H              1 S1                 0.0000
     23 ****        -3.3250   4.9236  -0.3898 H              1 S1                 0.0000
     24 ****        -1.2775   0.5050   0.1088 H              1 S1                 0.0000
     25 ****        -0.9026   0.7000   1.8038 H              1 S1                 0.0000
     26 ****         0.7391   1.9350  -0.4818 H              1 S1                 0.0000
     27 ****         1.0782   2.1333   1.2217 H              1 S1                 0.0000
     28 ****         1.9660   0.0331   1.3449 H              1 S1                 0.0000
     29 ****         0.6358  -4.0634  -0.7767 H              1 S1                 0.0000
     30 ****         1.8122  -6.6452  -2.3156 H              1 S1                 0.0000
     31 ****         2.4960  -6.0066  -3.8114 H              1 S1                 0.0000
     32 ****         0.7981  -5.7222  -3.4267 H              1 S1                 0.0000
     33 ****        -3.4256   4.8132   2.0350 H              1 S1                 0.0000
     34 ****        -2.3133   3.4520  -2.2376 LP             1 S1                 0.0000
     35 ****        -1.3685   2.0823  -1.7563 LP             1 S1                 0.0000
     36 ****         0.2836   0.3069  -1.6195 LP             1 S1                 0.0000
     37 ****         0.8907  -1.1885  -2.2483 LP             1 S1                 0.0000
     38 ****         2.7542  -1.7966   0.6883 LP             1 S1                 0.0000
     39 ****         3.2666  -3.6801  -3.6328 LP             1 S1                 0.0000
     40 ****         4.0891  -4.5501  -2.5222 LP             1 S1                 0.0000
     41 ****         4.2475  -2.1253  -1.9320 LP             1 S1                 0.0000
@<TRIPOS>BOND
    1    1   20 1     
    2    1   21 1     
    3    1   22 1     
    4    1    2 1     
    5    2    7 2     
    6    2    3 1     
    7    3    4 1     
    8    3   33 1     
    9    4   23 1     
   10    4    5 am    
   11    5    7 1     
   12    5    6 2     
   13    7    8 1     
   14    8    9 1     
   15    8   24 1     
   16    8   25 1     
   17    9   10 1     
   18    9   26 1     
   19    9   27 1     
   20   10   11 am    
   21   10   28 1     
   22   11   12 2     
   23   11   13 1     
   24   13   14 1     
   25   14   19 2     
   26   14   15 1     
   27   15   16 2     
   28   15   29 1     
   29   16   17 1     
   30   16   18 1     
   31   17   30 1     
   32   17   31 1     
   33   17   32 1     
   34   18   19 1     
   35    6   34 1     
   36    6   35 1     
   37   12   36 1     
   38   12   37 1     
   39   13   38 1     
   40   18   39 1     
   41   18   40 1     
   42   19   41 1     
@<TRIPOS>SUBSTRUCTURE
      1 S1             1
@<TRIPOS>SET
LONE_PAIRS      STATIC     ATOMS    <user>   **** ""
8 34 35 36 37 38 39 40 41
DONOR_HYDROGENS      STATIC     ATOMS    <user>   **** ""
3 33 23 28
ATOM$BLUE        STATIC     ATOMS    COLORGROUP SYSTEM
8 34 35 36 37 38 39 40 41
ATOM$RED        STATIC     ATOMS    COLORGROUP SYSTEM
3 33 23 28
