AV-unprocessed.smi:1830|AV-procd|sdf|7449|dock10
  -GOLD-   22720 9143D 1   1.00000     0.00000
 Structure written by MMmdl.
 54 57  0  0  0  0  0  0  0  0  3 V2000
  151.3794  136.9692  155.6081 O   0  0  0  0  0  0  0  0  0  0  0  0
  150.6831  136.8350  154.6026 C   0  0  0  0  0  0  0  0  0  0  0  0
  150.1887  137.8642  153.9011 N   0  0  0  0  0  0  0  0  0  0  0  0
  150.3728  139.2750  154.2298 C   0  0  0  0  0  0  0  0  0  0  0  0
  149.0647  139.9790  154.6429 C   0  0  1  0  0  0  0  0  0  0  0  0
  149.2705  141.4468  155.0743 C   0  0  0  0  0  0  0  0  0  0  0  0
  147.9825  142.1348  155.3229 N   0  3  2  0  0  0  0  0  0  0  0  0
  147.3415  141.8811  156.6323 C   0  0  0  0  0  0  0  0  0  0  0  0
  145.8271  142.0073  156.4024 C   0  0  0  0  0  0  0  0  0  0  0  0
  145.6677  142.3975  154.9289 C   0  0  0  0  0  0  0  0  0  0  0  0
  146.9658  141.9254  154.2721 C   0  0  2  0  0  0  0  0  0  0  0  0
  146.8968  140.4428  153.8417 C   0  0  0  0  0  0  0  0  0  0  0  0
  148.1937  139.9607  153.5186 O   0  0  0  0  0  0  0  0  0  0  0  0
  150.3382  135.6597  154.0512 N   0  0  0  0  0  0  0  0  0  0  0  0
  150.7294  134.3527  154.4585 C   0  0  0  0  0  0  0  0  0  0  0  0
  151.9640  134.1089  155.1131 C   0  0  0  0  0  0  0  0  0  0  0  0
  152.2889  132.8044  155.5321 C   0  0  0  0  0  0  0  0  0  0  0  0
  151.3702  131.7653  155.3012 C   0  0  0  0  0  0  0  0  0  0  0  0
  150.1976  132.0328  154.6899 N   0  3  0  0  0  0  0  0  0  0  0  0
  149.8306  133.2673  154.2656 C   0  0  0  0  0  0  0  0  0  0  0  0
  148.5866  133.4237  153.6172 N   0  0  0  0  0  0  0  0  0  0  0  0
  148.5253  132.8360  152.2812 C   0  0  0  0  0  0  0  0  0  0  0  0
  147.1094  132.2793  152.1162 C   0  0  0  0  0  0  0  0  0  0  0  0
  146.6840  131.9832  153.5491 C   0  0  0  0  0  0  0  0  0  0  0  0
  147.3476  133.1154  154.3305 C   0  0  0  0  0  0  0  0  0  0  0  0
  149.6257  137.6599  153.0882 H   0  0  0  0  0  0  0  0  0  0  0  0
  151.0959  139.3348  155.0437 H   0  0  0  0  0  0  0  0  0  0  0  0
  150.8242  139.7896  153.3802 H   0  0  0  0  0  0  0  0  0  0  0  0
  148.6039  139.4136  155.4541 H   0  0  0  0  0  0  0  0  0  0  0  0
  149.8982  141.5173  155.9636 H   0  0  0  0  0  0  0  0  0  0  0  0
  149.7895  141.9857  154.2808 H   0  0  0  0  0  0  0  0  0  0  0  0
  147.5800  140.8830  157.0015 H   0  0  0  0  0  0  0  0  0  0  0  0
  147.7036  142.6008  157.3669 H   0  0  0  0  0  0  0  0  0  0  0  0
  145.3433  141.0483  156.5916 H   0  0  0  0  0  0  0  0  0  0  0  0
  145.3689  142.7412  157.0661 H   0  0  0  0  0  0  0  0  0  0  0  0
  144.7737  141.9728  154.4708 H   0  0  0  0  0  0  0  0  0  0  0  0
  145.5939  143.4830  154.8484 H   0  0  0  0  0  0  0  0  0  0  0  0
  147.2123  142.5386  153.4044 H   0  0  0  0  0  0  0  0  0  0  0  0
  146.4600  139.8183  154.6230 H   0  0  0  0  0  0  0  0  0  0  0  0
  146.2544  140.3391  152.9671 H   0  0  0  0  0  0  0  0  0  0  0  0
  149.8282  135.7090  153.1812 H   0  0  0  0  0  0  0  0  0  0  0  0
  152.6631  134.9058  155.3171 H   0  0  0  0  0  0  0  0  0  0  0  0
  153.2270  132.6064  156.0302 H   0  0  0  0  0  0  0  0  0  0  0  0
  151.5335  130.7365  155.5880 H   0  0  0  0  0  0  0  0  0  0  0  0
  148.7486  133.5762  151.5122 H   0  0  0  0  0  0  0  0  0  0  0  0
  149.2562  132.0301  152.1921 H   0  0  0  0  0  0  0  0  0  0  0  0
  146.4577  133.0433  151.6899 H   0  0  0  0  0  0  0  0  0  0  0  0
  147.0705  131.4031  151.4683 H   0  0  0  0  0  0  0  0  0  0  0  0
  145.6014  131.9557  153.6778 H   0  0  0  0  0  0  0  0  0  0  0  0
  147.0897  131.0216  153.8671 H   0  0  0  0  0  0  0  0  0  0  0  0
  147.4761  132.8581  155.3814 H   0  0  0  0  0  0  0  0  0  0  0  0
  146.7177  134.0051  154.2996 H   0  0  0  0  0  0  0  0  0  0  0  0
  148.1787  143.1257  155.3199 H   0  0  0  0  0  0  0  0  0  0  0  0
  149.5507  131.2589  154.5361 H   0  0  0  0  0  0  0  0  0  0  0  0
  1  2  2  0  0  0  0
  2  3  1  0  0  0  0
  2 14  1  0  0  0  0
  3  4  1  0  0  0  0
  3 26  1  0  0  0  0
  4  5  1  0  0  0  0
  4 27  1  0  0  0  0
  4 28  1  0  0  0  0
  5 13  1  0  0  0  0
  5  6  1  0  0  0  0
  5 29  1  0  0  0  0
  6  7  1  0  0  0  0
  6 30  1  0  0  0  0
  6 31  1  0  0  0  0
  7 11  1  0  0  0  0
  7  8  1  0  0  0  0
  7 53  1  0  0  0  0
  8  9  1  0  0  0  0
  8 32  1  0  0  0  0
  8 33  1  0  0  0  0
  9 10  1  0  0  0  0
  9 34  1  0  0  0  0
  9 35  1  0  0  0  0
 10 11  1  0  0  0  0
 10 36  1  0  0  0  0
 10 37  1  0  0  0  0
 11 12  1  0  0  0  0
 11 38  1  0  0  0  0
 12 13  1  0  0  0  0
 12 39  1  0  0  0  0
 12 40  1  0  0  0  0
 14 15  1  0  0  0  0
 14 41  1  0  0  0  0
 15 20  1  0  0  0  0
 15 16  2  0  0  0  0
 16 17  1  0  0  0  0
 16 42  1  0  0  0  0
 17 18  2  0  0  0  0
 17 43  1  0  0  0  0
 18 19  1  0  0  0  0
 18 44  1  0  0  0  0
 19 20  2  0  0  0  0
 19 54  1  0  0  0  0
 20 21  1  0  0  0  0
 21 25  1  0  0  0  0
 21 22  1  0  0  0  0
 22 23  1  0  0  0  0
 22 45  1  0  0  0  0
 22 46  1  0  0  0  0
 23 24  1  0  0  0  0
 23 47  1  0  0  0  0
 23 48  1  0  0  0  0
 24 25  1  0  0  0  0
 24 49  1  0  0  0  0
 24 50  1  0  0  0  0
 25 51  1  0  0  0  0
 25 52  1  0  0  0  0
M  CHG  1   7   1
M  CHG  1  19   1
M  END
> <s_m_source_file>
AV-unprocessed.smi

> <i_m_source_file_index>
1830

> <i_lp_mmshare_version>
43012

> <i_f3d_flags>
0

> <s_epik_input>
W0NIMl0xW0NIMl1bQ0gyXVtDQEhdKE4xMilbQ0gyXU9bQ0BASF0oW0NIMl0yKVtDSDJdW05IXUMoPU8pW05IXWMzW2NIXVtjSF1bY0hdbmMzTjRbQ0gyXVtDSDJdW0NIMl1bQ0gyXTQ=

> <s_epik_cmdline>
J2VwaWtfcHl0aG9uJywgJy1waCcsICc3LjAnLCAnLXRuJywgJzgnLCAnLW1hJywgJzIwMCcsICctbWV0YWxfYmluZGluZycsICctaW1hZScsICc8aW5maWxlLm1hZT4nLCAnLW9tYWUnLCAnPG91dGZpbGUubWFlPic=

> <r_lp_tautomer_probability>
0.999994

> <r_epik_Ionization_Penalty>
1.29113

> <r_epik_Ionization_Penalty_Charging>
1.29111

> <r_epik_Ionization_Penalty_Neutral>
1.88144e-05

> <r_epik_State_Penalty>
1.32676

> <r_epik_Charging_Adjusted_Penalty>
2.61787

> <i_epik_Tot_Q>
2

> <i_epik_Tot_abs_Q>
2

> <r_epik_Metal_State_Penalty>
1.40425

> <b_epik_Metal_Only>
0

> <s_lp_Force_Field>
OPLS_2005

> <r_lp_Energy>
74.6229

> <b_lp_Chiralities_Consistent>
1

> <s_lp_Variant>
AV-unprocessed.smi:1830-18

> <Gold.Version>
5.8.1

> <Gold.Id.Protein>
6NUR|6NUR_protein|mol2

> <Gold.PLP.Fitness>
48.8423

> <Gold.PLP.PLP>
-37.6474

> <Gold.PLP.part.hbond>
-3.2958

> <Gold.PLP.part.metal>
0.0000

> <Gold.PLP.part.buried>
-5.4945

> <Gold.PLP.part.nonpolar>
-32.5438

> <Gold.PLP.part.repulsive>
3.7148

> <Gold.PLP.ligand.clash>
0.0000

> <Gold.PLP.ligand.torsion>
0.3375

> <Gold.PLP.Chemscore.Hbond>
3.9040

> <Gold.PLP.Chemscore.CHOScore>
0.0000

> <Gold.PLP.Chemscore.Metal>
0.0000

> <Gold.Chemscore.Hbonds>
donor molecule, donor type, donor heavy atom, donor atom, acceptor molecule, acceptor atom, score
      L1  H     3    26       P1  7948  0.91
      L1  H     7    53       P1  8028  2.00
      L1  H    14    41       P1  7948  0.30

> <Gold.PLP.Chemscore.Internal.Correction>
0.1579

> <Gold.Rescore>
     Score         DG    S(hbond)    S(metal)    S(lipo)     H(rot)  DE(clash)    DE(int)     intcor
     17.24     -18.89       2.48        0.00      74.99       1.43       0.08       1.56       ----

> <Gold.Chemscore.Fitness>
17.2450

> <Gold.Chemscore.DG>
-18.8866

> <Gold.Chemscore.ZeroCoef>
-5.4800

> <Gold.Chemscore.Hbond>
2.4815

> <Gold.Chemscore.Metal>
0.0000

> <Gold.Chemscore.Lipo>
74.9877

> <Gold.Chemscore.Internal_Hbond>
0.0000

> <Gold.Chemscore.DEClash>
0.0810

> <Gold.Chemscore.DEInternal>
1.5606

> <Gold.Chemscore.Rot>
1.4278

> <Gold.Chemscore.Internal.Correction>
   9.000000E+99

> <Gold.Chemscore.Hbonds>
donor molecule, donor type, donor heavy atom, donor atom, acceptor molecule, acceptor atom, score
      L1  H     3    26       P1  7948  0.66
      L1  H     7    53       P1  8028  0.94

> <Gold.Chemscore.Hbond.Weighted>
-8.2881

> <Gold.Chemscore.Metal.Weighted>
-0.0000

> <Gold.Chemscore.Lipo.Weighted>
-8.7736

> <Gold.Chemscore.Internal_Hbond.Weighted>
0.0000

> <Gold.Chemscore.DEClash.Weighted>
0.0810

> <Gold.Chemscore.DEInternal.Weighted>
1.5606

> <Gold.Chemscore.Rot.Weighted>
3.6551

> <Gold.Chemscore.Internal.Correction.Weighted>
   9.000000E+99

> <Gold.Protein.RotatedTorsions>
[ 6907 6896 6895 6894 ] final -117.73 input  -60.11 | X-H torsion
[ 7974 7965 7964 7962 ] final -152.74 input  175.53 | X-H torsion
[ 8008 7997 7996 7995 ] final -134.62 input   59.86 | X-H torsion
[ 10167 10162 10161 10158 ] final -100.42 input  -65.29 | X-H torsion
[ 10718 10713 10712 10709 ] final   23.11 input   66.30 | X-H torsion
[ 10763 10752 10751 10750 ] final  -82.77 input  -60.55 | X-H torsion
[ 11005 11000 10999 10996 ] final -117.51 input  -57.11 | X-H torsion

> <Gold.Protein.ActiveResidues>
 VAL166  LYS551  ARG553  GLY616  TRP617  ASP618  TYR619  PRO620  LYS621  CYS622 
 ASP623  PHE694  ASN695  SER759  ASP760  ASP761  ALA762  ILE779  LEU786  VAL792 
 PHE793  MET794  SER795  GLU796  ALA797  LYS798  CYS799  TRP800  GLU811  SER814 

> <Gold.Protein.RotatedAtoms>
  150.8161  133.8336  159.3159 H   0  0  0  0  0  0  0  0  0  0  0  0  # atno 6907 bound_to 6896
  151.6107  135.1038  160.0090 H   0  0  0  0  0  0  0  0  0  0  0  0  # atno 6908 bound_to 6896
  152.4252  133.7142  159.6553 H   0  0  0  0  0  0  0  0  0  0  0  0  # atno 6909 bound_to 6896
  144.7778  140.4621  143.5861 H   0  0  0  0  0  0  0  0  0  0  0  0  # atno 7974 bound_to 7965
  155.3652  140.0485  157.3046 H   0  0  0  0  0  0  0  0  0  0  0  0  # atno 8008 bound_to 7997
  154.5158  140.2208  155.9032 H   0  0  0  0  0  0  0  0  0  0  0  0  # atno 8009 bound_to 7997
  156.1634  140.3111  155.8853 H   0  0  0  0  0  0  0  0  0  0  0  0  # atno 8010 bound_to 7997
  140.2521  143.3465  152.0705 H   0  0  0  0  0  0  0  0  0  0  0  0  # atno 10167 bound_to 10162
  157.1616  130.6719  149.6046 H   0  0  0  0  0  0  0  0  0  0  0  0  # atno 10718 bound_to 10713
  154.5798  135.5579  153.7174 H   0  0  0  0  0  0  0  0  0  0  0  0  # atno 10763 bound_to 10752
  153.0077  135.6317  154.1998 H   0  0  0  0  0  0  0  0  0  0  0  0  # atno 10764 bound_to 10752
  154.1939  135.2881  155.2993 H   0  0  0  0  0  0  0  0  0  0  0  0  # atno 10765 bound_to 10752
  141.0349  133.9924  157.3085 H   0  0  0  0  0  0  0  0  0  0  0  0  # atno 11005 bound_to 11000
  145.6137  139.1516  143.3061 LP  0  0  0  0  0  0  0  0  0  0  0  0  # atno 17320 bound_to 7965
  146.1968  140.6251  142.9120 LP  0  0  0  0  0  0  0  0  0  0  0  0  # atno 17321 bound_to 7965
  139.5043  144.6772  151.6098 LP  0  0  0  0  0  0  0  0  0  0  0  0  # atno 17342 bound_to 10162
  140.6032  143.9571  150.6401 LP  0  0  0  0  0  0  0  0  0  0  0  0  # atno 17343 bound_to 10162
  155.9753  130.4709  150.6448 LP  0  0  0  0  0  0  0  0  0  0  0  0  # atno 17370 bound_to 10713
  157.4127  131.0826  151.1206 LP  0  0  0  0  0  0  0  0  0  0  0  0  # atno 17371 bound_to 10713
  139.9234  135.0201  156.8146 LP  0  0  0  0  0  0  0  0  0  0  0  0  # atno 17394 bound_to 11000
  140.6339  133.9880  155.7675 LP  0  0  0  0  0  0  0  0  0  0  0  0  # atno 17395 bound_to 11000

$$$$
