AV-unprocessed.smi:307|AV-procd|sdf|2284|dock3
  -GOLD-   2262022183D 1   1.00000     0.00000
 Structure written by MMmdl.
 38 39  0  0  0  0  0  0  0  0  1 V2000
  147.9577  132.6479  148.9966 O   0  0  0  0  0  0  0  0  0  0  0  0
  148.3804  133.5217  149.7501 C   0  0  0  0  0  0  0  0  0  0  0  0
  149.6843  133.7886  149.9623 N   0  0  0  0  0  0  0  0  0  0  0  0
  150.8284  133.1310  149.4347 C   0  0  0  0  0  0  0  0  0  0  0  0
  152.1533  133.6172  149.5430 C   0  0  0  0  0  0  0  0  0  0  0  0
  153.1999  132.8755  148.9621 C   0  0  0  0  0  0  0  0  0  0  0  0
  152.8939  131.6786  148.2850 C   0  0  0  0  0  0  0  0  0  0  0  0
  153.9256  130.9564  147.7223 O   0  0  0  0  0  0  0  0  0  0  0  0
  153.6563  130.1797  146.5580 C   0  0  0  0  0  0  0  0  0  0  0  0
  154.9534  129.5134  146.0851 C   0  0  0  0  0  0  0  0  0  0  0  0
  155.4831  128.8172  147.0903 F   0  0  0  0  0  0  0  0  0  0  0  0
  154.7024  128.6818  145.0744 F   0  0  0  0  0  0  0  0  0  0  0  0
  155.8313  130.4380  145.6964 F   0  0  0  0  0  0  0  0  0  0  0  0
  151.6257  131.2144  148.1642 N   0  0  0  0  0  0  0  0  0  0  0  0
  150.6273  131.9299  148.7237 C   0  0  0  0  0  0  0  0  0  0  0  0
  147.5363  134.3210  150.4281 N   0  0  0  0  0  0  0  0  0  0  0  0
  146.0715  134.3066  150.4292 C   0  0  0  0  0  0  0  0  0  0  0  0
  145.5175  134.1719  148.9992 C   0  0  0  0  0  0  0  0  0  0  0  0
  143.9879  134.3252  148.9918 C   0  0  0  0  0  0  0  0  0  0  0  0
  143.6192  135.5709  149.5737 O   0  0  0  0  0  0  0  0  0  0  0  0
  144.0101  135.6822  150.9379 C   0  0  0  0  0  0  0  0  0  0  0  0
  145.5416  135.6062  151.0542 C   0  0  0  0  0  0  0  0  0  0  0  0
  149.8786  134.5900  150.5446 H   0  0  0  0  0  0  0  0  0  0  0  0
  152.3888  134.5429  150.0437 H   0  0  0  0  0  0  0  0  0  0  0  0
  154.2206  133.2213  149.0326 H   0  0  0  0  0  0  0  0  0  0  0  0
  152.9109  129.4135  146.7779 H   0  0  0  0  0  0  0  0  0  0  0  0
  153.2589  130.8146  145.7641 H   0  0  0  0  0  0  0  0  0  0  0  0
  149.6331  131.5252  148.6017 H   0  0  0  0  0  0  0  0  0  0  0  0
  147.9639  135.0313  151.0047 H   0  0  0  0  0  0  0  0  0  0  0  0
  145.7106  133.4740  151.0358 H   0  0  0  0  0  0  0  0  0  0  0  0
  145.9571  134.9378  148.3585 H   0  0  0  0  0  0  0  0  0  0  0  0
  145.7939  133.2095  148.5678 H   0  0  0  0  0  0  0  0  0  0  0  0
  143.6137  134.2899  147.9685 H   0  0  0  0  0  0  0  0  0  0  0  0
  143.5131  133.5049  149.5322 H   0  0  0  0  0  0  0  0  0  0  0  0
  143.6516  136.6340  151.3302 H   0  0  0  0  0  0  0  0  0  0  0  0
  143.5358  134.8965  151.5279 H   0  0  0  0  0  0  0  0  0  0  0  0
  145.8397  135.6726  152.1011 H   0  0  0  0  0  0  0  0  0  0  0  0
  145.9807  136.4678  150.5491 H   0  0  0  0  0  0  0  0  0  0  0  0
  1  2  2  0  0  0  0
  2  3  1  0  0  0  0
  2 16  1  0  0  0  0
  3  4  1  0  0  0  0
  3 23  1  0  0  0  0
  4 15  1  0  0  0  0
  4  5  2  0  0  0  0
  5  6  1  0  0  0  0
  5 24  1  0  0  0  0
  6  7  2  0  0  0  0
  6 25  1  0  0  0  0
  7  8  1  0  0  0  0
  7 14  1  0  0  0  0
  8  9  1  0  0  0  0
  9 10  1  0  0  0  0
  9 26  1  0  0  0  0
  9 27  1  0  0  0  0
 10 11  1  0  0  0  0
 10 12  1  0  0  0  0
 10 13  1  0  0  0  0
 14 15  2  0  0  0  0
 15 28  1  0  0  0  0
 16 17  1  0  0  0  0
 16 29  1  0  0  0  0
 17 22  1  0  0  0  0
 17 18  1  0  0  0  0
 17 30  1  0  0  0  0
 18 19  1  0  0  0  0
 18 31  1  0  0  0  0
 18 32  1  0  0  0  0
 19 20  1  0  0  0  0
 19 33  1  0  0  0  0
 19 34  1  0  0  0  0
 20 21  1  0  0  0  0
 21 22  1  0  0  0  0
 21 35  1  0  0  0  0
 21 36  1  0  0  0  0
 22 37  1  0  0  0  0
 22 38  1  0  0  0  0
M  END
> <s_m_source_file>
AV-unprocessed.smi

> <i_m_source_file_index>
307

> <i_lp_mmshare_version>
43012

> <i_f3d_flags>
0

> <s_epik_input>
W0NIMl0xW0NIMl1PW0NIMl1bQ0gyXVtDSF0xW05IXUMoPU8pW05IXWMyW2NIXVtjSF1jKG5bY0hdMilPW0NIMl1DKEYpKEYpRg==

> <s_epik_cmdline>
J2VwaWtfcHl0aG9uJywgJy1waCcsICc3LjAnLCAnLXRuJywgJzgnLCAnLW1hJywgJzIwMCcsICctbWV0YWxfYmluZGluZycsICctaW1hZScsICc8aW5maWxlLm1hZT4nLCAnLW9tYWUnLCAnPG91dGZpbGUubWFlPic=

> <r_lp_tautomer_probability>
1

> <r_epik_Ionization_Penalty>
3.97058e-05

> <r_epik_Ionization_Penalty_Charging>
0

> <r_epik_Ionization_Penalty_Neutral>
3.97058e-05

> <r_epik_State_Penalty>
-0

> <r_epik_Charging_Adjusted_Penalty>
0

> <i_epik_Tot_Q>
0

> <i_epik_Tot_abs_Q>
0

> <r_epik_Metal_State_Penalty>
-0

> <b_epik_Metal_Only>
0

> <s_lp_Force_Field>
OPLS_2005

> <r_lp_Energy>
20.0098

> <b_lp_Chiralities_Consistent>
1

> <s_lp_Variant>
AV-unprocessed.smi:307-1

> <Gold.Version>
5.8.1

> <Gold.Id.Protein>
6NUR|6NUR_protein|mol2

> <Gold.PLP.Fitness>
47.1037

> <Gold.PLP.PLP>
-43.2721

> <Gold.PLP.part.hbond>
-3.0000

> <Gold.PLP.part.metal>
0.0000

> <Gold.PLP.part.buried>
-0.7494

> <Gold.PLP.part.nonpolar>
-40.7373

> <Gold.PLP.part.repulsive>
0.5966

> <Gold.PLP.ligand.clash>
0.0000

> <Gold.PLP.ligand.torsion>
0.6030

> <Gold.PLP.Chemscore.Hbond>
1.6625

> <Gold.PLP.Chemscore.CHOScore>
0.0000

> <Gold.PLP.Chemscore.Metal>
0.0000

> <Gold.Chemscore.Hbonds>
donor molecule, donor type, donor heavy atom, donor atom, acceptor molecule, acceptor atom, score
      L1  H    16    29       P1  7948  0.40

> <Gold.PLP.Chemscore.Internal.Correction>
0.0501

> <Gold.Rescore>
     Score         DG    S(hbond)    S(metal)    S(lipo)     H(rot)  DE(clash)    DE(int)     intcor
     12.17     -15.38       1.91        0.00      67.56       1.71       0.19       3.03       ----

> <Gold.Chemscore.Fitness>
12.1688

> <Gold.Chemscore.DG>
-15.3845

> <Gold.Chemscore.ZeroCoef>
-5.4800

> <Gold.Chemscore.Hbond>
1.9119

> <Gold.Chemscore.Metal>
0.0000

> <Gold.Chemscore.Lipo>
67.5599

> <Gold.Chemscore.Internal_Hbond>
0.0000

> <Gold.Chemscore.DEClash>
0.1906

> <Gold.Chemscore.DEInternal>
3.0251

> <Gold.Chemscore.Rot>
1.7132

> <Gold.Chemscore.Internal.Correction>
   9.000000E+99

> <Gold.Chemscore.Hbonds>
donor molecule, donor type, donor heavy atom, donor atom, acceptor molecule, acceptor atom, score
      L1  H    16    29       P1  7948  0.01

> <Gold.Chemscore.Hbond.Weighted>
-6.3857

> <Gold.Chemscore.Metal.Weighted>
-0.0000

> <Gold.Chemscore.Lipo.Weighted>
-7.9045

> <Gold.Chemscore.Internal_Hbond.Weighted>
0.0000

> <Gold.Chemscore.DEClash.Weighted>
0.1906

> <Gold.Chemscore.DEInternal.Weighted>
3.0251

> <Gold.Chemscore.Rot.Weighted>
4.3858

> <Gold.Chemscore.Internal.Correction.Weighted>
   9.000000E+99

> <Gold.Protein.RotatedTorsions>
[ 6907 6896 6895 6894 ] final  149.19 input  -60.11 | X-H torsion
[ 7974 7965 7964 7962 ] final  168.53 input  175.53 | X-H torsion
[ 8008 7997 7996 7995 ] final -101.77 input   59.86 | X-H torsion
[ 10167 10162 10161 10158 ] final   92.75 input  -65.29 | X-H torsion
[ 10718 10713 10712 10709 ] final -124.20 input   66.30 | X-H torsion
[ 10763 10752 10751 10750 ] final -162.80 input  -60.55 | X-H torsion
[ 11005 11000 10999 10996 ] final -143.02 input  -57.11 | X-H torsion

> <Gold.Protein.ActiveResidues>
 VAL166  LYS551  ARG553  GLY616  TRP617  ASP618  TYR619  PRO620  LYS621  CYS622 
 ASP623  PHE694  ASN695  SER759  ASP760  ASP761  ALA762  ILE779  LEU786  VAL792 
 PHE793  MET794  SER795  GLU796  ALA797  LYS798  CYS799  TRP800  GLU811  SER814 

> <Gold.Protein.RotatedAtoms>
  152.1314  133.4410  159.4722 H   0  0  0  0  0  0  0  0  0  0  0  0  # atno 6907 bound_to 6896
  150.6878  134.2416  159.4484 H   0  0  0  0  0  0  0  0  0  0  0  0  # atno 6908 bound_to 6896
  152.0301  134.9772  160.0623 H   0  0  0  0  0  0  0  0  0  0  0  0  # atno 6909 bound_to 6896
  144.7385  139.8921  143.6404 H   0  0  0  0  0  0  0  0  0  0  0  0  # atno 7974 bound_to 7965
  154.8472  140.0432  157.1580 H   0  0  0  0  0  0  0  0  0  0  0  0  # atno 8008 bound_to 7997
  154.8982  140.2996  155.5312 H   0  0  0  0  0  0  0  0  0  0  0  0  # atno 8009 bound_to 7997
  156.2995  140.2381  156.4006 H   0  0  0  0  0  0  0  0  0  0  0  0  # atno 8010 bound_to 7997
  139.8246  144.6715  150.9475 H   0  0  0  0  0  0  0  0  0  0  0  0  # atno 10167 bound_to 10162
  156.1567  130.6573  150.9992 H   0  0  0  0  0  0  0  0  0  0  0  0  # atno 10718 bound_to 10713
  154.7181  135.3020  154.9091 H   0  0  0  0  0  0  0  0  0  0  0  0  # atno 10763 bound_to 10752
  153.9972  135.6711  153.4761 H   0  0  0  0  0  0  0  0  0  0  0  0  # atno 10764 bound_to 10752
  153.0810  135.5009  154.8419 H   0  0  0  0  0  0  0  0  0  0  0  0  # atno 10765 bound_to 10752
  140.8167  134.2680  157.4918 H   0  0  0  0  0  0  0  0  0  0  0  0  # atno 11005 bound_to 11000
  146.1134  139.4142  143.0273 LP  0  0  0  0  0  0  0  0  0  0  0  0  # atno 17320 bound_to 7965
  145.7409  141.0008  143.1301 LP  0  0  0  0  0  0  0  0  0  0  0  0  # atno 17321 bound_to 7965
  140.7811  143.4058  151.1073 LP  0  0  0  0  0  0  0  0  0  0  0  0  # atno 17342 bound_to 10162
  139.7716  143.8485  152.3121 LP  0  0  0  0  0  0  0  0  0  0  0  0  # atno 17343 bound_to 10162
  157.6701  131.0863  150.7634 LP  0  0  0  0  0  0  0  0  0  0  0  0  # atno 17370 bound_to 10713
  156.7698  130.4825  149.5420 LP  0  0  0  0  0  0  0  0  0  0  0  0  # atno 17371 bound_to 10713
  139.8710  134.9513  156.4081 LP  0  0  0  0  0  0  0  0  0  0  0  0  # atno 17394 bound_to 11000
  140.9141  133.7691  155.9827 LP  0  0  0  0  0  0  0  0  0  0  0  0  # atno 17395 bound_to 11000

$$$$
