AV-unprocessed.smi:2106|AV-procd|sdf|8593|dock9
  -GOLD-   2272011323D 1   1.00000     0.00000
 Structure written by MMmdl.
 47 48  0  0  0  0  0  0  0  0  1 V2000
  147.8261  136.8290  163.7402 C   0  0  0  0  0  0  0  0  0  0  0  0
  147.7684  136.1981  162.3804 C   0  0  0  0  0  0  0  0  0  0  0  0
  147.5065  134.8392  162.0503 C   0  0  0  0  0  0  0  0  0  0  0  0
  147.5746  134.8033  160.6861 C   0  0  0  0  0  0  0  0  0  0  0  0
  147.3924  133.6592  159.7436 C   0  0  0  0  0  0  0  0  0  0  0  0
  147.8623  136.0898  160.2648 N   0  0  0  0  0  0  0  0  0  0  0  0
  148.0503  136.5933  158.9132 C   0  0  0  0  0  0  0  0  0  0  0  0
  149.5198  136.9237  158.6474 C   0  0  0  0  0  0  0  0  0  0  0  0
  150.3536  136.0205  158.5879 O   0  0  0  0  0  0  0  0  0  0  0  0
  149.8211  138.2222  158.4941 N   0  0  0  0  0  0  0  0  0  0  0  0
  151.1569  138.7519  158.2533 C   0  0  0  0  0  0  0  0  0  0  0  0
  151.0937  140.1820  157.6861 C   0  0  0  0  0  0  0  0  0  0  0  0
  151.2574  141.2470  158.6744 N   0  0  0  0  0  0  0  0  0  0  0  0
  152.3244  140.9647  159.6318 C   0  0  0  0  0  0  0  0  0  0  0  0
  152.5085  142.1086  160.6478 C   0  0  1  0  0  0  0  0  0  0  0  0
  153.6840  141.8552  161.5974 C   0  0  0  0  0  0  0  0  0  0  0  0
  152.7545  143.3234  159.9455 O   0  0  0  0  0  0  0  0  0  0  0  0
  151.7124  143.6674  159.0368 C   0  0  1  0  0  0  0  0  0  0  0  0
  152.0842  144.9906  158.3593 C   0  0  0  0  0  0  0  0  0  0  0  0
  151.5343  142.5222  158.0218 C   0  0  0  0  0  0  0  0  0  0  0  0
  147.9795  136.9421  161.3071 N   0  0  0  0  0  0  0  0  0  0  0  0
  147.6026  136.1017  164.5208 H   0  0  0  0  0  0  0  0  0  0  0  0
  147.1044  137.6414  163.8278 H   0  0  0  0  0  0  0  0  0  0  0  0
  148.8166  137.2376  163.9416 H   0  0  0  0  0  0  0  0  0  0  0  0
  147.3009  134.0141  162.7160 H   0  0  0  0  0  0  0  0  0  0  0  0
  147.1796  132.7379  160.2864 H   0  0  0  0  0  0  0  0  0  0  0  0
  148.2914  133.4966  159.1490 H   0  0  0  0  0  0  0  0  0  0  0  0
  146.5624  133.8452  159.0620 H   0  0  0  0  0  0  0  0  0  0  0  0
  147.7011  135.8472  158.1990 H   0  0  0  0  0  0  0  0  0  0  0  0
  147.4324  137.4809  158.7676 H   0  0  0  0  0  0  0  0  0  0  0  0
  149.0700  138.8932  158.5661 H   0  0  0  0  0  0  0  0  0  0  0  0
  151.7445  138.7297  159.1726 H   0  0  0  0  0  0  0  0  0  0  0  0
  151.6469  138.0780  157.5517 H   0  0  0  0  0  0  0  0  0  0  0  0
  151.8391  140.2947  156.8974 H   0  0  0  0  0  0  0  0  0  0  0  0
  150.1249  140.3053  157.1999 H   0  0  0  0  0  0  0  0  0  0  0  0
  152.1072  140.0483  160.1793 H   0  0  0  0  0  0  0  0  0  0  0  0
  153.2618  140.7966  159.0988 H   0  0  0  0  0  0  0  0  0  0  0  0
  151.5983  142.2209  161.2396 H   0  0  0  0  0  0  0  0  0  0  0  0
  153.5348  140.9397  162.1703 H   0  0  0  0  0  0  0  0  0  0  0  0
  153.7964  142.6761  162.3061 H   0  0  0  0  0  0  0  0  0  0  0  0
  154.6210  141.7586  161.0485 H   0  0  0  0  0  0  0  0  0  0  0  0
  150.7864  143.8083  159.5969 H   0  0  0  0  0  0  0  0  0  0  0  0
  151.3074  145.3060  157.6624 H   0  0  0  0  0  0  0  0  0  0  0  0
  153.0177  144.9005  157.8031 H   0  0  0  0  0  0  0  0  0  0  0  0
  152.2110  145.7836  159.0966 H   0  0  0  0  0  0  0  0  0  0  0  0
  152.4352  142.4354  157.4121 H   0  0  0  0  0  0  0  0  0  0  0  0
  150.7202  142.7702  157.3397 H   0  0  0  0  0  0  0  0  0  0  0  0
  1  2  1  0  0  0  0
  1 22  1  0  0  0  0
  1 23  1  0  0  0  0
  1 24  1  0  0  0  0
  2 21  2  0  0  0  0
  2  3  1  0  0  0  0
  3  4  2  0  0  0  0
  3 25  1  0  0  0  0
  4  5  1  0  0  0  0
  4  6  1  0  0  0  0
  5 26  1  0  0  0  0
  5 27  1  0  0  0  0
  5 28  1  0  0  0  0
  6  7  1  0  0  0  0
  6 21  1  0  0  0  0
  7  8  1  0  0  0  0
  7 29  1  0  0  0  0
  7 30  1  0  0  0  0
  8  9  2  0  0  0  0
  8 10  1  0  0  0  0
 10 11  1  0  0  0  0
 10 31  1  0  0  0  0
 11 12  1  0  0  0  0
 11 32  1  0  0  0  0
 11 33  1  0  0  0  0
 12 13  1  0  0  0  0
 12 34  1  0  0  0  0
 12 35  1  0  0  0  0
 13 20  1  0  0  0  0
 13 14  1  0  0  0  0
 14 15  1  0  0  0  0
 14 36  1  0  0  0  0
 14 37  1  0  0  0  0
 15 16  1  0  0  0  0
 15 17  1  0  0  0  0
 15 38  1  0  0  0  0
 16 39  1  0  0  0  0
 16 40  1  0  0  0  0
 16 41  1  0  0  0  0
 17 18  1  0  0  0  0
 18 19  1  0  0  0  0
 18 20  1  0  0  0  0
 18 42  1  0  0  0  0
 19 43  1  0  0  0  0
 19 44  1  0  0  0  0
 19 45  1  0  0  0  0
 20 46  1  0  0  0  0
 20 47  1  0  0  0  0
M  END
> <s_m_source_file>
AV-unprocessed.smi

> <i_m_source_file_index>
2106

> <i_lp_mmshare_version>
43012

> <i_f3d_flags>
0

> <s_epik_input>
W0NIM11jMVtjSF1jKFtDSDNdKW4objEpW0NIMl1DKD1PKVtOSF1bQ0gyXVtDSDJdTjJbQ0gyXVtDQEBIXShbQ0gzXSlPW0NAQEhdKFtDSDNdKVtDSDJdMg==

> <s_epik_cmdline>
J2VwaWtfcHl0aG9uJywgJy1waCcsICc3LjAnLCAnLXRuJywgJzgnLCAnLW1hJywgJzIwMCcsICctbWV0YWxfYmluZGluZycsICctaW1hZScsICc8aW5maWxlLm1hZT4nLCAnLW9tYWUnLCAnPG91dGZpbGUubWFlPic=

> <r_lp_tautomer_probability>
1

> <r_epik_Ionization_Penalty>
0.197284

> <r_epik_Ionization_Penalty_Charging>
0

> <r_epik_Ionization_Penalty_Neutral>
0.197284

> <r_epik_State_Penalty>
0.186684

> <r_epik_Charging_Adjusted_Penalty>
0.186684

> <i_epik_Tot_Q>
0

> <i_epik_Tot_abs_Q>
0

> <r_epik_Metal_State_Penalty>
0.186634

> <b_epik_Metal_Only>
0

> <s_lp_Force_Field>
OPLS_2005

> <r_lp_Energy>
17.5566

> <b_lp_Chiralities_Consistent>
1

> <s_lp_Variant>
AV-unprocessed.smi:2106-1

> <Gold.Version>
5.8.1

> <Gold.Id.Protein>
6NUR|6NUR_protein|mol2

> <Gold.PLP.Fitness>
50.5225

> <Gold.PLP.PLP>
-43.8275

> <Gold.PLP.part.hbond>
-3.0000

> <Gold.PLP.part.metal>
0.0000

> <Gold.PLP.part.buried>
-3.7517

> <Gold.PLP.part.nonpolar>
-35.7141

> <Gold.PLP.part.repulsive>
0.1799

> <Gold.PLP.ligand.clash>
0.0000

> <Gold.PLP.ligand.torsion>
0.6916

> <Gold.PLP.Chemscore.Hbond>
2.6880

> <Gold.PLP.Chemscore.CHOScore>
0.0000

> <Gold.PLP.Chemscore.Metal>
0.0000

> <Gold.Chemscore.Hbonds>
donor molecule, donor type, donor heavy atom, donor atom, acceptor molecule, acceptor atom, score
      P1  H  6896  6908       L1     9  0.98
      P1  H  6931  6943       L1    21  1.00
      P1  H  6934  6947       L1    21  0.33

> <Gold.PLP.Chemscore.Internal.Correction>
0.0142

> <Gold.Rescore>
     Score         DG    S(hbond)    S(metal)    S(lipo)     H(rot)  DE(clash)    DE(int)     intcor
     20.61     -22.49       2.37        0.00     114.19       1.67       1.29       0.59       ----

> <Gold.Chemscore.Fitness>
20.6103

> <Gold.Chemscore.DG>
-22.4901

> <Gold.Chemscore.ZeroCoef>
-5.4800

> <Gold.Chemscore.Hbond>
2.3696

> <Gold.Chemscore.Metal>
0.0000

> <Gold.Chemscore.Lipo>
114.1865

> <Gold.Chemscore.Internal_Hbond>
0.0000

> <Gold.Chemscore.DEClash>
1.2857

> <Gold.Chemscore.DEInternal>
0.5941

> <Gold.Chemscore.Rot>
1.6657

> <Gold.Chemscore.Internal.Correction>
   9.000000E+99

> <Gold.Chemscore.Hbonds>
donor molecule, donor type, donor heavy atom, donor atom, acceptor molecule, acceptor atom, score
      P1  H  6896  6908       L1     9  0.92
      P1  H  6931  6943       L1    21  0.44
      P1  H  6934  6947       L1    21  0.29

> <Gold.Chemscore.Hbond.Weighted>
-7.9144

> <Gold.Chemscore.Metal.Weighted>
-0.0000

> <Gold.Chemscore.Lipo.Weighted>
-13.3598

> <Gold.Chemscore.Internal_Hbond.Weighted>
0.0000

> <Gold.Chemscore.DEClash.Weighted>
1.2857

> <Gold.Chemscore.DEInternal.Weighted>
0.5941

> <Gold.Chemscore.Rot.Weighted>
4.2641

> <Gold.Chemscore.Internal.Correction.Weighted>
   9.000000E+99

> <Gold.Protein.RotatedTorsions>
[ 6907 6896 6895 6894 ] final -167.83 input  -60.11 | X-H torsion
[ 7974 7965 7964 7962 ] final   27.06 input  175.53 | X-H torsion
[ 8008 7997 7996 7995 ] final   91.98 input   59.86 | X-H torsion
[ 10167 10162 10161 10158 ] final  -41.04 input  -65.29 | X-H torsion
[ 10718 10713 10712 10709 ] final   76.63 input   66.30 | X-H torsion
[ 10763 10752 10751 10750 ] final  171.84 input  -60.55 | X-H torsion
[ 11005 11000 10999 10996 ] final  142.66 input  -57.11 | X-H torsion

> <Gold.Protein.ActiveResidues>
 VAL166  LYS551  ARG553  GLY616  TRP617  ASP618  TYR619  PRO620  LYS621  CYS622 
 ASP623  PHE694  ASN695  SER759  ASP760  ASP761  ALA762  ILE779  LEU786  VAL792 
 PHE793  MET794  SER795  GLU796  ALA797  LYS798  CYS799  TRP800  GLU811  SER814 

> <Gold.Protein.RotatedAtoms>
  151.4658  133.3581  159.2815 H   0  0  0  0  0  0  0  0  0  0  0  0  # atno 6907 bound_to 6896
  150.8994  134.8407  159.7360 H   0  0  0  0  0  0  0  0  0  0  0  0  # atno 6908 bound_to 6896
  152.4870  134.4577  159.9647 H   0  0  0  0  0  0  0  0  0  0  0  0  # atno 6909 bound_to 6896
  146.1804  139.7243  142.8904 H   0  0  0  0  0  0  0  0  0  0  0  0  # atno 7974 bound_to 7965
  156.0300  140.3331  155.7130 H   0  0  0  0  0  0  0  0  0  0  0  0  # atno 8008 bound_to 7997
  155.5898  140.0645  157.2779 H   0  0  0  0  0  0  0  0  0  0  0  0  # atno 8009 bound_to 7997
  154.4349  140.1829  156.1051 H   0  0  0  0  0  0  0  0  0  0  0  0  # atno 8010 bound_to 7997
  140.7015  143.3118  151.3010 H   0  0  0  0  0  0  0  0  0  0  0  0  # atno 10167 bound_to 10162
  157.6680  130.9783  150.1524 H   0  0  0  0  0  0  0  0  0  0  0  0  # atno 10718 bound_to 10713
  154.4176  135.2757  155.1996 H   0  0  0  0  0  0  0  0  0  0  0  0  # atno 10763 bound_to 10752
  154.3956  135.6056  153.5871 H   0  0  0  0  0  0  0  0  0  0  0  0  # atno 10764 bound_to 10752
  152.9832  135.5914  154.4467 H   0  0  0  0  0  0  0  0  0  0  0  0  # atno 10765 bound_to 10752
  140.0494  134.9263  157.0989 H   0  0  0  0  0  0  0  0  0  0  0  0  # atno 11005 bound_to 11000
  145.4091  141.0394  143.3027 LP  0  0  0  0  0  0  0  0  0  0  0  0  # atno 17320 bound_to 7965
  144.8306  139.5635  143.6945 LP  0  0  0  0  0  0  0  0  0  0  0  0  # atno 17321 bound_to 7965
  139.6543  144.0305  152.2648 LP  0  0  0  0  0  0  0  0  0  0  0  0  # atno 17342 bound_to 10162
  139.9852  144.6400  150.7864 LP  0  0  0  0  0  0  0  0  0  0  0  0  # atno 17343 bound_to 10162
  156.2320  130.3683  149.8434 LP  0  0  0  0  0  0  0  0  0  0  0  0  # atno 17370 bound_to 10713
  156.6258  130.8645  151.3485 LP  0  0  0  0  0  0  0  0  0  0  0  0  # atno 17371 bound_to 10713
  140.3941  134.2152  155.7165 LP  0  0  0  0  0  0  0  0  0  0  0  0  # atno 17394 bound_to 11000
  141.1923  133.8176  157.0845 LP  0  0  0  0  0  0  0  0  0  0  0  0  # atno 17395 bound_to 11000

$$$$
