AV-unprocessed.smi:2962|AV-procd|sdf|11315|dock8
  -GOLD-   2272016223D 1   1.00000     0.00000
 Structure written by MMmdl.
 36 37  0  0  0  0  0  0  0  0  1 V2000
  151.3891  139.4636  154.6182 C   0  0  0  0  0  0  0  0  0  0  0  0
  150.6783  140.6910  154.5802 O   0  0  0  0  0  0  0  0  0  0  0  0
  150.9881  141.5602  155.6603 C   0  0  0  0  0  0  0  0  0  0  0  0
  150.4384  141.0331  156.9974 C   0  0  0  0  0  0  0  0  0  0  0  0
  151.0933  141.6549  158.1401 N   0  0  0  0  0  0  0  0  0  0  0  0
  151.8060  141.0663  159.1334 C   0  0  0  0  0  0  0  0  0  0  0  0
  152.0819  139.3274  159.2031 S   0  0  0  0  0  0  0  0  0  0  0  0
  153.0066  139.2643  160.7682 C   0  0  2  0  0  0  0  0  0  0  0  0
  154.2938  140.0992  160.6565 C   0  0  0  0  0  0  0  0  0  0  0  0
  153.2855  137.8177  161.2002 C   0  0  0  0  0  0  0  0  0  0  0  0
  153.8083  137.6392  162.4162 N   0  0  0  0  0  0  0  0  0  0  0  0
  153.0410  136.8705  160.4549 O   0  0  0  0  0  0  0  0  0  0  0  0
  152.2923  141.8893  160.0621 N   0  0  0  0  0  0  0  0  0  0  0  0
  151.8575  143.1271  159.6318 C   0  0  0  0  0  0  0  0  0  0  0  0
  152.0489  144.4126  160.1870 C   0  0  0  0  0  0  0  0  0  0  0  0
  151.5006  145.5501  159.5587 C   0  0  0  0  0  0  0  0  0  0  0  0
  150.7554  145.4187  158.3690 C   0  0  0  0  0  0  0  0  0  0  0  0
  150.5538  144.1471  157.7989 C   0  0  0  0  0  0  0  0  0  0  0  0
  151.1037  143.0153  158.4300 C   0  0  0  0  0  0  0  0  0  0  0  0
  151.0729  138.8340  153.7866 H   0  0  0  0  0  0  0  0  0  0  0  0
  151.2056  138.9139  155.5414 H   0  0  0  0  0  0  0  0  0  0  0  0
  152.4625  139.6306  154.5221 H   0  0  0  0  0  0  0  0  0  0  0  0
  152.0626  141.7389  155.7237 H   0  0  0  0  0  0  0  0  0  0  0  0
  150.5328  142.5274  155.4455 H   0  0  0  0  0  0  0  0  0  0  0  0
  149.3611  141.1758  157.0626 H   0  0  0  0  0  0  0  0  0  0  0  0
  150.5995  139.9566  157.0591 H   0  0  0  0  0  0  0  0  0  0  0  0
  152.3954  139.7246  161.5456 H   0  0  0  0  0  0  0  0  0  0  0  0
  154.8674  140.0735  161.5838 H   0  0  0  0  0  0  0  0  0  0  0  0
  154.0617  141.1436  160.4466 H   0  0  0  0  0  0  0  0  0  0  0  0
  154.9375  139.7382  159.8533 H   0  0  0  0  0  0  0  0  0  0  0  0
  154.0306  136.7087  162.7392 H   0  0  0  0  0  0  0  0  0  0  0  0
  154.0000  138.4398  163.0007 H   0  0  0  0  0  0  0  0  0  0  0  0
  152.6177  144.5239  161.0984 H   0  0  0  0  0  0  0  0  0  0  0  0
  151.6519  146.5281  159.9917 H   0  0  0  0  0  0  0  0  0  0  0  0
  150.3380  146.2949  157.8944 H   0  0  0  0  0  0  0  0  0  0  0  0
  149.9825  144.0430  156.8884 H   0  0  0  0  0  0  0  0  0  0  0  0
  1  2  1  0  0  0  0
  1 20  1  0  0  0  0
  1 21  1  0  0  0  0
  1 22  1  0  0  0  0
  2  3  1  0  0  0  0
  3  4  1  0  0  0  0
  3 23  1  0  0  0  0
  3 24  1  0  0  0  0
  4  5  1  0  0  0  0
  4 25  1  0  0  0  0
  4 26  1  0  0  0  0
  5 19  1  0  0  0  0
  5  6  1  0  0  0  0
  6  7  1  0  0  0  0
  6 13  2  0  0  0  0
  7  8  1  0  0  0  0
  8  9  1  0  0  0  0
  8 10  1  0  0  0  0
  8 27  1  0  0  0  0
  9 28  1  0  0  0  0
  9 29  1  0  0  0  0
  9 30  1  0  0  0  0
 10 11  1  0  0  0  0
 10 12  2  0  0  0  0
 11 31  1  0  0  0  0
 11 32  1  0  0  0  0
 13 14  1  0  0  0  0
 14 19  2  0  0  0  0
 14 15  1  0  0  0  0
 15 16  2  0  0  0  0
 15 33  1  0  0  0  0
 16 17  1  0  0  0  0
 16 34  1  0  0  0  0
 17 18  2  0  0  0  0
 17 35  1  0  0  0  0
 18 19  1  0  0  0  0
 18 36  1  0  0  0  0
M  END
> <s_m_source_file>
AV-unprocessed.smi

> <i_m_source_file_index>
2962

> <i_lp_mmshare_version>
43012

> <i_f3d_flags>
0

> <s_epik_input>
W2NIXTFbY0hdW2NIXVtjSF1jKGMxMiluKFtDSDJdW0NIMl1PW0NIM10pYyhuMilTW0NASF0oW0NIM10pQyg9TylbTkgyXQ==

> <s_epik_cmdline>
J2VwaWtfcHl0aG9uJywgJy1waCcsICc3LjAnLCAnLXRuJywgJzgnLCAnLW1hJywgJzIwMCcsICctbWV0YWxfYmluZGluZycsICctaW1hZScsICc8aW5maWxlLm1hZT4nLCAnLW9tYWUnLCAnPG91dGZpbGUubWFlPic=

> <r_epik_Ionization_Penalty>
0.0199986

> <r_epik_Ionization_Penalty_Charging>
0

> <r_epik_Ionization_Penalty_Neutral>
0.0199986

> <r_epik_State_Penalty>
0.0160044

> <r_epik_Charging_Adjusted_Penalty>
0.0160044

> <i_epik_Tot_Q>
0

> <i_epik_Tot_abs_Q>
0

> <r_epik_Metal_State_Penalty>
0.015472

> <b_epik_Metal_Only>
0

> <s_lp_Force_Field>
OPLS_2005

> <r_lp_Energy>
7.16755

> <b_lp_Chiralities_Consistent>
1

> <s_lp_Variant>
AV-unprocessed.smi:2962-1

> <Gold.Version>
5.8.1

> <Gold.Id.Protein>
6NUR|6NUR_protein|mol2

> <Gold.PLP.Fitness>
46.9774

> <Gold.PLP.PLP>
-41.3290

> <Gold.PLP.part.hbond>
-2.0000

> <Gold.PLP.part.metal>
0.0000

> <Gold.PLP.part.buried>
-6.5232

> <Gold.PLP.part.nonpolar>
-32.3637

> <Gold.PLP.part.repulsive>
0.0833

> <Gold.PLP.ligand.clash>
0.0000

> <Gold.PLP.ligand.torsion>
0.2023

> <Gold.PLP.Chemscore.Hbond>
2.0000

> <Gold.PLP.Chemscore.CHOScore>
0.0000

> <Gold.PLP.Chemscore.Metal>
0.0000

> <Gold.Chemscore.Hbonds>
donor molecule, donor type, donor heavy atom, donor atom, acceptor molecule, acceptor atom, score
      P1  H  6896  6909       L1    12  0.80

> <Gold.PLP.Chemscore.Internal.Correction>
0.0530

> <Gold.Rescore>
     Score         DG    S(hbond)    S(metal)    S(lipo)     H(rot)  DE(clash)    DE(int)     intcor
     14.60     -16.23       1.58        0.00     101.57       2.50       0.09       1.54       ----

> <Gold.Chemscore.Fitness>
14.6013

> <Gold.Chemscore.DG>
-16.2285

> <Gold.Chemscore.ZeroCoef>
-5.4800

> <Gold.Chemscore.Hbond>
1.5785

> <Gold.Chemscore.Metal>
0.0000

> <Gold.Chemscore.Lipo>
101.5679

> <Gold.Chemscore.Internal_Hbond>
0.0000

> <Gold.Chemscore.DEClash>
0.0901

> <Gold.Chemscore.DEInternal>
1.5371

> <Gold.Chemscore.Rot>
2.5027

> <Gold.Chemscore.Internal.Correction>
   9.000000E+99

> <Gold.Chemscore.Hbonds>
donor molecule, donor type, donor heavy atom, donor atom, acceptor molecule, acceptor atom, score
      P1  H  6896  6909       L1    12  0.79

> <Gold.Chemscore.Hbond.Weighted>
-5.2721

> <Gold.Chemscore.Metal.Weighted>
-0.0000

> <Gold.Chemscore.Lipo.Weighted>
-11.8834

> <Gold.Chemscore.Internal_Hbond.Weighted>
0.0000

> <Gold.Chemscore.DEClash.Weighted>
0.0901

> <Gold.Chemscore.DEInternal.Weighted>
1.5371

> <Gold.Chemscore.Rot.Weighted>
6.4070

> <Gold.Chemscore.Internal.Correction.Weighted>
   9.000000E+99

> <Gold.Protein.RotatedTorsions>
[ 6907 6896 6895 6894 ] final  150.86 input  -60.11 | X-H torsion
[ 7974 7965 7964 7962 ] final   99.34 input  175.53 | X-H torsion
[ 8008 7997 7996 7995 ] final  -39.66 input   59.86 | X-H torsion
[ 10167 10162 10161 10158 ] final   47.57 input  -65.29 | X-H torsion
[ 10718 10713 10712 10709 ] final -105.80 input   66.30 | X-H torsion
[ 10763 10752 10751 10750 ] final  167.99 input  -60.55 | X-H torsion
[ 11005 11000 10999 10996 ] final    1.07 input  -57.11 | X-H torsion

> <Gold.Protein.ActiveResidues>
 VAL166  LYS551  ARG553  GLY616  TRP617  ASP618  TYR619  PRO620  LYS621  CYS622 
 ASP623  PHE694  ASN695  SER759  ASP760  ASP761  ALA762  ILE779  LEU786  VAL792 
 PHE793  MET794  SER795  GLU796  ALA797  LYS798  CYS799  TRP800  GLU811  SER814 

> <Gold.Protein.RotatedAtoms>
  152.1086  133.4288  159.4620 H   0  0  0  0  0  0  0  0  0  0  0  0  # atno 6907 bound_to 6896
  150.6866  134.2675  159.4583 H   0  0  0  0  0  0  0  0  0  0  0  0  # atno 6908 bound_to 6896
  152.0542  134.9634  160.0625 H   0  0  0  0  0  0  0  0  0  0  0  0  # atno 6909 bound_to 6896
  145.4001  139.2349  143.3304 H   0  0  0  0  0  0  0  0  0  0  0  0  # atno 7974 bound_to 7965
  154.4020  140.1545  156.2900 H   0  0  0  0  0  0  0  0  0  0  0  0  # atno 8008 bound_to 7997
  155.8793  140.3444  155.5855 H   0  0  0  0  0  0  0  0  0  0  0  0  # atno 8009 bound_to 7997
  155.7685  140.0827  157.2110 H   0  0  0  0  0  0  0  0  0  0  0  0  # atno 8010 bound_to 7997
  140.3023  144.2919  150.6216 H   0  0  0  0  0  0  0  0  0  0  0  0  # atno 10167 bound_to 10162
  156.0361  130.5581  150.7590 H   0  0  0  0  0  0  0  0  0  0  0  0  # atno 10718 bound_to 10713
  154.3620  135.2753  155.2315 H   0  0  0  0  0  0  0  0  0  0  0  0  # atno 10763 bound_to 10752
  154.4499  135.5933  153.6188 H   0  0  0  0  0  0  0  0  0  0  0  0  # atno 10764 bound_to 10752
  152.9843  135.6039  154.3841 H   0  0  0  0  0  0  0  0  0  0  0  0  # atno 10765 bound_to 10752
  140.6195  133.9674  155.8218 H   0  0  0  0  0  0  0  0  0  0  0  0  # atno 11005 bound_to 11000
  146.2756  140.4698  142.8797 LP  0  0  0  0  0  0  0  0  0  0  0  0  # atno 17320 bound_to 7965
  144.8379  140.6812  143.6248 LP  0  0  0  0  0  0  0  0  0  0  0  0  # atno 17321 bound_to 7965
  140.5640  143.2188  151.7715 LP  0  0  0  0  0  0  0  0  0  0  0  0  # atno 17342 bound_to 10162
  139.4912  144.4309  151.9873 LP  0  0  0  0  0  0  0  0  0  0  0  0  # atno 17343 bound_to 10162
  157.5114  131.0925  151.0193 LP  0  0  0  0  0  0  0  0  0  0  0  0  # atno 17370 bound_to 10713
  157.0547  130.5801  149.5376 LP  0  0  0  0  0  0  0  0  0  0  0  0  # atno 17371 bound_to 10713
  141.0752  134.0146  157.3468 LP  0  0  0  0  0  0  0  0  0  0  0  0  # atno 17394 bound_to 11000
  139.9159  135.0196  156.7878 LP  0  0  0  0  0  0  0  0  0  0  0  0  # atno 17395 bound_to 11000

$$$$
