AV-unprocessed.smi:1385|AV-procd|sdf|5632|dock1
  -GOLD-   22720 5243D 1   1.00000     0.00000
 Structure written by MMmdl.
 38 39  0  0  0  0  0  0  0  0  3 V2000
  154.3976  129.4711  155.1779 C   0  0  0  0  0  0  0  0  0  0  0  0
  153.0923  130.1004  155.5259 C   0  0  0  0  0  0  0  0  0  0  0  0
  152.9528  130.9678  156.5316 N   0  0  0  0  0  0  0  0  0  0  0  0
  151.6458  131.4158  156.6576 N   0  0  0  0  0  0  0  0  0  0  0  0
  150.8194  130.8910  155.7418 C   0  0  0  0  0  0  0  0  0  0  0  0
  149.5115  131.1942  155.6954 N   0  5  0  0  0  0  0  0  0  0  0  0
  148.8623  131.2060  154.5098 C   0  0  0  0  0  0  0  0  0  0  0  0
  149.1655  130.5621  153.5027 O   0  0  0  0  0  0  0  0  0  0  0  0
  147.7958  132.0182  154.4893 N   0  0  0  0  0  0  0  0  0  0  0  0
  146.9107  132.2425  153.3507 C   0  0  2  0  0  0  0  0  0  0  0  0
  146.4819  130.9055  152.7183 C   0  0  0  0  0  0  0  0  0  0  0  0
  145.6416  131.1322  151.4516 C   0  0  0  0  0  0  0  0  0  0  0  0
  146.3745  131.9666  150.4657 N   0  3  1  0  0  0  0  0  0  0  0  0
  145.6508  132.0851  149.1738 C   0  0  0  0  0  0  0  0  0  0  0  0
  144.1744  132.4582  149.3445 C   0  0  0  0  0  0  0  0  0  0  0  0
  143.7883  133.6331  148.8422 N   0  0  0  0  0  0  0  0  0  0  0  0
  143.3956  131.7096  149.9321 O   0  0  0  0  0  0  0  0  0  0  0  0
  146.7581  133.2826  151.0435 C   0  0  0  0  0  0  0  0  0  0  0  0
  147.6276  133.1026  152.2980 C   0  0  0  0  0  0  0  0  0  0  0  0
  151.6133  129.7637  154.6424 S   0  0  0  0  0  0  0  0  0  0  0  0
  154.9525  130.1178  154.4981 H   0  0  0  0  0  0  0  0  0  0  0  0
  154.2348  128.5088  154.6925 H   0  0  0  0  0  0  0  0  0  0  0  0
  154.9941  129.3112  156.0765 H   0  0  0  0  0  0  0  0  0  0  0  0
  147.5873  132.5235  155.3382 H   0  0  0  0  0  0  0  0  0  0  0  0
  146.0235  132.7820  153.6884 H   0  0  0  0  0  0  0  0  0  0  0  0
  147.3643  130.3147  152.4671 H   0  0  0  0  0  0  0  0  0  0  0  0
  145.9093  130.3142  153.4339 H   0  0  0  0  0  0  0  0  0  0  0  0
  145.3979  130.1657  151.0091 H   0  0  0  0  0  0  0  0  0  0  0  0
  144.6958  131.6130  151.7070 H   0  0  0  0  0  0  0  0  0  0  0  0
  146.1029  132.8741  148.5714 H   0  0  0  0  0  0  0  0  0  0  0  0
  145.7495  131.1597  148.6037 H   0  0  0  0  0  0  0  0  0  0  0  0
  142.8264  133.9298  148.9229 H   0  0  0  0  0  0  0  0  0  0  0  0
  144.4631  134.2241  148.3777 H   0  0  0  0  0  0  0  0  0  0  0  0
  147.3097  133.8706  150.3095 H   0  0  0  0  0  0  0  0  0  0  0  0
  145.8589  133.8496  151.2898 H   0  0  0  0  0  0  0  0  0  0  0  0
  147.8752  134.0784  152.7179 H   0  0  0  0  0  0  0  0  0  0  0  0
  148.5740  132.6369  152.0179 H   0  0  0  0  0  0  0  0  0  0  0  0
  147.2325  131.4738  150.2614 H   0  0  0  0  0  0  0  0  0  0  0  0
  1  2  1  0  0  0  0
  1 21  1  0  0  0  0
  1 22  1  0  0  0  0
  1 23  1  0  0  0  0
  2 20  1  0  0  0  0
  2  3  2  0  0  0  0
  3  4  1  0  0  0  0
  4  5  2  0  0  0  0
  5  6  1  0  0  0  0
  5 20  1  0  0  0  0
  6  7  1  0  0  0  0
  7  8  2  0  0  0  0
  7  9  1  0  0  0  0
  9 10  1  0  0  0  0
  9 24  1  0  0  0  0
 10 19  1  0  0  0  0
 10 11  1  0  0  0  0
 10 25  1  0  0  0  0
 11 12  1  0  0  0  0
 11 26  1  0  0  0  0
 11 27  1  0  0  0  0
 12 13  1  0  0  0  0
 12 28  1  0  0  0  0
 12 29  1  0  0  0  0
 13 14  1  0  0  0  0
 13 18  1  0  0  0  0
 13 38  1  0  0  0  0
 14 15  1  0  0  0  0
 14 30  1  0  0  0  0
 14 31  1  0  0  0  0
 15 16  1  0  0  0  0
 15 17  2  0  0  0  0
 16 32  1  0  0  0  0
 16 33  1  0  0  0  0
 18 19  1  0  0  0  0
 18 34  1  0  0  0  0
 18 35  1  0  0  0  0
 19 36  1  0  0  0  0
 19 37  1  0  0  0  0
M  CHG  1   6  -1
M  CHG  1  13   1
M  END
> <s_m_source_file>
AV-unprocessed.smi

> <i_m_source_file_index>
1385

> <i_lp_mmshare_version>
43012

> <i_f3d_flags>
0

> <s_epik_input>
W0NIM11jMW5uYyhzMSlbTkhdQyg9TylbTkhdW0NIXTJbQ0gyXVtDSDJdTihbQ0gyXVtDSDJdMilbQ0gyXUMoPU8pW05IMl0=

> <s_epik_cmdline>
J2VwaWtfcHl0aG9uJywgJy1waCcsICc3LjAnLCAnLXRuJywgJzgnLCAnLW1hJywgJzIwMCcsICctbWV0YWxfYmluZGluZycsICctaW1hZScsICc8aW5maWxlLm1hZT4nLCAnLW9tYWUnLCAnPG91dGZpbGUubWFlPic=

> <r_lp_tautomer_probability>
1

> <r_epik_Ionization_Penalty>
3.90109

> <r_epik_Ionization_Penalty_Charging>
3.79141

> <r_epik_Ionization_Penalty_Neutral>
0.109679

> <r_epik_State_Penalty>
3.87237

> <r_epik_Charging_Adjusted_Penalty>
7.66378

> <i_epik_Tot_Q>
0

> <i_epik_Tot_abs_Q>
2

> <r_epik_Metal_State_Penalty>
1.33354

> <b_epik_Metal_Only>
1

> <s_lp_Force_Field>
OPLS_2005

> <r_lp_Energy>
4.67367

> <b_lp_Chiralities_Consistent>
1

> <s_lp_Variant>
AV-unprocessed.smi:1385-5

> <Gold.Version>
5.8.1

> <Gold.Id.Protein>
6NUR|6NUR_protein|mol2

> <Gold.PLP.Fitness>
44.0500

> <Gold.PLP.PLP>
-33.2073

> <Gold.PLP.part.hbond>
-4.0000

> <Gold.PLP.part.metal>
0.0000

> <Gold.PLP.part.buried>
-5.0564

> <Gold.PLP.part.nonpolar>
-25.4899

> <Gold.PLP.part.repulsive>
1.5200

> <Gold.PLP.ligand.clash>
0.0000

> <Gold.PLP.ligand.torsion>
0.6272

> <Gold.PLP.Chemscore.Hbond>
3.9913

> <Gold.PLP.Chemscore.CHOScore>
0.0000

> <Gold.PLP.Chemscore.Metal>
0.0000

> <Gold.Chemscore.Hbonds>
donor molecule, donor type, donor heavy atom, donor atom, acceptor molecule, acceptor atom, score
      L1  H    13    38       P1 10747  1.00
      L1  H    16    32       P1 10186  1.00
      L1  H    16    33       P1  7921  1.00
      P1  H 10785 10796       L1    17  1.00

> <Gold.PLP.Chemscore.Internal.Correction>
0.1233

> <Gold.Rescore>
     Score         DG    S(hbond)    S(metal)    S(lipo)     H(rot)  DE(clash)    DE(int)     intcor
     15.18     -20.29       3.77        0.00      63.56       2.04       0.36       4.75       ----

> <Gold.Chemscore.Fitness>
15.1811

> <Gold.Chemscore.DG>
-20.2895

> <Gold.Chemscore.ZeroCoef>
-5.4800

> <Gold.Chemscore.Hbond>
3.7722

> <Gold.Chemscore.Metal>
0.0000

> <Gold.Chemscore.Lipo>
63.5615

> <Gold.Chemscore.Internal_Hbond>
0.0000

> <Gold.Chemscore.DEClash>
0.3633

> <Gold.Chemscore.DEInternal>
4.7451

> <Gold.Chemscore.Rot>
2.0415

> <Gold.Chemscore.Internal.Correction>
   9.000000E+99

> <Gold.Chemscore.Hbonds>
donor molecule, donor type, donor heavy atom, donor atom, acceptor molecule, acceptor atom, score
      L1  H    13    38       P1 10747  1.00
      L1  H    16    32       P1 10186  0.98
      L1  H    16    33       P1  7921  0.99
      P1  H 10785 10796       L1    17  0.47

> <Gold.Chemscore.Hbond.Weighted>
-12.5991

> <Gold.Chemscore.Metal.Weighted>
-0.0000

> <Gold.Chemscore.Lipo.Weighted>
-7.4367

> <Gold.Chemscore.Internal_Hbond.Weighted>
0.0000

> <Gold.Chemscore.DEClash.Weighted>
0.3633

> <Gold.Chemscore.DEInternal.Weighted>
4.7451

> <Gold.Chemscore.Rot.Weighted>
5.2262

> <Gold.Chemscore.Internal.Correction.Weighted>
   9.000000E+99

> <Gold.Protein.RotatedTorsions>
[ 6907 6896 6895 6894 ] final  143.81 input  -60.11 | X-H torsion
[ 7974 7965 7964 7962 ] final  -30.97 input  175.53 | X-H torsion
[ 8008 7997 7996 7995 ] final  -56.99 input   59.86 | X-H torsion
[ 10167 10162 10161 10158 ] final  101.80 input  -65.29 | X-H torsion
[ 10718 10713 10712 10709 ] final  136.76 input   66.30 | X-H torsion
[ 10763 10752 10751 10750 ] final   85.15 input  -60.55 | X-H torsion
[ 11005 11000 10999 10996 ] final   59.72 input  -57.11 | X-H torsion

> <Gold.Protein.ActiveResidues>
 VAL166  LYS551  ARG553  GLY616  TRP617  ASP618  TYR619  PRO620  LYS621  CYS622 
 ASP623  PHE694  ASN695  SER759  ASP760  ASP761  ALA762  ILE779  LEU786  VAL792 
 PHE793  MET794  SER795  GLU796  ALA797  LYS798  CYS799  TRP800  GLU811  SER814 

> <Gold.Protein.RotatedAtoms>
  152.2016  133.4845  159.5061 H   0  0  0  0  0  0  0  0  0  0  0  0  # atno 6907 bound_to 6896
  150.6971  134.1583  159.4175 H   0  0  0  0  0  0  0  0  0  0  0  0  # atno 6908 bound_to 6896
  151.9501  135.0173  160.0592 H   0  0  0  0  0  0  0  0  0  0  0  0  # atno 6909 bound_to 6896
  146.1103  140.5607  142.8781 H   0  0  0  0  0  0  0  0  0  0  0  0  # atno 7974 bound_to 7965
  154.4251  140.1117  156.5726 H   0  0  0  0  0  0  0  0  0  0  0  0  # atno 8008 bound_to 7997
  155.6196  140.3495  155.4629 H   0  0  0  0  0  0  0  0  0  0  0  0  # atno 8009 bound_to 7997
  156.0034  140.1204  157.0514 H   0  0  0  0  0  0  0  0  0  0  0  0  # atno 8010 bound_to 7997
  139.7406  144.7012  151.0581 H   0  0  0  0  0  0  0  0  0  0  0  0  # atno 10167 bound_to 10162
  157.4432  131.1059  151.0119 H   0  0  0  0  0  0  0  0  0  0  0  0  # atno 10718 bound_to 10713
  153.1448  135.4627  154.9550 H   0  0  0  0  0  0  0  0  0  0  0  0  # atno 10763 bound_to 10752
  154.7777  135.3178  154.8059 H   0  0  0  0  0  0  0  0  0  0  0  0  # atno 10764 bound_to 10752
  153.8575  135.6916  153.4840 H   0  0  0  0  0  0  0  0  0  0  0  0  # atno 10765 bound_to 10752
  140.0284  134.6049  155.9541 H   0  0  0  0  0  0  0  0  0  0  0  0  # atno 11005 bound_to 11000
  144.7506  140.5181  143.6805 LP  0  0  0  0  0  0  0  0  0  0  0  0  # atno 17320 bound_to 7965
  145.5677  139.1482  143.3306 LP  0  0  0  0  0  0  0  0  0  0  0  0  # atno 17321 bound_to 7965
  140.7785  143.4929  150.9870 LP  0  0  0  0  0  0  0  0  0  0  0  0  # atno 17342 bound_to 10162
  139.8617  143.7306  152.3173 LP  0  0  0  0  0  0  0  0  0  0  0  0  # atno 17343 bound_to 10162
  157.0974  130.5968  149.5453 LP  0  0  0  0  0  0  0  0  0  0  0  0  # atno 17370 bound_to 10713
  155.9957  130.5024  150.7469 LP  0  0  0  0  0  0  0  0  0  0  0  0  # atno 17371 bound_to 10713
  141.1816  133.6547  156.5044 LP  0  0  0  0  0  0  0  0  0  0  0  0  # atno 17394 bound_to 11000
  140.4268  134.7138  157.4920 LP  0  0  0  0  0  0  0  0  0  0  0  0  # atno 17395 bound_to 11000

$$$$
