AV-unprocessed.smi:149|AV-procd|sdf|1234|dock5
  -GOLD-   2262018443D 1   1.00000     0.00000
 Structure written by MMmdl.
 60 64  0  0  0  0  0  0  0  0  2 V2000
  146.4368  129.4737  153.1873 C   0  0  0  0  0  0  0  0  0  0  0  0
  147.4974  130.5787  153.0160 C   0  0  2  0  0  0  0  0  0  0  0  0
  148.2967  130.7480  154.3222 C   0  0  0  0  0  0  0  0  0  0  0  0
  148.4017  132.1749  154.5726 N   0  0  0  0  0  0  0  0  0  0  0  0
  149.3801  132.6746  155.3739 C   0  0  0  0  0  0  0  0  0  0  0  0
  150.2915  131.8133  155.8995 N   0  0  0  0  0  0  0  0  0  0  0  0
  151.2710  132.2587  156.6904 C   0  0  0  0  0  0  0  0  0  0  0  0
  151.5243  133.5086  157.0768 N   0  0  0  0  0  0  0  0  0  0  0  0
  150.6248  134.3861  156.5477 C   0  0  0  0  0  0  0  0  0  0  0  0
  149.5324  134.0576  155.6924 C   0  0  0  0  0  0  0  0  0  0  0  0
  148.8465  135.2175  155.3487 N   0  0  0  0  0  0  0  0  0  0  0  0
  149.4874  136.1696  155.9683 C   0  0  0  0  0  0  0  0  0  0  0  0
  150.5694  135.7612  156.7142 N   0  0  0  0  0  0  0  0  0  0  0  0
  151.4383  136.6046  157.4877 C   0  0  0  0  0  0  0  0  0  0  0  0
  150.8815  137.6235  158.4856 C   0  0  0  0  0  0  0  0  0  0  0  0
  152.0647  138.5676  158.1647 C   0  0  0  0  0  0  0  0  0  0  0  0
  151.7504  140.0710  158.0291 C   0  0  0  0  0  0  0  0  0  0  0  0
  151.5534  140.6993  159.2804 O   0  0  0  0  0  0  0  0  0  0  0  0
  153.2831  138.4389  159.0982 C   0  0  0  0  0  0  0  0  0  0  0  0
  154.3957  139.1600  158.6081 O   0  0  0  0  0  0  0  0  0  0  0  0
  152.1976  137.7696  156.8462 C   0  0  0  0  0  0  0  0  0  0  0  0
  147.9475  132.9061  153.4056 C   0  0  0  0  0  0  0  0  0  0  0  0
  146.9339  131.9887  152.7094 C   0  0  1  0  0  0  0  0  0  0  0  0
  146.8100  132.3453  151.2604 N   0  3  0  0  0  0  0  0  0  0  0  0
  145.8377  131.5542  150.4648 C   0  0  0  0  0  0  0  0  0  0  0  0
  144.3908  131.9783  150.7783 C   0  0  0  0  0  0  0  0  0  0  0  0
  144.2396  133.3645  150.4961 O   0  0  0  0  0  0  0  0  0  0  0  0
  145.1026  134.1753  151.2853 C   0  0  0  0  0  0  0  0  0  0  0  0
  146.5724  133.7932  151.0158 C   0  0  0  0  0  0  0  0  0  0  0  0
  145.7219  129.7334  153.9688 H   0  0  0  0  0  0  0  0  0  0  0  0
  146.9063  128.5322  153.4737 H   0  0  0  0  0  0  0  0  0  0  0  0
  145.8687  129.2812  152.2805 H   0  0  0  0  0  0  0  0  0  0  0  0
  148.2011  130.2957  152.2318 H   0  0  0  0  0  0  0  0  0  0  0  0
  147.7805  130.2858  155.1646 H   0  0  0  0  0  0  0  0  0  0  0  0
  149.2806  130.2849  154.2358 H   0  0  0  0  0  0  0  0  0  0  0  0
  151.9493  131.5072  157.0669 H   0  0  0  0  0  0  0  0  0  0  0  0
  149.1841  137.2041  155.8951 H   0  0  0  0  0  0  0  0  0  0  0  0
  152.1412  135.9411  157.9948 H   0  0  0  0  0  0  0  0  0  0  0  0
  149.9121  138.0236  158.1865 H   0  0  0  0  0  0  0  0  0  0  0  0
  150.8448  137.2641  159.5144 H   0  0  0  0  0  0  0  0  0  0  0  0
  152.5599  140.5977  157.5233 H   0  0  0  0  0  0  0  0  0  0  0  0
  150.8519  140.2270  157.4312 H   0  0  0  0  0  0  0  0  0  0  0  0
  151.5376  141.6347  159.1486 H   0  0  0  0  0  0  0  0  0  0  0  0
  153.0575  138.8152  160.0963 H   0  0  0  0  0  0  0  0  0  0  0  0
  153.5710  137.3947  159.2249 H   0  0  0  0  0  0  0  0  0  0  0  0
  155.1545  138.9278  159.1215 H   0  0  0  0  0  0  0  0  0  0  0  0
  153.2221  137.5302  156.5597 H   0  0  0  0  0  0  0  0  0  0  0  0
  151.6607  138.2121  156.0068 H   0  0  0  0  0  0  0  0  0  0  0  0
  147.4978  133.8568  153.6942 H   0  0  0  0  0  0  0  0  0  0  0  0
  148.8011  133.1095  152.7566 H   0  0  0  0  0  0  0  0  0  0  0  0
  145.9700  132.0914  153.2091 H   0  0  0  0  0  0  0  0  0  0  0  0
  146.0343  131.7437  149.4087 H   0  0  0  0  0  0  0  0  0  0  0  0
  145.9873  130.4841  150.5881 H   0  0  0  0  0  0  0  0  0  0  0  0
  143.6930  131.4161  150.1578 H   0  0  0  0  0  0  0  0  0  0  0  0
  144.1279  131.7738  151.8169 H   0  0  0  0  0  0  0  0  0  0  0  0
  144.9358  135.2202  151.0228 H   0  0  0  0  0  0  0  0  0  0  0  0
  144.8501  134.0746  152.3413 H   0  0  0  0  0  0  0  0  0  0  0  0
  147.2447  134.4167  151.6036 H   0  0  0  0  0  0  0  0  0  0  0  0
  146.8093  134.0057  149.9723 H   0  0  0  0  0  0  0  0  0  0  0  0
  147.7165  132.1373  150.8663 H   0  0  0  0  0  0  0  0  0  0  0  0
  1  2  1  0  0  0  0
  1 30  1  0  0  0  0
  1 31  1  0  0  0  0
  1 32  1  0  0  0  0
  2 23  1  0  0  0  0
  2  3  1  0  0  0  0
  2 33  1  0  0  0  0
  3  4  1  0  0  0  0
  3 34  1  0  0  0  0
  3 35  1  0  0  0  0
  4  5  1  0  0  0  0
  4 22  1  0  0  0  0
  5 10  1  0  0  0  0
  5  6  2  0  0  0  0
  6  7  1  0  0  0  0
  7  8  2  0  0  0  0
  7 36  1  0  0  0  0
  8  9  1  0  0  0  0
  9 13  1  0  0  0  0
  9 10  2  0  0  0  0
 10 11  1  0  0  0  0
 11 12  2  0  0  0  0
 12 13  1  0  0  0  0
 12 37  1  0  0  0  0
 13 14  1  0  0  0  0
 14 21  1  0  0  0  0
 14 15  1  0  0  0  0
 14 38  1  0  0  0  0
 15 16  1  0  0  0  0
 15 39  1  0  0  0  0
 15 40  1  0  0  0  0
 16 17  1  0  0  0  0
 16 19  1  0  0  0  0
 16 21  1  0  0  0  0
 17 18  1  0  0  0  0
 17 41  1  0  0  0  0
 17 42  1  0  0  0  0
 18 43  1  0  0  0  0
 19 20  1  0  0  0  0
 19 44  1  0  0  0  0
 19 45  1  0  0  0  0
 20 46  1  0  0  0  0
 21 47  1  0  0  0  0
 21 48  1  0  0  0  0
 22 23  1  0  0  0  0
 22 49  1  0  0  0  0
 22 50  1  0  0  0  0
 23 24  1  0  0  0  0
 23 51  1  0  0  0  0
 24 29  1  0  0  0  0
 24 25  1  0  0  0  0
 24 60  1  0  0  0  0
 25 26  1  0  0  0  0
 25 52  1  0  0  0  0
 25 53  1  0  0  0  0
 26 27  1  0  0  0  0
 26 54  1  0  0  0  0
 26 55  1  0  0  0  0
 27 28  1  0  0  0  0
 28 29  1  0  0  0  0
 28 56  1  0  0  0  0
 28 57  1  0  0  0  0
 29 58  1  0  0  0  0
 29 59  1  0  0  0  0
M  CHG  1  24   1
M  END
> <s_m_source_file>
AV-unprocessed.smi

> <i_m_source_file_index>
149

> <i_lp_mmshare_version>
43012

> <i_f3d_flags>
0

> <s_epik_input>
W0NIMl0xW0NIMl1PW0NIMl1bQ0gyXU4xW0NAQEhdMltDSDJdTihbQ0gyXVtDQEhdMltDSDNdKWMobltjSF1uMyljKGMzNCluW2NIXW40W0NIXShbQ0gyXTUpW0NIMl1DNShbQ0gyXVtPSF0pW0NIMl1bT0hd

> <s_epik_cmdline>
J2VwaWtfcHl0aG9uJywgJy1waCcsICc3LjAnLCAnLXRuJywgJzgnLCAnLW1hJywgJzIwMCcsICctbWV0YWxfYmluZGluZycsICctaW1hZScsICc8aW5maWxlLm1hZT4nLCAnLW9tYWUnLCAnPG91dGZpbGUubWFlPic=

> <r_lp_tautomer_probability>
1

> <r_epik_Ionization_Penalty>
0.404847

> <r_epik_Ionization_Penalty_Charging>
0.404623

> <r_epik_Ionization_Penalty_Neutral>
0.000224096

> <r_epik_State_Penalty>
0.238803

> <r_epik_Charging_Adjusted_Penalty>
0.643425

> <i_epik_Tot_Q>
1

> <i_epik_Tot_abs_Q>
1

> <r_epik_Metal_State_Penalty>
0.239083

> <b_epik_Metal_Only>
0

> <s_lp_Force_Field>
OPLS_2005

> <r_lp_Energy>
72.409

> <b_lp_Chiralities_Consistent>
1

> <s_lp_Variant>
AV-unprocessed.smi:149-1

> <Gold.Version>
5.8.1

> <Gold.Id.Protein>
6NUR|6NUR_protein|mol2

> <Gold.PLP.Fitness>
46.0699

> <Gold.PLP.PLP>
-39.8850

> <Gold.PLP.part.hbond>
-2.9329

> <Gold.PLP.part.metal>
0.0000

> <Gold.PLP.part.buried>
-6.6034

> <Gold.PLP.part.nonpolar>
-31.6060

> <Gold.PLP.part.repulsive>
0.3086

> <Gold.PLP.ligand.clash>
0.0000

> <Gold.PLP.ligand.torsion>
0.5941

> <Gold.PLP.Chemscore.Hbond>
2.2166

> <Gold.PLP.Chemscore.CHOScore>
0.0000

> <Gold.PLP.Chemscore.Metal>
0.0000

> <Gold.Chemscore.Hbonds>
donor molecule, donor type, donor heavy atom, donor atom, acceptor molecule, acceptor atom, score
      L1  H    24    60       P1 10747  0.99
      P1  H  6896  6908       L1     8  0.44
      P1  H  7997  8009       L1    20  1.00

> <Gold.PLP.Chemscore.Internal.Correction>
0.7231

> <Gold.Rescore>
     Score         DG    S(hbond)    S(metal)    S(lipo)     H(rot)  DE(clash)    DE(int)     intcor
     14.74     -15.49       2.23        0.00      89.41       3.09       0.11       0.64       ----

> <Gold.Chemscore.Fitness>
14.7371

> <Gold.Chemscore.DG>
-15.4876

> <Gold.Chemscore.ZeroCoef>
-5.4800

> <Gold.Chemscore.Hbond>
2.2336

> <Gold.Chemscore.Metal>
0.0000

> <Gold.Chemscore.Lipo>
89.4090

> <Gold.Chemscore.Internal_Hbond>
0.0000

> <Gold.Chemscore.DEClash>
0.1095

> <Gold.Chemscore.DEInternal>
0.6409

> <Gold.Chemscore.Rot>
3.0912

> <Gold.Chemscore.Internal.Correction>
   9.000000E+99

> <Gold.Chemscore.Hbonds>
donor molecule, donor type, donor heavy atom, donor atom, acceptor molecule, acceptor atom, score
      L1  H    24    60       P1 10747  0.94
      P1  H  6896  6908       L1     8  0.14
      P1  H  7997  8009       L1    20  0.85

> <Gold.Chemscore.Hbond.Weighted>
-7.4602

> <Gold.Chemscore.Metal.Weighted>
-0.0000

> <Gold.Chemscore.Lipo.Weighted>
-10.4608

> <Gold.Chemscore.Internal_Hbond.Weighted>
0.0000

> <Gold.Chemscore.DEClash.Weighted>
0.1095

> <Gold.Chemscore.DEInternal.Weighted>
0.6409

> <Gold.Chemscore.Rot.Weighted>
7.9135

> <Gold.Chemscore.Internal.Correction.Weighted>
   9.000000E+99

> <Gold.Protein.RotatedTorsions>
[ 6907 6896 6895 6894 ] final   76.64 input  -60.11 | X-H torsion
[ 7974 7965 7964 7962 ] final  -43.70 input  175.53 | X-H torsion
[ 8008 7997 7996 7995 ] final  141.67 input   59.86 | X-H torsion
[ 10167 10162 10161 10158 ] final  122.28 input  -65.29 | X-H torsion
[ 10718 10713 10712 10709 ] final   99.94 input   66.30 | X-H torsion
[ 10763 10752 10751 10750 ] final   35.04 input  -60.55 | X-H torsion
[ 11005 11000 10999 10996 ] final   50.31 input  -57.11 | X-H torsion

> <Gold.Protein.ActiveResidues>
 VAL166  LYS551  ARG553  GLY616  TRP617  ASP618  TYR619  PRO620  LYS621  CYS622 
 ASP623  PHE694  ASN695  SER759  ASP760  ASP761  ALA762  ILE779  LEU786  VAL792 
 PHE793  MET794  SER795  GLU796  ALA797  LYS798  CYS799  TRP800  GLU811  SER814 

> <Gold.Protein.RotatedAtoms>
  152.5082  134.3939  159.9393 H   0  0  0  0  0  0  0  0  0  0  0  0  # atno 6907 bound_to 6896
  151.3900  133.3786  159.2727 H   0  0  0  0  0  0  0  0  0  0  0  0  # atno 6908 bound_to 6896
  150.9440  134.8867  159.7689 H   0  0  0  0  0  0  0  0  0  0  0  0  # atno 6909 bound_to 6896
  145.9993  140.7093  142.9278 H   0  0  0  0  0  0  0  0  0  0  0  0  # atno 7974 bound_to 7965
  156.2962  140.2309  156.4603 H   0  0  0  0  0  0  0  0  0  0  0  0  # atno 8008 bound_to 7997
  154.8024  140.0447  157.1303 H   0  0  0  0  0  0  0  0  0  0  0  0  # atno 8009 bound_to 7997
  154.9518  140.3043  155.5075 H   0  0  0  0  0  0  0  0  0  0  0  0  # atno 8010 bound_to 7997
  139.5868  144.7009  151.3389 H   0  0  0  0  0  0  0  0  0  0  0  0  # atno 10167 bound_to 10162
  157.6865  131.0684  150.5025 H   0  0  0  0  0  0  0  0  0  0  0  0  # atno 10718 bound_to 10713
  153.0137  135.6344  154.1764 H   0  0  0  0  0  0  0  0  0  0  0  0  # atno 10763 bound_to 10752
  154.1505  135.2829  155.3138 H   0  0  0  0  0  0  0  0  0  0  0  0  # atno 10764 bound_to 10752
  154.6057  135.5573  153.7481 H   0  0  0  0  0  0  0  0  0  0  0  0  # atno 10765 bound_to 10752
  140.1028  134.5058  155.8747 H   0  0  0  0  0  0  0  0  0  0  0  0  # atno 11005 bound_to 11000
  144.6914  140.3205  143.7233 LP  0  0  0  0  0  0  0  0  0  0  0  0  # atno 17320 bound_to 7965
  145.7512  139.1794  143.2320 LP  0  0  0  0  0  0  0  0  0  0  0  0  # atno 17321 bound_to 7965
  140.7138  143.7319  150.7617 LP  0  0  0  0  0  0  0  0  0  0  0  0  # atno 17342 bound_to 10162
  140.0866  143.4918  152.2501 LP  0  0  0  0  0  0  0  0  0  0  0  0  # atno 17343 bound_to 10162
  156.5346  130.4193  149.6184 LP  0  0  0  0  0  0  0  0  0  0  0  0  # atno 17370 bound_to 10713
  156.3039  130.7192  151.2070 LP  0  0  0  0  0  0  0  0  0  0  0  0  # atno 17371 bound_to 10713
  141.2110  133.6701  156.6551 LP  0  0  0  0  0  0  0  0  0  0  0  0  # atno 17394 bound_to 11000
  140.3197  134.8018  157.4242 LP  0  0  0  0  0  0  0  0  0  0  0  0  # atno 17395 bound_to 11000

$$$$
