#       Name:                AV-unprocessed.smi:3110
#       Creating user name   scv26
#       Creation time:       Fri Mar 27 17:20:34 2020


#       File generated by GOLD software.
#

@<TRIPOS>MOLECULE
AV-unprocessed.smi:3110
    36    37     1
SMALL
NO_CHARGES


@<TRIPOS>ATOM
      1 ****         0.2149   1.2147  -1.5103 O.2            1 S1                 0.0000
      2 ****        -0.4460   0.1914  -1.3324 C.2            1 S1                 0.0000
      3 ****        -1.9763   0.2372  -1.3932 C.3            1 S1                 0.0000
      4 ****        -2.5799   1.4525  -0.6590 C.3            1 S1                 0.0000
      5 ****        -4.0835   1.4857  -0.7523 C.2            1 S1                 0.0000
      6 ****        -4.6705   1.6287   0.4338 C.2            1 S1                 0.0000
      7 ****        -3.6782   1.7187   1.5596 C.3            1 S1                 0.0000
      8 ****        -2.3170   1.4763   0.8710 C.3            1 S1                 0.0000
      9 ****         0.1051  -1.0055  -1.0795 N.am           1 S1                 0.0000
     10 ****         1.5362  -1.2611  -0.9707 C.3            1 S1                 0.0000
     11 ****         2.0845  -0.8312   0.4002 C.3            1 S1                 0.0000
     12 ****         3.4996  -1.1174   0.5185 N.pl3          1 S1                 0.0000
     13 ****         4.0846  -2.2237   1.1203 C.2            1 S1                 0.0000
     14 ****         5.4461  -2.0676   0.9889 C.2            1 S1                 0.0000
     15 ****         5.7193  -0.8809   0.3127 N.2            1 S1                 0.0000
     16 ****         4.5183  -0.3727   0.0676 C.2            1 S1                 0.0000
     17 ****        -2.2677   0.2605  -2.4439 H              1 S1                 0.0000
     18 ****        -2.3890  -0.6847  -0.9796 H              1 S1                 0.0000
     19 ****        -2.2155   2.3769  -1.1098 H              1 S1                 0.0000
     20 ****        -4.6025   1.4153  -1.6970 H              1 S1                 0.0000
     21 ****        -5.7362   1.6914   0.5981 H              1 S1                 0.0000
     22 ****        -3.7285   2.7067   2.0182 H              1 S1                 0.0000
     23 ****        -3.8878   0.9679   2.3219 H              1 S1                 0.0000
     24 ****        -1.9099   0.5223   1.2091 H              1 S1                 0.0000
     25 ****        -1.5904   2.2444   1.1382 H              1 S1                 0.0000
     26 ****        -0.5115  -1.7944  -0.9483 H              1 S1                 0.0000
     27 ****         1.7009  -2.3289  -1.1183 H              1 S1                 0.0000
     28 ****         2.0685  -0.7505  -1.7753 H              1 S1                 0.0000
     29 ****         1.9359   0.2377   0.5603 H              1 S1                 0.0000
     30 ****         1.5562  -1.3488   1.2020 H              1 S1                 0.0000
     31 ****         3.5008  -3.0085   1.5784 H              1 S1                 0.0000
     32 ****         6.2439  -2.7135   1.3253 H              1 S1                 0.0000
     33 ****         4.3756   0.5616  -0.4557 H              1 S1                 0.0000
     34 ****        -0.2468   2.0821  -1.6957 LP             1 S1                 0.0000
     35 ****         1.2134   1.1784  -1.4693 LP             1 S1                 0.0000
     36 ****         6.6116  -0.5009   0.0690 LP             1 S1                 0.0000
@<TRIPOS>BOND
    1    1    2 2     
    2    2    3 1     
    3    2    9 am    
    4    3    4 1     
    5    3   17 1     
    6    3   18 1     
    7    4    8 1     
    8    4    5 1     
    9    4   19 1     
   10    5    6 2     
   11    5   20 1     
   12    6    7 1     
   13    6   21 1     
   14    7    8 1     
   15    7   22 1     
   16    7   23 1     
   17    8   24 1     
   18    8   25 1     
   19    9   10 1     
   20    9   26 1     
   21   10   11 1     
   22   10   27 1     
   23   10   28 1     
   24   11   12 1     
   25   11   29 1     
   26   11   30 1     
   27   12   16 1     
   28   12   13 1     
   29   13   14 2     
   30   13   31 1     
   31   14   15 1     
   32   14   32 1     
   33   15   16 2     
   34   16   33 1     
   35    1   34 1     
   36    1   35 1     
   37   15   36 1     
@<TRIPOS>SUBSTRUCTURE
      1 S1             1
@<TRIPOS>SET
LONE_PAIRS      STATIC     ATOMS    <user>   **** ""
3 34 35 36
DONOR_HYDROGENS      STATIC     ATOMS    <user>   **** ""
1 26
ATOM$BLUE        STATIC     ATOMS    COLORGROUP SYSTEM
3 34 35 36
ATOM$RED        STATIC     ATOMS    COLORGROUP SYSTEM
1 26
