AV-unprocessed.smi:3181|AV-procd|sdf|12147|dock1
  -GOLD-   2272017583D 1   1.00000     0.00000
 Structure written by MMmdl.
 42 43  0  0  0  0  0  0  0  0  2 V2000
  148.8487  139.5230  156.3135 C   0  0  0  0  0  0  0  0  0  0  0  0
  149.7717  140.7268  156.5669 C   0  0  2  0  0  0  0  0  0  0  0  0
  150.9924  140.7390  155.6183 C   0  0  0  0  0  0  0  0  0  0  0  0
  151.6956  139.4700  155.5877 N   0  0  0  0  0  0  0  0  0  0  0  0
  151.3751  138.3106  155.0103 C   0  0  0  0  0  0  0  0  0  0  0  0
  152.2703  137.3523  155.2036 N   0  0  0  0  0  0  0  0  0  0  0  0
  153.1748  138.0341  155.9681 C   0  0  0  0  0  0  0  0  0  0  0  0
  152.8767  139.3073  156.2287 N   0  0  0  0  0  0  0  0  0  0  0  0
  150.2051  140.7188  157.9834 N   0  3  0  0  0  0  0  0  0  0  0  0
  151.4177  141.5072  158.3042 C   0  0  2  0  0  0  0  0  0  0  0  0
  152.2067  140.8082  159.4255 C   0  0  0  0  0  0  0  0  0  0  0  0
  153.4549  141.6135  159.8248 C   0  0  0  0  0  0  0  0  0  0  0  0
  153.1109  143.0573  160.2443 C   0  0  2  0  0  0  0  0  0  0  0  0
  152.4322  143.1010  161.6284 C   0  0  0  0  0  0  0  0  0  0  0  0
  152.3069  143.7594  159.1202 C   0  0  2  0  0  0  0  0  0  0  0  0
  151.9592  145.2221  159.4431 C   0  0  0  0  0  0  0  0  0  0  0  0
  151.0567  142.9496  158.7196 C   0  0  0  0  0  0  0  0  0  0  0  0
  148.4354  139.5390  155.3048 H   0  0  0  0  0  0  0  0  0  0  0  0
  148.0054  139.5240  157.0050 H   0  0  0  0  0  0  0  0  0  0  0  0
  149.3813  138.5798  156.4401 H   0  0  0  0  0  0  0  0  0  0  0  0
  149.1800  141.6247  156.3893 H   0  0  0  0  0  0  0  0  0  0  0  0
  150.6953  140.9766  154.5968 H   0  0  0  0  0  0  0  0  0  0  0  0
  151.6978  141.5135  155.9230 H   0  0  0  0  0  0  0  0  0  0  0  0
  150.4725  138.1649  154.4346 H   0  0  0  0  0  0  0  0  0  0  0  0
  154.0797  137.5789  156.3436 H   0  0  0  0  0  0  0  0  0  0  0  0
  149.4517  141.0797  158.5514 H   0  0  0  0  0  0  0  0  0  0  0  0
  152.0603  141.5456  157.4244 H   0  0  0  0  0  0  0  0  0  0  0  0
  151.5679  140.6615  160.2973 H   0  0  0  0  0  0  0  0  0  0  0  0
  152.5093  139.8122  159.0999 H   0  0  0  0  0  0  0  0  0  0  0  0
  153.9866  141.1026  160.6283 H   0  0  0  0  0  0  0  0  0  0  0  0
  154.1444  141.6410  158.9799 H   0  0  0  0  0  0  0  0  0  0  0  0
  154.0571  143.5899  160.3510 H   0  0  0  0  0  0  0  0  0  0  0  0
  151.4407  142.6495  161.6166 H   0  0  0  0  0  0  0  0  0  0  0  0
  152.3258  144.1239  161.9888 H   0  0  0  0  0  0  0  0  0  0  0  0
  153.0268  142.5657  162.3692 H   0  0  0  0  0  0  0  0  0  0  0  0
  152.9569  143.7898  158.2440 H   0  0  0  0  0  0  0  0  0  0  0  0
  151.2360  145.2966  160.2555 H   0  0  0  0  0  0  0  0  0  0  0  0
  151.5248  145.7194  158.5754 H   0  0  0  0  0  0  0  0  0  0  0  0
  152.8480  145.7840  159.7317 H   0  0  0  0  0  0  0  0  0  0  0  0
  150.5538  143.4616  157.8993 H   0  0  0  0  0  0  0  0  0  0  0  0
  150.3441  142.9318  159.5450 H   0  0  0  0  0  0  0  0  0  0  0  0
  150.3669  139.7575  158.2476 H   0  0  0  0  0  0  0  0  0  0  0  0
  1  2  1  0  0  0  0
  1 18  1  0  0  0  0
  1 19  1  0  0  0  0
  1 20  1  0  0  0  0
  2  3  1  0  0  0  0
  2  9  1  0  0  0  0
  2 21  1  0  0  0  0
  3  4  1  0  0  0  0
  3 22  1  0  0  0  0
  3 23  1  0  0  0  0
  4  8  1  0  0  0  0
  4  5  1  0  0  0  0
  5  6  2  0  0  0  0
  5 24  1  0  0  0  0
  6  7  1  0  0  0  0
  7  8  2  0  0  0  0
  7 25  1  0  0  0  0
  9 10  1  0  0  0  0
  9 26  1  0  0  0  0
  9 42  1  0  0  0  0
 10 17  1  0  0  0  0
 10 11  1  0  0  0  0
 10 27  1  0  0  0  0
 11 12  1  0  0  0  0
 11 28  1  0  0  0  0
 11 29  1  0  0  0  0
 12 13  1  0  0  0  0
 12 30  1  0  0  0  0
 12 31  1  0  0  0  0
 13 14  1  0  0  0  0
 13 15  1  0  0  0  0
 13 32  1  0  0  0  0
 14 33  1  0  0  0  0
 14 34  1  0  0  0  0
 14 35  1  0  0  0  0
 15 16  1  0  0  0  0
 15 17  1  0  0  0  0
 15 36  1  0  0  0  0
 16 37  1  0  0  0  0
 16 38  1  0  0  0  0
 16 39  1  0  0  0  0
 17 40  1  0  0  0  0
 17 41  1  0  0  0  0
M  CHG  1   9   1
M  END
> <s_m_source_file>
AV-unprocessed.smi

> <i_m_source_file_index>
3181

> <i_lp_mmshare_version>
43012

> <i_f3d_flags>
0

> <s_epik_input>
bjFbY0hdbltjSF1uMVtDSDJdW0NAQEhdKFtDSDNdKVtOSF1bQ0BASF0yW0NIMl1bQ0gyXVtDQEBIXShbQ0gzXSlbQ0BASF0oW0NIM10pW0NIMl0y

> <s_epik_cmdline>
J2VwaWtfcHl0aG9uJywgJy1waCcsICc3LjAnLCAnLXRuJywgJzgnLCAnLW1hJywgJzIwMCcsICctbWV0YWxfYmluZGluZycsICctaW1hZScsICc8aW5maWxlLm1hZT4nLCAnLW9tYWUnLCAnPG91dGZpbGUubWFlPic=

> <r_lp_tautomer_probability>
1

> <r_epik_Ionization_Penalty>
0.000617007

> <r_epik_Ionization_Penalty_Charging>
0.000616215

> <r_epik_Ionization_Penalty_Neutral>
7.92544e-07

> <r_epik_State_Penalty>
0.000388807

> <r_epik_Charging_Adjusted_Penalty>
0.00100502

> <i_epik_Tot_Q>
1

> <i_epik_Tot_abs_Q>
1

> <r_epik_Metal_State_Penalty>
-0

> <b_epik_Metal_Only>
0

> <s_lp_Force_Field>
OPLS_2005

> <r_lp_Energy>
20.1212

> <b_lp_Chiralities_Consistent>
1

> <s_lp_Variant>
AV-unprocessed.smi:3181-13

> <Gold.Version>
5.8.1

> <Gold.Id.Protein>
6NUR|6NUR_protein|mol2

> <Gold.PLP.Fitness>
43.8833

> <Gold.PLP.PLP>
-40.2597

> <Gold.PLP.part.hbond>
-2.0000

> <Gold.PLP.part.metal>
0.0000

> <Gold.PLP.part.buried>
-4.1185

> <Gold.PLP.part.nonpolar>
-34.7047

> <Gold.PLP.part.repulsive>
0.2025

> <Gold.PLP.ligand.clash>
0.0000

> <Gold.PLP.ligand.torsion>
0.8931

> <Gold.PLP.Chemscore.Hbond>
1.7771

> <Gold.PLP.Chemscore.CHOScore>
0.0000

> <Gold.PLP.Chemscore.Metal>
0.0000

> <Gold.Chemscore.Hbonds>
donor molecule, donor type, donor heavy atom, donor atom, acceptor molecule, acceptor atom, score
      P1  H  7997  8010       L1     8  1.00
      P1  H 10752 10765       L1     6  0.75

> <Gold.PLP.Chemscore.Internal.Correction>
0.0784

> <Gold.Rescore>
     Score         DG    S(hbond)    S(metal)    S(lipo)     H(rot)  DE(clash)    DE(int)     intcor
     15.81     -16.92       1.58        0.00      98.82       2.11       0.24       0.87       ----

> <Gold.Chemscore.Fitness>
15.8097

> <Gold.Chemscore.DG>
-16.9168

> <Gold.Chemscore.ZeroCoef>
-5.4800

> <Gold.Chemscore.Hbond>
1.5794

> <Gold.Chemscore.Metal>
0.0000

> <Gold.Chemscore.Lipo>
98.8209

> <Gold.Chemscore.Internal_Hbond>
0.0000

> <Gold.Chemscore.DEClash>
0.2362

> <Gold.Chemscore.DEInternal>
0.8709

> <Gold.Chemscore.Rot>
2.1095

> <Gold.Chemscore.Internal.Correction>
   9.000000E+99

> <Gold.Chemscore.Hbonds>
donor molecule, donor type, donor heavy atom, donor atom, acceptor molecule, acceptor atom, score
      P1  H  7997  8010       L1     8  0.55
      P1  H 10752 10765       L1     6  0.61

> <Gold.Chemscore.Hbond.Weighted>
-5.2751

> <Gold.Chemscore.Metal.Weighted>
-0.0000

> <Gold.Chemscore.Lipo.Weighted>
-11.5620

> <Gold.Chemscore.Internal_Hbond.Weighted>
0.0000

> <Gold.Chemscore.DEClash.Weighted>
0.2362

> <Gold.Chemscore.DEInternal.Weighted>
0.8709

> <Gold.Chemscore.Rot.Weighted>
5.4003

> <Gold.Chemscore.Internal.Correction.Weighted>
   9.000000E+99

> <Gold.Protein.RotatedTorsions>
[ 6907 6896 6895 6894 ] final  149.80 input  -60.11 | X-H torsion
[ 7974 7965 7964 7962 ] final  -42.18 input  175.53 | X-H torsion
[ 8008 7997 7996 7995 ] final   81.32 input   59.86 | X-H torsion
[ 10167 10162 10161 10158 ] final   -1.90 input  -65.29 | X-H torsion
[ 10718 10713 10712 10709 ] final   99.91 input   66.30 | X-H torsion
[ 10763 10752 10751 10750 ] final  179.64 input  -60.55 | X-H torsion
[ 11005 11000 10999 10996 ] final  169.29 input  -57.11 | X-H torsion

> <Gold.Protein.ActiveResidues>
 VAL166  LYS551  ARG553  GLY616  TRP617  ASP618  TYR619  PRO620  LYS621  CYS622 
 ASP623  PHE694  ASN695  SER759  ASP760  ASP761  ALA762  ILE779  LEU786  VAL792 
 PHE793  MET794  SER795  GLU796  ALA797  LYS798  CYS799  TRP800  GLU811  SER814 

> <Gold.Protein.RotatedAtoms>
  152.1231  133.4364  159.4684 H   0  0  0  0  0  0  0  0  0  0  0  0  # atno 6907 bound_to 6896
  150.6873  134.2511  159.4520 H   0  0  0  0  0  0  0  0  0  0  0  0  # atno 6908 bound_to 6896
  152.0389  134.9723  160.0624 H   0  0  0  0  0  0  0  0  0  0  0  0  # atno 6909 bound_to 6896
  146.0140  140.6930  142.9210 H   0  0  0  0  0  0  0  0  0  0  0  0  # atno 7974 bound_to 7965
  155.8955  140.3436  155.5987 H   0  0  0  0  0  0  0  0  0  0  0  0  # atno 8008 bound_to 7997
  155.7561  140.0826  157.2197 H   0  0  0  0  0  0  0  0  0  0  0  0  # atno 8009 bound_to 7997
  154.4038  140.1544  156.2767 H   0  0  0  0  0  0  0  0  0  0  0  0  # atno 8010 bound_to 7997
  140.6829  143.6721  150.8176 H   0  0  0  0  0  0  0  0  0  0  0  0  # atno 10167 bound_to 10162
  157.6866  131.0683  150.5020 H   0  0  0  0  0  0  0  0  0  0  0  0  # atno 10718 bound_to 10713
  154.5233  135.2795  155.1244 H   0  0  0  0  0  0  0  0  0  0  0  0  # atno 10763 bound_to 10752
  154.2793  135.6288  153.5344 H   0  0  0  0  0  0  0  0  0  0  0  0  # atno 10764 bound_to 10752
  152.9941  135.5647  154.5727 H   0  0  0  0  0  0  0  0  0  0  0  0  # atno 10765 bound_to 10752
  140.2962  134.7633  157.3879 H   0  0  0  0  0  0  0  0  0  0  0  0  # atno 11005 bound_to 11000
  144.6964  140.3449  143.7192 LP  0  0  0  0  0  0  0  0  0  0  0  0  # atno 17320 bound_to 7965
  145.7297  139.1732  143.2437 LP  0  0  0  0  0  0  0  0  0  0  0  0  # atno 17321 bound_to 7965
  140.0424  143.5332  152.2712 LP  0  0  0  0  0  0  0  0  0  0  0  0  # atno 17342 bound_to 10162
  139.6165  144.7620  151.2836 LP  0  0  0  0  0  0  0  0  0  0  0  0  # atno 17343 bound_to 10162
  156.5341  130.4192  149.6187 LP  0  0  0  0  0  0  0  0  0  0  0  0  # atno 17370 bound_to 10713
  156.3043  130.7194  151.2073 LP  0  0  0  0  0  0  0  0  0  0  0  0  # atno 17371 bound_to 10713
  140.1151  134.5294  155.8232 LP  0  0  0  0  0  0  0  0  0  0  0  0  # atno 17394 bound_to 11000
  141.2137  133.6737  156.6761 LP  0  0  0  0  0  0  0  0  0  0  0  0  # atno 17395 bound_to 11000

$$$$
