AV-unprocessed.smi:1703|AV-procd|sdf|6879|dock2
  -GOLD-   22720 8 83D 1   1.00000     0.00000
 Structure written by MMmdl.
 50 52  0  0  0  0  0  0  0  0  3 V2000
  147.8264  135.3613  161.9280 C   0  0  0  0  0  0  0  0  0  0  0  0
  148.3959  135.2676  160.5083 C   0  0  2  0  0  0  0  0  0  0  0  0
  148.6925  136.6555  159.9088 C   0  0  0  0  0  0  0  0  0  0  0  0
  149.1689  136.5257  158.5093 N   0  3  2  0  0  0  0  0  0  0  0  0
  149.5215  137.8211  157.8725 C   0  0  0  0  0  0  0  0  0  0  0  0
  150.9068  138.3500  158.2975 C   0  0  1  0  0  0  0  0  0  0  0  0
  151.7368  137.2579  158.6443 O   0  0  0  0  0  0  0  0  0  0  0  0
  151.5779  139.1484  157.1615 C   0  0  0  0  0  0  0  0  0  0  0  0
  151.2796  140.5890  157.2166 N   0  0  0  0  0  0  0  0  0  0  0  0
  150.4947  141.3705  156.4170 C   0  0  0  0  0  0  0  0  0  0  0  0
  149.7080  140.9414  155.2225 C   0  0  0  0  0  0  0  0  0  0  0  0
  149.0928  142.0278  154.5676 O   0  0  0  0  0  0  0  0  0  0  0  0
  150.5659  142.6424  156.9019 N   0  3  0  0  0  0  0  0  0  0  0  0
  151.3959  142.6767  158.0224 C   0  0  0  0  0  0  0  0  0  0  0  0
  151.7710  143.7322  158.8477 C   0  0  0  0  0  0  0  0  0  0  0  0
  152.6383  143.4229  159.9161 C   0  0  0  0  0  0  0  0  0  0  0  0
  153.0994  142.1076  160.1306 C   0  0  0  0  0  0  0  0  0  0  0  0
  152.7137  141.0460  159.2859 C   0  0  0  0  0  0  0  0  0  0  0  0
  151.8557  141.3606  158.2323 C   0  0  0  0  0  0  0  0  0  0  0  0
  148.1935  135.7517  157.7055 C   0  0  0  0  0  0  0  0  0  0  0  0
  147.9099  134.3881  158.3636 C   0  0  2  0  0  0  0  0  0  0  0  0
  146.8468  133.5891  157.6022 C   0  0  0  0  0  0  0  0  0  0  0  0
  147.4403  134.6021  159.6899 O   0  0  0  0  0  0  0  0  0  0  0  0
  148.5300  135.8500  162.6023 H   0  0  0  0  0  0  0  0  0  0  0  0
  147.6162  134.3697  162.3297 H   0  0  0  0  0  0  0  0  0  0  0  0
  146.8965  135.9304  161.9442 H   0  0  0  0  0  0  0  0  0  0  0  0
  149.3133  134.6771  160.5417 H   0  0  0  0  0  0  0  0  0  0  0  0
  147.7933  137.2737  159.9308 H   0  0  0  0  0  0  0  0  0  0  0  0
  149.4395  137.1576  160.5221 H   0  0  0  0  0  0  0  0  0  0  0  0
  149.5132  137.7083  156.7872 H   0  0  0  0  0  0  0  0  0  0  0  0
  148.7470  138.5534  158.1063 H   0  0  0  0  0  0  0  0  0  0  0  0
  150.8173  138.9966  159.1691 H   0  0  0  0  0  0  0  0  0  0  0  0
  152.6324  137.4732  158.4328 H   0  0  0  0  0  0  0  0  0  0  0  0
  152.6604  139.0249  157.1983 H   0  0  0  0  0  0  0  0  0  0  0  0
  151.2649  138.7734  156.1860 H   0  0  0  0  0  0  0  0  0  0  0  0
  150.3536  140.4132  154.5213 H   0  0  0  0  0  0  0  0  0  0  0  0
  148.9361  140.2373  155.5342 H   0  0  0  0  0  0  0  0  0  0  0  0
  149.1663  142.7912  155.1208 H   0  0  0  0  0  0  0  0  0  0  0  0
  151.4190  144.7406  158.6856 H   0  0  0  0  0  0  0  0  0  0  0  0
  152.9556  144.2101  160.5847 H   0  0  0  0  0  0  0  0  0  0  0  0
  153.7624  141.9092  160.9603 H   0  0  0  0  0  0  0  0  0  0  0  0
  153.0730  140.0424  159.4593 H   0  0  0  0  0  0  0  0  0  0  0  0
  147.2694  136.3237  157.6056 H   0  0  0  0  0  0  0  0  0  0  0  0
  148.5864  135.5973  156.6998 H   0  0  0  0  0  0  0  0  0  0  0  0
  148.8277  133.7982  158.3982 H   0  0  0  0  0  0  0  0  0  0  0  0
  147.1627  133.3916  156.5774 H   0  0  0  0  0  0  0  0  0  0  0  0
  145.8994  134.1279  157.5626 H   0  0  0  0  0  0  0  0  0  0  0  0
  146.6630  132.6282  158.0833 H   0  0  0  0  0  0  0  0  0  0  0  0
  150.0143  135.9735  158.5310 H   0  0  0  0  0  0  0  0  0  0  0  0
  150.0803  143.4294  156.4910 H   0  0  0  0  0  0  0  0  0  0  0  0
  1  2  1  0  0  0  0
  1 24  1  0  0  0  0
  1 25  1  0  0  0  0
  1 26  1  0  0  0  0
  2 23  1  0  0  0  0
  2  3  1  0  0  0  0
  2 27  1  0  0  0  0
  3  4  1  0  0  0  0
  3 28  1  0  0  0  0
  3 29  1  0  0  0  0
  4  5  1  0  0  0  0
  4 20  1  0  0  0  0
  4 49  1  0  0  0  0
  5  6  1  0  0  0  0
  5 30  1  0  0  0  0
  5 31  1  0  0  0  0
  6  7  1  0  0  0  0
  6  8  1  0  0  0  0
  6 32  1  0  0  0  0
  7 33  1  0  0  0  0
  8  9  1  0  0  0  0
  8 34  1  0  0  0  0
  8 35  1  0  0  0  0
  9 19  1  0  0  0  0
  9 10  1  0  0  0  0
 10 11  1  0  0  0  0
 10 13  2  0  0  0  0
 11 12  1  0  0  0  0
 11 36  1  0  0  0  0
 11 37  1  0  0  0  0
 12 38  1  0  0  0  0
 13 14  1  0  0  0  0
 13 50  1  0  0  0  0
 14 19  2  0  0  0  0
 14 15  1  0  0  0  0
 15 16  2  0  0  0  0
 15 39  1  0  0  0  0
 16 17  1  0  0  0  0
 16 40  1  0  0  0  0
 17 18  2  0  0  0  0
 17 41  1  0  0  0  0
 18 19  1  0  0  0  0
 18 42  1  0  0  0  0
 20 21  1  0  0  0  0
 20 43  1  0  0  0  0
 20 44  1  0  0  0  0
 21 22  1  0  0  0  0
 21 23  1  0  0  0  0
 21 45  1  0  0  0  0
 22 46  1  0  0  0  0
 22 47  1  0  0  0  0
 22 48  1  0  0  0  0
M  CHG  1   4   1
M  CHG  1  13   1
M  END
> <s_m_source_file>
AV-unprocessed.smi

> <i_m_source_file_index>
1703

> <i_lp_mmshare_version>
43012

> <i_f3d_flags>
0

> <s_epik_input>
W0NIM11bQ0BASF0xW0NIMl1OKFtDSDJdW0NASF0oTzEpW0NIM10pW0NIMl1bQ0BIXShbT0hdKVtDSDJdbihjKG4yKVtDSDJdW09IXSljKGMyMylbY0hdW2NIXVtjSF1bY0hdMw==

> <s_epik_cmdline>
J2VwaWtfcHl0aG9uJywgJy1waCcsICc3LjAnLCAnLXRuJywgJzgnLCAnLW1hJywgJzIwMCcsICctbWV0YWxfYmluZGluZycsICctaW1hZScsICc8aW5maWxlLm1hZT4nLCAnLW9tYWUnLCAnPG91dGZpbGUubWFlPic=

> <r_epik_Ionization_Penalty>
2.22579

> <r_epik_Ionization_Penalty_Charging>
2.22492

> <r_epik_Ionization_Penalty_Neutral>
0.000870007

> <r_epik_State_Penalty>
2.3141

> <r_epik_Charging_Adjusted_Penalty>
4.53902

> <i_epik_Tot_Q>
2

> <i_epik_Tot_abs_Q>
2

> <r_epik_Metal_State_Penalty>
6.36517

> <b_epik_Metal_Only>
0

> <s_lp_Force_Field>
OPLS_2005

> <r_lp_Energy>
26.5271

> <b_lp_Chiralities_Consistent>
1

> <s_lp_Variant>
AV-unprocessed.smi:1703-27

> <Gold.Version>
5.8.1

> <Gold.Id.Protein>
6NUR|6NUR_protein|mol2

> <Gold.PLP.Fitness>
48.2518

> <Gold.PLP.PLP>
-40.5813

> <Gold.PLP.part.hbond>
-3.2791

> <Gold.PLP.part.metal>
0.0000

> <Gold.PLP.part.buried>
-6.0464

> <Gold.PLP.part.nonpolar>
-32.2700

> <Gold.PLP.part.repulsive>
0.1655

> <Gold.PLP.ligand.clash>
0.0000

> <Gold.PLP.ligand.torsion>
1.1831

> <Gold.PLP.Chemscore.Hbond>
3.2818

> <Gold.PLP.Chemscore.CHOScore>
0.0000

> <Gold.PLP.Chemscore.Metal>
0.0000

> <Gold.Chemscore.Hbonds>
donor molecule, donor type, donor heavy atom, donor atom, acceptor molecule, acceptor atom, score
      L1  H    12    38       P1  8028  1.00
      L1  H    13    50       P1  8028  2.00
      P1  H  8011  8017       L1    12  0.05

> <Gold.PLP.Chemscore.Internal.Correction>
0.1913

> <Gold.Rescore>
     Score         DG    S(hbond)    S(metal)    S(lipo)     H(rot)  DE(clash)    DE(int)     intcor
     15.62     -16.86       2.10        0.00     103.66       3.04       0.05       1.19       ----

> <Gold.Chemscore.Fitness>
15.6229

> <Gold.Chemscore.DG>
-16.8573

> <Gold.Chemscore.ZeroCoef>
-5.4800

> <Gold.Chemscore.Hbond>
2.1034

> <Gold.Chemscore.Metal>
0.0000

> <Gold.Chemscore.Lipo>
103.6622

> <Gold.Chemscore.Internal_Hbond>
0.0000

> <Gold.Chemscore.DEClash>
0.0456

> <Gold.Chemscore.DEInternal>
1.1888

> <Gold.Chemscore.Rot>
3.0378

> <Gold.Chemscore.Internal.Correction>
   9.000000E+99

> <Gold.Chemscore.Hbonds>
donor molecule, donor type, donor heavy atom, donor atom, acceptor molecule, acceptor atom, score
      L1  H    12    38       P1  8028  0.93
      L1  H    13    50       P1  8028  0.99
      P1  H  6896  6907       L1     7  0.02
      P1  H  8011  8017       L1    12  0.05

> <Gold.Chemscore.Hbond.Weighted>
-7.0255

> <Gold.Chemscore.Metal.Weighted>
-0.0000

> <Gold.Chemscore.Lipo.Weighted>
-12.1285

> <Gold.Chemscore.Internal_Hbond.Weighted>
0.0000

> <Gold.Chemscore.DEClash.Weighted>
0.0456

> <Gold.Chemscore.DEInternal.Weighted>
1.1888

> <Gold.Chemscore.Rot.Weighted>
7.7767

> <Gold.Chemscore.Internal.Correction.Weighted>
   9.000000E+99

> <Gold.Protein.RotatedTorsions>
[ 6907 6896 6895 6894 ] final  -13.97 input  -60.11 | X-H torsion
[ 7974 7965 7964 7962 ] final  -16.46 input  175.53 | X-H torsion
[ 8008 7997 7996 7995 ] final  -23.77 input   59.86 | X-H torsion
[ 10167 10162 10161 10158 ] final  125.93 input  -65.29 | X-H torsion
[ 10718 10713 10712 10709 ] final  170.93 input   66.30 | X-H torsion
[ 10763 10752 10751 10750 ] final  -11.93 input  -60.55 | X-H torsion
[ 11005 11000 10999 10996 ] final  -73.87 input  -57.11 | X-H torsion

> <Gold.Protein.ActiveResidues>
 VAL166  LYS551  ARG553  GLY616  TRP617  ASP618  TYR619  PRO620  LYS621  CYS622 
 ASP623  PHE694  ASN695  SER759  ASP760  ASP761  ALA762  ILE779  LEU786  VAL792 
 PHE793  MET794  SER795  GLU796  ALA797  LYS798  CYS799  TRP800  GLU811  SER814 

> <Gold.Protein.RotatedAtoms>
  151.3466  135.0875  159.9388 H   0  0  0  0  0  0  0  0  0  0  0  0  # atno 6907 bound_to 6896
  152.5198  133.9394  159.7629 H   0  0  0  0  0  0  0  0  0  0  0  0  # atno 6908 bound_to 6896
  150.9761  133.6240  159.2759 H   0  0  0  0  0  0  0  0  0  0  0  0  # atno 6909 bound_to 6896
  146.1987  140.3639  142.8431 H   0  0  0  0  0  0  0  0  0  0  0  0  # atno 7974 bound_to 7965
  154.4566  140.1971  156.0362 H   0  0  0  0  0  0  0  0  0  0  0  0  # atno 8008 bound_to 7997
  156.0758  140.3278  155.7604 H   0  0  0  0  0  0  0  0  0  0  0  0  # atno 8009 bound_to 7997
  155.5190  140.0568  157.2901 H   0  0  0  0  0  0  0  0  0  0  0  0  # atno 8010 bound_to 7997
  139.5658  144.6910  151.3914 H   0  0  0  0  0  0  0  0  0  0  0  0  # atno 10167 bound_to 10162
  157.0009  131.0176  151.2831 H   0  0  0  0  0  0  0  0  0  0  0  0  # atno 10718 bound_to 10713
  153.4910  135.7017  153.5884 H   0  0  0  0  0  0  0  0  0  0  0  0  # atno 10763 bound_to 10752
  153.4056  135.3861  155.2017 H   0  0  0  0  0  0  0  0  0  0  0  0  # atno 10764 bound_to 10752
  154.8717  135.3892  154.4370 H   0  0  0  0  0  0  0  0  0  0  0  0  # atno 10765 bound_to 10752
  141.1628  133.6892  156.7277 H   0  0  0  0  0  0  0  0  0  0  0  0  # atno 11005 bound_to 11000
  144.8635  140.7173  143.6092 LP  0  0  0  0  0  0  0  0  0  0  0  0  # atno 17320 bound_to 7965
  145.3559  139.1694  143.4409 LP  0  0  0  0  0  0  0  0  0  0  0  0  # atno 17321 bound_to 7965
  140.6941  143.7790  150.7300 LP  0  0  0  0  0  0  0  0  0  0  0  0  # atno 17342 bound_to 10162
  140.1281  143.4550  152.2271 LP  0  0  0  0  0  0  0  0  0  0  0  0  # atno 17343 bound_to 10162
  157.5391  130.8108  149.8007 LP  0  0  0  0  0  0  0  0  0  0  0  0  # atno 17370 bound_to 10713
  156.0171  130.3809  150.2076 LP  0  0  0  0  0  0  0  0  0  0  0  0  # atno 17371 bound_to 10713
  140.2768  134.8348  157.3897 LP  0  0  0  0  0  0  0  0  0  0  0  0  # atno 17394 bound_to 11000
  140.1470  134.4898  155.7989 LP  0  0  0  0  0  0  0  0  0  0  0  0  # atno 17395 bound_to 11000

$$$$
