AV-unprocessed.smi:1423|AV-procd|sdf|5797|dock1
  -GOLD-   22720 5443D 1   1.00000     0.00000
 Structure written by MMmdl.
 43 44  0  0  0  0  0  0  0  0  3 V2000
  153.0970  142.0011  161.6394 C   0  0  0  0  0  0  0  0  0  0  0  0
  153.0180  142.8495  160.4992 O   0  0  0  0  0  0  0  0  0  0  0  0
  152.2449  142.4415  159.4315 C   0  0  0  0  0  0  0  0  0  0  0  0
  151.8470  141.0917  159.3641 C   0  0  0  0  0  0  0  0  0  0  0  0
  151.0600  140.6659  158.2770 C   0  0  0  0  0  0  0  0  0  0  0  0
  150.6871  141.6103  157.2902 C   0  0  0  0  0  0  0  0  0  0  0  0
  149.9125  141.3104  156.1358 N   0  0  0  0  0  0  0  0  0  0  0  0
  148.8981  140.4387  156.0005 C   0  0  0  0  0  0  0  0  0  0  0  0
  148.4225  139.7491  156.9019 O   0  0  0  0  0  0  0  0  0  0  0  0
  148.4443  140.4167  154.7389 N   0  0  0  0  0  0  0  0  0  0  0  0
  147.3540  139.5758  154.2525 C   0  0  2  0  0  0  0  0  0  0  0  0
  147.4556  138.1560  154.8396 C   0  0  0  0  0  0  0  0  0  0  0  0
  146.3757  137.2325  154.2525 C   0  0  0  0  0  0  0  0  0  0  0  0
  146.4529  137.1948  152.7678 N   0  3  1  0  0  0  0  0  0  0  0  0
  145.5248  136.2096  152.1563 C   0  0  0  0  0  0  0  0  0  0  0  0
  144.1096  136.3713  152.7222 C   0  0  0  0  0  0  0  0  0  0  0  0
  143.5078  137.4970  152.2871 N   0  5  0  0  0  0  0  0  0  0  0  0
  143.6568  135.5179  153.4816 O   0  0  0  0  0  0  0  0  0  0  0  0
  146.3153  138.5494  152.1767 C   0  0  0  0  0  0  0  0  0  0  0  0
  147.3946  139.5022  152.7176 C   0  0  0  0  0  0  0  0  0  0  0  0
  151.1457  142.9350  157.4464 C   0  0  0  0  0  0  0  0  0  0  0  0
  151.9008  143.3496  158.4854 N   0  0  0  0  0  0  0  0  0  0  0  0
  153.7399  142.4630  162.3883 H   0  0  0  0  0  0  0  0  0  0  0  0
  153.5278  141.0313  161.3864 H   0  0  0  0  0  0  0  0  0  0  0  0
  152.1164  141.8504  162.0935 H   0  0  0  0  0  0  0  0  0  0  0  0
  152.1445  140.3923  160.1315 H   0  0  0  0  0  0  0  0  0  0  0  0
  150.7748  139.6274  158.2215 H   0  0  0  0  0  0  0  0  0  0  0  0
  150.1410  141.8519  155.3149 H   0  0  0  0  0  0  0  0  0  0  0  0
  148.8903  141.0200  154.0633 H   0  0  0  0  0  0  0  0  0  0  0  0
  146.3999  140.0168  154.5482 H   0  0  0  0  0  0  0  0  0  0  0  0
  148.4411  137.7369  154.6303 H   0  0  0  0  0  0  0  0  0  0  0  0
  147.3578  138.1880  155.9253 H   0  0  0  0  0  0  0  0  0  0  0  0
  146.5038  136.2301  154.6620 H   0  0  0  0  0  0  0  0  0  0  0  0
  145.3852  137.5729  154.5580 H   0  0  0  0  0  0  0  0  0  0  0  0
  145.5209  136.3131  151.0699 H   0  0  0  0  0  0  0  0  0  0  0  0
  145.8543  135.1914  152.3704 H   0  0  0  0  0  0  0  0  0  0  0  0
  143.6279  137.7711  151.3043 H   0  0  0  0  0  0  0  0  0  0  0  0
  146.4053  138.4878  151.0916 H   0  0  0  0  0  0  0  0  0  0  0  0
  145.3202  138.9423  152.3919 H   0  0  0  0  0  0  0  0  0  0  0  0
  147.2548  140.4961  152.2911 H   0  0  0  0  0  0  0  0  0  0  0  0
  148.3762  139.1585  152.3874 H   0  0  0  0  0  0  0  0  0  0  0  0
  150.8982  143.6903  156.7145 H   0  0  0  0  0  0  0  0  0  0  0  0
  147.3791  136.8695  152.5265 H   0  0  0  0  0  0  0  0  0  0  0  0
  1  2  1  0  0  0  0
  1 23  1  0  0  0  0
  1 24  1  0  0  0  0
  1 25  1  0  0  0  0
  2  3  1  0  0  0  0
  3 22  1  0  0  0  0
  3  4  2  0  0  0  0
  4  5  1  0  0  0  0
  4 26  1  0  0  0  0
  5  6  2  0  0  0  0
  5 27  1  0  0  0  0
  6  7  1  0  0  0  0
  6 21  1  0  0  0  0
  7  8  1  0  0  0  0
  7 28  1  0  0  0  0
  8  9  2  0  0  0  0
  8 10  1  0  0  0  0
 10 11  1  0  0  0  0
 10 29  1  0  0  0  0
 11 20  1  0  0  0  0
 11 12  1  0  0  0  0
 11 30  1  0  0  0  0
 12 13  1  0  0  0  0
 12 31  1  0  0  0  0
 12 32  1  0  0  0  0
 13 14  1  0  0  0  0
 13 33  1  0  0  0  0
 13 34  1  0  0  0  0
 14 15  1  0  0  0  0
 14 19  1  0  0  0  0
 14 43  1  0  0  0  0
 15 16  1  0  0  0  0
 15 35  1  0  0  0  0
 15 36  1  0  0  0  0
 16 17  1  0  0  0  0
 16 18  2  0  0  0  0
 17 37  1  0  0  0  0
 19 20  1  0  0  0  0
 19 38  1  0  0  0  0
 19 39  1  0  0  0  0
 20 40  1  0  0  0  0
 20 41  1  0  0  0  0
 21 22  2  0  0  0  0
 21 42  1  0  0  0  0
M  CHG  1  14   1
M  CHG  1  17  -1
M  END
> <s_m_source_file>
AV-unprocessed.smi

> <i_m_source_file_index>
1423

> <i_lp_mmshare_version>
43012

> <i_f3d_flags>
0

> <s_epik_input>
W0NIM11PYzFbY0hdW2NIXWMoW2NIXW4xKVtOSF1DKD1PKVtOSF1bQ0hdMltDSDJdW0NIMl1OKFtDSDJdW0NIMl0yKVtDSDJdQyg9TylbTkgyXQ==

> <s_epik_cmdline>
J2VwaWtfcHl0aG9uJywgJy1waCcsICc3LjAnLCAnLXRuJywgJzgnLCAnLW1hJywgJzIwMCcsICctbWV0YWxfYmluZGluZycsICctaW1hZScsICc8aW5maWxlLm1hZT4nLCAnLW9tYWUnLCAnPG91dGZpbGUubWFlPic=

> <r_lp_tautomer_probability>
1

> <r_epik_Ionization_Penalty>
5.72888

> <r_epik_Ionization_Penalty_Charging>
5.7288

> <r_epik_Ionization_Penalty_Neutral>
7.8452e-05

> <r_epik_State_Penalty>
6.54882

> <r_epik_Charging_Adjusted_Penalty>
12.2776

> <i_epik_Tot_Q>
0

> <i_epik_Tot_abs_Q>
2

> <r_epik_Metal_State_Penalty>
2.51301

> <b_epik_Metal_Only>
1

> <s_lp_Force_Field>
OPLS_2005

> <r_lp_Energy>
10.9641

> <b_lp_Chiralities_Consistent>
1

> <s_lp_Variant>
AV-unprocessed.smi:1423-4

> <Gold.Version>
5.8.1

> <Gold.Id.Protein>
6NUR|6NUR_protein|mol2

> <Gold.PLP.Fitness>
40.4082

> <Gold.PLP.PLP>
-30.1833

> <Gold.PLP.part.hbond>
-3.0000

> <Gold.PLP.part.metal>
0.0000

> <Gold.PLP.part.buried>
-4.6877

> <Gold.PLP.part.nonpolar>
-25.1536

> <Gold.PLP.part.repulsive>
0.2803

> <Gold.PLP.ligand.clash>
0.0000

> <Gold.PLP.ligand.torsion>
0.9044

> <Gold.PLP.Chemscore.Hbond>
3.0000

> <Gold.PLP.Chemscore.CHOScore>
1.0000

> <Gold.PLP.Chemscore.Metal>
0.0000

> <Gold.Chemscore.Hbonds>
donor molecule, donor type, donor heavy atom, donor atom, acceptor molecule, acceptor atom, score
      L1  H    14    43       P1  7948  2.00
      L1  H    17    37       P1 10171  1.00
      L1  C    21    42       P1  8028  1.00

> <Gold.PLP.Chemscore.Internal.Correction>
0.0337

> <Gold.Rescore>
     Score         DG    S(hbond)    S(metal)    S(lipo)     H(rot)  DE(clash)    DE(int)     intcor
     10.86     -13.95       1.95        0.00      66.74       2.29       0.91       2.18       ----

> <Gold.Chemscore.Fitness>
10.8587

> <Gold.Chemscore.DG>
-13.9500

> <Gold.Chemscore.ZeroCoef>
-5.4800

> <Gold.Chemscore.Hbond>
1.9527

> <Gold.Chemscore.Metal>
0.0000

> <Gold.Chemscore.Lipo>
66.7416

> <Gold.Chemscore.Internal_Hbond>
0.0000

> <Gold.Chemscore.DEClash>
0.9135

> <Gold.Chemscore.DEInternal>
2.1778

> <Gold.Chemscore.Rot>
2.2894

> <Gold.Chemscore.Internal.Correction>
   9.000000E+99

> <Gold.Chemscore.Hbonds>
donor molecule, donor type, donor heavy atom, donor atom, acceptor molecule, acceptor atom, score
      L1  H    14    43       P1  7948  1.00
      L1  H    17    37       P1 10171  0.98

> <Gold.Chemscore.Hbond.Weighted>
-6.5220

> <Gold.Chemscore.Metal.Weighted>
-0.0000

> <Gold.Chemscore.Lipo.Weighted>
-7.8088

> <Gold.Chemscore.Internal_Hbond.Weighted>
0.0000

> <Gold.Chemscore.DEClash.Weighted>
0.9135

> <Gold.Chemscore.DEInternal.Weighted>
2.1778

> <Gold.Chemscore.Rot.Weighted>
5.8608

> <Gold.Chemscore.Internal.Correction.Weighted>
   9.000000E+99

> <Gold.Protein.RotatedTorsions>
[ 6907 6896 6895 6894 ] final   96.16 input  -60.11 | X-H torsion
[ 7974 7965 7964 7962 ] final   49.22 input  175.53 | X-H torsion
[ 8008 7997 7996 7995 ] final   99.40 input   59.86 | X-H torsion
[ 10167 10162 10161 10158 ] final  117.41 input  -65.29 | X-H torsion
[ 10718 10713 10712 10709 ] final   70.00 input   66.30 | X-H torsion
[ 10763 10752 10751 10750 ] final  -54.36 input  -60.55 | X-H torsion
[ 11005 11000 10999 10996 ] final -142.47 input  -57.11 | X-H torsion

> <Gold.Protein.ActiveResidues>
 VAL166  LYS551  ARG553  GLY616  TRP617  ASP618  TYR619  PRO620  LYS621  CYS622 
 ASP623  PHE694  ASN695  SER759  ASP760  ASP761  ALA762  ILE779  LEU786  VAL792 
 PHE793  MET794  SER795  GLU796  ALA797  LYS798  CYS799  TRP800  GLU811  SER814 

> <Gold.Protein.RotatedAtoms>
  152.5437  134.0929  159.8284 H   0  0  0  0  0  0  0  0  0  0  0  0  # atno 6907 bound_to 6896
  151.1017  133.5231  159.2617 H   0  0  0  0  0  0  0  0  0  0  0  0  # atno 6908 bound_to 6896
  151.1984  135.0441  159.8916 H   0  0  0  0  0  0  0  0  0  0  0  0  # atno 6909 bound_to 6896
  146.0129  139.4564  142.9945 H   0  0  0  0  0  0  0  0  0  0  0  0  # atno 7974 bound_to 7965
  156.1101  140.3229  155.8060 H   0  0  0  0  0  0  0  0  0  0  0  0  # atno 8008 bound_to 7997
  155.4688  140.0545  157.2999 H   0  0  0  0  0  0  0  0  0  0  0  0  # atno 8009 bound_to 7997
  154.4754  140.2030  155.9906 H   0  0  0  0  0  0  0  0  0  0  0  0  # atno 8010 bound_to 7997
  139.6180  144.7096  151.2696 H   0  0  0  0  0  0  0  0  0  0  0  0  # atno 10167 bound_to 10162
  157.6377  130.9455  150.0591 H   0  0  0  0  0  0  0  0  0  0  0  0  # atno 10718 bound_to 10713
  154.1736  135.6455  153.5016 H   0  0  0  0  0  0  0  0  0  0  0  0  # atno 10763 bound_to 10752
  153.0078  135.5389  154.6587 H   0  0  0  0  0  0  0  0  0  0  0  0  # atno 10764 bound_to 10752
  154.5933  135.2936  155.0585 H   0  0  0  0  0  0  0  0  0  0  0  0  # atno 10765 bound_to 10752
  140.8222  134.2617  157.4895 H   0  0  0  0  0  0  0  0  0  0  0  0  # atno 11005 bound_to 11000
  145.7314  141.0041  143.1350 LP  0  0  0  0  0  0  0  0  0  0  0  0  # atno 17320 bound_to 7965
  144.6960  139.8988  143.7457 LP  0  0  0  0  0  0  0  0  0  0  0  0  # atno 17321 bound_to 7965
  140.7364  143.6709  150.8082 LP  0  0  0  0  0  0  0  0  0  0  0  0  # atno 17342 bound_to 10162
  140.0315  143.5438  152.2758 LP  0  0  0  0  0  0  0  0  0  0  0  0  # atno 17343 bound_to 10162
  156.1629  130.3644  149.9273 LP  0  0  0  0  0  0  0  0  0  0  0  0  # atno 17370 bound_to 10713
  156.7267  130.9027  151.3622 LP  0  0  0  0  0  0  0  0  0  0  0  0  # atno 17371 bound_to 10713
  139.8708  134.9541  156.4166 LP  0  0  0  0  0  0  0  0  0  0  0  0  # atno 17394 bound_to 11000
  140.9087  133.7727  155.9766 LP  0  0  0  0  0  0  0  0  0  0  0  0  # atno 17395 bound_to 11000

$$$$
