#       Name:                AV-unprocessed.smi:467
#       Creating user name   scv26
#       Creation time:       Thu Mar 26 23:05:50 2020


#       File generated by GOLD software.
#

@<TRIPOS>MOLECULE
AV-unprocessed.smi:467
    50    52     1
SMALL
NO_CHARGES


@<TRIPOS>ATOM
      1 ****        -1.9086   5.0434  -3.3069 C.3            1 S1                 0.0000
      2 ****        -1.5635   3.9219  -2.3419 C.ar           1 S1                 0.0000
      3 ****        -1.4510   4.2266  -0.9667 C.ar           1 S1                 0.0000
      4 ****        -1.1297   3.1810  -0.1096 C.ar           1 S1                 0.0000
      5 ****        -0.9458   3.1587   1.2744 N.pl3          1 S1                 1.0000
      6 ****        -0.6346   1.8939   1.6707 C.2            1 S1                 0.0000
      7 ****        -0.6192   1.1072   0.5608 N.pl3          1 S1                 0.0000
      8 ****        -0.3361  -0.3301   0.4398 C.3            1 S1                 0.0000
      9 ****         1.1738  -0.6346   0.3525 C.3            1 S1                 0.0000
     10 ****         1.7106  -0.0372  -0.8102 O.3            1 S1                 0.0000
     11 ****         1.4733  -2.1455   0.2840 C.3            1 S1                 0.0000
     12 ****         1.0796  -2.9200   1.4615 N.3            1 S1                 0.0000
     13 ****         1.8757  -2.5930   2.6433 C.3            1 S1                 0.0000
     14 ****         1.4725  -3.4417   3.8621 C.3            1 S1                 0.0000
     15 ****         1.5798  -4.8245   3.5416 O.3            1 S1                 0.0000
     16 ****         0.7767  -5.1915   2.4251 C.3            1 S1                 0.0000
     17 ****         1.1846  -4.3523   1.2020 C.3            1 S1                 0.0000
     18 ****        -0.9241   1.8674  -0.5750 C.ar           1 S1                 0.0000
     19 ****        -1.0342   1.5500  -1.9271 C.ar           1 S1                 0.0000
     20 ****        -1.3586   2.6002  -2.8156 C.ar           1 S1                 0.0000
     21 ****        -1.4817   2.2837  -4.2964 C.3            1 S1                 0.0000
     22 ****        -1.9888   6.0017  -2.7928 H              1 S1                 0.0000
     23 ****        -2.8625   4.8460  -3.7967 H              1 S1                 0.0000
     24 ****        -1.1390   5.1415  -4.0728 H              1 S1                 0.0000
     25 ****        -1.6056   5.2302  -0.5983 H              1 S1                 0.0000
     26 ****        -0.4344   1.5728   2.6829 H              1 S1                 0.0000
     27 ****        -0.7609  -0.8085   1.3230 H              1 S1                 0.0000
     28 ****        -0.8766  -0.7378  -0.4147 H              1 S1                 0.0000
     29 ****         1.6881  -0.1833   1.2006 H              1 S1                 0.0000
     30 ****         1.3153  -0.4435  -1.5660 H              1 S1                 0.0000
     31 ****         0.9617  -2.5478  -0.5916 H              1 S1                 0.0000
     32 ****         2.5385  -2.2946   0.0986 H              1 S1                 0.0000
     33 ****         2.9347  -2.7478   2.4307 H              1 S1                 0.0000
     34 ****         1.7584  -1.5416   2.9022 H              1 S1                 0.0000
     35 ****         2.1215  -3.2205   4.7095 H              1 S1                 0.0000
     36 ****         0.4517  -3.2115   4.1712 H              1 S1                 0.0000
     37 ****         0.9151  -6.2532   2.2200 H              1 S1                 0.0000
     38 ****        -0.2784  -5.0442   2.6615 H              1 S1                 0.0000
     39 ****         0.5528  -4.6225   0.3551 H              1 S1                 0.0000
     40 ****         2.2084  -4.6036   0.9198 H              1 S1                 0.0000
     41 ****        -0.8746   0.5460  -2.2906 H              1 S1                 0.0000
     42 ****        -1.3166   1.2239  -4.4932 H              1 S1                 0.0000
     43 ****        -0.7456   2.8471  -4.8704 H              1 S1                 0.0000
     44 ****        -2.4764   2.5389  -4.6624 H              1 S1                 0.0000
     45 ****        -1.0243   3.9473   1.9039 H              1 S1                 0.0000
     46 ****         2.7009  -0.1738  -0.8331 LP             1 S1                 0.0000
     47 ****         1.5092   0.9423  -0.8098 LP             1 S1                 0.0000
     48 ****         0.1284  -2.6745   1.6486 LP             1 S1                 0.0000
     49 ****         1.2900  -5.3605   4.3346 LP             1 S1                 0.0000
     50 ****         2.5352  -5.0312   3.3307 LP             1 S1                 0.0000
@<TRIPOS>BOND
    1    1    2 1     
    2    1   22 1     
    3    1   23 1     
    4    1   24 1     
    5    2   20 ar    
    6    2    3 ar    
    7    3    4 ar    
    8    3   25 1     
    9    4   18 ar    
   10    4    5 1     
   11    5    6 2     
   12    5   45 1     
   13    6    7 1     
   14    6   26 1     
   15    7    8 1     
   16    7   18 1     
   17    8    9 1     
   18    8   27 1     
   19    8   28 1     
   20    9   10 1     
   21    9   11 1     
   22    9   29 1     
   23   10   30 1     
   24   11   12 1     
   25   11   31 1     
   26   11   32 1     
   27   12   17 1     
   28   12   13 1     
   29   13   14 1     
   30   13   33 1     
   31   13   34 1     
   32   14   15 1     
   33   14   35 1     
   34   14   36 1     
   35   15   16 1     
   36   16   17 1     
   37   16   37 1     
   38   16   38 1     
   39   17   39 1     
   40   17   40 1     
   41   18   19 ar    
   42   19   20 ar    
   43   19   41 1     
   44   20   21 1     
   45   21   42 1     
   46   21   43 1     
   47   21   44 1     
   48   10   46 1     
   49   10   47 1     
   50   12   48 1     
   51   15   49 1     
   52   15   50 1     
@<TRIPOS>SUBSTRUCTURE
      1 S1             1
@<TRIPOS>SET
LONE_PAIRS      STATIC     ATOMS    <user>   **** ""
5 46 47 48 49 50
DONOR_HYDROGENS      STATIC     ATOMS    <user>   **** ""
2 45 30
ATOM$BLUE        STATIC     ATOMS    COLORGROUP SYSTEM
5 46 47 48 49 50
ATOM$RED        STATIC     ATOMS    COLORGROUP SYSTEM
2 45 30
