AV-unprocessed.smi:1670|AV-procd|sdf|6696|dock9
  -GOLD-   22720 7433D 1   1.00000     0.00000
 Structure written by MMmdl.
 41 42  0  0  0  0  0  0  0  0  1 V2000
  150.1690  133.5721  155.6700 C   0  0  0  0  0  0  0  0  0  0  0  0
  149.5606  134.9393  155.3290 C   0  0  1  0  0  0  0  0  0  0  0  0
  150.6516  136.0233  155.1988 C   0  0  0  0  0  0  0  0  0  0  0  0
  150.1195  137.3698  155.3197 N   0  0  0  0  0  0  0  0  0  0  0  0
  149.9268  138.3071  154.3269 C   0  0  0  0  0  0  0  0  0  0  0  0
  149.4227  139.4290  154.9197 C   0  0  0  0  0  0  0  0  0  0  0  0
  149.3387  139.0755  156.2954 C   0  0  0  0  0  0  0  0  0  0  0  0
  149.7523  137.8411  156.5313 N   0  0  0  0  0  0  0  0  0  0  0  0
  148.7919  134.8237  154.0902 N   0  0  0  0  0  0  0  0  0  0  0  0
  147.8487  133.9033  153.8409 C   0  0  0  0  0  0  0  0  0  0  0  0
  147.5347  133.0043  154.6216 O   0  0  0  0  0  0  0  0  0  0  0  0
  147.2777  134.0907  152.6431 N   0  0  0  0  0  0  0  0  0  0  0  0
  146.1955  133.2808  152.0923 C   0  0  2  0  0  0  0  0  0  0  0  0
  146.5295  132.8337  150.6553 C   0  0  0  0  0  0  0  0  0  0  0  0
  145.3745  132.0306  150.0316 C   0  0  0  0  0  0  0  0  0  0  0  0
  144.0356  132.7912  150.0851 C   0  0  2  0  0  0  0  0  0  0  0  0
  144.0625  133.8851  149.1895 O   0  0  0  0  0  0  0  0  0  0  0  0
  143.7193  133.2838  151.5100 C   0  0  0  0  0  0  0  0  0  0  0  0
  144.8827  134.0837  152.1222 C   0  0  0  0  0  0  0  0  0  0  0  0
  150.7268  133.6138  156.6060 H   0  0  0  0  0  0  0  0  0  0  0  0
  150.8529  133.2351  154.8902 H   0  0  0  0  0  0  0  0  0  0  0  0
  149.3932  132.8140  155.7839 H   0  0  0  0  0  0  0  0  0  0  0  0
  148.8981  135.2105  156.1531 H   0  0  0  0  0  0  0  0  0  0  0  0
  151.4019  135.8926  155.9795 H   0  0  0  0  0  0  0  0  0  0  0  0
  151.1759  135.9275  154.2462 H   0  0  0  0  0  0  0  0  0  0  0  0
  150.1685  138.1018  153.2945 H   0  0  0  0  0  0  0  0  0  0  0  0
  149.1574  140.3611  154.4436 H   0  0  0  0  0  0  0  0  0  0  0  0
  148.9915  139.6749  157.1238 H   0  0  0  0  0  0  0  0  0  0  0  0
  148.9707  135.5195  153.3814 H   0  0  0  0  0  0  0  0  0  0  0  0
  147.6033  134.8596  152.0759 H   0  0  0  0  0  0  0  0  0  0  0  0
  146.0616  132.3943  152.7156 H   0  0  0  0  0  0  0  0  0  0  0  0
  146.7425  133.7067  150.0367 H   0  0  0  0  0  0  0  0  0  0  0  0
  147.4357  132.2271  150.6513 H   0  0  0  0  0  0  0  0  0  0  0  0
  145.6175  131.7622  149.0029 H   0  0  0  0  0  0  0  0  0  0  0  0
  145.2693  131.0895  150.5730 H   0  0  0  0  0  0  0  0  0  0  0  0
  143.2358  132.1289  149.7523 H   0  0  0  0  0  0  0  0  0  0  0  0
  144.9453  133.9891  148.8686 H   0  0  0  0  0  0  0  0  0  0  0  0
  142.8097  133.8856  151.5095 H   0  0  0  0  0  0  0  0  0  0  0  0
  143.5117  132.4218  152.1453 H   0  0  0  0  0  0  0  0  0  0  0  0
  144.6360  134.3577  153.1487 H   0  0  0  0  0  0  0  0  0  0  0  0
  145.0078  135.0200  151.5759 H   0  0  0  0  0  0  0  0  0  0  0  0
  1  2  1  0  0  0  0
  1 20  1  0  0  0  0
  1 21  1  0  0  0  0
  1 22  1  0  0  0  0
  2  3  1  0  0  0  0
  2  9  1  0  0  0  0
  2 23  1  0  0  0  0
  3  4  1  0  0  0  0
  3 24  1  0  0  0  0
  3 25  1  0  0  0  0
  4  8  1  0  0  0  0
  4  5  1  0  0  0  0
  5  6  2  0  0  0  0
  5 26  1  0  0  0  0
  6  7  1  0  0  0  0
  6 27  1  0  0  0  0
  7  8  2  0  0  0  0
  7 28  1  0  0  0  0
  9 10  1  0  0  0  0
  9 29  1  0  0  0  0
 10 11  2  0  0  0  0
 10 12  1  0  0  0  0
 12 13  1  0  0  0  0
 12 30  1  0  0  0  0
 13 19  1  0  0  0  0
 13 14  1  0  0  0  0
 13 31  1  0  0  0  0
 14 15  1  0  0  0  0
 14 32  1  0  0  0  0
 14 33  1  0  0  0  0
 15 16  1  0  0  0  0
 15 34  1  0  0  0  0
 15 35  1  0  0  0  0
 16 17  1  0  0  0  0
 16 18  1  0  0  0  0
 16 36  1  0  0  0  0
 17 37  1  0  0  0  0
 18 19  1  0  0  0  0
 18 38  1  0  0  0  0
 18 39  1  0  0  0  0
 19 40  1  0  0  0  0
 19 41  1  0  0  0  0
M  END
> <s_m_source_file>
AV-unprocessed.smi

> <i_m_source_file_index>
1670

> <i_lp_mmshare_version>
43012

> <i_f3d_flags>
0

> <s_epik_input>
bjFbY0hdW2NIXVtjSF1uMVtDSDJdW0NAQEhdKFtDSDNdKVtOSF1DKD1PKVtOSF1bQ0BASF0yW0NIMl1bQ0gyXVtDQEBIXShbT0hdKVtDSDJdW0NIMl0y

> <s_epik_cmdline>
J2VwaWtfcHl0aG9uJywgJy1waCcsICc3LjAnLCAnLXRuJywgJzgnLCAnLW1hJywgJzIwMCcsICctbWV0YWxfYmluZGluZycsICctaW1hZScsICc8aW5maWxlLm1hZT4nLCAnLW9tYWUnLCAnPG91dGZpbGUubWFlPic=

> <r_lp_tautomer_probability>
1

> <r_epik_Ionization_Penalty>
7.33369e-05

> <r_epik_Ionization_Penalty_Charging>
0

> <r_epik_Ionization_Penalty_Neutral>
7.33369e-05

> <r_epik_State_Penalty>
-0

> <r_epik_Charging_Adjusted_Penalty>
0

> <i_epik_Tot_Q>
0

> <i_epik_Tot_abs_Q>
0

> <r_epik_Metal_State_Penalty>
-0

> <b_epik_Metal_Only>
0

> <s_lp_Force_Field>
OPLS_2005

> <r_lp_Energy>
7.95732

> <b_lp_Chiralities_Consistent>
1

> <s_lp_Variant>
AV-unprocessed.smi:1670-4

> <Gold.Version>
5.8.1

> <Gold.Id.Protein>
6NUR|6NUR_protein|mol2

> <Gold.PLP.Fitness>
42.3353

> <Gold.PLP.PLP>
-31.0428

> <Gold.PLP.part.hbond>
-3.9022

> <Gold.PLP.part.metal>
0.0000

> <Gold.PLP.part.buried>
-2.9768

> <Gold.PLP.part.nonpolar>
-24.7418

> <Gold.PLP.part.repulsive>
0.0429

> <Gold.PLP.ligand.clash>
0.0000

> <Gold.PLP.ligand.torsion>
0.5075

> <Gold.PLP.Chemscore.Hbond>
2.8640

> <Gold.PLP.Chemscore.CHOScore>
1.2338

> <Gold.PLP.Chemscore.Metal>
0.0000

> <Gold.Chemscore.Hbonds>
donor molecule, donor type, donor heavy atom, donor atom, acceptor molecule, acceptor atom, score
      L1  H     9    29       P1  7948  1.00
      L1  H    12    30       P1  7948  0.93
      L1  H    17    37       P1  7921  0.96
      L1  C     5    26       P1  7948  0.73
      L1  C     5    26       P1  7957  0.03

> <Gold.PLP.Chemscore.Internal.Correction>
0.0141

> <Gold.Rescore>
     Score         DG    S(hbond)    S(metal)    S(lipo)     H(rot)  DE(clash)    DE(int)     intcor
     15.70     -17.46       2.61        0.00      76.51       2.22       0.03       1.73       ----

> <Gold.Chemscore.Fitness>
15.7026

> <Gold.Chemscore.DG>
-17.4625

> <Gold.Chemscore.ZeroCoef>
-5.4800

> <Gold.Chemscore.Hbond>
2.6110

> <Gold.Chemscore.Metal>
0.0000

> <Gold.Chemscore.Lipo>
76.5054

> <Gold.Chemscore.Internal_Hbond>
0.0000

> <Gold.Chemscore.DEClash>
0.0306

> <Gold.Chemscore.DEInternal>
1.7293

> <Gold.Chemscore.Rot>
2.2224

> <Gold.Chemscore.Internal.Correction>
   9.000000E+99

> <Gold.Chemscore.Hbonds>
donor molecule, donor type, donor heavy atom, donor atom, acceptor molecule, acceptor atom, score
      L1  H     9    29       P1  7948  0.74
      L1  H    12    30       P1  7948  0.73
      L1  H    17    37       P1  7921  0.91

> <Gold.Chemscore.Hbond.Weighted>
-8.7207

> <Gold.Chemscore.Metal.Weighted>
-0.0000

> <Gold.Chemscore.Lipo.Weighted>
-8.9511

> <Gold.Chemscore.Internal_Hbond.Weighted>
0.0000

> <Gold.Chemscore.DEClash.Weighted>
0.0306

> <Gold.Chemscore.DEInternal.Weighted>
1.7293

> <Gold.Chemscore.Rot.Weighted>
5.6893

> <Gold.Chemscore.Internal.Correction.Weighted>
   9.000000E+99

> <Gold.Protein.RotatedTorsions>
[ 6907 6896 6895 6894 ] final  132.48 input  -60.11 | X-H torsion
[ 7974 7965 7964 7962 ] final   67.04 input  175.53 | X-H torsion
[ 8008 7997 7996 7995 ] final  -25.93 input   59.86 | X-H torsion
[ 10167 10162 10161 10158 ] final   95.94 input  -65.29 | X-H torsion
[ 10718 10713 10712 10709 ] final  138.71 input   66.30 | X-H torsion
[ 10763 10752 10751 10750 ] final   58.46 input  -60.55 | X-H torsion
[ 11005 11000 10999 10996 ] final  -51.17 input  -57.11 | X-H torsion

> <Gold.Protein.ActiveResidues>
 VAL166  LYS551  ARG553  GLY616  TRP617  ASP618  TYR619  PRO620  LYS621  CYS622 
 ASP623  PHE694  ASN695  SER759  ASP760  ASP761  ALA762  ILE779  LEU786  VAL792 
 PHE793  MET794  SER795  GLU796  ALA797  LYS798  CYS799  TRP800  GLU811  SER814 

> <Gold.Protein.RotatedAtoms>
  152.3319  133.5968  159.5815 H   0  0  0  0  0  0  0  0  0  0  0  0  # atno 6907 bound_to 6896
  150.7428  133.9855  159.3599 H   0  0  0  0  0  0  0  0  0  0  0  0  # atno 6908 bound_to 6896
  151.7728  135.0782  160.0413 H   0  0  0  0  0  0  0  0  0  0  0  0  # atno 6909 bound_to 6896
  145.8194  139.3076  143.1052 H   0  0  0  0  0  0  0  0  0  0  0  0  # atno 7974 bound_to 7965
  154.4451  140.1913  156.0695 H   0  0  0  0  0  0  0  0  0  0  0  0  # atno 8008 bound_to 7997
  156.0522  140.3307  155.7337 H   0  0  0  0  0  0  0  0  0  0  0  0  # atno 8009 bound_to 7997
  155.5540  140.0597  157.2834 H   0  0  0  0  0  0  0  0  0  0  0  0  # atno 8010 bound_to 7997
  139.7941  144.6840  150.9852 H   0  0  0  0  0  0  0  0  0  0  0  0  # atno 10167 bound_to 10162
  157.4223  131.1040  151.0340 H   0  0  0  0  0  0  0  0  0  0  0  0  # atno 10718 bound_to 10713
  152.9871  135.5606  154.5556 H   0  0  0  0  0  0  0  0  0  0  0  0  # atno 10763 bound_to 10752
  154.4984  135.2796  155.1442 H   0  0  0  0  0  0  0  0  0  0  0  0  # atno 10764 bound_to 10752
  154.2883  135.6331  153.5428 H   0  0  0  0  0  0  0  0  0  0  0  0  # atno 10765 bound_to 10752
  141.0856  133.6643  156.3839 H   0  0  0  0  0  0  0  0  0  0  0  0  # atno 11005 bound_to 11000
  145.9691  140.8774  143.0171 LP  0  0  0  0  0  0  0  0  0  0  0  0  # atno 17320 bound_to 7965
  144.6749  140.1920  143.7395 LP  0  0  0  0  0  0  0  0  0  0  0  0  # atno 17321 bound_to 7965
  140.7820  143.4349  151.0638 LP  0  0  0  0  0  0  0  0  0  0  0  0  # atno 17342 bound_to 10162
  139.8025  143.8064  152.3164 LP  0  0  0  0  0  0  0  0  0  0  0  0  # atno 17343 bound_to 10162
  157.1266  130.6084  149.5518 LP  0  0  0  0  0  0  0  0  0  0  0  0  # atno 17370 bound_to 10713
  155.9885  130.4928  150.7172 LP  0  0  0  0  0  0  0  0  0  0  0  0  # atno 17371 bound_to 10713
  140.5369  134.6158  157.5368 LP  0  0  0  0  0  0  0  0  0  0  0  0  # atno 17394 bound_to 11000
  139.9674  134.7349  156.0109 LP  0  0  0  0  0  0  0  0  0  0  0  0  # atno 17395 bound_to 11000

$$$$
