#       Name:                AV-unprocessed.smi:2819
#       Creating user name   scv26
#       Creation time:       Fri Mar 27 15:29:27 2020


#       File generated by GOLD software.
#

@<TRIPOS>MOLECULE
AV-unprocessed.smi:2819
    56    57     1
SMALL
NO_CHARGES


@<TRIPOS>ATOM
      1 ****        -2.7369   4.2435  -1.3005 C.3            1 S1                 0.0000
      2 ****        -4.0977   3.7233  -1.2122 N.pl3          1 S1                 0.0000
      3 ****        -5.2334   4.6350  -1.2713 C.3            1 S1                 0.0000
      4 ****        -4.3112   2.3414  -1.0130 C.ar           1 S1                 0.0000
      5 ****        -5.6049   1.7824  -0.9419 C.ar           1 S1                 0.0000
      6 ****        -5.6973   0.3940  -0.7414 C.ar           1 S1                 0.0000
      7 ****        -4.5779  -0.3593  -0.6214 N.pl3          1 S1                 1.0000
      8 ****        -3.3696   0.2200  -0.6965 C.ar           1 S1                 0.0000
      9 ****        -2.2771  -0.6095  -0.5592 N.am           1 S1                 0.0000
     10 ****        -0.9597  -0.3328  -0.6147 C.2            1 S1                 0.0000
     11 ****        -0.4734   0.7764  -0.8376 O.2            1 S1                 0.0000
     12 ****        -0.2189  -1.4300  -0.3935 N.am           1 S1                 0.0000
     13 ****         1.2433  -1.4863  -0.4132 C.3            1 S1                 0.0000
     14 ****         1.8915  -1.4551   1.0047 C.3            1 S1                 0.0000
     15 ****         1.4944  -0.1590   1.7551 C.3            1 S1                 0.0000
     16 ****         1.3417  -2.6277   1.8551 C.3            1 S1                 0.0000
     17 ****         3.3947  -1.5471   0.9226 N.4            1 S1                 1.0000
     18 ****         3.9380  -2.8200   0.3683 C.3            1 S1                 0.0000
     19 ****         5.4690  -2.8633   0.5073 C.3            1 S1                 0.0000
     20 ****         6.0405  -1.7440  -0.1540 O.3            1 S1                 0.0000
     21 ****         5.6088  -0.5195   0.4212 C.3            1 S1                 0.0000
     22 ****         4.0827  -0.3906   0.2802 C.3            1 S1                 0.0000
     23 ****        -3.2281   1.5411  -0.8879 N.ar           1 S1                 0.0000
     24 ****        -2.1976   4.0660  -0.3697 H              1 S1                 0.0000
     25 ****        -2.7329   5.3169  -1.4904 H              1 S1                 0.0000
     26 ****        -2.1932   3.7606  -2.1133 H              1 S1                 0.0000
     27 ****        -5.8256   4.5693  -0.3582 H              1 S1                 0.0000
     28 ****        -5.8733   4.3968  -2.1213 H              1 S1                 0.0000
     29 ****        -4.9068   5.6693  -1.3807 H              1 S1                 0.0000
     30 ****        -6.5027   2.3749  -1.0366 H              1 S1                 0.0000
     31 ****        -6.6337  -0.1401  -0.6725 H              1 S1                 0.0000
     32 ****        -2.5050  -1.5768  -0.3844 H              1 S1                 0.0000
     33 ****        -0.6992  -2.3002  -0.2148 H              1 S1                 0.0000
     34 ****         1.5013  -2.4115  -0.9273 H              1 S1                 0.0000
     35 ****         1.6319  -0.6829  -1.0393 H              1 S1                 0.0000
     36 ****         0.4379  -0.1532   2.0245 H              1 S1                 0.0000
     37 ****         1.6578   0.7352   1.1538 H              1 S1                 0.0000
     38 ****         2.0574  -0.0483   2.6827 H              1 S1                 0.0000
     39 ****         0.2892  -2.4875   2.1036 H              1 S1                 0.0000
     40 ****         1.8816  -2.7225   2.7981 H              1 S1                 0.0000
     41 ****         1.4040  -3.5833   1.3350 H              1 S1                 0.0000
     42 ****         3.5338  -3.6878   0.8855 H              1 S1                 0.0000
     43 ****         3.6722  -2.9186  -0.6842 H              1 S1                 0.0000
     44 ****         5.7666  -2.8750   1.5571 H              1 S1                 0.0000
     45 ****         5.8603  -3.7753   0.0559 H              1 S1                 0.0000
     46 ****         5.9103  -0.4668   1.4687 H              1 S1                 0.0000
     47 ****         6.1039   0.3042  -0.0935 H              1 S1                 0.0000
     48 ****         3.8241  -0.3356  -0.7772 H              1 S1                 0.0000
     49 ****         3.7890   0.5542   0.7334 H              1 S1                 0.0000
     50 ****        -4.6694  -1.3650  -0.4753 H              1 S1                 0.0000
     51 ****         3.7006  -1.5296   1.8852 H              1 S1                 0.0000
     52 ****        -1.0716   1.5620  -0.9956 LP             1 S1                 0.0000
     53 ****         0.5197   0.8915  -0.8607 LP             1 S1                 0.0000
     54 ****         5.7703  -1.7632  -1.1167 LP             1 S1                 0.0000
     55 ****         7.0365  -1.8009  -0.0861 LP             1 S1                 0.0000
     56 ****        -2.3116   1.9380  -0.9386 LP             1 S1                 0.0000
@<TRIPOS>BOND
    1    1    2 1     
    2    1   24 1     
    3    1   25 1     
    4    1   26 1     
    5    2    3 1     
    6    2    4 1     
    7    3   27 1     
    8    3   28 1     
    9    3   29 1     
   10    4   23 ar    
   11    4    5 ar    
   12    5    6 ar    
   13    5   30 1     
   14    6    7 ar    
   15    6   31 1     
   16    7    8 ar    
   17    7   50 1     
   18    8    9 1     
   19    8   23 ar    
   20    9   10 am    
   21    9   32 1     
   22   10   11 2     
   23   10   12 am    
   24   12   13 1     
   25   12   33 1     
   26   13   14 1     
   27   13   34 1     
   28   13   35 1     
   29   14   15 1     
   30   14   16 1     
   31   14   17 1     
   32   15   36 1     
   33   15   37 1     
   34   15   38 1     
   35   16   39 1     
   36   16   40 1     
   37   16   41 1     
   38   17   22 1     
   39   17   18 1     
   40   17   51 1     
   41   18   19 1     
   42   18   42 1     
   43   18   43 1     
   44   19   20 1     
   45   19   44 1     
   46   19   45 1     
   47   20   21 1     
   48   21   22 1     
   49   21   46 1     
   50   21   47 1     
   51   22   48 1     
   52   22   49 1     
   53   11   52 1     
   54   11   53 1     
   55   20   54 1     
   56   20   55 1     
   57   23   56 1     
@<TRIPOS>SUBSTRUCTURE
      1 S1             1
@<TRIPOS>SET
LONE_PAIRS      STATIC     ATOMS    <user>   **** ""
5 52 53 54 55 56
DONOR_HYDROGENS      STATIC     ATOMS    <user>   **** ""
4 50 32 33 51
ATOM$BLUE        STATIC     ATOMS    COLORGROUP SYSTEM
5 52 53 54 55 56
ATOM$RED        STATIC     ATOMS    COLORGROUP SYSTEM
4 50 32 33 51
