AV-unprocessed.smi:221|AV-procd|sdf|1690|dock8
  -GOLD-   2262020133D 1   1.00000     0.00000
 Structure written by MMmdl.
 50 53  0  0  0  0  0  0  0  0  1 V2000
  150.1505  137.8012  153.6815 N   0  0  0  0  0  0  0  0  0  0  0  0
  150.2318  139.0292  154.1990 C   0  0  0  0  0  0  0  0  0  0  0  0
  151.2731  139.4648  154.6875 O   0  0  0  0  0  0  0  0  0  0  0  0
  148.9619  139.8905  154.1378 C   0  0  2  0  0  0  0  0  0  0  0  0
  149.1335  141.2155  154.8925 C   0  0  0  0  0  0  0  0  0  0  0  0
  147.7002  141.6089  155.2313 C   0  0  1  0  0  0  0  0  0  0  0  0
  147.1388  142.2018  154.1763 F   0  0  0  0  0  0  0  0  0  0  0  0
  147.0174  140.2633  155.4871 C   0  0  0  0  0  0  0  0  0  0  0  0
  147.8234  139.2543  154.8042 N   0  0  0  0  0  0  0  0  0  0  0  0
  147.1339  138.3549  154.0682 C   0  0  0  0  0  0  0  0  0  0  0  0
  146.5099  138.8125  152.9559 N   0  0  0  0  0  0  0  0  0  0  0  0
  145.8117  137.9699  152.1882 C   0  0  0  0  0  0  0  0  0  0  0  0
  145.6162  136.6590  152.3499 N   0  0  0  0  0  0  0  0  0  0  0  0
  146.2440  136.1977  153.4696 C   0  0  0  0  0  0  0  0  0  0  0  0
  147.0181  136.9709  154.3791 C   0  0  0  0  0  0  0  0  0  0  0  0
  147.4995  136.1619  155.4013 N   0  0  0  0  0  0  0  0  0  0  0  0
  147.0359  134.9766  155.1129 C   0  0  0  0  0  0  0  0  0  0  0  0
  146.2681  134.9084  153.9726 N   0  0  0  0  0  0  0  0  0  0  0  0
  145.6338  133.7202  153.4290 C   0  0  0  0  0  0  0  0  0  0  0  0
  146.6271  132.7814  152.7005 C   0  0  1  0  0  0  0  0  0  0  0  0
  147.1625  131.6558  153.6185 C   0  0  0  0  0  0  0  0  0  0  0  0
  148.2418  130.9687  153.0191 O   0  0  0  0  0  0  0  0  0  0  0  0
  146.0291  132.2330  151.3799 C   0  0  2  0  0  0  0  0  0  0  0  0
  145.5136  133.2920  150.4211 C   0  0  0  0  0  0  0  0  0  0  0  0
  144.6023  132.4818  149.5062 C   0  0  0  0  0  0  0  0  0  0  0  0
  144.0568  131.4526  150.3232 O   0  0  0  0  0  0  0  0  0  0  0  0
  144.7673  131.3809  151.5557 C   0  0  0  0  0  0  0  0  0  0  0  0
  148.7158  140.1015  153.0953 H   0  0  0  0  0  0  0  0  0  0  0  0
  147.6256  142.2977  156.0730 H   0  0  0  0  0  0  0  0  0  0  0  0
  150.9591  137.1967  153.6990 H   0  0  0  0  0  0  0  0  0  0  0  0
  149.2832  137.4805  153.2760 H   0  0  0  0  0  0  0  0  0  0  0  0
  149.6968  141.0683  155.8160 H   0  0  0  0  0  0  0  0  0  0  0  0
  149.6496  141.9743  154.3035 H   0  0  0  0  0  0  0  0  0  0  0  0
  147.0393  140.0321  156.5524 H   0  0  0  0  0  0  0  0  0  0  0  0
  145.9693  140.2759  155.1823 H   0  0  0  0  0  0  0  0  0  0  0  0
  145.3429  138.4091  151.3201 H   0  0  0  0  0  0  0  0  0  0  0  0
  147.2395  134.1135  155.7299 H   0  0  0  0  0  0  0  0  0  0  0  0
  145.1316  133.1884  154.2379 H   0  0  0  0  0  0  0  0  0  0  0  0
  144.8493  134.0524  152.7490 H   0  0  0  0  0  0  0  0  0  0  0  0
  147.4914  133.3895  152.4294 H   0  0  0  0  0  0  0  0  0  0  0  0
  147.4950  132.0592  154.5749 H   0  0  0  0  0  0  0  0  0  0  0  0
  146.3782  130.9368  153.8554 H   0  0  0  0  0  0  0  0  0  0  0  0
  148.2501  131.1683  152.0954 H   0  0  0  0  0  0  0  0  0  0  0  0
  146.7781  131.6336  150.8598 H   0  0  0  0  0  0  0  0  0  0  0  0
  144.9327  134.0439  150.9573 H   0  0  0  0  0  0  0  0  0  0  0  0
  146.3071  133.7998  149.8721 H   0  0  0  0  0  0  0  0  0  0  0  0
  143.8195  133.0891  149.0516 H   0  0  0  0  0  0  0  0  0  0  0  0
  145.1814  132.0197  148.7059 H   0  0  0  0  0  0  0  0  0  0  0  0
  144.9956  130.3467  151.8142 H   0  0  0  0  0  0  0  0  0  0  0  0
  144.1289  131.7900  152.3399 H   0  0  0  0  0  0  0  0  0  0  0  0
  1  2  1  0  0  0  0
  1 30  1  0  0  0  0
  1 31  1  0  0  0  0
  2  3  2  0  0  0  0
  2  4  1  0  0  0  0
  4 28  1  0  0  0  0
  4  9  1  0  0  0  0
  4  5  1  0  0  0  0
  5  6  1  0  0  0  0
  5 32  1  0  0  0  0
  5 33  1  0  0  0  0
  6 29  1  0  0  0  0
  6  7  1  0  0  0  0
  6  8  1  0  0  0  0
  8  9  1  0  0  0  0
  8 34  1  0  0  0  0
  8 35  1  0  0  0  0
  9 10  1  0  0  0  0
 10 15  1  0  0  0  0
 10 11  2  0  0  0  0
 11 12  1  0  0  0  0
 12 13  2  0  0  0  0
 12 36  1  0  0  0  0
 13 14  1  0  0  0  0
 14 18  1  0  0  0  0
 14 15  2  0  0  0  0
 15 16  1  0  0  0  0
 16 17  2  0  0  0  0
 17 18  1  0  0  0  0
 17 37  1  0  0  0  0
 18 19  1  0  0  0  0
 19 20  1  0  0  0  0
 19 38  1  0  0  0  0
 19 39  1  0  0  0  0
 20 21  1  0  0  0  0
 20 23  1  0  0  0  0
 20 40  1  0  0  0  0
 21 22  1  0  0  0  0
 21 41  1  0  0  0  0
 21 42  1  0  0  0  0
 22 43  1  0  0  0  0
 23 27  1  0  0  0  0
 23 24  1  0  0  0  0
 23 44  1  0  0  0  0
 24 25  1  0  0  0  0
 24 45  1  0  0  0  0
 24 46  1  0  0  0  0
 25 26  1  0  0  0  0
 25 47  1  0  0  0  0
 25 48  1  0  0  0  0
 26 27  1  0  0  0  0
 27 49  1  0  0  0  0
 27 50  1  0  0  0  0
M  END
> <s_m_source_file>
AV-unprocessed.smi

> <i_m_source_file_index>
221

> <i_lp_mmshare_version>
43012

> <i_f3d_flags>
0

> <s_epik_input>
W05IMl1DKD1PKVtDQEBIXTFbQ0gyXVtDQEBIXShGKVtDSDJdTjFjKG5bY0hdbjIpYyhjMjMpbltjSF1uM1tDSDJdW0NASF0oW0NIMl1bT0hdKVtDQEBIXTRbQ0gyXVtDSDJdT1tDSDJdNA==

> <s_epik_cmdline>
J2VwaWtfcHl0aG9uJywgJy1waCcsICc3LjAnLCAnLXRuJywgJzgnLCAnLW1hJywgJzIwMCcsICctbWV0YWxfYmluZGluZycsICctaW1hZScsICc8aW5maWxlLm1hZT4nLCAnLW9tYWUnLCAnPG91dGZpbGUubWFlPic=

> <r_lp_tautomer_probability>
1

> <r_epik_Ionization_Penalty>
0.000818822

> <r_epik_Ionization_Penalty_Charging>
0

> <r_epik_Ionization_Penalty_Neutral>
0.000818822

> <r_epik_State_Penalty>
0.000440551

> <r_epik_Charging_Adjusted_Penalty>
0.000440551

> <i_epik_Tot_Q>
0

> <i_epik_Tot_abs_Q>
0

> <r_epik_Metal_State_Penalty>
-0

> <b_epik_Metal_Only>
0

> <s_lp_Force_Field>
OPLS_2005

> <r_lp_Energy>
51.1408

> <b_lp_Chiralities_Consistent>
1

> <s_lp_Variant>
AV-unprocessed.smi:221-5

> <Gold.Version>
5.8.1

> <Gold.Id.Protein>
6NUR|6NUR_protein|mol2

> <Gold.PLP.Fitness>
46.1381

> <Gold.PLP.PLP>
-35.5051

> <Gold.PLP.part.hbond>
-4.9755

> <Gold.PLP.part.metal>
0.0000

> <Gold.PLP.part.buried>
-3.7701

> <Gold.PLP.part.nonpolar>
-29.1685

> <Gold.PLP.part.repulsive>
0.8710

> <Gold.PLP.ligand.clash>
0.0000

> <Gold.PLP.ligand.torsion>
0.9310

> <Gold.PLP.Chemscore.Hbond>
2.8753

> <Gold.PLP.Chemscore.CHOScore>
1.1876

> <Gold.PLP.Chemscore.Metal>
0.0000

> <Gold.Chemscore.Hbonds>
donor molecule, donor type, donor heavy atom, donor atom, acceptor molecule, acceptor atom, score
      L1  H     1    31       P1  7948  0.58
      L1  H    22    43       P1 10747  0.98
      P1  H  7989  7998       L1     3  1.00
      P1  H 10785 10796       L1    26  0.35
      L1  C    12    36       P1 10171  1.00
      L1  C    12    36       P1 10175  0.08

> <Gold.PLP.Chemscore.Internal.Correction>
0.3063

> <Gold.Rescore>
     Score         DG    S(hbond)    S(metal)    S(lipo)     H(rot)  DE(clash)    DE(int)     intcor
     10.13     -12.19       2.50        0.00      67.34       3.72       0.48       1.58       ----

> <Gold.Chemscore.Fitness>
10.1312

> <Gold.Chemscore.DG>
-12.1883

> <Gold.Chemscore.ZeroCoef>
-5.4800

> <Gold.Chemscore.Hbond>
2.5009

> <Gold.Chemscore.Metal>
0.0000

> <Gold.Chemscore.Lipo>
67.3429

> <Gold.Chemscore.Internal_Hbond>
0.0000

> <Gold.Chemscore.DEClash>
0.4755

> <Gold.Chemscore.DEInternal>
1.5816

> <Gold.Chemscore.Rot>
3.7202

> <Gold.Chemscore.Internal.Correction>
   9.000000E+99

> <Gold.Chemscore.Hbonds>
donor molecule, donor type, donor heavy atom, donor atom, acceptor molecule, acceptor atom, score
      L1  H     1    31       P1  7948  0.57
      L1  H    22    43       P1 10747  0.91
      P1  H  7989  7998       L1     3  0.26
      P1  H 10785 10796       L1    26  0.09

> <Gold.Chemscore.Hbond.Weighted>
-8.3530

> <Gold.Chemscore.Metal.Weighted>
-0.0000

> <Gold.Chemscore.Lipo.Weighted>
-7.8791

> <Gold.Chemscore.Internal_Hbond.Weighted>
0.0000

> <Gold.Chemscore.DEClash.Weighted>
0.4755

> <Gold.Chemscore.DEInternal.Weighted>
1.5816

> <Gold.Chemscore.Rot.Weighted>
9.5237

> <Gold.Chemscore.Internal.Correction.Weighted>
   9.000000E+99

> <Gold.Protein.RotatedTorsions>
[ 6907 6896 6895 6894 ] final   -1.06 input  -60.11 | X-H torsion
[ 7974 7965 7964 7962 ] final   19.37 input  175.53 | X-H torsion
[ 8008 7997 7996 7995 ] final  -71.90 input   59.86 | X-H torsion
[ 10167 10162 10161 10158 ] final  -29.88 input  -65.29 | X-H torsion
[ 10718 10713 10712 10709 ] final   13.99 input   66.30 | X-H torsion
[ 10763 10752 10751 10750 ] final -162.53 input  -60.55 | X-H torsion
[ 11005 11000 10999 10996 ] final   29.98 input  -57.11 | X-H torsion

> <Gold.Protein.ActiveResidues>
 VAL166  LYS551  ARG553  GLY616  TRP617  ASP618  TYR619  PRO620  LYS621  CYS622 
 ASP623  PHE694  ASN695  SER759  ASP760  ASP761  ALA762  ILE779  LEU786  VAL792 
 PHE793  MET794  SER795  GLU796  ALA797  LYS798  CYS799  TRP800  GLU811  SER814 

> <Gold.Protein.RotatedAtoms>
  151.5521  135.1067  159.9952 H   0  0  0  0  0  0  0  0  0  0  0  0  # atno 6907 bound_to 6896
  152.4486  133.7581  159.6742 H   0  0  0  0  0  0  0  0  0  0  0  0  # atno 6908 bound_to 6896
  150.8408  133.7871  159.3085 H   0  0  0  0  0  0  0  0  0  0  0  0  # atno 6909 bound_to 6896
  146.2152  139.8323  142.8657 H   0  0  0  0  0  0  0  0  0  0  0  0  # atno 7974 bound_to 7965
  154.5124  140.0807  156.8015 H   0  0  0  0  0  0  0  0  0  0  0  0  # atno 8008 bound_to 7997
  155.3756  140.3425  155.4226 H   0  0  0  0  0  0  0  0  0  0  0  0  # atno 8009 bound_to 7997
  156.1588  140.1582  156.8634 H   0  0  0  0  0  0  0  0  0  0  0  0  # atno 8010 bound_to 7997
  140.7256  143.3893  151.1458 H   0  0  0  0  0  0  0  0  0  0  0  0  # atno 10167 bound_to 10162
  157.0327  130.6199  149.5738 H   0  0  0  0  0  0  0  0  0  0  0  0  # atno 10718 bound_to 10713
  154.7206  135.3025  154.9054 H   0  0  0  0  0  0  0  0  0  0  0  0  # atno 10763 bound_to 10752
  153.9927  135.6716  153.4759 H   0  0  0  0  0  0  0  0  0  0  0  0  # atno 10764 bound_to 10752
  153.0830  135.4999  154.8458 H   0  0  0  0  0  0  0  0  0  0  0  0  # atno 10765 bound_to 10752
  140.2992  134.2776  155.7757 H   0  0  0  0  0  0  0  0  0  0  0  0  # atno 11005 bound_to 11000
  145.2985  141.0187  143.3622 LP  0  0  0  0  0  0  0  0  0  0  0  0  # atno 17320 bound_to 7965
  144.9024  139.4632  143.6626 LP  0  0  0  0  0  0  0  0  0  0  0  0  # atno 17321 bound_to 7965
  139.7496  143.8800  152.3073 LP  0  0  0  0  0  0  0  0  0  0  0  0  # atno 17342 bound_to 10162
  139.8648  144.7098  150.9056 LP  0  0  0  0  0  0  0  0  0  0  0  0  # atno 17343 bound_to 10162
  156.0064  130.5151  150.7844 LP  0  0  0  0  0  0  0  0  0  0  0  0  # atno 17370 bound_to 10713
  157.5165  131.0929  151.0132 LP  0  0  0  0  0  0  0  0  0  0  0  0  # atno 17371 bound_to 10713
  141.2131  133.7635  156.9742 LP  0  0  0  0  0  0  0  0  0  0  0  0  # atno 17394 bound_to 11000
  140.1124  134.9468  157.2085 LP  0  0  0  0  0  0  0  0  0  0  0  0  # atno 17395 bound_to 11000

$$$$
