AV-unprocessed.smi:260|AV-procd|sdf|1975|dock10
  -GOLD-   2262021143D 1   1.00000     0.00000
 Structure written by MMmdl.
 53 56  0  0  0  0  0  0  0  0  1 V2000
  142.2567  138.4061  152.3161 C   0  0  0  0  0  0  0  0  0  0  0  0
  143.5713  137.8102  152.1340 N   0  0  0  0  0  0  0  0  0  0  0  0
  144.2654  137.1896  153.1017 C   0  0  0  0  0  0  0  0  0  0  0  0
  143.8225  137.0761  154.2461 O   0  0  0  0  0  0  0  0  0  0  0  0
  145.6627  136.6104  152.7438 C   0  0  1  0  0  0  0  0  0  0  0  0
  145.7141  135.0716  152.8915 C   0  0  0  0  0  0  0  0  0  0  0  0
  146.0711  137.0545  151.3237 C   0  0  0  0  0  0  0  0  0  0  0  0
  146.7105  138.4333  151.5034 C   0  0  0  0  0  0  0  0  0  0  0  0
  147.2555  138.4183  152.8496 N   0  0  0  0  0  0  0  0  0  0  0  0
  147.8176  139.5038  153.4422 C   0  0  0  0  0  0  0  0  0  0  0  0
  147.4137  140.7368  153.0371 N   0  0  0  0  0  0  0  0  0  0  0  0
  147.9320  141.8382  153.5863 C   0  0  0  0  0  0  0  0  0  0  0  0
  148.8543  141.9367  154.5438 N   0  0  0  0  0  0  0  0  0  0  0  0
  149.2642  140.7055  154.9623 C   0  0  0  0  0  0  0  0  0  0  0  0
  148.8007  139.4484  154.4756 C   0  0  0  0  0  0  0  0  0  0  0  0
  149.4480  138.4225  155.1566 N   0  0  0  0  0  0  0  0  0  0  0  0
  150.2459  139.0338  155.9873 C   0  0  0  0  0  0  0  0  0  0  0  0
  150.2144  140.4076  155.9238 N   0  0  0  0  0  0  0  0  0  0  0  0
  150.9915  141.3323  156.7312 C   0  0  0  0  0  0  0  0  0  0  0  0
  150.1902  141.9763  157.8861 C   0  0  2  0  0  0  0  0  0  0  0  0
  149.0867  142.6142  157.2755 O   0  0  0  0  0  0  0  0  0  0  0  0
  150.9452  143.0527  158.7003 C   0  0  2  0  0  0  0  0  0  0  0  0
  151.5952  144.1795  157.8924 C   0  0  0  0  0  0  0  0  0  0  0  0
  152.7362  144.6557  158.7760 C   0  0  0  0  0  0  0  0  0  0  0  0
  152.9187  143.5199  159.7829 C   0  0  0  0  0  0  0  0  0  0  0  0
  152.0929  142.4697  159.3016 O   0  0  0  0  0  0  0  0  0  0  0  0
  146.7579  137.2755  153.6092 C   0  0  0  0  0  0  0  0  0  0  0  0
  141.9016  138.8171  151.3711 H   0  0  0  0  0  0  0  0  0  0  0  0
  142.2955  139.2146  153.0469 H   0  0  0  0  0  0  0  0  0  0  0  0
  141.5349  137.6625  152.6562 H   0  0  0  0  0  0  0  0  0  0  0  0
  143.9840  137.8731  151.2147 H   0  0  0  0  0  0  0  0  0  0  0  0
  146.7141  134.6894  152.6839 H   0  0  0  0  0  0  0  0  0  0  0  0
  145.0351  134.5759  152.1964 H   0  0  0  0  0  0  0  0  0  0  0  0
  145.4543  134.7562  153.9029 H   0  0  0  0  0  0  0  0  0  0  0  0
  146.8144  136.3673  150.9174 H   0  0  0  0  0  0  0  0  0  0  0  0
  145.2386  137.0784  150.6191 H   0  0  0  0  0  0  0  0  0  0  0  0
  147.4854  138.6118  150.7576 H   0  0  0  0  0  0  0  0  0  0  0  0
  145.9604  139.2204  151.4199 H   0  0  0  0  0  0  0  0  0  0  0  0
  147.5541  142.7742  153.2021 H   0  0  0  0  0  0  0  0  0  0  0  0
  150.8888  138.4946  156.6676 H   0  0  0  0  0  0  0  0  0  0  0  0
  151.8725  140.8202  157.1205 H   0  0  0  0  0  0  0  0  0  0  0  0
  151.3592  142.1067  156.0564 H   0  0  0  0  0  0  0  0  0  0  0  0
  149.8075  141.2022  158.5523 H   0  0  0  0  0  0  0  0  0  0  0  0
  149.3983  143.3812  156.8200 H   0  0  0  0  0  0  0  0  0  0  0  0
  150.3021  143.4797  159.4729 H   0  0  0  0  0  0  0  0  0  0  0  0
  152.0023  143.7893  156.9589 H   0  0  0  0  0  0  0  0  0  0  0  0
  150.8991  144.9825  157.6515 H   0  0  0  0  0  0  0  0  0  0  0  0
  153.6389  144.8290  158.1891 H   0  0  0  0  0  0  0  0  0  0  0  0
  152.4838  145.5851  159.2880 H   0  0  0  0  0  0  0  0  0  0  0  0
  153.9560  143.1957  159.8669 H   0  0  0  0  0  0  0  0  0  0  0  0
  152.5749  143.8243  160.7726 H   0  0  0  0  0  0  0  0  0  0  0  0
  146.3675  137.5754  154.5832 H   0  0  0  0  0  0  0  0  0  0  0  0
  147.5894  136.5937  153.7901 H   0  0  0  0  0  0  0  0  0  0  0  0
  1  2  1  0  0  0  0
  1 28  1  0  0  0  0
  1 29  1  0  0  0  0
  1 30  1  0  0  0  0
  2  3  1  0  0  0  0
  2 31  1  0  0  0  0
  3  4  2  0  0  0  0
  3  5  1  0  0  0  0
  5 27  1  0  0  0  0
  5  6  1  0  0  0  0
  5  7  1  0  0  0  0
  6 32  1  0  0  0  0
  6 33  1  0  0  0  0
  6 34  1  0  0  0  0
  7  8  1  0  0  0  0
  7 35  1  0  0  0  0
  7 36  1  0  0  0  0
  8  9  1  0  0  0  0
  8 37  1  0  0  0  0
  8 38  1  0  0  0  0
  9 10  1  0  0  0  0
  9 27  1  0  0  0  0
 10 15  1  0  0  0  0
 10 11  2  0  0  0  0
 11 12  1  0  0  0  0
 12 13  2  0  0  0  0
 12 39  1  0  0  0  0
 13 14  1  0  0  0  0
 14 18  1  0  0  0  0
 14 15  2  0  0  0  0
 15 16  1  0  0  0  0
 16 17  2  0  0  0  0
 17 18  1  0  0  0  0
 17 40  1  0  0  0  0
 18 19  1  0  0  0  0
 19 20  1  0  0  0  0
 19 41  1  0  0  0  0
 19 42  1  0  0  0  0
 20 21  1  0  0  0  0
 20 22  1  0  0  0  0
 20 43  1  0  0  0  0
 21 44  1  0  0  0  0
 22 26  1  0  0  0  0
 22 23  1  0  0  0  0
 22 45  1  0  0  0  0
 23 24  1  0  0  0  0
 23 46  1  0  0  0  0
 23 47  1  0  0  0  0
 24 25  1  0  0  0  0
 24 48  1  0  0  0  0
 24 49  1  0  0  0  0
 25 26  1  0  0  0  0
 25 50  1  0  0  0  0
 25 51  1  0  0  0  0
 27 52  1  0  0  0  0
 27 53  1  0  0  0  0
M  END
> <s_m_source_file>
AV-unprocessed.smi

> <i_m_source_file_index>
260

> <i_lp_mmshare_version>
43012

> <i_f3d_flags>
0

> <s_epik_input>
W0NIM11bTkhdQyg9TylbQ0BAXTEoW0NIM10pW0NIMl1bQ0gyXU4oW0NIMl0xKWMobltjSF1uMiljKGMyMyluW2NIXW4zW0NIMl1bQ0BIXShbT0hdKVtDQEBIXTRbQ0gyXVtDSDJdW0NIMl1PNA==

> <s_epik_cmdline>
J2VwaWtfcHl0aG9uJywgJy1waCcsICc3LjAnLCAnLXRuJywgJzgnLCAnLW1hJywgJzIwMCcsICctbWV0YWxfYmluZGluZycsICctaW1hZScsICc8aW5maWxlLm1hZT4nLCAnLW9tYWUnLCAnPG91dGZpbGUubWFlPic=

> <r_lp_tautomer_probability>
1

> <r_epik_Ionization_Penalty>
0.00115068

> <r_epik_Ionization_Penalty_Charging>
0

> <r_epik_Ionization_Penalty_Neutral>
0.00115068

> <r_epik_State_Penalty>
0.000668876

> <r_epik_Charging_Adjusted_Penalty>
0.000668876

> <i_epik_Tot_Q>
0

> <i_epik_Tot_abs_Q>
0

> <r_epik_Metal_State_Penalty>
-0

> <b_epik_Metal_Only>
0

> <s_lp_Force_Field>
OPLS_2005

> <r_lp_Energy>
51.9197

> <b_lp_Chiralities_Consistent>
1

> <s_lp_Variant>
AV-unprocessed.smi:260-1

> <Gold.Version>
5.8.1

> <Gold.Id.Protein>
6NUR|6NUR_protein|mol2

> <Gold.PLP.Fitness>
46.3759

> <Gold.PLP.PLP>
-42.4658

> <Gold.PLP.part.hbond>
-3.2760

> <Gold.PLP.part.metal>
0.0000

> <Gold.PLP.part.buried>
1.7638

> <Gold.PLP.part.nonpolar>
-43.8352

> <Gold.PLP.part.repulsive>
2.3082

> <Gold.PLP.ligand.clash>
0.5705

> <Gold.PLP.ligand.torsion>
0.8733

> <Gold.PLP.Chemscore.Hbond>
2.0000

> <Gold.PLP.Chemscore.CHOScore>
0.0000

> <Gold.PLP.Chemscore.Metal>
0.0000

> <Gold.Chemscore.Hbonds>
donor molecule, donor type, donor heavy atom, donor atom, acceptor molecule, acceptor atom, score
      L1  H     2    31       P1 10171  0.86
      L1  H    21    44       P1  8028  0.86

> <Gold.PLP.Chemscore.Internal.Correction>
0.2273

> <Gold.Rescore>
     Score         DG    S(hbond)    S(metal)    S(lipo)     H(rot)  DE(clash)    DE(int)     intcor
     11.51     -14.34       1.41        0.00      90.88       2.53       0.84       1.99       ----

> <Gold.Chemscore.Fitness>
11.5102

> <Gold.Chemscore.DG>
-14.3403

> <Gold.Chemscore.ZeroCoef>
-5.4800

> <Gold.Chemscore.Hbond>
1.4054

> <Gold.Chemscore.Metal>
0.0000

> <Gold.Chemscore.Lipo>
90.8765

> <Gold.Chemscore.Internal_Hbond>
0.0000

> <Gold.Chemscore.DEClash>
0.8439

> <Gold.Chemscore.DEInternal>
1.9863

> <Gold.Chemscore.Rot>
2.5259

> <Gold.Chemscore.Internal.Correction>
   9.000000E+99

> <Gold.Chemscore.Hbonds>
donor molecule, donor type, donor heavy atom, donor atom, acceptor molecule, acceptor atom, score
      L1  H     2    31       P1 10171  0.83
      L1  H    21    44       P1  8028  0.83

> <Gold.Chemscore.Hbond.Weighted>
-4.6941

> <Gold.Chemscore.Metal.Weighted>
-0.0000

> <Gold.Chemscore.Lipo.Weighted>
-10.6325

> <Gold.Chemscore.Internal_Hbond.Weighted>
0.0000

> <Gold.Chemscore.DEClash.Weighted>
0.8439

> <Gold.Chemscore.DEInternal.Weighted>
1.9863

> <Gold.Chemscore.Rot.Weighted>
6.4663

> <Gold.Chemscore.Internal.Correction.Weighted>
   9.000000E+99

> <Gold.Protein.RotatedTorsions>
[ 6907 6896 6895 6894 ] final -128.14 input  -60.11 | X-H torsion
[ 7974 7965 7964 7962 ] final  170.92 input  175.53 | X-H torsion
[ 8008 7997 7996 7995 ] final    7.92 input   59.86 | X-H torsion
[ 10167 10162 10161 10158 ] final    1.17 input  -65.29 | X-H torsion
[ 10718 10713 10712 10709 ] final -169.31 input   66.30 | X-H torsion
[ 10763 10752 10751 10750 ] final  131.70 input  -60.55 | X-H torsion
[ 11005 11000 10999 10996 ] final  162.95 input  -57.11 | X-H torsion

> <Gold.Protein.ActiveResidues>
 VAL166  LYS551  ARG553  GLY616  TRP617  ASP618  TYR619  PRO620  LYS621  CYS622 
 ASP623  PHE694  ASN695  SER759  ASP760  ASP761  ALA762  ILE779  LEU786  VAL792 
 PHE793  MET794  SER795  GLU796  ALA797  LYS798  CYS799  TRP800  GLU811  SER814 

> <Gold.Protein.RotatedAtoms>
  150.9148  133.6953  159.2845 H   0  0  0  0  0  0  0  0  0  0  0  0  # atno 6907 bound_to 6896
  151.4428  135.1020  159.9685 H   0  0  0  0  0  0  0  0  0  0  0  0  # atno 6908 bound_to 6896
  152.4949  133.8552  159.7277 H   0  0  0  0  0  0  0  0  0  0  0  0  # atno 6909 bound_to 6896
  144.7310  139.9273  143.6423 H   0  0  0  0  0  0  0  0  0  0  0  0  # atno 7974 bound_to 7965
  154.7601  140.2783  155.6221 H   0  0  0  0  0  0  0  0  0  0  0  0  # atno 8008 bound_to 7997
  156.2914  140.2661  156.2304 H   0  0  0  0  0  0  0  0  0  0  0  0  # atno 8009 bound_to 7997
  155.0029  140.0372  157.2357 H   0  0  0  0  0  0  0  0  0  0  0  0  # atno 8010 bound_to 7997
  140.6695  143.7088  150.7894 H   0  0  0  0  0  0  0  0  0  0  0  0  # atno 10167 bound_to 10162
  156.7097  130.9228  151.3088 H   0  0  0  0  0  0  0  0  0  0  0  0  # atno 10718 bound_to 10713
  153.7786  135.3171  155.3362 H   0  0  0  0  0  0  0  0  0  0  0  0  # atno 10763 bound_to 10752
  154.8170  135.4629  154.0673 H   0  0  0  0  0  0  0  0  0  0  0  0  # atno 10764 bound_to 10752
  153.1955  135.6915  153.8383 H   0  0  0  0  0  0  0  0  0  0  0  0  # atno 10765 bound_to 10752
  140.2309  134.8125  157.3315 H   0  0  0  0  0  0  0  0  0  0  0  0  # atno 11005 bound_to 11000
  146.0884  139.3873  143.0421 LP  0  0  0  0  0  0  0  0  0  0  0  0  # atno 17320 bound_to 7965
  145.7745  140.9883  143.1132 LP  0  0  0  0  0  0  0  0  0  0  0  0  # atno 17321 bound_to 7965
  140.0771  143.5005  152.2550 LP  0  0  0  0  0  0  0  0  0  0  0  0  # atno 17342 bound_to 10162
  139.5957  144.7566  151.3292 LP  0  0  0  0  0  0  0  0  0  0  0  0  # atno 17343 bound_to 10162
  157.6941  130.9263  150.0595 LP  0  0  0  0  0  0  0  0  0  0  0  0  # atno 17370 bound_to 10713
  156.1670  130.3645  149.9219 LP  0  0  0  0  0  0  0  0  0  0  0  0  # atno 17371 bound_to 10713
  140.1752  134.4559  155.7806 LP  0  0  0  0  0  0  0  0  0  0  0  0  # atno 17394 bound_to 11000
  141.2218  133.6959  156.7775 LP  0  0  0  0  0  0  0  0  0  0  0  0  # atno 17395 bound_to 11000

$$$$
