AV-unprocessed.smi:2141|AV-procd|sdf|8719|dock3
  -GOLD-   2272011483D 1   1.00000     0.00000
 Structure written by MMmdl.
 41 42  0  0  0  0  0  0  0  0  2 V2000
  137.2014  142.8140  154.0924 C   0  0  0  0  0  0  0  0  0  0  0  0
  138.7974  143.5120  154.6974 S   0  0  0  0  0  0  0  0  0  0  0  0
  138.8956  144.8358  154.0645 O   0  0  0  0  0  0  0  0  0  0  0  0
  138.7282  143.4829  156.1682 O   0  0  0  0  0  0  0  0  0  0  0  0
  139.8851  142.4798  154.0663 N   0  5  0  0  0  0  0  0  0  0  0  0
  139.8215  141.0521  154.3459 C   0  0  0  0  0  0  0  0  0  0  0  0
  141.1762  140.5699  154.9097 C   0  0  0  0  0  0  0  0  0  0  0  0
  141.3812  139.0505  154.8042 C   0  0  0  0  0  0  0  0  0  0  0  0
  140.7517  138.2918  155.5442 O   0  0  0  0  0  0  0  0  0  0  0  0
  142.3174  138.6469  153.9228 N   0  0  0  0  0  0  0  0  0  0  0  0
  142.7100  137.3247  153.5804 C   0  0  0  0  0  0  0  0  0  0  0  0
  142.1280  136.1527  154.1164 C   0  0  0  0  0  0  0  0  0  0  0  0
  142.5928  134.8980  153.6779 C   0  0  0  0  0  0  0  0  0  0  0  0
  143.6204  134.8393  152.7068 C   0  0  0  0  0  0  0  0  0  0  0  0
  144.1004  133.5914  152.2517 N   0  0  0  0  0  0  0  0  0  0  0  0
  143.7568  133.2400  150.8756 C   0  0  0  0  0  0  0  0  0  0  0  0
  144.0582  131.7547  150.6101 C   0  0  0  0  0  0  0  0  0  0  0  0
  145.4165  131.4728  150.9296 O   0  0  0  0  0  0  0  0  0  0  0  0
  145.6977  131.7155  152.3038 C   0  0  0  0  0  0  0  0  0  0  0  0
  145.4580  133.1997  152.6273 C   0  0  0  0  0  0  0  0  0  0  0  0
  144.1712  135.9656  152.1915 N   0  0  0  0  0  0  0  0  0  0  0  0
  143.7222  137.1659  152.6137 C   0  0  0  0  0  0  0  0  0  0  0  0
  136.3897  143.4825  154.3768 H   0  0  0  0  0  0  0  0  0  0  0  0
  137.0281  141.8346  154.5365 H   0  0  0  0  0  0  0  0  0  0  0  0
  137.2316  142.7251  153.0069 H   0  0  0  0  0  0  0  0  0  0  0  0
  139.0287  140.8199  155.0579 H   0  0  0  0  0  0  0  0  0  0  0  0
  139.5918  140.4786  153.4471 H   0  0  0  0  0  0  0  0  0  0  0  0
  141.9937  141.0793  154.3962 H   0  0  0  0  0  0  0  0  0  0  0  0
  141.2582  140.8493  155.9611 H   0  0  0  0  0  0  0  0  0  0  0  0
  142.8312  139.3833  153.4607 H   0  0  0  0  0  0  0  0  0  0  0  0
  141.3313  136.1867  154.8428 H   0  0  0  0  0  0  0  0  0  0  0  0
  142.1632  134.0016  154.0990 H   0  0  0  0  0  0  0  0  0  0  0  0
  142.7071  133.4307  150.6582 H   0  0  0  0  0  0  0  0  0  0  0  0
  144.3396  133.8653  150.1979 H   0  0  0  0  0  0  0  0  0  0  0  0
  143.3951  131.1134  151.1931 H   0  0  0  0  0  0  0  0  0  0  0  0
  143.8848  131.5191  149.5600 H   0  0  0  0  0  0  0  0  0  0  0  0
  145.0765  131.0753  152.9325 H   0  0  0  0  0  0  0  0  0  0  0  0
  146.7352  131.4500  152.5068 H   0  0  0  0  0  0  0  0  0  0  0  0
  146.1753  133.8195  152.0873 H   0  0  0  0  0  0  0  0  0  0  0  0
  145.6190  133.3660  153.6932 H   0  0  0  0  0  0  0  0  0  0  0  0
  144.1923  138.0288  152.1650 H   0  0  0  0  0  0  0  0  0  0  0  0
  1  2  1  0  0  0  0
  1 23  1  0  0  0  0
  1 24  1  0  0  0  0
  1 25  1  0  0  0  0
  2  3  2  0  0  0  0
  2  4  2  0  0  0  0
  2  5  1  0  0  0  0
  5  6  1  0  0  0  0
  6  7  1  0  0  0  0
  6 26  1  0  0  0  0
  6 27  1  0  0  0  0
  7  8  1  0  0  0  0
  7 28  1  0  0  0  0
  7 29  1  0  0  0  0
  8  9  2  0  0  0  0
  8 10  1  0  0  0  0
 10 11  1  0  0  0  0
 10 30  1  0  0  0  0
 11 22  1  0  0  0  0
 11 12  2  0  0  0  0
 12 13  1  0  0  0  0
 12 31  1  0  0  0  0
 13 14  2  0  0  0  0
 13 32  1  0  0  0  0
 14 15  1  0  0  0  0
 14 21  1  0  0  0  0
 15 20  1  0  0  0  0
 15 16  1  0  0  0  0
 16 17  1  0  0  0  0
 16 33  1  0  0  0  0
 16 34  1  0  0  0  0
 17 18  1  0  0  0  0
 17 35  1  0  0  0  0
 17 36  1  0  0  0  0
 18 19  1  0  0  0  0
 19 20  1  0  0  0  0
 19 37  1  0  0  0  0
 19 38  1  0  0  0  0
 20 39  1  0  0  0  0
 20 40  1  0  0  0  0
 21 22  2  0  0  0  0
 22 41  1  0  0  0  0
M  CHG  1   5  -1
M  END
> <s_m_source_file>
AV-unprocessed.smi

> <i_m_source_file_index>
2141

> <i_lp_mmshare_version>
43012

> <i_f3d_flags>
0

> <s_epik_input>
W0NIM11TKD1PKSg9TylbTkhdW0NIMl1bQ0gyXUMoPU8pW05IXWMxW2NIXVtjSF1jKG5bY0hdMSlOMltDSDJdW0NIMl1PW0NIMl1bQ0gyXTI=

> <s_epik_cmdline>
J2VwaWtfcHl0aG9uJywgJy1waCcsICc3LjAnLCAnLXRuJywgJzgnLCAnLW1hJywgJzIwMCcsICctbWV0YWxfYmluZGluZycsICctaW1hZScsICc8aW5maWxlLm1hZT4nLCAnLW9tYWUnLCAnPG91dGZpbGUubWFlPic=

> <r_lp_tautomer_probability>
1

> <r_epik_Ionization_Penalty>
6.16997

> <r_epik_Ionization_Penalty_Charging>
6.16921

> <r_epik_Ionization_Penalty_Neutral>
0.000766965

> <r_epik_State_Penalty>
6.16956

> <r_epik_Charging_Adjusted_Penalty>
12.3388

> <i_epik_Tot_Q>
-1

> <i_epik_Tot_abs_Q>
1

> <r_epik_Metal_State_Penalty>
2.11159

> <b_epik_Metal_Only>
1

> <s_lp_Force_Field>
OPLS_2005

> <r_lp_Energy>
18.4771

> <b_lp_Chiralities_Consistent>
1

> <s_lp_Variant>
AV-unprocessed.smi:2141-2

> <Gold.Version>
5.8.1

> <Gold.Id.Protein>
6NUR|6NUR_protein|mol2

> <Gold.PLP.Fitness>
40.5123

> <Gold.PLP.PLP>
-29.6836

> <Gold.PLP.part.hbond>
-3.0000

> <Gold.PLP.part.metal>
0.0000

> <Gold.PLP.part.buried>
-4.2687

> <Gold.PLP.part.nonpolar>
-22.1218

> <Gold.PLP.part.repulsive>
0.6046

> <Gold.PLP.ligand.clash>
0.0000

> <Gold.PLP.ligand.torsion>
0.9291

> <Gold.PLP.Chemscore.Hbond>
2.0000

> <Gold.PLP.Chemscore.CHOScore>
1.7694

> <Gold.PLP.Chemscore.Metal>
0.0000

> <Gold.Chemscore.Hbonds>
donor molecule, donor type, donor heavy atom, donor atom, acceptor molecule, acceptor atom, score
      L1  H    10    30       P1 10175  1.00
      P1  H 10162 10167       L1     3  0.75
      L1  C    22    41       P1 10171  0.84
      L1  C    22    41       P1 10175  0.98

> <Gold.PLP.Chemscore.Internal.Correction>
1.3788

> <Gold.Rescore>
     Score         DG    S(hbond)    S(metal)    S(lipo)     H(rot)  DE(clash)    DE(int)     intcor
     10.55     -12.99       1.74        0.00      56.62       1.93       0.21       2.23       ----

> <Gold.Chemscore.Fitness>
10.5491

> <Gold.Chemscore.DG>
-12.9918

> <Gold.Chemscore.ZeroCoef>
-5.4800

> <Gold.Chemscore.Hbond>
1.7416

> <Gold.Chemscore.Metal>
0.0000

> <Gold.Chemscore.Lipo>
56.6158

> <Gold.Chemscore.Internal_Hbond>
0.0000

> <Gold.Chemscore.DEClash>
0.2112

> <Gold.Chemscore.DEInternal>
2.2314

> <Gold.Chemscore.Rot>
1.9255

> <Gold.Chemscore.Internal.Correction>
   9.000000E+99

> <Gold.Chemscore.Hbonds>
donor molecule, donor type, donor heavy atom, donor atom, acceptor molecule, acceptor atom, score
      L1  H    10    30       P1 10175  1.00
      P1  H 10162 10167       L1     3  0.26

> <Gold.Chemscore.Hbond.Weighted>
-5.8170

> <Gold.Chemscore.Metal.Weighted>
-0.0000

> <Gold.Chemscore.Lipo.Weighted>
-6.6240

> <Gold.Chemscore.Internal_Hbond.Weighted>
0.0000

> <Gold.Chemscore.DEClash.Weighted>
0.2112

> <Gold.Chemscore.DEInternal.Weighted>
2.2314

> <Gold.Chemscore.Rot.Weighted>
4.9292

> <Gold.Chemscore.Internal.Correction.Weighted>
   9.000000E+99

> <Gold.Protein.RotatedTorsions>
[ 6907 6896 6895 6894 ] final   64.71 input  -60.11 | X-H torsion
[ 7974 7965 7964 7962 ] final -137.84 input  175.53 | X-H torsion
[ 8008 7997 7996 7995 ] final  -83.37 input   59.86 | X-H torsion
[ 10167 10162 10161 10158 ] final  172.87 input  -65.29 | X-H torsion
[ 10718 10713 10712 10709 ] final  -98.96 input   66.30 | X-H torsion
[ 10763 10752 10751 10750 ] final   97.37 input  -60.55 | X-H torsion
[ 11005 11000 10999 10996 ] final -140.08 input  -57.11 | X-H torsion

> <Gold.Protein.ActiveResidues>
 VAL166  LYS551  ARG553  GLY616  TRP617  ASP618  TYR619  PRO620  LYS621  CYS622 
 ASP623  PHE694  ASN695  SER759  ASP760  ASP761  ALA762  ILE779  LEU786  VAL792 
 PHE793  MET794  SER795  GLU796  ALA797  LYS798  CYS799  TRP800  GLU811  SER814 

> <Gold.Protein.RotatedAtoms>
  152.4352  134.5700  159.9918 H   0  0  0  0  0  0  0  0  0  0  0  0  # atno 6907 bound_to 6896
  151.5812  133.3372  159.3017 H   0  0  0  0  0  0  0  0  0  0  0  0  # atno 6908 bound_to 6896
  150.8250  134.7511  159.6869 H   0  0  0  0  0  0  0  0  0  0  0  0  # atno 6909 bound_to 6896
  144.8808  140.6504  143.5207 H   0  0  0  0  0  0  0  0  0  0  0  0  # atno 7974 bound_to 7965
  154.6183  140.0620  156.9583 H   0  0  0  0  0  0  0  0  0  0  0  0  # atno 8008 bound_to 7997
  155.1859  140.3303  155.4348 H   0  0  0  0  0  0  0  0  0  0  0  0  # atno 8009 bound_to 7997
  156.2417  140.1889  156.6952 H   0  0  0  0  0  0  0  0  0  0  0  0  # atno 8010 bound_to 7997
  139.5090  144.3325  152.0097 H   0  0  0  0  0  0  0  0  0  0  0  0  # atno 10167 bound_to 10162
  156.0121  130.5261  150.6600 H   0  0  0  0  0  0  0  0  0  0  0  0  # atno 10718 bound_to 10713
  153.2760  135.4186  155.1034 H   0  0  0  0  0  0  0  0  0  0  0  0  # atno 10763 bound_to 10752
  154.8473  135.3484  154.6177 H   0  0  0  0  0  0  0  0  0  0  0  0  # atno 10764 bound_to 10752
  153.6598  135.7049  153.5239 H   0  0  0  0  0  0  0  0  0  0  0  0  # atno 10765 bound_to 10752
  140.8457  134.2347  157.4787 H   0  0  0  0  0  0  0  0  0  0  0  0  # atno 11005 bound_to 11000
  145.3958  139.1607  143.4204 LP  0  0  0  0  0  0  0  0  0  0  0  0  # atno 17320 bound_to 7965
  146.2993  140.4051  142.8710 LP  0  0  0  0  0  0  0  0  0  0  0  0  # atno 17321 bound_to 7965
  140.2764  144.3907  150.6133 LP  0  0  0  0  0  0  0  0  0  0  0  0  # atno 17342 bound_to 10162
  140.6050  143.2167  151.6998 LP  0  0  0  0  0  0  0  0  0  0  0  0  # atno 17343 bound_to 10162
  157.4344  131.0853  151.1006 LP  0  0  0  0  0  0  0  0  0  0  0  0  # atno 17370 bound_to 10713
  157.1569  130.6209  149.5599 LP  0  0  0  0  0  0  0  0  0  0  0  0  # atno 17371 bound_to 10713
  139.8703  134.9658  156.4541 LP  0  0  0  0  0  0  0  0  0  0  0  0  # atno 17394 bound_to 11000
  140.8846  133.7893  155.9504 LP  0  0  0  0  0  0  0  0  0  0  0  0  # atno 17395 bound_to 11000

$$$$
