AV-unprocessed.smi:1176|AV-procd|sdf|4953|dock6
  -GOLD-   22720 3543D 1   1.00000     0.00000
 Structure written by MMmdl.
 50 51  0  0  0  0  0  0  0  0  2 V2000
  152.2097  145.2773  158.8573 C   0  0  0  0  0  0  0  0  0  0  0  0
  151.5484  143.8959  158.9763 C   0  0  0  0  0  0  0  0  0  0  0  0
  152.1727  143.1001  160.1348 C   0  0  0  0  0  0  0  0  0  0  0  0
  151.6425  143.1322  157.6375 C   0  0  0  0  0  0  0  0  0  0  0  0
  150.3367  142.5827  157.1888 N   0  3  2  0  0  0  0  0  0  0  0  0
  149.5684  141.9715  158.3043 C   0  0  0  0  0  0  0  0  0  0  0  0
  148.1637  141.5336  157.8461 C   0  0  0  0  0  0  0  0  0  0  0  0
  148.2224  140.5788  156.6414 C   0  0  2  0  0  0  0  0  0  0  0  0
  148.7531  139.2812  157.0558 N   0  0  0  0  0  0  0  0  0  0  0  0
  148.1598  138.4259  157.9020 C   0  0  0  0  0  0  0  0  0  0  0  0
  147.0918  138.6602  158.4662 O   0  0  0  0  0  0  0  0  0  0  0  0
  148.8893  137.1024  158.1471 C   0  0  0  0  0  0  0  0  0  0  0  0
  148.0894  136.2054  158.9890 N   0  0  0  0  0  0  0  0  0  0  0  0
  147.1695  135.3623  158.3919 C   0  0  0  0  0  0  0  0  0  0  0  0
  146.3668  134.5244  159.0828 C   0  0  0  0  0  0  0  0  0  0  0  0
  146.4310  134.4593  160.5370 C   0  0  0  0  0  0  0  0  0  0  0  0
  145.7059  133.7287  161.2133 O   0  0  0  0  0  0  0  0  0  0  0  0
  147.3903  135.3172  161.1226 N   0  0  0  0  0  0  0  0  0  0  0  0
  147.4884  135.2991  162.5677 C   0  0  0  0  0  0  0  0  0  0  0  0
  148.2181  136.2041  160.3956 C   0  0  0  0  0  0  0  0  0  0  0  0
  149.0196  136.9598  160.9492 O   0  0  0  0  0  0  0  0  0  0  0  0
  149.0696  141.2244  155.5249 C   0  0  0  0  0  0  0  0  0  0  0  0
  150.4562  141.6545  156.0334 C   0  0  0  0  0  0  0  0  0  0  0  0
  153.2713  145.1917  158.6228 H   0  0  0  0  0  0  0  0  0  0  0  0
  152.1197  145.8384  159.7879 H   0  0  0  0  0  0  0  0  0  0  0  0
  151.7422  145.8713  158.0713 H   0  0  0  0  0  0  0  0  0  0  0  0
  150.5003  144.0704  159.2175 H   0  0  0  0  0  0  0  0  0  0  0  0
  153.2267  142.8900  159.9495 H   0  0  0  0  0  0  0  0  0  0  0  0
  151.6641  142.1477  160.2862 H   0  0  0  0  0  0  0  0  0  0  0  0
  152.1054  143.6542  161.0716 H   0  0  0  0  0  0  0  0  0  0  0  0
  152.0493  143.7744  156.8544 H   0  0  0  0  0  0  0  0  0  0  0  0
  152.3590  142.3188  157.7621 H   0  0  0  0  0  0  0  0  0  0  0  0
  150.1219  141.1210  158.7050 H   0  0  0  0  0  0  0  0  0  0  0  0
  149.4661  142.6915  159.1172 H   0  0  0  0  0  0  0  0  0  0  0  0
  147.6281  141.0664  158.6737 H   0  0  0  0  0  0  0  0  0  0  0  0
  147.5864  142.4183  157.5742 H   0  0  0  0  0  0  0  0  0  0  0  0
  147.2068  140.4221  156.2735 H   0  0  0  0  0  0  0  0  0  0  0  0
  149.6397  139.0048  156.6597 H   0  0  0  0  0  0  0  0  0  0  0  0
  149.1137  136.6203  157.1940 H   0  0  0  0  0  0  0  0  0  0  0  0
  149.8590  137.3055  158.6045 H   0  0  0  0  0  0  0  0  0  0  0  0
  147.0819  135.3774  157.3152 H   0  0  0  0  0  0  0  0  0  0  0  0
  145.6657  133.8961  158.5532 H   0  0  0  0  0  0  0  0  0  0  0  0
  148.4298  135.7386  162.8971 H   0  0  0  0  0  0  0  0  0  0  0  0
  147.4619  134.2599  162.9002 H   0  0  0  0  0  0  0  0  0  0  0  0
  146.6367  135.8631  162.9509 H   0  0  0  0  0  0  0  0  0  0  0  0
  149.1779  140.5491  154.6759 H   0  0  0  0  0  0  0  0  0  0  0  0
  148.5454  142.1005  155.1411 H   0  0  0  0  0  0  0  0  0  0  0  0
  150.9949  142.1320  155.2162 H   0  0  0  0  0  0  0  0  0  0  0  0
  151.0407  140.7795  156.3228 H   0  0  0  0  0  0  0  0  0  0  0  0
  149.7909  143.3730  156.8762 H   0  0  0  0  0  0  0  0  0  0  0  0
  1  2  1  0  0  0  0
  1 24  1  0  0  0  0
  1 25  1  0  0  0  0
  1 26  1  0  0  0  0
  2  3  1  0  0  0  0
  2  4  1  0  0  0  0
  2 27  1  0  0  0  0
  3 28  1  0  0  0  0
  3 29  1  0  0  0  0
  3 30  1  0  0  0  0
  4  5  1  0  0  0  0
  4 31  1  0  0  0  0
  4 32  1  0  0  0  0
  5 23  1  0  0  0  0
  5  6  1  0  0  0  0
  5 50  1  0  0  0  0
  6  7  1  0  0  0  0
  6 33  1  0  0  0  0
  6 34  1  0  0  0  0
  7  8  1  0  0  0  0
  7 35  1  0  0  0  0
  7 36  1  0  0  0  0
  8  9  1  0  0  0  0
  8 22  1  0  0  0  0
  8 37  1  0  0  0  0
  9 10  1  0  0  0  0
  9 38  1  0  0  0  0
 10 11  2  0  0  0  0
 10 12  1  0  0  0  0
 12 13  1  0  0  0  0
 12 39  1  0  0  0  0
 12 40  1  0  0  0  0
 13 20  1  0  0  0  0
 13 14  1  0  0  0  0
 14 15  2  0  0  0  0
 14 41  1  0  0  0  0
 15 16  1  0  0  0  0
 15 42  1  0  0  0  0
 16 17  2  0  0  0  0
 16 18  1  0  0  0  0
 18 19  1  0  0  0  0
 18 20  1  0  0  0  0
 19 43  1  0  0  0  0
 19 44  1  0  0  0  0
 19 45  1  0  0  0  0
 20 21  2  0  0  0  0
 22 23  1  0  0  0  0
 22 46  1  0  0  0  0
 22 47  1  0  0  0  0
 23 48  1  0  0  0  0
 23 49  1  0  0  0  0
M  CHG  1   5   1
M  END
> <s_m_source_file>
AV-unprocessed.smi

> <i_m_source_file_index>
1176

> <i_lp_mmshare_version>
43012

> <i_f3d_flags>
0

> <s_epik_input>
W0NIM11bQ0hdKFtDSDNdKVtDSDJdTjFbQ0gyXVtDSDJdW0NIXShbQ0gyXVtDSDJdMSlbTkhdQyg9TylbQ0gyXW4yW2NIXVtjSF1jKD1PKW4oW0NIM10pYzI9Tw==

> <s_epik_cmdline>
J2VwaWtfcHl0aG9uJywgJy1waCcsICc3LjAnLCAnLXRuJywgJzgnLCAnLW1hJywgJzIwMCcsICctbWV0YWxfYmluZGluZycsICctaW1hZScsICc8aW5maWxlLm1hZT4nLCAnLW9tYWUnLCAnPG91dGZpbGUubWFlPic=

> <r_lp_tautomer_probability>
1

> <r_epik_Ionization_Penalty>
0.00401429

> <r_epik_Ionization_Penalty_Charging>
0.00401425

> <r_epik_Ionization_Penalty_Neutral>
4.29561e-08

> <r_epik_State_Penalty>
0.00287487

> <r_epik_Charging_Adjusted_Penalty>
0.00688912

> <i_epik_Tot_Q>
1

> <i_epik_Tot_abs_Q>
1

> <r_epik_Metal_State_Penalty>
-0

> <b_epik_Metal_Only>
0

> <s_lp_Force_Field>
OPLS_2005

> <r_lp_Energy>
29.2662

> <b_lp_Chiralities_Consistent>
1

> <s_lp_Variant>
AV-unprocessed.smi:1176-2

> <Gold.Version>
5.8.1

> <Gold.Id.Protein>
6NUR|6NUR_protein|mol2

> <Gold.PLP.Fitness>
43.3069

> <Gold.PLP.PLP>
-36.8886

> <Gold.PLP.part.hbond>
-2.8283

> <Gold.PLP.part.metal>
0.0000

> <Gold.PLP.part.buried>
-6.2086

> <Gold.PLP.part.nonpolar>
-28.8792

> <Gold.PLP.part.repulsive>
0.0663

> <Gold.PLP.ligand.clash>
0.0000

> <Gold.PLP.ligand.torsion>
1.2206

> <Gold.PLP.Chemscore.Hbond>
2.9280

> <Gold.PLP.Chemscore.CHOScore>
0.0000

> <Gold.PLP.Chemscore.Metal>
0.0000

> <Gold.Chemscore.Hbonds>
donor molecule, donor type, donor heavy atom, donor atom, acceptor molecule, acceptor atom, score
      L1  H     5    50       P1  8028  2.00
      P1  H  6931  6943       L1    21  0.88

> <Gold.PLP.Chemscore.Internal.Correction>
0.0754

> <Gold.Rescore>
     Score         DG    S(hbond)    S(metal)    S(lipo)     H(rot)  DE(clash)    DE(int)     intcor
     15.59     -16.89       2.01        0.00      82.22       1.92       0.23       1.06       ----

> <Gold.Chemscore.Fitness>
15.5947

> <Gold.Chemscore.DG>
-16.8870

> <Gold.Chemscore.ZeroCoef>
-5.4800

> <Gold.Chemscore.Hbond>
2.0065

> <Gold.Chemscore.Metal>
0.0000

> <Gold.Chemscore.Lipo>
82.2225

> <Gold.Chemscore.Internal_Hbond>
0.0000

> <Gold.Chemscore.DEClash>
0.2323

> <Gold.Chemscore.DEInternal>
1.0600

> <Gold.Chemscore.Rot>
1.9198

> <Gold.Chemscore.Internal.Correction>
   9.000000E+99

> <Gold.Chemscore.Hbonds>
donor molecule, donor type, donor heavy atom, donor atom, acceptor molecule, acceptor atom, score
      L1  H     5    50       P1  8028  0.94
      P1  H  6931  6943       L1    21  0.85
      P1  H  6934  6947       L1    11  0.01

> <Gold.Chemscore.Hbond.Weighted>
-6.7016

> <Gold.Chemscore.Metal.Weighted>
-0.0000

> <Gold.Chemscore.Lipo.Weighted>
-9.6200

> <Gold.Chemscore.Internal_Hbond.Weighted>
0.0000

> <Gold.Chemscore.DEClash.Weighted>
0.2323

> <Gold.Chemscore.DEInternal.Weighted>
1.0600

> <Gold.Chemscore.Rot.Weighted>
4.9147

> <Gold.Chemscore.Internal.Correction.Weighted>
   9.000000E+99

> <Gold.Protein.RotatedTorsions>
[ 6907 6896 6895 6894 ] final  -99.70 input  -60.11 | X-H torsion
[ 7974 7965 7964 7962 ] final  176.88 input  175.53 | X-H torsion
[ 8008 7997 7996 7995 ] final  145.41 input   59.86 | X-H torsion
[ 10167 10162 10161 10158 ] final  -17.69 input  -65.29 | X-H torsion
[ 10718 10713 10712 10709 ] final -176.28 input   66.30 | X-H torsion
[ 10763 10752 10751 10750 ] final    3.70 input  -60.55 | X-H torsion
[ 11005 11000 10999 10996 ] final  115.86 input  -57.11 | X-H torsion

> <Gold.Protein.ActiveResidues>
 VAL166  LYS551  ARG553  GLY616  TRP617  ASP618  TYR619  PRO620  LYS621  CYS622 
 ASP623  PHE694  ASN695  SER759  ASP760  ASP761  ALA762  ILE779  LEU786  VAL792 
 PHE793  MET794  SER795  GLU796  ALA797  LYS798  CYS799  TRP800  GLU811  SER814 

> <Gold.Protein.RotatedAtoms>
  150.7089  134.1000  159.3962 H   0  0  0  0  0  0  0  0  0  0  0  0  # atno 6907 bound_to 6896
  151.8986  135.0385  160.0513 H   0  0  0  0  0  0  0  0  0  0  0  0  # atno 6908 bound_to 6896
  152.2433  133.5118  159.5319 H   0  0  0  0  0  0  0  0  0  0  0  0  # atno 6909 bound_to 6896
  144.7177  140.0163  143.6440 H   0  0  0  0  0  0  0  0  0  0  0  0  # atno 7974 bound_to 7965
  156.2884  140.2210  156.5211 H   0  0  0  0  0  0  0  0  0  0  0  0  # atno 8008 bound_to 7997
  154.7528  140.0479  157.0930 H   0  0  0  0  0  0  0  0  0  0  0  0  # atno 8009 bound_to 7997
  155.0088  140.3110  155.4841 H   0  0  0  0  0  0  0  0  0  0  0  0  # atno 8010 bound_to 7997
  140.7250  143.4991  150.9893 H   0  0  0  0  0  0  0  0  0  0  0  0  # atno 10167 bound_to 10162
  156.8123  130.9590  151.3115 H   0  0  0  0  0  0  0  0  0  0  0  0  # atno 10718 bound_to 10713
  153.2801  135.6940  153.7394 H   0  0  0  0  0  0  0  0  0  0  0  0  # atno 10763 bound_to 10752
  153.6384  135.3397  155.3064 H   0  0  0  0  0  0  0  0  0  0  0  0  # atno 10764 bound_to 10752
  154.8492  135.4426  154.1852 H   0  0  0  0  0  0  0  0  0  0  0  0  # atno 10765 bound_to 10752
  139.9023  134.9590  156.7109 H   0  0  0  0  0  0  0  0  0  0  0  0  # atno 11005 bound_to 11000
  146.0217  139.3257  143.0808 LP  0  0  0  0  0  0  0  0  0  0  0  0  # atno 17320 bound_to 7965
  145.8560  140.9502  143.0725 LP  0  0  0  0  0  0  0  0  0  0  0  0  # atno 17321 bound_to 7965
  139.8699  143.7206  152.3167 LP  0  0  0  0  0  0  0  0  0  0  0  0  # atno 17342 bound_to 10162
  139.7451  144.7549  151.0592 LP  0  0  0  0  0  0  0  0  0  0  0  0  # atno 17343 bound_to 10162
  157.6499  130.8876  149.9613 LP  0  0  0  0  0  0  0  0  0  0  0  0  # atno 17370 bound_to 10713
  156.1037  130.3654  150.0171 LP  0  0  0  0  0  0  0  0  0  0  0  0  # atno 17371 bound_to 10713
  140.7076  133.9251  155.8064 LP  0  0  0  0  0  0  0  0  0  0  0  0  # atno 17394 bound_to 11000
  141.0325  134.0736  157.3998 LP  0  0  0  0  0  0  0  0  0  0  0  0  # atno 17395 bound_to 11000

$$$$
