AV-unprocessed.smi:2311|AV-procd|sdf|9262|dock4
  -GOLD-   2272012483D 1   1.00000     0.00000
 Structure written by MMmdl.
 40 41  0  0  0  0  0  0  0  0  1 V2000
  147.7350  137.3170  163.6848 C   0  0  0  0  0  0  0  0  0  0  0  0
  147.6719  136.2768  162.5863 C   0  0  0  0  0  0  0  0  0  0  0  0
  147.0030  135.0528  162.7841 C   0  0  0  0  0  0  0  0  0  0  0  0
  146.9794  134.1313  161.7221 C   0  0  0  0  0  0  0  0  0  0  0  0
  147.6200  134.4695  160.5143 C   0  0  0  0  0  0  0  0  0  0  0  0
  148.2687  135.7195  160.3975 C   0  0  0  0  0  0  0  0  0  0  0  0
  148.8833  135.9643  159.1406 N   0  0  0  0  0  0  0  0  0  0  0  0
  149.4554  137.0997  158.7017 C   0  0  0  0  0  0  0  0  0  0  0  0
  149.5425  138.1479  159.3421 O   0  0  0  0  0  0  0  0  0  0  0  0
  149.9285  136.9543  157.4553 N   0  0  0  0  0  0  0  0  0  0  0  0
  150.6036  137.9955  156.6852 C   0  0  1  0  0  0  0  0  0  0  0  0
  151.1844  137.3954  155.3994 C   0  0  0  0  0  0  0  0  0  0  0  0
  151.7951  138.4940  154.5186 C   0  0  0  0  0  0  0  0  0  0  0  0
  150.8250  139.4991  154.2302 O   0  0  0  0  0  0  0  0  0  0  0  0
  150.2509  140.1678  155.3585 C   0  0  0  0  0  0  0  0  0  0  0  0
  151.2989  141.0579  156.0609 C   0  0  0  0  0  0  0  0  0  0  0  0
  149.1465  141.0655  154.7762 C   0  0  0  0  0  0  0  0  0  0  0  0
  149.6251  139.1257  156.3168 C   0  0  0  0  0  0  0  0  0  0  0  0
  148.2862  136.6013  161.4282 N   0  0  0  0  0  0  0  0  0  0  0  0
  147.3522  136.9212  164.6260 H   0  0  0  0  0  0  0  0  0  0  0  0
  147.1394  138.1887  163.4133 H   0  0  0  0  0  0  0  0  0  0  0  0
  148.7637  137.6401  163.8463 H   0  0  0  0  0  0  0  0  0  0  0  0
  146.5195  134.8240  163.7226 H   0  0  0  0  0  0  0  0  0  0  0  0
  146.4780  133.1808  161.8305 H   0  0  0  0  0  0  0  0  0  0  0  0
  147.6105  133.7727  159.6888 H   0  0  0  0  0  0  0  0  0  0  0  0
  148.8854  135.1844  158.5003 H   0  0  0  0  0  0  0  0  0  0  0  0
  149.8131  136.0589  157.0039 H   0  0  0  0  0  0  0  0  0  0  0  0
  151.4245  138.3987  157.2803 H   0  0  0  0  0  0  0  0  0  0  0  0
  151.9398  136.6457  155.6376 H   0  0  0  0  0  0  0  0  0  0  0  0
  150.4000  136.8832  154.8401 H   0  0  0  0  0  0  0  0  0  0  0  0
  152.6766  138.9278  154.9903 H   0  0  0  0  0  0  0  0  0  0  0  0
  152.1339  138.0639  153.5762 H   0  0  0  0  0  0  0  0  0  0  0  0
  150.8397  141.6453  156.8566 H   0  0  0  0  0  0  0  0  0  0  0  0
  151.7529  141.7567  155.3578 H   0  0  0  0  0  0  0  0  0  0  0  0
  152.1044  140.4835  156.5161 H   0  0  0  0  0  0  0  0  0  0  0  0
  148.6257  141.6140  155.5618 H   0  0  0  0  0  0  0  0  0  0  0  0
  148.4037  140.4795  154.2341 H   0  0  0  0  0  0  0  0  0  0  0  0
  149.5580  141.7959  154.0789 H   0  0  0  0  0  0  0  0  0  0  0  0
  148.7499  138.6829  155.8385 H   0  0  0  0  0  0  0  0  0  0  0  0
  149.2585  139.6202  157.2174 H   0  0  0  0  0  0  0  0  0  0  0  0
  1  2  1  0  0  0  0
  1 20  1  0  0  0  0
  1 21  1  0  0  0  0
  1 22  1  0  0  0  0
  2 19  1  0  0  0  0
  2  3  2  0  0  0  0
  3  4  1  0  0  0  0
  3 23  1  0  0  0  0
  4  5  2  0  0  0  0
  4 24  1  0  0  0  0
  5  6  1  0  0  0  0
  5 25  1  0  0  0  0
  6  7  1  0  0  0  0
  6 19  2  0  0  0  0
  7  8  1  0  0  0  0
  7 26  1  0  0  0  0
  8  9  2  0  0  0  0
  8 10  1  0  0  0  0
 10 11  1  0  0  0  0
 10 27  1  0  0  0  0
 11 18  1  0  0  0  0
 11 12  1  0  0  0  0
 11 28  1  0  0  0  0
 12 13  1  0  0  0  0
 12 29  1  0  0  0  0
 12 30  1  0  0  0  0
 13 14  1  0  0  0  0
 13 31  1  0  0  0  0
 13 32  1  0  0  0  0
 14 15  1  0  0  0  0
 15 16  1  0  0  0  0
 15 17  1  0  0  0  0
 15 18  1  0  0  0  0
 16 33  1  0  0  0  0
 16 34  1  0  0  0  0
 16 35  1  0  0  0  0
 17 36  1  0  0  0  0
 17 37  1  0  0  0  0
 17 38  1  0  0  0  0
 18 39  1  0  0  0  0
 18 40  1  0  0  0  0
M  END
> <s_m_source_file>
AV-unprocessed.smi

> <i_m_source_file_index>
2311

> <i_lp_mmshare_version>
43012

> <i_f3d_flags>
0

> <s_epik_input>
W0NIM11jMVtjSF1bY0hdW2NIXWMobjEpW05IXUMoPU8pW05IXVtDQEBIXShbQ0gyXTIpW0NIMl1bQ0gyXU9DMihbQ0gzXSlbQ0gzXQ==

> <s_epik_cmdline>
J2VwaWtfcHl0aG9uJywgJy1waCcsICc3LjAnLCAnLXRuJywgJzgnLCAnLW1hJywgJzIwMCcsICctbWV0YWxfYmluZGluZycsICctaW1hZScsICc8aW5maWxlLm1hZT4nLCAnLW9tYWUnLCAnPG91dGZpbGUubWFlPic=

> <r_lp_tautomer_probability>
1

> <r_epik_Ionization_Penalty>
8.54628e-05

> <r_epik_Ionization_Penalty_Charging>
0

> <r_epik_Ionization_Penalty_Neutral>
8.54628e-05

> <r_epik_State_Penalty>
-0

> <r_epik_Charging_Adjusted_Penalty>
0

> <i_epik_Tot_Q>
0

> <i_epik_Tot_abs_Q>
0

> <r_epik_Metal_State_Penalty>
-0

> <b_epik_Metal_Only>
0

> <s_lp_Force_Field>
OPLS_2005

> <r_lp_Energy>
12.4955

> <b_lp_Chiralities_Consistent>
1

> <s_lp_Variant>
AV-unprocessed.smi:2311-2

> <Gold.Version>
5.8.1

> <Gold.Id.Protein>
6NUR|6NUR_protein|mol2

> <Gold.PLP.Fitness>
42.0192

> <Gold.PLP.PLP>
-36.1717

> <Gold.PLP.part.hbond>
-3.4228

> <Gold.PLP.part.metal>
0.0000

> <Gold.PLP.part.buried>
-2.5372

> <Gold.PLP.part.nonpolar>
-30.0401

> <Gold.PLP.part.repulsive>
0.3513

> <Gold.PLP.ligand.clash>
0.0000

> <Gold.PLP.ligand.torsion>
0.0764

> <Gold.PLP.Chemscore.Hbond>
2.0000

> <Gold.PLP.Chemscore.CHOScore>
0.0000

> <Gold.PLP.Chemscore.Metal>
0.0000

> <Gold.Chemscore.Hbonds>
donor molecule, donor type, donor heavy atom, donor atom, acceptor molecule, acceptor atom, score
      P1  H  6931  6943       L1    19  1.00
      P1  H  7989  7998       L1    14  0.95

> <Gold.PLP.Chemscore.Internal.Correction>
0.0003

> <Gold.Rescore>
     Score         DG    S(hbond)    S(metal)    S(lipo)     H(rot)  DE(clash)    DE(int)     intcor
     15.52     -17.67       1.35        0.00      87.44       1.00       0.76       1.40       ----

> <Gold.Chemscore.Fitness>
15.5174

> <Gold.Chemscore.DG>
-17.6680

> <Gold.Chemscore.ZeroCoef>
-5.4800

> <Gold.Chemscore.Hbond>
1.3526

> <Gold.Chemscore.Metal>
0.0000

> <Gold.Chemscore.Lipo>
87.4380

> <Gold.Chemscore.Internal_Hbond>
0.0000

> <Gold.Chemscore.DEClash>
0.7551

> <Gold.Chemscore.DEInternal>
1.3955

> <Gold.Chemscore.Rot>
1.0000

> <Gold.Chemscore.Internal.Correction>
   9.000000E+99

> <Gold.Chemscore.Hbonds>
donor molecule, donor type, donor heavy atom, donor atom, acceptor molecule, acceptor atom, score
      P1  H  6931  6943       L1    19  0.26
      P1  H  7989  7998       L1    14  0.15

> <Gold.Chemscore.Hbond.Weighted>
-4.5178

> <Gold.Chemscore.Metal.Weighted>
-0.0000

> <Gold.Chemscore.Lipo.Weighted>
-10.2302

> <Gold.Chemscore.Internal_Hbond.Weighted>
0.0000

> <Gold.Chemscore.DEClash.Weighted>
0.7551

> <Gold.Chemscore.DEInternal.Weighted>
1.3955

> <Gold.Chemscore.Rot.Weighted>
2.5600

> <Gold.Chemscore.Internal.Correction.Weighted>
   9.000000E+99

> <Gold.Protein.RotatedTorsions>
[ 6907 6896 6895 6894 ] final -106.79 input  -60.11 | X-H torsion
[ 7974 7965 7964 7962 ] final  -32.05 input  175.53 | X-H torsion
[ 8008 7997 7996 7995 ] final -145.25 input   59.86 | X-H torsion
[ 10167 10162 10161 10158 ] final  112.51 input  -65.29 | X-H torsion
[ 10718 10713 10712 10709 ] final  -44.15 input   66.30 | X-H torsion
[ 10763 10752 10751 10750 ] final -113.95 input  -60.55 | X-H torsion
[ 11005 11000 10999 10996 ] final   65.00 input  -57.11 | X-H torsion

> <Gold.Protein.ActiveResidues>
 VAL166  LYS551  ARG553  GLY616  TRP617  ASP618  TYR619  PRO620  LYS621  CYS622 
 ASP623  PHE694  ASN695  SER759  ASP760  ASP761  ALA762  ILE779  LEU786  VAL792 
 PHE793  MET794  SER795  GLU796  ALA797  LYS798  CYS799  TRP800  GLU811  SER814 

> <Gold.Protein.RotatedAtoms>
  150.7408  133.9924  159.3611 H   0  0  0  0  0  0  0  0  0  0  0  0  # atno 6907 bound_to 6896
  151.7873  135.0743  160.0391 H   0  0  0  0  0  0  0  0  0  0  0  0  # atno 6908 bound_to 6896
  152.3232  133.5840  159.5795 H   0  0  0  0  0  0  0  0  0  0  0  0  # atno 6909 bound_to 6896
  146.1020  140.5744  142.8817 H   0  0  0  0  0  0  0  0  0  0  0  0  # atno 7974 bound_to 7965
  155.5402  140.0607  157.2871 H   0  0  0  0  0  0  0  0  0  0  0  0  # atno 8008 bound_to 7997
  154.4454  140.1920  156.0627 H   0  0  0  0  0  0  0  0  0  0  0  0  # atno 8009 bound_to 7997
  156.0590  140.3275  155.7443 H   0  0  0  0  0  0  0  0  0  0  0  0  # atno 8010 bound_to 7997
  139.6530  144.7128  151.2011 H   0  0  0  0  0  0  0  0  0  0  0  0  # atno 10167 bound_to 10162
  156.2415  130.4180  149.8755 H   0  0  0  0  0  0  0  0  0  0  0  0  # atno 10718 bound_to 10713
  154.8419  135.4435  154.1430 H   0  0  0  0  0  0  0  0  0  0  0  0  # atno 10763 bound_to 10752
  153.2610  135.6936  153.7585 H   0  0  0  0  0  0  0  0  0  0  0  0  # atno 10764 bound_to 10752
  153.6861  135.3395  155.3166 H   0  0  0  0  0  0  0  0  0  0  0  0  # atno 10765 bound_to 10752
  139.9922  134.6573  156.0071 H   0  0  0  0  0  0  0  0  0  0  0  0  # atno 11005 bound_to 11000
  144.7440  140.5019  143.6849 LP  0  0  0  0  0  0  0  0  0  0  0  0  # atno 17320 bound_to 7965
  145.5836  139.1490  143.3221 LP  0  0  0  0  0  0  0  0  0  0  0  0  # atno 17321 bound_to 7965
  140.7546  143.6118  150.8598 LP  0  0  0  0  0  0  0  0  0  0  0  0  # atno 17342 bound_to 10162
  139.9768  143.5995  152.2956 LP  0  0  0  0  0  0  0  0  0  0  0  0  # atno 17343 bound_to 10162
  156.6334  130.8675  151.3500 LP  0  0  0  0  0  0  0  0  0  0  0  0  # atno 17370 bound_to 10713
  157.7177  130.9518  150.1318 LP  0  0  0  0  0  0  0  0  0  0  0  0  # atno 17371 bound_to 10713
  141.1575  133.6541  156.4210 LP  0  0  0  0  0  0  0  0  0  0  0  0  # atno 17394 bound_to 11000
  140.4886  134.6597  157.5201 LP  0  0  0  0  0  0  0  0  0  0  0  0  # atno 17395 bound_to 11000

$$$$
