AV-unprocessed.smi:2782|AV-procd|sdf|10721|dock2
  -GOLD-   2272015163D 1   1.00000     0.00000
 Structure written by MMmdl.
 38 39  0  0  0  0  0  0  0  0  1 V2000
  151.9497  145.2598  159.1589 C   0  0  0  0  0  0  0  0  0  0  0  0
  151.9823  143.7549  158.9881 C   0  0  0  0  0  0  0  0  0  0  0  0
  152.4993  142.9336  160.0091 C   0  0  0  0  0  0  0  0  0  0  0  0
  152.5240  141.5373  159.8410 C   0  0  0  0  0  0  0  0  0  0  0  0
  152.0328  140.9576  158.6551 C   0  0  0  0  0  0  0  0  0  0  0  0
  152.0734  139.2400  158.4755 Cl  0  0  0  0  0  0  0  0  0  0  0  0
  151.5123  141.7676  157.6214 C   0  0  0  0  0  0  0  0  0  0  0  0
  151.0487  141.1294  156.4902 O   0  0  0  0  0  0  0  0  0  0  0  0
  150.4032  141.9038  155.4868 C   0  0  0  0  0  0  0  0  0  0  0  0
  149.4613  141.0097  154.6625 C   0  0  2  0  0  0  0  0  0  0  0  0
  150.2571  140.1018  153.9270 O   0  0  0  0  0  0  0  0  0  0  0  0
  148.5432  141.8104  153.7131 C   0  0  0  0  0  0  0  0  0  0  0  0
  147.3088  142.2464  154.3760 N   0  0  0  0  0  0  0  0  0  0  0  0
  147.0264  141.5623  155.5461 N   0  0  0  0  0  0  0  0  0  0  0  0
  145.9717  141.8371  156.2412 C   0  0  0  0  0  0  0  0  0  0  0  0
  145.7414  141.0482  157.4961 C   0  0  0  0  0  0  0  0  0  0  0  0
  145.0687  142.8779  155.7876 C   0  0  0  0  0  0  0  0  0  0  0  0
  145.3483  143.5455  154.6476 C   0  0  0  0  0  0  0  0  0  0  0  0
  146.5394  143.2471  153.8551 C   0  0  0  0  0  0  0  0  0  0  0  0
  146.8271  143.8438  152.8177 O   0  0  0  0  0  0  0  0  0  0  0  0
  151.4935  143.1744  157.7998 C   0  0  0  0  0  0  0  0  0  0  0  0
  152.2734  145.5550  160.1575 H   0  0  0  0  0  0  0  0  0  0  0  0
  150.9381  145.6368  159.0048 H   0  0  0  0  0  0  0  0  0  0  0  0
  152.6084  145.7358  158.4321 H   0  0  0  0  0  0  0  0  0  0  0  0
  152.8779  143.3688  160.9224 H   0  0  0  0  0  0  0  0  0  0  0  0
  152.9206  140.9094  160.6252 H   0  0  0  0  0  0  0  0  0  0  0  0
  149.8511  142.7375  155.9242 H   0  0  0  0  0  0  0  0  0  0  0  0
  151.1604  142.3207  154.8207 H   0  0  0  0  0  0  0  0  0  0  0  0
  148.8637  140.4234  155.3613 H   0  0  0  0  0  0  0  0  0  0  0  0
  149.8989  140.0293  153.0556 H   0  0  0  0  0  0  0  0  0  0  0  0
  149.0743  142.6910  153.3466 H   0  0  0  0  0  0  0  0  0  0  0  0
  148.3179  141.2266  152.8181 H   0  0  0  0  0  0  0  0  0  0  0  0
  144.8838  141.4304  158.0504 H   0  0  0  0  0  0  0  0  0  0  0  0
  146.6108  141.0972  158.1527 H   0  0  0  0  0  0  0  0  0  0  0  0
  145.5500  140.0001  157.2647 H   0  0  0  0  0  0  0  0  0  0  0  0
  144.1841  143.1104  156.3618 H   0  0  0  0  0  0  0  0  0  0  0  0
  144.6757  144.3206  154.3108 H   0  0  0  0  0  0  0  0  0  0  0  0
  151.1063  143.8315  157.0362 H   0  0  0  0  0  0  0  0  0  0  0  0
  1  2  1  0  0  0  0
  1 22  1  0  0  0  0
  1 23  1  0  0  0  0
  1 24  1  0  0  0  0
  2 21  1  0  0  0  0
  2  3  2  0  0  0  0
  3  4  1  0  0  0  0
  3 25  1  0  0  0  0
  4  5  2  0  0  0  0
  4 26  1  0  0  0  0
  5  6  1  0  0  0  0
  5  7  1  0  0  0  0
  7  8  1  0  0  0  0
  7 21  2  0  0  0  0
  8  9  1  0  0  0  0
  9 10  1  0  0  0  0
  9 27  1  0  0  0  0
  9 28  1  0  0  0  0
 10 11  1  0  0  0  0
 10 12  1  0  0  0  0
 10 29  1  0  0  0  0
 11 30  1  0  0  0  0
 12 13  1  0  0  0  0
 12 31  1  0  0  0  0
 12 32  1  0  0  0  0
 13 19  1  0  0  0  0
 13 14  1  0  0  0  0
 14 15  2  0  0  0  0
 15 16  1  0  0  0  0
 15 17  1  0  0  0  0
 16 33  1  0  0  0  0
 16 34  1  0  0  0  0
 16 35  1  0  0  0  0
 17 18  2  0  0  0  0
 17 36  1  0  0  0  0
 18 19  1  0  0  0  0
 18 37  1  0  0  0  0
 19 20  2  0  0  0  0
 21 38  1  0  0  0  0
M  END
> <s_m_source_file>
AV-unprocessed.smi

> <i_m_source_file_index>
2782

> <i_lp_mmshare_version>
43012

> <i_f3d_flags>
0

> <s_epik_input>
W0NIM11jMVtjSF1bY0hdYyhDbCljKFtjSF0xKU9bQ0gyXVtDQEhdKFtPSF0pW0NIMl1uMm5jKFtDSDNdKVtjSF1bY0hdYzI9Tw==

> <s_epik_cmdline>
J2VwaWtfcHl0aG9uJywgJy1waCcsICc3LjAnLCAnLXRuJywgJzgnLCAnLW1hJywgJzIwMCcsICctbWV0YWxfYmluZGluZycsICctaW1hZScsICc8aW5maWxlLm1hZT4nLCAnLW9tYWUnLCAnPG91dGZpbGUubWFlPic=

> <r_lp_tautomer_probability>
1

> <r_epik_Ionization_Penalty>
2.96353e-07

> <r_epik_Ionization_Penalty_Charging>
1.79179e-07

> <r_epik_Ionization_Penalty_Neutral>
1.17174e-07

> <r_epik_State_Penalty>
-0

> <r_epik_Charging_Adjusted_Penalty>
1.79179e-07

> <i_epik_Tot_Q>
0

> <i_epik_Tot_abs_Q>
0

> <r_epik_Metal_State_Penalty>
-0

> <b_epik_Metal_Only>
0

> <s_lp_Force_Field>
OPLS_2005

> <r_lp_Energy>
32.0669

> <b_lp_Chiralities_Consistent>
1

> <s_lp_Variant>
AV-unprocessed.smi:2782-1

> <Gold.Version>
5.8.1

> <Gold.Id.Protein>
6NUR|6NUR_protein|mol2

> <Gold.PLP.Fitness>
47.7758

> <Gold.PLP.PLP>
-43.4950

> <Gold.PLP.part.hbond>
-3.0000

> <Gold.PLP.part.metal>
0.0000

> <Gold.PLP.part.buried>
-2.9102

> <Gold.PLP.part.nonpolar>
-37.5046

> <Gold.PLP.part.repulsive>
0.3180

> <Gold.PLP.ligand.clash>
0.0000

> <Gold.PLP.ligand.torsion>
0.7677

> <Gold.PLP.Chemscore.Hbond>
1.9193

> <Gold.PLP.Chemscore.CHOScore>
0.0000

> <Gold.PLP.Chemscore.Metal>
0.0000

> <Gold.Chemscore.Hbonds>
donor molecule, donor type, donor heavy atom, donor atom, acceptor molecule, acceptor atom, score
      L1  H    11    30       P1  7957  1.00
      P1  H  7989  7998       L1    11  0.70

> <Gold.PLP.Chemscore.Internal.Correction>
0.0585

> <Gold.Rescore>
     Score         DG    S(hbond)    S(metal)    S(lipo)     H(rot)  DE(clash)    DE(int)     intcor
     16.11     -17.27       1.40        0.00     109.54       2.22       0.49       0.68       ----

> <Gold.Chemscore.Fitness>
16.1119

> <Gold.Chemscore.DG>
-17.2746

> <Gold.Chemscore.ZeroCoef>
-5.4800

> <Gold.Chemscore.Hbond>
1.3956

> <Gold.Chemscore.Metal>
0.0000

> <Gold.Chemscore.Lipo>
109.5403

> <Gold.Chemscore.Internal_Hbond>
0.0000

> <Gold.Chemscore.DEClash>
0.4860

> <Gold.Chemscore.DEInternal>
0.6766

> <Gold.Chemscore.Rot>
2.2199

> <Gold.Chemscore.Internal.Correction>
   9.000000E+99

> <Gold.Chemscore.Hbonds>
donor molecule, donor type, donor heavy atom, donor atom, acceptor molecule, acceptor atom, score
      L1  H    11    30       P1  7957  1.00
      P1  H  7989  7998       L1    11  0.05

> <Gold.Chemscore.Hbond.Weighted>
-4.6612

> <Gold.Chemscore.Metal.Weighted>
-0.0000

> <Gold.Chemscore.Lipo.Weighted>
-12.8162

> <Gold.Chemscore.Internal_Hbond.Weighted>
0.0000

> <Gold.Chemscore.DEClash.Weighted>
0.4860

> <Gold.Chemscore.DEInternal.Weighted>
0.6766

> <Gold.Chemscore.Rot.Weighted>
5.6829

> <Gold.Chemscore.Internal.Correction.Weighted>
   9.000000E+99

> <Gold.Protein.RotatedTorsions>
[ 6907 6896 6895 6894 ] final  -18.08 input  -60.11 | X-H torsion
[ 7974 7965 7964 7962 ] final   64.65 input  175.53 | X-H torsion
[ 8008 7997 7996 7995 ] final  -32.96 input   59.86 | X-H torsion
[ 10167 10162 10161 10158 ] final  150.95 input  -65.29 | X-H torsion
[ 10718 10713 10712 10709 ] final  -57.53 input   66.30 | X-H torsion
[ 10763 10752 10751 10750 ] final  127.92 input  -60.55 | X-H torsion
[ 11005 11000 10999 10996 ] final  -33.31 input  -57.11 | X-H torsion

> <Gold.Protein.ActiveResidues>
 VAL166  LYS551  ARG553  GLY616  TRP617  ASP618  TYR619  PRO620  LYS621  CYS622 
 ASP623  PHE694  ASN695  SER759  ASP760  ASP761  ALA762  ILE779  LEU786  VAL792 
 PHE793  MET794  SER795  GLU796  ALA797  LYS798  CYS799  TRP800  GLU811  SER814 

> <Gold.Protein.RotatedAtoms>
  151.2836  135.0721  159.9178 H   0  0  0  0  0  0  0  0  0  0  0  0  # atno 6907 bound_to 6896
  152.5329  134.0004  159.7902 H   0  0  0  0  0  0  0  0  0  0  0  0  # atno 6908 bound_to 6896
  151.0263  133.5780  159.2696 H   0  0  0  0  0  0  0  0  0  0  0  0  # atno 6909 bound_to 6896
  145.8477  139.3234  143.0894 H   0  0  0  0  0  0  0  0  0  0  0  0  # atno 7974 bound_to 7965
  154.4163  140.1723  156.1811 H   0  0  0  0  0  0  0  0  0  0  0  0  # atno 8008 bound_to 7997
  155.9681  140.3388  155.6527 H   0  0  0  0  0  0  0  0  0  0  0  0  # atno 8009 bound_to 7997
  155.6661  140.0706  157.2527 H   0  0  0  0  0  0  0  0  0  0  0  0  # atno 8010 bound_to 7997
  139.4845  144.5481  151.7449 H   0  0  0  0  0  0  0  0  0  0  0  0  # atno 10167 bound_to 10162
  156.1204  130.4167  150.0453 H   0  0  0  0  0  0  0  0  0  0  0  0  # atno 10718 bound_to 10713
  153.7172  135.3259  155.3259 H   0  0  0  0  0  0  0  0  0  0  0  0  # atno 10763 bound_to 10752
  154.8367  135.4491  154.1254 H   0  0  0  0  0  0  0  0  0  0  0  0  # atno 10764 bound_to 10752
  153.2364  135.6966  153.7912 H   0  0  0  0  0  0  0  0  0  0  0  0  # atno 10765 bound_to 10752
  140.9624  133.7156  156.1391 H   0  0  0  0  0  0  0  0  0  0  0  0  # atno 11005 bound_to 11000
  145.9394  140.8991  143.0315 LP  0  0  0  0  0  0  0  0  0  0  0  0  # atno 17320 bound_to 7965
  144.6730  140.1527  143.7428 LP  0  0  0  0  0  0  0  0  0  0  0  0  # atno 17321 bound_to 7965
  140.5030  144.1139  150.5976 LP  0  0  0  0  0  0  0  0  0  0  0  0  # atno 17342 bound_to 10162
  140.4039  143.2690  151.9914 LP  0  0  0  0  0  0  0  0  0  0  0  0  # atno 17343 bound_to 10162
  156.8393  130.9420  151.3633 LP  0  0  0  0  0  0  0  0  0  0  0  0  # atno 17370 bound_to 10713
  157.6387  130.8788  149.9407 LP  0  0  0  0  0  0  0  0  0  0  0  0  # atno 17371 bound_to 10713
  140.7447  134.4111  157.5550 LP  0  0  0  0  0  0  0  0  0  0  0  0  # atno 17394 bound_to 11000
  139.8883  134.8860  156.2483 LP  0  0  0  0  0  0  0  0  0  0  0  0  # atno 17395 bound_to 11000

$$$$
