#       Name:                AV-unprocessed.smi:236
#       Creating user name   scv26
#       Creation time:       Thu Mar 26 20:40:27 2020


#       File generated by GOLD software.
#

@<TRIPOS>MOLECULE
AV-unprocessed.smi:236
    70    74     1
SMALL
NO_CHARGES


@<TRIPOS>ATOM
      1 ****        -3.9752  -0.2530   1.9899 C.3            1 S1                 0.0000
      2 ****        -5.0743  -0.1378   0.9213 C.3            1 S1                 0.0000
      3 ****        -6.3504   0.0072   1.5272 O.3            1 S1                 0.0000
      4 ****        -7.3154  -0.2716   0.5291 C.3            1 S1                 0.0000
      5 ****        -6.7497  -1.5125  -0.1507 C.3            1 S1                 0.0000
      6 ****        -5.2312  -1.3252  -0.0650 C.3            1 S1                 0.0000
      7 ****        -4.6696  -2.5188   0.4570 O.3            1 S1                 0.0000
      8 ****        -4.5985  -1.0544  -1.4525 C.3            1 S1                 0.0000
      9 ****        -3.1679  -0.7918  -1.3998 N.pl3          1 S1                 0.0000
     10 ****        -2.1612  -1.7287  -1.3279 C.2            1 S1                 0.0000
     11 ****        -0.9501  -1.2447  -1.2941 N.2            1 S1                 0.0000
     12 ****        -1.1337   0.1313  -1.3511 C.ar           1 S1                 0.0000
     13 ****        -0.2574   1.2533  -1.3569 C.ar           1 S1                 0.0000
     14 ****         1.0892   1.1813  -1.3057 N.3            1 S1                 0.0000
     15 ****         1.6845   0.6585  -2.5280 C.3            1 S1                 0.0000
     16 ****         3.2166   0.7464  -2.4414 C.3            1 S1                 0.0000
     17 ****         3.6641   0.0687  -1.2711 O.3            1 S1                 0.0000
     18 ****         3.1505   0.6511  -0.0742 C.3            1 S1                 0.0000
     19 ****         3.7496  -0.1008   1.1212 C.3            1 S1                 0.0000
     20 ****         5.1211   0.2381   1.2380 O.3            1 S1                 0.0000
     21 ****         5.7630  -0.4240   2.3168 C.3            1 S1                 0.0000
     22 ****         7.2352  -0.0608   2.3919 C.3            1 S1                 0.0000
     23 ****         7.7179   1.3280   2.0265 C.3            1 S1                 0.0000
     24 ****         8.0466   0.1634   1.1321 C.3            1 S1                 0.0000
     25 ****         1.6132   0.5455  -0.1029 C.3            1 S1                 0.0000
     26 ****        -0.8064   2.4898  -1.4347 N.ar           1 S1                 0.0000
     27 ****        -2.1344   2.6274  -1.4997 C.ar           1 S1                 0.0000
     28 ****        -3.0737   1.6786  -1.5037 N.ar           1 S1                 0.0000
     29 ****        -2.5227   0.4330  -1.4255 C.ar           1 S1                 0.0000
     30 ****        -2.9940  -0.3844   1.5332 H              1 S1                 0.0000
     31 ****        -4.1527  -1.0944   2.6600 H              1 S1                 0.0000
     32 ****        -3.9367   0.6495   2.6000 H              1 S1                 0.0000
     33 ****        -4.9089   0.7794   0.3554 H              1 S1                 0.0000
     34 ****        -8.3039  -0.4385   0.9575 H              1 S1                 0.0000
     35 ****        -7.3769   0.5648  -0.1692 H              1 S1                 0.0000
     36 ****        -7.0695  -2.3944   0.4071 H              1 S1                 0.0000
     37 ****        -7.1176  -1.6247  -1.1711 H              1 S1                 0.0000
     38 ****        -4.8885  -3.2323  -0.1225 H              1 S1                 0.0000
     39 ****        -4.7630  -1.9040  -2.1166 H              1 S1                 0.0000
     40 ****        -5.0861  -0.2013  -1.9261 H              1 S1                 0.0000
     41 ****        -2.3548  -2.7911  -1.2971 H              1 S1                 0.0000
     42 ****         1.3817  -0.3793  -2.6724 H              1 S1                 0.0000
     43 ****         1.3250   1.2236  -3.3893 H              1 S1                 0.0000
     44 ****         3.6704   0.2826  -3.3173 H              1 S1                 0.0000
     45 ****         3.5472   1.7861  -2.4224 H              1 S1                 0.0000
     46 ****         3.4422   1.7015  -0.0184 H              1 S1                 0.0000
     47 ****         3.2325   0.1880   2.0377 H              1 S1                 0.0000
     48 ****         3.6232  -1.1775   0.9975 H              1 S1                 0.0000
     49 ****         5.2869  -0.1538   3.2603 H              1 S1                 0.0000
     50 ****         5.6769  -1.5051   2.1992 H              1 S1                 0.0000
     51 ****         7.7605  -0.5438   3.2137 H              1 S1                 0.0000
     52 ****         6.9855   2.0473   1.6656 H              1 S1                 0.0000
     53 ****         8.5271   1.7487   2.6199 H              1 S1                 0.0000
     54 ****         9.0750  -0.1917   1.1283 H              1 S1                 0.0000
     55 ****         7.5327   0.1056   0.1745 H              1 S1                 0.0000
     56 ****         1.1872   1.0242   0.7799 H              1 S1                 0.0000
     57 ****         1.3179  -0.5037  -0.0757 H              1 S1                 0.0000
     58 ****        -2.4964   3.6433  -1.5581 H              1 S1                 0.0000
     59 ****        -6.4660   0.9410   1.8656 LP             1 S1                 0.0000
     60 ****        -6.4455  -0.6367   2.2865 LP             1 S1                 0.0000
     61 ****        -5.0431  -2.6971   1.3674 LP             1 S1                 0.0000
     62 ****        -3.6758  -2.4258   0.5168 LP             1 S1                 0.0000
     63 ****        -0.0879  -1.7484  -1.2397 LP             1 S1                 0.0000
     64 ****         1.3844   2.1343  -1.2388 LP             1 S1                 0.0000
     65 ****         4.6630   0.1037  -1.2421 LP             1 S1                 0.0000
     66 ****         3.3652  -0.8845  -1.3181 LP             1 S1                 0.0000
     67 ****         5.1950   1.2252   1.3799 LP             1 S1                 0.0000
     68 ****         5.5852  -0.0122   0.3883 LP             1 S1                 0.0000
     69 ****        -0.2185   3.2986  -1.4435 LP             1 S1                 0.0000
     70 ****        -4.0560   1.8581  -1.5572 LP             1 S1                 0.0000
@<TRIPOS>BOND
    1    1    2 1     
    2    1   30 1     
    3    1   31 1     
    4    1   32 1     
    5    2    6 1     
    6    2    3 1     
    7    2   33 1     
    8    3    4 1     
    9    4    5 1     
   10    4   34 1     
   11    4   35 1     
   12    5    6 1     
   13    5   36 1     
   14    5   37 1     
   15    6    7 1     
   16    6    8 1     
   17    7   38 1     
   18    8    9 1     
   19    8   39 1     
   20    8   40 1     
   21    9   29 1     
   22    9   10 1     
   23   10   11 2     
   24   10   41 1     
   25   11   12 1     
   26   12   29 ar    
   27   12   13 ar    
   28   13   14 1     
   29   13   26 ar    
   30   14   25 1     
   31   14   15 1     
   32   15   16 1     
   33   15   42 1     
   34   15   43 1     
   35   16   17 1     
   36   16   44 1     
   37   16   45 1     
   38   17   18 1     
   39   18   19 1     
   40   18   25 1     
   41   18   46 1     
   42   19   20 1     
   43   19   47 1     
   44   19   48 1     
   45   20   21 1     
   46   21   22 1     
   47   21   49 1     
   48   21   50 1     
   49   22   24 1     
   50   22   23 1     
   51   22   51 1     
   52   23   24 1     
   53   23   52 1     
   54   23   53 1     
   55   24   54 1     
   56   24   55 1     
   57   25   56 1     
   58   25   57 1     
   59   26   27 ar    
   60   27   28 ar    
   61   27   58 1     
   62   28   29 ar    
   63    3   59 1     
   64    3   60 1     
   65    7   61 1     
   66    7   62 1     
   67   11   63 1     
   68   14   64 1     
   69   17   65 1     
   70   17   66 1     
   71   20   67 1     
   72   20   68 1     
   73   26   69 1     
   74   28   70 1     
@<TRIPOS>SUBSTRUCTURE
      1 S1             1
@<TRIPOS>SET
LONE_PAIRS      STATIC     ATOMS    <user>   **** ""
12 59 60 61 62 63 64 65 66 67 68 69 70
DONOR_HYDROGENS      STATIC     ATOMS    <user>   **** ""
1 38
ATOM$BLUE        STATIC     ATOMS    COLORGROUP SYSTEM
12 59 60 61 62 63 64 65 66 67 68 69 70
ATOM$RED        STATIC     ATOMS    COLORGROUP SYSTEM
1 38
