AV-unprocessed.smi:2593|AV-procd|sdf|10164|dock8
  -GOLD-   2272014183D 1   1.00000     0.00000
 Structure written by MMmdl.
 41 43  0  0  0  0  0  0  0  0  2 V2000
  152.9839  138.5185  154.7173 C   0  0  0  0  0  0  0  0  0  0  0  0
  152.7862  139.3524  155.8451 O   0  0  0  0  0  0  0  0  0  0  0  0
  151.8643  138.8040  156.7733 C   0  0  0  0  0  0  0  0  0  0  0  0
  151.7062  139.7603  157.9636 C   0  0  0  0  0  0  0  0  0  0  0  0
  151.3207  141.1141  157.5410 N   0  0  0  0  0  0  0  0  0  0  0  0
  150.5877  141.5370  156.4730 C   0  0  0  0  0  0  0  0  0  0  0  0
  149.8129  140.5280  155.2530 S   0  0  0  0  0  0  0  0  0  0  0  0
  148.9307  141.7007  154.1837 C   0  0  0  0  0  0  0  0  0  0  0  0
  147.5382  141.9495  154.7311 C   0  0  0  0  0  0  0  0  0  0  0  0
  146.6359  142.7892  154.0453 C   0  0  0  0  0  0  0  0  0  0  0  0
  145.3664  143.0132  154.6121 C   0  0  0  0  0  0  0  0  0  0  0  0
  145.0528  142.3972  155.8393 C   0  0  0  0  0  0  0  0  0  0  0  0
  146.0243  141.5755  156.4462 C   0  0  0  0  0  0  0  0  0  0  0  0
  145.7550  140.9554  157.6633 N   0  0  0  0  0  0  0  0  0  0  0  0
  147.2410  141.3507  155.9070 N   0  0  0  0  0  0  0  0  0  0  0  0
  150.5279  142.8957  156.5220 N   0  3  0  0  0  0  0  0  0  0  0  0
  151.2271  143.3515  157.6404 C   0  0  0  0  0  0  0  0  0  0  0  0
  151.4439  144.6410  158.1158 C   0  0  0  0  0  0  0  0  0  0  0  0
  152.2100  144.7606  159.2938 C   0  0  0  0  0  0  0  0  0  0  0  0
  152.7283  143.6262  159.9516 C   0  0  0  0  0  0  0  0  0  0  0  0
  152.5020  142.3232  159.4608 C   0  0  0  0  0  0  0  0  0  0  0  0
  151.7414  142.2133  158.2973 C   0  0  0  0  0  0  0  0  0  0  0  0
  153.7023  138.9815  154.0409 H   0  0  0  0  0  0  0  0  0  0  0  0
  152.0527  138.3699  154.1691 H   0  0  0  0  0  0  0  0  0  0  0  0
  153.3774  137.5447  155.0110 H   0  0  0  0  0  0  0  0  0  0  0  0
  150.8967  138.6483  156.2941 H   0  0  0  0  0  0  0  0  0  0  0  0
  152.2179  137.8311  157.1177 H   0  0  0  0  0  0  0  0  0  0  0  0
  150.9362  139.3864  158.6377 H   0  0  0  0  0  0  0  0  0  0  0  0
  152.6249  139.8191  158.5478 H   0  0  0  0  0  0  0  0  0  0  0  0
  149.4866  142.6374  154.1382 H   0  0  0  0  0  0  0  0  0  0  0  0
  148.8770  141.3072  153.1683 H   0  0  0  0  0  0  0  0  0  0  0  0
  146.9107  143.2547  153.1099 H   0  0  0  0  0  0  0  0  0  0  0  0
  144.6482  143.6501  154.1173 H   0  0  0  0  0  0  0  0  0  0  0  0
  144.0880  142.5541  156.2996 H   0  0  0  0  0  0  0  0  0  0  0  0
  144.8690  141.0792  158.1318 H   0  0  0  0  0  0  0  0  0  0  0  0
  146.3892  140.2744  158.0554 H   0  0  0  0  0  0  0  0  0  0  0  0
  151.0490  145.5120  157.6133 H   0  0  0  0  0  0  0  0  0  0  0  0
  152.4047  145.7424  159.7007 H   0  0  0  0  0  0  0  0  0  0  0  0
  153.3115  143.7578  160.8515 H   0  0  0  0  0  0  0  0  0  0  0  0
  152.9042  141.4607  159.9713 H   0  0  0  0  0  0  0  0  0  0  0  0
  150.0362  143.4643  155.8448 H   0  0  0  0  0  0  0  0  0  0  0  0
  1  2  1  0  0  0  0
  1 23  1  0  0  0  0
  1 24  1  0  0  0  0
  1 25  1  0  0  0  0
  2  3  1  0  0  0  0
  3  4  1  0  0  0  0
  3 26  1  0  0  0  0
  3 27  1  0  0  0  0
  4  5  1  0  0  0  0
  4 28  1  0  0  0  0
  4 29  1  0  0  0  0
  5 22  1  0  0  0  0
  5  6  1  0  0  0  0
  6  7  1  0  0  0  0
  6 16  2  0  0  0  0
  7  8  1  0  0  0  0
  8  9  1  0  0  0  0
  8 30  1  0  0  0  0
  8 31  1  0  0  0  0
  9 15  1  0  0  0  0
  9 10  2  0  0  0  0
 10 11  1  0  0  0  0
 10 32  1  0  0  0  0
 11 12  2  0  0  0  0
 11 33  1  0  0  0  0
 12 13  1  0  0  0  0
 12 34  1  0  0  0  0
 13 14  1  0  0  0  0
 13 15  2  0  0  0  0
 14 35  1  0  0  0  0
 14 36  1  0  0  0  0
 16 17  1  0  0  0  0
 16 41  1  0  0  0  0
 17 22  2  0  0  0  0
 17 18  1  0  0  0  0
 18 19  2  0  0  0  0
 18 37  1  0  0  0  0
 19 20  1  0  0  0  0
 19 38  1  0  0  0  0
 20 21  2  0  0  0  0
 20 39  1  0  0  0  0
 21 22  1  0  0  0  0
 21 40  1  0  0  0  0
M  CHG  1  16   1
M  END
> <s_m_source_file>
AV-unprocessed.smi

> <i_m_source_file_index>
2593

> <i_lp_mmshare_version>
43012

> <i_f3d_flags>
0

> <s_epik_input>
W2NIXTFbY0hdW2NIXVtjSF1jKGMxMiluKFtDSDJdW0NIMl1PW0NIM10pYyhuMilTW0NIMl1jM1tjSF1bY0hdW2NIXWMobjMpW05IMl0=

> <s_epik_cmdline>
J2VwaWtfcHl0aG9uJywgJy1waCcsICc3LjAnLCAnLXRuJywgJzgnLCAnLW1hJywgJzIwMCcsICctbWV0YWxfYmluZGluZycsICctaW1hZScsICc8aW5maWxlLm1hZT4nLCAnLW9tYWUnLCAnPG91dGZpbGUubWFlPic=

> <r_lp_tautomer_probability>
1

> <r_epik_Ionization_Penalty>
1.62501

> <r_epik_Ionization_Penalty_Charging>
1.62036

> <r_epik_Ionization_Penalty_Neutral>
0.00464699

> <r_epik_State_Penalty>
1.7318

> <r_epik_Charging_Adjusted_Penalty>
3.35216

> <i_epik_Tot_Q>
1

> <i_epik_Tot_abs_Q>
1

> <r_epik_Metal_State_Penalty>
1.7649

> <b_epik_Metal_Only>
0

> <s_lp_Force_Field>
OPLS_2005

> <r_lp_Energy>
8.46533

> <b_lp_Chiralities_Consistent>
1

> <s_lp_Variant>
AV-unprocessed.smi:2593-2

> <Gold.Version>
5.8.1

> <Gold.Id.Protein>
6NUR|6NUR_protein|mol2

> <Gold.PLP.Fitness>
57.0677

> <Gold.PLP.PLP>
-49.5804

> <Gold.PLP.part.hbond>
-2.0000

> <Gold.PLP.part.metal>
0.0000

> <Gold.PLP.part.buried>
-4.9281

> <Gold.PLP.part.nonpolar>
-44.6373

> <Gold.PLP.part.repulsive>
0.2047

> <Gold.PLP.ligand.clash>
0.0000

> <Gold.PLP.ligand.torsion>
0.5700

> <Gold.PLP.Chemscore.Hbond>
2.8560

> <Gold.PLP.Chemscore.CHOScore>
0.0000

> <Gold.PLP.Chemscore.Metal>
0.0000

> <Gold.Chemscore.Hbonds>
donor molecule, donor type, donor heavy atom, donor atom, acceptor molecule, acceptor atom, score
      L1  H    16    41       P1  8028  1.79
      P1  H  7997  8009       L1     2  1.00

> <Gold.PLP.Chemscore.Internal.Correction>
0.0592

> <Gold.Rescore>
     Score         DG    S(hbond)    S(metal)    S(lipo)     H(rot)  DE(clash)    DE(int)     intcor
     19.85     -20.81       1.90        0.00     124.77       2.19       0.35       0.62       ----

> <Gold.Chemscore.Fitness>
19.8485

> <Gold.Chemscore.DG>
-20.8115

> <Gold.Chemscore.ZeroCoef>
-5.4800

> <Gold.Chemscore.Hbond>
1.9011

> <Gold.Chemscore.Metal>
0.0000

> <Gold.Chemscore.Lipo>
124.7742

> <Gold.Chemscore.Internal_Hbond>
0.0000

> <Gold.Chemscore.DEClash>
0.3457

> <Gold.Chemscore.DEInternal>
0.6173

> <Gold.Chemscore.Rot>
2.1941

> <Gold.Chemscore.Internal.Correction>
   9.000000E+99

> <Gold.Chemscore.Hbonds>
donor molecule, donor type, donor heavy atom, donor atom, acceptor molecule, acceptor atom, score
      L1  H    16    41       P1  8028  0.88
      P1  H  7997  8009       L1     2  0.70

> <Gold.Chemscore.Hbond.Weighted>
-6.3498

> <Gold.Chemscore.Metal.Weighted>
-0.0000

> <Gold.Chemscore.Lipo.Weighted>
-14.5986

> <Gold.Chemscore.Internal_Hbond.Weighted>
0.0000

> <Gold.Chemscore.DEClash.Weighted>
0.3457

> <Gold.Chemscore.DEInternal.Weighted>
0.6173

> <Gold.Chemscore.Rot.Weighted>
5.6169

> <Gold.Chemscore.Internal.Correction.Weighted>
   9.000000E+99

> <Gold.Protein.RotatedTorsions>
[ 6907 6896 6895 6894 ] final -112.15 input  -60.11 | X-H torsion
[ 7974 7965 7964 7962 ] final  -70.09 input  175.53 | X-H torsion
[ 8008 7997 7996 7995 ] final -160.01 input   59.86 | X-H torsion
[ 10167 10162 10161 10158 ] final   -0.69 input  -65.29 | X-H torsion
[ 10718 10713 10712 10709 ] final  -91.23 input   66.30 | X-H torsion
[ 10763 10752 10751 10750 ] final   63.26 input  -60.55 | X-H torsion
[ 11005 11000 10999 10996 ] final  153.09 input  -57.11 | X-H torsion

> <Gold.Protein.ActiveResidues>
 VAL166  LYS551  ARG553  GLY616  TRP617  ASP618  TYR619  PRO620  LYS621  CYS622 
 ASP623  PHE694  ASN695  SER759  ASP760  ASP761  ALA762  ILE779  LEU786  VAL792 
 PHE793  MET794  SER795  GLU796  ALA797  LYS798  CYS799  TRP800  GLU811  SER814 

> <Gold.Protein.RotatedAtoms>
  150.7739  133.9131  159.3375 H   0  0  0  0  0  0  0  0  0  0  0  0  # atno 6907 bound_to 6896
  151.7010  135.0928  160.0260 H   0  0  0  0  0  0  0  0  0  0  0  0  # atno 6908 bound_to 6896
  152.3767  133.6453  159.6165 H   0  0  0  0  0  0  0  0  0  0  0  0  # atno 6909 bound_to 6896
  145.6955  140.9137  143.0759 H   0  0  0  0  0  0  0  0  0  0  0  0  # atno 7974 bound_to 7965
  155.7711  140.0852  157.2107 H   0  0  0  0  0  0  0  0  0  0  0  0  # atno 8008 bound_to 7997
  154.3996  140.1525  156.3000 H   0  0  0  0  0  0  0  0  0  0  0  0  # atno 8009 bound_to 7997
  155.8746  140.3424  155.5848 H   0  0  0  0  0  0  0  0  0  0  0  0  # atno 8010 bound_to 7997
  140.6778  143.6864  150.8063 H   0  0  0  0  0  0  0  0  0  0  0  0  # atno 10167 bound_to 10162
  155.9992  130.4940  150.5443 H   0  0  0  0  0  0  0  0  0  0  0  0  # atno 10718 bound_to 10713
  153.0011  135.5435  154.6323 H   0  0  0  0  0  0  0  0  0  0  0  0  # atno 10763 bound_to 10752
  154.5598  135.2833  155.0932 H   0  0  0  0  0  0  0  0  0  0  0  0  # atno 10764 bound_to 10752
  154.2139  135.6462  153.5176 H   0  0  0  0  0  0  0  0  0  0  0  0  # atno 10765 bound_to 10752
  140.1366  134.8767  157.2275 H   0  0  0  0  0  0  0  0  0  0  0  0  # atno 11005 bound_to 11000
  144.6984  139.8878  143.7451 LP  0  0  0  0  0  0  0  0  0  0  0  0  # atno 17320 bound_to 7965
  146.0844  139.3832  143.0444 LP  0  0  0  0  0  0  0  0  0  0  0  0  # atno 17321 bound_to 7965
  140.0560  143.5202  152.2651 LP  0  0  0  0  0  0  0  0  0  0  0  0  # atno 17342 bound_to 10162
  139.6081  144.7602  151.3014 LP  0  0  0  0  0  0  0  0  0  0  0  0  # atno 17343 bound_to 10162
  157.3375  131.0711  151.1813 LP  0  0  0  0  0  0  0  0  0  0  0  0  # atno 17370 bound_to 10713
  157.2673  130.6687  149.6003 LP  0  0  0  0  0  0  0  0  0  0  0  0  # atno 17371 bound_to 10713
  140.2775  134.3389  155.7354 LP  0  0  0  0  0  0  0  0  0  0  0  0  # atno 17394 bound_to 11000
  141.2179  133.7459  156.9314 LP  0  0  0  0  0  0  0  0  0  0  0  0  # atno 17395 bound_to 11000

$$$$
