AV-unprocessed.smi:354|AV-procd|sdf|2405|dock2
  -GOLD-   2262022333D 1   1.00000     0.00000
 Structure written by MMmdl.
 37 39  0  0  0  0  0  0  0  0  2 V2000
  152.2439  137.1851  153.6544 O   0  0  0  0  0  0  0  0  0  0  0  0
  151.6352  137.6420  154.8415 C   0  0  0  0  0  0  0  0  0  0  0  0
  150.5265  138.6078  154.5756 C   0  0  0  0  0  0  0  0  0  0  0  0
  149.4748  138.3868  153.7370 N   0  3  0  0  0  0  0  0  0  0  0  0
  148.6396  139.5040  153.7183 C   0  0  0  0  0  0  0  0  0  0  0  0
  147.4601  139.7494  153.0222 C   0  0  0  0  0  0  0  0  0  0  0  0
  146.8534  141.0058  153.2287 C   0  0  0  0  0  0  0  0  0  0  0  0
  147.4194  141.9607  154.0983 C   0  0  0  0  0  0  0  0  0  0  0  0
  148.6162  141.7005  154.7979 C   0  0  0  0  0  0  0  0  0  0  0  0
  149.2093  140.4556  154.5880 C   0  0  0  0  0  0  0  0  0  0  0  0
  150.3719  139.8627  155.0926 N   0  0  0  0  0  0  0  0  0  0  0  0
  151.2063  140.6290  156.0324 C   0  0  0  0  0  0  0  0  0  0  0  0
  150.8961  140.3094  157.5085 C   0  0  2  0  0  0  0  0  0  0  0  0
  149.5532  140.6487  157.7999 O   0  0  0  0  0  0  0  0  0  0  0  0
  151.8943  140.9895  158.4361 C   0  0  0  0  0  0  0  0  0  0  0  0
  152.7257  140.2267  159.2875 C   0  0  0  0  0  0  0  0  0  0  0  0
  153.6367  140.8648  160.1513 C   0  0  0  0  0  0  0  0  0  0  0  0
  153.7197  142.2698  160.1746 C   0  0  0  0  0  0  0  0  0  0  0  0
  152.8890  143.0362  159.3356 C   0  0  0  0  0  0  0  0  0  0  0  0
  151.9778  142.4001  158.4700 C   0  0  0  0  0  0  0  0  0  0  0  0
  151.1781  143.1525  157.6759 F   0  0  0  0  0  0  0  0  0  0  0  0
  151.5676  136.8971  153.0606 H   0  0  0  0  0  0  0  0  0  0  0  0
  151.2397  136.7853  155.3877 H   0  0  0  0  0  0  0  0  0  0  0  0
  152.3917  138.0986  155.4780 H   0  0  0  0  0  0  0  0  0  0  0  0
  147.0250  139.0198  152.3551 H   0  0  0  0  0  0  0  0  0  0  0  0
  145.9360  141.2422  152.7091 H   0  0  0  0  0  0  0  0  0  0  0  0
  146.9265  142.9130  154.2310 H   0  0  0  0  0  0  0  0  0  0  0  0
  149.0433  142.4397  155.4596 H   0  0  0  0  0  0  0  0  0  0  0  0
  152.2532  140.4259  155.8034 H   0  0  0  0  0  0  0  0  0  0  0  0
  151.0574  141.6903  155.8351 H   0  0  0  0  0  0  0  0  0  0  0  0
  150.9718  139.2328  157.6631 H   0  0  0  0  0  0  0  0  0  0  0  0
  149.0533  139.8507  157.8806 H   0  0  0  0  0  0  0  0  0  0  0  0
  152.6679  139.1481  159.2871 H   0  0  0  0  0  0  0  0  0  0  0  0
  154.2699  140.2757  160.7981 H   0  0  0  0  0  0  0  0  0  0  0  0
  154.4166  142.7592  160.8387 H   0  0  0  0  0  0  0  0  0  0  0  0
  152.9481  144.1143  159.3581 H   0  0  0  0  0  0  0  0  0  0  0  0
  149.3462  137.5325  153.2102 H   0  0  0  0  0  0  0  0  0  0  0  0
  1  2  1  0  0  0  0
  1 22  1  0  0  0  0
  2  3  1  0  0  0  0
  2 23  1  0  0  0  0
  2 24  1  0  0  0  0
  3 11  1  0  0  0  0
  3  4  2  0  0  0  0
  4  5  1  0  0  0  0
  4 37  1  0  0  0  0
  5 10  2  0  0  0  0
  5  6  1  0  0  0  0
  6  7  2  0  0  0  0
  6 25  1  0  0  0  0
  7  8  1  0  0  0  0
  7 26  1  0  0  0  0
  8  9  2  0  0  0  0
  8 27  1  0  0  0  0
  9 10  1  0  0  0  0
  9 28  1  0  0  0  0
 10 11  1  0  0  0  0
 11 12  1  0  0  0  0
 12 13  1  0  0  0  0
 12 29  1  0  0  0  0
 12 30  1  0  0  0  0
 13 14  1  0  0  0  0
 13 15  1  0  0  0  0
 13 31  1  0  0  0  0
 14 32  1  0  0  0  0
 15 20  1  0  0  0  0
 15 16  2  0  0  0  0
 16 17  1  0  0  0  0
 16 33  1  0  0  0  0
 17 18  2  0  0  0  0
 17 34  1  0  0  0  0
 18 19  1  0  0  0  0
 18 35  1  0  0  0  0
 19 20  2  0  0  0  0
 19 36  1  0  0  0  0
 20 21  1  0  0  0  0
M  CHG  1   4   1
M  END
> <s_m_source_file>
AV-unprocessed.smi

> <i_m_source_file_index>
354

> <i_lp_mmshare_version>
43012

> <i_f3d_flags>
0

> <s_epik_input>
W2NIXTFbY0hdW2NIXVtjSF1jKGMxMiluKGMobjIpW0NIMl1bT0hdKVtDSDJdW0NASF0oW09IXSljM1tjSF1bY0hdW2NIXVtjSF1jM0Y=

> <s_epik_cmdline>
J2VwaWtfcHl0aG9uJywgJy1waCcsICc3LjAnLCAnLXRuJywgJzgnLCAnLW1hJywgJzIwMCcsICctbWV0YWxfYmluZGluZycsICctaW1hZScsICc8aW5maWxlLm1hZT4nLCAnLW9tYWUnLCAnPG91dGZpbGUubWFlPic=

> <r_epik_Ionization_Penalty>
1.35643

> <r_epik_Ionization_Penalty_Charging>
1.35557

> <r_epik_Ionization_Penalty_Neutral>
0.000857128

> <r_epik_State_Penalty>
1.43401

> <r_epik_Charging_Adjusted_Penalty>
2.78958

> <i_epik_Tot_Q>
1

> <i_epik_Tot_abs_Q>
1

> <r_epik_Metal_State_Penalty>
5.47166

> <b_epik_Metal_Only>
0

> <s_lp_Force_Field>
OPLS_2005

> <r_lp_Energy>
14.4216

> <b_lp_Chiralities_Consistent>
1

> <s_lp_Variant>
AV-unprocessed.smi:354-3

> <Gold.Version>
5.8.1

> <Gold.Id.Protein>
6NUR|6NUR_protein|mol2

> <Gold.PLP.Fitness>
58.9243

> <Gold.PLP.PLP>
-47.9133

> <Gold.PLP.part.hbond>
-3.9245

> <Gold.PLP.part.metal>
0.0000

> <Gold.PLP.part.buried>
0.3248

> <Gold.PLP.part.nonpolar>
-45.0193

> <Gold.PLP.part.repulsive>
0.0560

> <Gold.PLP.ligand.clash>
0.0000

> <Gold.PLP.ligand.torsion>
0.4132

> <Gold.PLP.Chemscore.Hbond>
3.9280

> <Gold.PLP.Chemscore.CHOScore>
0.0000

> <Gold.PLP.Chemscore.Metal>
0.0000

> <Gold.Chemscore.Hbonds>
donor molecule, donor type, donor heavy atom, donor atom, acceptor molecule, acceptor atom, score
      L1  H     1    22       P1  7949  0.93
      L1  H     4    37       P1  7948  2.00
      P1  H 10752 10765       L1     1  1.00

> <Gold.PLP.Chemscore.Internal.Correction>
0.0535

> <Gold.Rescore>
     Score         DG    S(hbond)    S(metal)    S(lipo)     H(rot)  DE(clash)    DE(int)     intcor
     17.38     -19.38       2.19        0.00     118.13       2.82       0.27       1.73       ----

> <Gold.Chemscore.Fitness>
17.3808

> <Gold.Chemscore.DG>
-19.3783

> <Gold.Chemscore.ZeroCoef>
-5.4800

> <Gold.Chemscore.Hbond>
2.1859

> <Gold.Chemscore.Metal>
0.0000

> <Gold.Chemscore.Lipo>
118.1317

> <Gold.Chemscore.Internal_Hbond>
0.0000

> <Gold.Chemscore.DEClash>
0.2694

> <Gold.Chemscore.DEInternal>
1.7281

> <Gold.Chemscore.Rot>
2.8219

> <Gold.Chemscore.Internal.Correction>
   9.000000E+99

> <Gold.Chemscore.Hbonds>
donor molecule, donor type, donor heavy atom, donor atom, acceptor molecule, acceptor atom, score
      L1  H     1    22       P1  7949  0.84
      L1  H     4    37       P1  7948  0.97
      P1  H 10752 10765       L1     1  0.22

> <Gold.Chemscore.Hbond.Weighted>
-7.3009

> <Gold.Chemscore.Metal.Weighted>
-0.0000

> <Gold.Chemscore.Lipo.Weighted>
-13.8214

> <Gold.Chemscore.Internal_Hbond.Weighted>
0.0000

> <Gold.Chemscore.DEClash.Weighted>
0.2694

> <Gold.Chemscore.DEInternal.Weighted>
1.7281

> <Gold.Chemscore.Rot.Weighted>
7.2240

> <Gold.Chemscore.Internal.Correction.Weighted>
   9.000000E+99

> <Gold.Protein.RotatedTorsions>
[ 6907 6896 6895 6894 ] final  159.69 input  -60.11 | X-H torsion
[ 7974 7965 7964 7962 ] final  -94.43 input  175.53 | X-H torsion
[ 8008 7997 7996 7995 ] final -116.48 input   59.86 | X-H torsion
[ 10167 10162 10161 10158 ] final -157.97 input  -65.29 | X-H torsion
[ 10718 10713 10712 10709 ] final   34.18 input   66.30 | X-H torsion
[ 10763 10752 10751 10750 ] final  144.60 input  -60.55 | X-H torsion
[ 11005 11000 10999 10996 ] final   92.48 input  -57.11 | X-H torsion

> <Gold.Protein.ActiveResidues>
 VAL166  LYS551  ARG553  GLY616  TRP617  ASP618  TYR619  PRO620  LYS621  CYS622 
 ASP623  PHE694  ASN695  SER759  ASP760  ASP761  ALA762  ILE779  LEU786  VAL792 
 PHE793  MET794  SER795  GLU796  ALA797  LYS798  CYS799  TRP800  GLU811  SER814 

> <Gold.Protein.RotatedAtoms>
  151.9818  133.3760  159.4110 H   0  0  0  0  0  0  0  0  0  0  0  0  # atno 6907 bound_to 6896
  150.6934  134.4031  159.5137 H   0  0  0  0  0  0  0  0  0  0  0  0  # atno 6908 bound_to 6896
  152.1751  134.8801  160.0582 H   0  0  0  0  0  0  0  0  0  0  0  0  # atno 6909 bound_to 6896
  145.3733  140.9508  143.2435 H   0  0  0  0  0  0  0  0  0  0  0  0  # atno 7974 bound_to 7965
  155.0684  140.0393  157.2600 H   0  0  0  0  0  0  0  0  0  0  0  0  # atno 8008 bound_to 7997
  154.7002  140.2671  155.6702 H   0  0  0  0  0  0  0  0  0  0  0  0  # atno 8009 bound_to 7997
  156.2758  140.2742  156.1610 H   0  0  0  0  0  0  0  0  0  0  0  0  # atno 8010 bound_to 7997
  139.6728  143.9715  152.2293 H   0  0  0  0  0  0  0  0  0  0  0  0  # atno 10167 bound_to 10162
  157.3072  130.7380  149.6702 H   0  0  0  0  0  0  0  0  0  0  0  0  # atno 10718 bound_to 10713
  153.9916  135.2931  155.3411 H   0  0  0  0  0  0  0  0  0  0  0  0  # atno 10763 bound_to 10752
  154.7211  135.5108  153.8817 H   0  0  0  0  0  0  0  0  0  0  0  0  # atno 10764 bound_to 10752
  153.0807  135.6678  154.0168 H   0  0  0  0  0  0  0  0  0  0  0  0  # atno 10765 bound_to 10752
  139.8823  134.8735  156.3579 H   0  0  0  0  0  0  0  0  0  0  0  0  # atno 11005 bound_to 11000
  144.8560  139.5249  143.6834 LP  0  0  0  0  0  0  0  0  0  0  0  0  # atno 17320 bound_to 7965
  146.2875  139.7045  142.9185 LP  0  0  0  0  0  0  0  0  0  0  0  0  # atno 17321 bound_to 7965
  139.9484  144.6636  150.8196 LP  0  0  0  0  0  0  0  0  0  0  0  0  # atno 17342 bound_to 10162
  140.7624  143.3198  151.2648 LP  0  0  0  0  0  0  0  0  0  0  0  0  # atno 17343 bound_to 10162
  155.9675  130.4262  150.4689 LP  0  0  0  0  0  0  0  0  0  0  0  0  # atno 17370 bound_to 10713
  157.2681  131.0581  151.2277 LP  0  0  0  0  0  0  0  0  0  0  0  0  # atno 17371 bound_to 10713
  140.9549  133.7426  156.0322 LP  0  0  0  0  0  0  0  0  0  0  0  0  # atno 17394 bound_to 11000
  140.8060  134.3454  157.5426 LP  0  0  0  0  0  0  0  0  0  0  0  0  # atno 17395 bound_to 11000

$$$$
