AV-unprocessed.smi:67|AV-procd|sdf|632|dock7
  -GOLD-   2262016523D 1   1.00000     0.00000
 Structure written by MMmdl.
 49 51  0  0  0  0  0  0  0  0  3 V2000
  145.0898  134.5268  150.2741 O   0  0  0  0  0  0  0  0  0  0  0  0
  145.0794  133.1256  150.4825 C   0  0  2  0  0  0  0  0  0  0  0  0
  146.2316  132.7422  151.4390 C   0  0  0  0  0  0  0  0  0  0  0  0
  146.0278  131.4071  152.0637 N   0  3  2  0  0  0  0  0  0  0  0  0
  146.9668  131.1398  153.1831 C   0  0  0  0  0  0  0  0  0  0  0  0
  146.6254  129.8181  153.8934 C   0  0  0  0  0  0  0  0  0  0  0  0
  146.6005  128.6330  152.9153 C   0  0  2  0  0  0  0  0  0  0  0  0
  147.9355  128.4224  152.4591 O   0  0  0  0  0  0  0  0  0  0  0  0
  148.2996  127.2030  151.9250 C   0  0  0  0  0  0  0  0  0  0  0  0
  148.4861  127.1568  150.5287 C   0  0  0  0  0  0  0  0  0  0  0  0
  148.8612  125.9599  149.8906 C   0  0  0  0  0  0  0  0  0  0  0  0
  149.0541  124.7891  150.6459 C   0  0  0  0  0  0  0  0  0  0  0  0
  148.8721  124.8122  152.0451 C   0  0  0  0  0  0  0  0  0  0  0  0
  149.0763  123.5608  152.8859 C   0  0  0  0  0  0  0  0  0  0  0  0
  147.9642  123.2941  153.5710 F   0  0  0  0  0  0  0  0  0  0  0  0
  149.3736  122.4987  152.1364 F   0  0  0  0  0  0  0  0  0  0  0  0
  150.0721  123.7660  153.7474 F   0  0  0  0  0  0  0  0  0  0  0  0
  148.5004  126.0181  152.6775 C   0  0  0  0  0  0  0  0  0  0  0  0
  145.6521  128.9609  151.7438 C   0  0  0  0  0  0  0  0  0  0  0  0
  146.0209  130.2965  151.0761 C   0  0  0  0  0  0  0  0  0  0  0  0
  145.1143  132.4013  149.1326 C   0  0  0  0  0  0  0  0  0  0  0  0
  143.6654  132.4555  148.6436 C   0  0  0  0  0  0  0  0  0  0  0  0
  142.8237  132.5025  149.8546 N   0  3  0  0  0  0  0  0  0  0  0  0
  143.6916  132.7433  151.0257 C   0  0  0  0  0  0  0  0  0  0  0  0
  145.1353  134.6989  149.3453 H   0  0  0  0  0  0  0  0  0  0  0  0
  147.1915  132.7800  150.9211 H   0  0  0  0  0  0  0  0  0  0  0  0
  146.2963  133.5031  152.2183 H   0  0  0  0  0  0  0  0  0  0  0  0
  147.9900  131.1147  152.8047 H   0  0  0  0  0  0  0  0  0  0  0  0
  146.9148  131.9548  153.9062 H   0  0  0  0  0  0  0  0  0  0  0  0
  147.3431  129.6272  154.6922 H   0  0  0  0  0  0  0  0  0  0  0  0
  145.6507  129.9101  154.3746 H   0  0  0  0  0  0  0  0  0  0  0  0
  146.2464  127.7630  153.4690 H   0  0  0  0  0  0  0  0  0  0  0  0
  148.3409  128.0501  149.9388 H   0  0  0  0  0  0  0  0  0  0  0  0
  149.0018  125.9402  148.8199 H   0  0  0  0  0  0  0  0  0  0  0  0
  149.3433  123.8788  150.1424 H   0  0  0  0  0  0  0  0  0  0  0  0
  148.3732  126.0026  153.7486 H   0  0  0  0  0  0  0  0  0  0  0  0
  145.6581  128.1658  150.9990 H   0  0  0  0  0  0  0  0  0  0  0  0
  144.6280  129.0165  152.1153 H   0  0  0  0  0  0  0  0  0  0  0  0
  145.3056  130.5088  150.2816 H   0  0  0  0  0  0  0  0  0  0  0  0
  147.0015  130.2203  150.6033 H   0  0  0  0  0  0  0  0  0  0  0  0
  145.8167  132.8404  148.4225 H   0  0  0  0  0  0  0  0  0  0  0  0
  145.4038  131.3595  149.2788 H   0  0  0  0  0  0  0  0  0  0  0  0
  143.4954  133.3691  148.0722 H   0  0  0  0  0  0  0  0  0  0  0  0
  143.4063  131.6083  148.0080 H   0  0  0  0  0  0  0  0  0  0  0  0
  142.1535  133.2530  149.7620 H   0  0  0  0  0  0  0  0  0  0  0  0
  143.7472  131.8072  151.5823 H   0  0  0  0  0  0  0  0  0  0  0  0
  143.2670  133.4936  151.6942 H   0  0  0  0  0  0  0  0  0  0  0  0
  142.3347  131.6264  149.9728 H   0  0  0  0  0  0  0  0  0  0  0  0
  145.1057  131.4304  152.4758 H   0  0  0  0  0  0  0  0  0  0  0  0
  1  2  1  0  0  0  0
  1 25  1  0  0  0  0
  2 24  1  0  0  0  0
  2  3  1  0  0  0  0
  2 21  1  0  0  0  0
  3  4  1  0  0  0  0
  3 26  1  0  0  0  0
  3 27  1  0  0  0  0
  4 20  1  0  0  0  0
  4  5  1  0  0  0  0
  4 49  1  0  0  0  0
  5  6  1  0  0  0  0
  5 28  1  0  0  0  0
  5 29  1  0  0  0  0
  6  7  1  0  0  0  0
  6 30  1  0  0  0  0
  6 31  1  0  0  0  0
  7  8  1  0  0  0  0
  7 19  1  0  0  0  0
  7 32  1  0  0  0  0
  8  9  1  0  0  0  0
  9 18  1  0  0  0  0
  9 10  2  0  0  0  0
 10 11  1  0  0  0  0
 10 33  1  0  0  0  0
 11 12  2  0  0  0  0
 11 34  1  0  0  0  0
 12 13  1  0  0  0  0
 12 35  1  0  0  0  0
 13 14  1  0  0  0  0
 13 18  2  0  0  0  0
 14 15  1  0  0  0  0
 14 16  1  0  0  0  0
 14 17  1  0  0  0  0
 18 36  1  0  0  0  0
 19 20  1  0  0  0  0
 19 37  1  0  0  0  0
 19 38  1  0  0  0  0
 20 39  1  0  0  0  0
 20 40  1  0  0  0  0
 21 22  1  0  0  0  0
 21 41  1  0  0  0  0
 21 42  1  0  0  0  0
 22 23  1  0  0  0  0
 22 43  1  0  0  0  0
 22 44  1  0  0  0  0
 23 24  1  0  0  0  0
 23 45  1  0  0  0  0
 23 48  1  0  0  0  0
 24 46  1  0  0  0  0
 24 47  1  0  0  0  0
M  CHG  1   4   1
M  CHG  1  23   1
M  END
> <s_m_source_file>
AV-unprocessed.smi

> <i_m_source_file_index>
67

> <i_lp_mmshare_version>
43012

> <i_f3d_flags>
0

> <s_epik_input>
W0NIMl0xW05IXVtDSDJdW0NIMl1bQ0BAXTEoW09IXSlbQ0gyXU4yW0NIMl1bQ0gyXVtDSF0oW0NIMl1bQ0gyXTIpT2MzW2NIXVtjSF1bY0hdYyhDKEYpKEYpRilbY0hdMw==

> <s_epik_cmdline>
J2VwaWtfcHl0aG9uJywgJy1waCcsICc3LjAnLCAnLXRuJywgJzgnLCAnLW1hJywgJzIwMCcsICctbWV0YWxfYmluZGluZycsICctaW1hZScsICc8aW5maWxlLm1hZT4nLCAnLW9tYWUnLCAnPG91dGZpbGUubWFlPic=

> <r_lp_tautomer_probability>
1

> <r_epik_Ionization_Penalty>
0.0989853

> <r_epik_Ionization_Penalty_Charging>
0.0989662

> <r_epik_Ionization_Penalty_Neutral>
1.91014e-05

> <r_epik_State_Penalty>
0.0852826

> <r_epik_Charging_Adjusted_Penalty>
0.184249

> <i_epik_Tot_Q>
2

> <i_epik_Tot_abs_Q>
2

> <r_epik_Metal_State_Penalty>
0.0849414

> <b_epik_Metal_Only>
0

> <s_lp_Force_Field>
OPLS_2005

> <r_lp_Energy>
57.0803

> <b_lp_Chiralities_Consistent>
1

> <s_lp_Variant>
AV-unprocessed.smi:67-4

> <Gold.Version>
5.8.1

> <Gold.Id.Protein>
6NUR|6NUR_protein|mol2

> <Gold.PLP.Fitness>
55.4215

> <Gold.PLP.PLP>
-44.4096

> <Gold.PLP.part.hbond>
-3.0000

> <Gold.PLP.part.metal>
0.0000

> <Gold.PLP.part.buried>
-4.7492

> <Gold.PLP.part.nonpolar>
-35.2739

> <Gold.PLP.part.repulsive>
0.2337

> <Gold.PLP.ligand.clash>
0.0000

> <Gold.PLP.ligand.torsion>
0.6550

> <Gold.PLP.Chemscore.Hbond>
4.0000

> <Gold.PLP.Chemscore.CHOScore>
0.0000

> <Gold.PLP.Chemscore.Metal>
0.0000

> <Gold.Chemscore.Hbonds>
donor molecule, donor type, donor heavy atom, donor atom, acceptor molecule, acceptor atom, score
      L1  H     1    25       P1  7921  1.00
      L1  H    23    45       P1 10186  2.00
      L1  H    23    48       P1 10952  1.00

> <Gold.PLP.Chemscore.Internal.Correction>
0.3219

> <Gold.Rescore>
     Score         DG    S(hbond)    S(metal)    S(lipo)     H(rot)  DE(clash)    DE(int)     intcor
     22.41     -25.25       2.96        0.00     133.39       2.24       1.14       1.70       ----

> <Gold.Chemscore.Fitness>
22.4070

> <Gold.Chemscore.DG>
-25.2468

> <Gold.Chemscore.ZeroCoef>
-5.4800

> <Gold.Chemscore.Hbond>
2.9589

> <Gold.Chemscore.Metal>
0.0000

> <Gold.Chemscore.Lipo>
133.3854

> <Gold.Chemscore.Internal_Hbond>
0.0000

> <Gold.Chemscore.DEClash>
1.1361

> <Gold.Chemscore.DEInternal>
1.7037

> <Gold.Chemscore.Rot>
2.2352

> <Gold.Chemscore.Internal.Correction>
   9.000000E+99

> <Gold.Chemscore.Hbonds>
donor molecule, donor type, donor heavy atom, donor atom, acceptor molecule, acceptor atom, score
      L1  H     1    25       P1  7921  0.94
      L1  H    23    45       P1 10186  1.00
      L1  H    23    48       P1 10952  0.86

> <Gold.Chemscore.Hbond.Weighted>
-9.8829

> <Gold.Chemscore.Metal.Weighted>
-0.0000

> <Gold.Chemscore.Lipo.Weighted>
-15.6061

> <Gold.Chemscore.Internal_Hbond.Weighted>
0.0000

> <Gold.Chemscore.DEClash.Weighted>
1.1361

> <Gold.Chemscore.DEInternal.Weighted>
1.7037

> <Gold.Chemscore.Rot.Weighted>
5.7221

> <Gold.Chemscore.Internal.Correction.Weighted>
   9.000000E+99

> <Gold.Protein.RotatedTorsions>
[ 6907 6896 6895 6894 ] final   58.63 input  -60.11 | X-H torsion
[ 7974 7965 7964 7962 ] final  160.97 input  175.53 | X-H torsion
[ 8008 7997 7996 7995 ] final   57.88 input   59.86 | X-H torsion
[ 10167 10162 10161 10158 ] final -177.08 input  -65.29 | X-H torsion
[ 10718 10713 10712 10709 ] final   23.25 input   66.30 | X-H torsion
[ 10763 10752 10751 10750 ] final -105.71 input  -60.55 | X-H torsion
[ 11005 11000 10999 10996 ] final -137.15 input  -57.11 | X-H torsion

> <Gold.Protein.ActiveResidues>
 VAL166  LYS551  ARG553  GLY616  TRP617  ASP618  TYR619  PRO620  LYS621  CYS622 
 ASP623  PHE694  ASN695  SER759  ASP760  ASP761  ALA762  ILE779  LEU786  VAL792 
 PHE793  MET794  SER795  GLU796  ALA797  LYS798  CYS799  TRP800  GLU811  SER814 

> <Gold.Protein.RotatedAtoms>
  152.3842  134.6543  160.0131 H   0  0  0  0  0  0  0  0  0  0  0  0  # atno 6907 bound_to 6896
  151.6797  133.3306  159.3224 H   0  0  0  0  0  0  0  0  0  0  0  0  # atno 6908 bound_to 6896
  150.7772  134.6727  159.6445 H   0  0  0  0  0  0  0  0  0  0  0  0  # atno 6909 bound_to 6896
  144.7709  139.7832  143.6297 H   0  0  0  0  0  0  0  0  0  0  0  0  # atno 7974 bound_to 7965
  155.5409  140.3484  155.4447 H   0  0  0  0  0  0  0  0  0  0  0  0  # atno 8008 bound_to 7997
  156.0652  140.1349  156.9921 H   0  0  0  0  0  0  0  0  0  0  0  0  # atno 8009 bound_to 7997
  154.4499  140.0977  156.6561 H   0  0  0  0  0  0  0  0  0  0  0  0  # atno 8010 bound_to 7997
  139.5498  144.2140  152.1055 H   0  0  0  0  0  0  0  0  0  0  0  0  # atno 10167 bound_to 10162
  157.1635  130.6727  149.6052 H   0  0  0  0  0  0  0  0  0  0  0  0  # atno 10718 bound_to 10713
  154.7965  135.4739  154.0173 H   0  0  0  0  0  0  0  0  0  0  0  0  # atno 10763 bound_to 10752
  153.1711  135.6825  153.8613 H   0  0  0  0  0  0  0  0  0  0  0  0  # atno 10764 bound_to 10752
  153.8195  135.3206  155.3386 H   0  0  0  0  0  0  0  0  0  0  0  0  # atno 10765 bound_to 10752
  140.8738  134.2018  157.4634 H   0  0  0  0  0  0  0  0  0  0  0  0  # atno 11005 bound_to 11000
  146.1855  139.5068  142.9839 LP  0  0  0  0  0  0  0  0  0  0  0  0  # atno 17320 bound_to 7965
  145.6326  141.0301  143.1855 LP  0  0  0  0  0  0  0  0  0  0  0  0  # atno 17321 bound_to 7965
  140.1633  144.5005  150.6620 LP  0  0  0  0  0  0  0  0  0  0  0  0  # atno 17342 bound_to 10162
  140.6757  143.2304  151.5513 LP  0  0  0  0  0  0  0  0  0  0  0  0  # atno 17343 bound_to 10162
  155.9750  130.4703  150.6426 LP  0  0  0  0  0  0  0  0  0  0  0  0  # atno 17370 bound_to 10713
  157.4110  131.0823  151.1221 LP  0  0  0  0  0  0  0  0  0  0  0  0  # atno 17371 bound_to 10713
  139.8714  134.9786  156.5005 LP  0  0  0  0  0  0  0  0  0  0  0  0  # atno 17394 bound_to 11000
  140.8542  133.8109  155.9199 LP  0  0  0  0  0  0  0  0  0  0  0  0  # atno 17395 bound_to 11000

$$$$
