AV-unprocessed.smi:243|AV-procd|sdf|1860|dock10
  -GOLD-   2262020493D 1   1.00000     0.00000
 Structure written by MMmdl.
 58 61  0  0  0  0  0  0  0  0  2 V2000
  152.0974  144.6972  159.3273 C   0  0  0  0  0  0  0  0  0  0  0  0
  151.0193  144.9903  158.2735 C   0  0  0  0  0  0  0  0  0  0  0  0
  150.3989  143.7540  157.7334 N   0  3  2  0  0  0  0  0  0  0  0  0
  149.4958  143.1046  158.7159 C   0  0  0  0  0  0  0  0  0  0  0  0
  148.7303  141.9429  158.0687 C   0  0  0  0  0  0  0  0  0  0  0  0
  149.6980  140.9074  157.4544 C   0  0  1  0  0  0  0  0  0  0  0  0
  149.0021  139.7493  156.8726 N   0  0  0  0  0  0  0  0  0  0  0  0
  148.6235  139.8055  155.4660 C   0  0  0  0  0  0  0  0  0  0  0  0
  149.2185  138.4857  157.3186 C   0  0  0  0  0  0  0  0  0  0  0  0
  148.9495  138.1557  158.6085 N   0  0  0  0  0  0  0  0  0  0  0  0
  149.1729  136.9133  159.0472 C   0  0  0  0  0  0  0  0  0  0  0  0
  149.6530  135.8653  158.3754 N   0  0  0  0  0  0  0  0  0  0  0  0
  149.9293  136.1916  157.0803 C   0  0  0  0  0  0  0  0  0  0  0  0
  149.7424  137.4667  156.4763 C   0  0  0  0  0  0  0  0  0  0  0  0
  150.1133  137.4171  155.1385 N   0  0  0  0  0  0  0  0  0  0  0  0
  150.4988  136.1831  154.9618 C   0  0  0  0  0  0  0  0  0  0  0  0
  150.4357  135.3805  156.0791 N   0  0  0  0  0  0  0  0  0  0  0  0
  150.7998  133.9740  156.1668 C   0  0  0  0  0  0  0  0  0  0  0  0
  149.6236  132.9950  155.9177 C   0  0  2  0  0  0  0  0  0  0  0  0
  148.4586  133.4922  156.5501 O   0  0  0  0  0  0  0  0  0  0  0  0
  149.8833  131.5662  156.4008 C   0  0  0  0  0  0  0  0  0  0  0  0
  150.3020  130.8453  155.1281 C   0  0  0  0  0  0  0  0  0  0  0  0
  149.4309  131.4080  154.1639 O   0  0  0  0  0  0  0  0  0  0  0  0
  149.3544  132.8071  154.4103 C   0  0  0  0  0  0  0  0  0  0  0  0
  150.7041  141.5957  156.4922 C   0  0  2  0  0  0  0  0  0  0  0  0
  151.7693  140.6165  155.9660 C   0  0  0  0  0  0  0  0  0  0  0  0
  151.3898  142.7852  157.1960 C   0  0  0  0  0  0  0  0  0  0  0  0
  152.6019  145.6167  159.6248 H   0  0  0  0  0  0  0  0  0  0  0  0
  152.8559  144.0178  158.9373 H   0  0  0  0  0  0  0  0  0  0  0  0
  151.6799  144.2543  160.2311 H   0  0  0  0  0  0  0  0  0  0  0  0
  150.2511  145.6502  158.6793 H   0  0  0  0  0  0  0  0  0  0  0  0
  151.4964  145.5369  157.4590 H   0  0  0  0  0  0  0  0  0  0  0  0
  150.0751  142.7492  159.5697 H   0  0  0  0  0  0  0  0  0  0  0  0
  148.7782  143.8311  159.0993 H   0  0  0  0  0  0  0  0  0  0  0  0
  148.0964  141.4682  158.8184 H   0  0  0  0  0  0  0  0  0  0  0  0
  148.0585  142.3491  157.3138 H   0  0  0  0  0  0  0  0  0  0  0  0
  150.2889  140.5043  158.2783 H   0  0  0  0  0  0  0  0  0  0  0  0
  149.3533  139.2791  154.8495 H   0  0  0  0  0  0  0  0  0  0  0  0
  148.5692  140.8367  155.1166 H   0  0  0  0  0  0  0  0  0  0  0  0
  147.6464  139.3502  155.3048 H   0  0  0  0  0  0  0  0  0  0  0  0
  148.9353  136.7335  160.0852 H   0  0  0  0  0  0  0  0  0  0  0  0
  150.8454  135.8229  154.0040 H   0  0  0  0  0  0  0  0  0  0  0  0
  151.5988  133.7869  155.4479 H   0  0  0  0  0  0  0  0  0  0  0  0
  151.2322  133.7979  157.1526 H   0  0  0  0  0  0  0  0  0  0  0  0
  148.7058  134.2109  157.1116 H   0  0  0  0  0  0  0  0  0  0  0  0
  150.6257  131.4819  157.1922 H   0  0  0  0  0  0  0  0  0  0  0  0
  148.9636  131.1100  156.7714 H   0  0  0  0  0  0  0  0  0  0  0  0
  151.3382  131.0702  154.8705 H   0  0  0  0  0  0  0  0  0  0  0  0
  150.1861  129.7636  155.1962 H   0  0  0  0  0  0  0  0  0  0  0  0
  148.3855  133.1945  154.0928 H   0  0  0  0  0  0  0  0  0  0  0  0
  150.1157  133.3039  153.8071 H   0  0  0  0  0  0  0  0  0  0  0  0
  150.1690  141.9996  155.6328 H   0  0  0  0  0  0  0  0  0  0  0  0
  152.3318  140.1658  156.7843 H   0  0  0  0  0  0  0  0  0  0  0  0
  152.4808  141.1236  155.3138 H   0  0  0  0  0  0  0  0  0  0  0  0
  151.3249  139.8081  155.3858 H   0  0  0  0  0  0  0  0  0  0  0  0
  152.0463  143.2816  156.4824 H   0  0  0  0  0  0  0  0  0  0  0  0
  152.0249  142.4297  158.0091 H   0  0  0  0  0  0  0  0  0  0  0  0
  149.8157  144.0419  156.9603 H   0  0  0  0  0  0  0  0  0  0  0  0
  1  2  1  0  0  0  0
  1 28  1  0  0  0  0
  1 29  1  0  0  0  0
  1 30  1  0  0  0  0
  2  3  1  0  0  0  0
  2 31  1  0  0  0  0
  2 32  1  0  0  0  0
  3 27  1  0  0  0  0
  3  4  1  0  0  0  0
  3 58  1  0  0  0  0
  4  5  1  0  0  0  0
  4 33  1  0  0  0  0
  4 34  1  0  0  0  0
  5  6  1  0  0  0  0
  5 35  1  0  0  0  0
  5 36  1  0  0  0  0
  6  7  1  0  0  0  0
  6 25  1  0  0  0  0
  6 37  1  0  0  0  0
  7  8  1  0  0  0  0
  7  9  1  0  0  0  0
  8 38  1  0  0  0  0
  8 39  1  0  0  0  0
  8 40  1  0  0  0  0
  9 14  1  0  0  0  0
  9 10  2  0  0  0  0
 10 11  1  0  0  0  0
 11 12  2  0  0  0  0
 11 41  1  0  0  0  0
 12 13  1  0  0  0  0
 13 17  1  0  0  0  0
 13 14  2  0  0  0  0
 14 15  1  0  0  0  0
 15 16  2  0  0  0  0
 16 17  1  0  0  0  0
 16 42  1  0  0  0  0
 17 18  1  0  0  0  0
 18 19  1  0  0  0  0
 18 43  1  0  0  0  0
 18 44  1  0  0  0  0
 19 24  1  0  0  0  0
 19 20  1  0  0  0  0
 19 21  1  0  0  0  0
 20 45  1  0  0  0  0
 21 22  1  0  0  0  0
 21 46  1  0  0  0  0
 21 47  1  0  0  0  0
 22 23  1  0  0  0  0
 22 48  1  0  0  0  0
 22 49  1  0  0  0  0
 23 24  1  0  0  0  0
 24 50  1  0  0  0  0
 24 51  1  0  0  0  0
 25 26  1  0  0  0  0
 25 27  1  0  0  0  0
 25 52  1  0  0  0  0
 26 53  1  0  0  0  0
 26 54  1  0  0  0  0
 26 55  1  0  0  0  0
 27 56  1  0  0  0  0
 27 57  1  0  0  0  0
M  CHG  1   3   1
M  END
> <s_m_source_file>
AV-unprocessed.smi

> <i_m_source_file_index>
243

> <i_lp_mmshare_version>
43012

> <i_f3d_flags>
0

> <s_epik_input>
W0NIM11bQ0gyXU4xW0NIMl1bQ0gyXVtDQEhdKFtDQEBIXShbQ0gzXSlbQ0gyXTEpTihbQ0gzXSljKG5bY0hdbjIpYyhjMjMpbltjSF1uM1tDSDJdW0NAQF00KFtPSF0pW0NIMl1bQ0gyXU9bQ0gyXTQ=

> <s_epik_cmdline>
J2VwaWtfcHl0aG9uJywgJy1waCcsICc3LjAnLCAnLXRuJywgJzgnLCAnLW1hJywgJzIwMCcsICctbWV0YWxfYmluZGluZycsICctaW1hZScsICc8aW5maWxlLm1hZT4nLCAnLW9tYWUnLCAnPG91dGZpbGUubWFlPic=

> <r_lp_tautomer_probability>
1

> <r_epik_Ionization_Penalty>
0.00253099

> <r_epik_Ionization_Penalty_Charging>
0.00137877

> <r_epik_Ionization_Penalty_Neutral>
0.00115221

> <r_epik_State_Penalty>
-0

> <r_epik_Charging_Adjusted_Penalty>
0.00137877

> <i_epik_Tot_Q>
1

> <i_epik_Tot_abs_Q>
1

> <r_epik_Metal_State_Penalty>
-0

> <b_epik_Metal_Only>
0

> <s_lp_Force_Field>
OPLS_2005

> <r_lp_Energy>
45.5006

> <b_lp_Chiralities_Consistent>
1

> <s_lp_Variant>
AV-unprocessed.smi:243-13

> <Gold.Version>
5.8.1

> <Gold.Id.Protein>
6NUR|6NUR_protein|mol2

> <Gold.PLP.Fitness>
45.5623

> <Gold.PLP.PLP>
-36.2306

> <Gold.PLP.part.hbond>
-2.0000

> <Gold.PLP.part.metal>
0.0000

> <Gold.PLP.part.buried>
-6.4763

> <Gold.PLP.part.nonpolar>
-26.9168

> <Gold.PLP.part.repulsive>
0.2033

> <Gold.PLP.ligand.clash>
0.0000

> <Gold.PLP.ligand.torsion>
1.8376

> <Gold.PLP.Chemscore.Hbond>
3.0000

> <Gold.PLP.Chemscore.CHOScore>
1.0000

> <Gold.PLP.Chemscore.Metal>
0.0000

> <Gold.Chemscore.Hbonds>
donor molecule, donor type, donor heavy atom, donor atom, acceptor molecule, acceptor atom, score
      L1  H     3    58       P1  8028  2.00
      P1  H  6896  6909       L1    12  1.00
      L1  C    16    42       P1  7948  0.01
      L1  C    16    42       P1  7949  0.74

> <Gold.PLP.Chemscore.Internal.Correction>
1.0069

> <Gold.Rescore>
     Score         DG    S(hbond)    S(metal)    S(lipo)     H(rot)  DE(clash)    DE(int)     intcor
     13.14     -16.55       1.90        0.00      89.37       2.24       0.26       3.16       ----

> <Gold.Chemscore.Fitness>
13.1363

> <Gold.Chemscore.DG>
-16.5506

> <Gold.Chemscore.ZeroCoef>
-5.4800

> <Gold.Chemscore.Hbond>
1.8992

> <Gold.Chemscore.Metal>
0.0000

> <Gold.Chemscore.Lipo>
89.3712

> <Gold.Chemscore.Internal_Hbond>
0.0000

> <Gold.Chemscore.DEClash>
0.2576

> <Gold.Chemscore.DEInternal>
3.1567

> <Gold.Chemscore.Rot>
2.2379

> <Gold.Chemscore.Internal.Correction>
   9.000000E+99

> <Gold.Chemscore.Hbonds>
donor molecule, donor type, donor heavy atom, donor atom, acceptor molecule, acceptor atom, score
      L1  H     3    58       P1  8028  0.88
      P1  H  6896  6909       L1    12  0.82

> <Gold.Chemscore.Hbond.Weighted>
-6.3433

> <Gold.Chemscore.Metal.Weighted>
-0.0000

> <Gold.Chemscore.Lipo.Weighted>
-10.4564

> <Gold.Chemscore.Internal_Hbond.Weighted>
0.0000

> <Gold.Chemscore.DEClash.Weighted>
0.2576

> <Gold.Chemscore.DEInternal.Weighted>
3.1567

> <Gold.Chemscore.Rot.Weighted>
5.7291

> <Gold.Chemscore.Internal.Correction.Weighted>
   9.000000E+99

> <Gold.Protein.RotatedTorsions>
[ 6907 6896 6895 6894 ] final   47.20 input  -60.11 | X-H torsion
[ 7974 7965 7964 7962 ] final   38.43 input  175.53 | X-H torsion
[ 8008 7997 7996 7995 ] final  163.67 input   59.86 | X-H torsion
[ 10167 10162 10161 10158 ] final -120.27 input  -65.29 | X-H torsion
[ 10718 10713 10712 10709 ] final  127.92 input   66.30 | X-H torsion
[ 10763 10752 10751 10750 ] final   50.83 input  -60.55 | X-H torsion
[ 11005 11000 10999 10996 ] final -124.61 input  -57.11 | X-H torsion

> <Gold.Protein.ActiveResidues>
 VAL166  LYS551  ARG553  GLY616  TRP617  ASP618  TYR619  PRO620  LYS621  CYS622 
 ASP623  PHE694  ASN695  SER759  ASP760  ASP761  ALA762  ILE779  LEU786  VAL792 
 PHE793  MET794  SER795  GLU796  ALA797  LYS798  CYS799  TRP800  GLU811  SER814 

> <Gold.Protein.RotatedAtoms>
  152.2653  134.7990  160.0423 H   0  0  0  0  0  0  0  0  0  0  0  0  # atno 6907 bound_to 6896
  151.8622  133.3454  159.3715 H   0  0  0  0  0  0  0  0  0  0  0  0  # atno 6908 bound_to 6896
  150.7132  134.5122  159.5657 H   0  0  0  0  0  0  0  0  0  0  0  0  # atno 6909 bound_to 6896
  146.1063  139.5773  142.9382 H   0  0  0  0  0  0  0  0  0  0  0  0  # atno 7974 bound_to 7965
  156.1939  140.1717  156.8037 H   0  0  0  0  0  0  0  0  0  0  0  0  # atno 8008 bound_to 7997
  154.5505  140.0718  156.8692 H   0  0  0  0  0  0  0  0  0  0  0  0  # atno 8009 bound_to 7997
  155.3037  140.3363  155.4249 H   0  0  0  0  0  0  0  0  0  0  0  0  # atno 8010 bound_to 7997
  140.0377  143.5185  152.2146 H   0  0  0  0  0  0  0  0  0  0  0  0  # atno 10167 bound_to 10162
  157.5290  131.1098  150.9038 H   0  0  0  0  0  0  0  0  0  0  0  0  # atno 10718 bound_to 10713
  152.9784  135.5866  154.4317 H   0  0  0  0  0  0  0  0  0  0  0  0  # atno 10763 bound_to 10752
  154.3929  135.2768  155.2145 H   0  0  0  0  0  0  0  0  0  0  0  0  # atno 10764 bound_to 10752
  154.4010  135.6103  153.5951 H   0  0  0  0  0  0  0  0  0  0  0  0  # atno 10765 bound_to 10752
  140.9827  134.0650  157.3746 H   0  0  0  0  0  0  0  0  0  0  0  0  # atno 11005 bound_to 11000
  145.5755  141.0389  143.2151 LP  0  0  0  0  0  0  0  0  0  0  0  0  # atno 17320 bound_to 7965
  144.7473  139.7286  143.7287 LP  0  0  0  0  0  0  0  0  0  0  0  0  # atno 17321 bound_to 7965
  139.6034  144.7589  151.3118 LP  0  0  0  0  0  0  0  0  0  0  0  0  # atno 17342 bound_to 10162
  140.7274  143.6964  150.7880 LP  0  0  0  0  0  0  0  0  0  0  0  0  # atno 17343 bound_to 10162
  156.9625  130.5460  149.5286 LP  0  0  0  0  0  0  0  0  0  0  0  0  # atno 17370 bound_to 10713
  156.0408  130.5491  150.8766 LP  0  0  0  0  0  0  0  0  0  0  0  0  # atno 17371 bound_to 10713
  139.8957  135.0142  156.7015 LP  0  0  0  0  0  0  0  0  0  0  0  0  # atno 17394 bound_to 11000
  140.7162  133.9181  155.8116 LP  0  0  0  0  0  0  0  0  0  0  0  0  # atno 17395 bound_to 11000

$$$$
