#       Name:                AV-unprocessed.smi:1772
#       Creating user name   scv26
#       Creation time:       Fri Mar 27 08:39:55 2020


#       File generated by GOLD software.
#

@<TRIPOS>MOLECULE
AV-unprocessed.smi:1772
    36    37     1
SMALL
NO_CHARGES


@<TRIPOS>ATOM
      1 ****        -0.0318   1.5994   0.8381 O.2            1 S1                 0.0000
      2 ****        -0.5537   0.4985   1.0131 C.2            1 S1                 0.0000
      3 ****         0.1470  -0.6391   1.1217 N.am           1 S1                 0.0000
      4 ****         1.6023  -0.7337   1.0655 C.3            1 S1                 0.0000
      5 ****         2.1450  -0.6519  -0.3758 C.3            1 S1                 0.0000
      6 ****         1.5912  -1.7521  -1.3060 C.3            1 S1                 0.0000
      7 ****         2.4152  -1.7623  -2.5969 C.3            1 S1                 0.0000
      8 ****         4.1226  -1.3371  -2.0924 S.o2           1 S1                 0.0000
      9 ****         4.9113  -2.5703  -1.9493 O.2            1 S1                 0.0000
     10 ****         4.6050  -0.2215  -2.9204 O.2            1 S1                 0.0000
     11 ****         3.6803  -0.7200  -0.4232 C.3            1 S1                 0.0000
     12 ****        -1.8753   0.2655   1.0992 N.am           1 S1                 0.0000
     13 ****        -2.9486   1.1972   1.0618 C.ar           1 S1                 0.0000
     14 ****        -4.2385   0.7011   0.7795 C.ar           1 S1                 0.0000
     15 ****        -5.3224   1.6013   0.7538 C.ar           1 S1                 0.0000
     16 ****        -5.1945   2.9230   0.9948 N.ar           1 S1                 0.0000
     17 ****        -3.9618   3.3943   1.2784 C.ar           1 S1                 0.0000
     18 ****        -2.8120   2.5809   1.3295 C.ar           1 S1                 0.0000
     19 ****        -0.3603  -1.5008   1.2606 H              1 S1                 0.0000
     20 ****         2.0453   0.0515   1.6807 H              1 S1                 0.0000
     21 ****         1.8943  -1.6802   1.5213 H              1 S1                 0.0000
     22 ****         1.8557   0.3083  -0.8057 H              1 S1                 0.0000
     23 ****         1.6925  -2.7211  -0.8155 H              1 S1                 0.0000
     24 ****         0.5308  -1.6109  -1.5179 H              1 S1                 0.0000
     25 ****         2.3994  -2.7241  -3.1093 H              1 S1                 0.0000
     26 ****         2.0653  -0.9923  -3.2850 H              1 S1                 0.0000
     27 ****         4.1509   0.2471  -0.2444 H              1 S1                 0.0000
     28 ****         4.0677  -1.4323   0.3058 H              1 S1                 0.0000
     29 ****        -2.1500  -0.7039   1.1599 H              1 S1                 0.0000
     30 ****        -4.3996  -0.3486   0.5807 H              1 S1                 0.0000
     31 ****        -6.3197   1.2491   0.5355 H              1 S1                 0.0000
     32 ****        -3.8887   4.4532   1.4778 H              1 S1                 0.0000
     33 ****        -1.8644   3.0303   1.5825 H              1 S1                 0.0000
     34 ****         0.9629   1.6761   0.7701 LP             1 S1                 0.0000
     35 ****        -0.6025   2.4172   0.7640 LP             1 S1                 0.0000
     36 ****        -5.9865   3.5329   0.9643 LP             1 S1                 0.0000
@<TRIPOS>BOND
    1    1    2 2     
    2    2    3 am    
    3    2   12 am    
    4    3    4 1     
    5    3   19 1     
    6    4    5 1     
    7    4   20 1     
    8    4   21 1     
    9    5   11 1     
   10    5    6 1     
   11    5   22 1     
   12    6    7 1     
   13    6   23 1     
   14    6   24 1     
   15    7    8 1     
   16    7   25 1     
   17    7   26 1     
   18    8    9 2     
   19    8   10 2     
   20    8   11 1     
   21   11   27 1     
   22   11   28 1     
   23   12   13 1     
   24   12   29 1     
   25   13   18 ar    
   26   13   14 ar    
   27   14   15 ar    
   28   14   30 1     
   29   15   16 ar    
   30   15   31 1     
   31   16   17 ar    
   32   17   18 ar    
   33   17   32 1     
   34   18   33 1     
   35    1   34 1     
   36    1   35 1     
   37   16   36 1     
@<TRIPOS>SUBSTRUCTURE
      1 S1             1
@<TRIPOS>SET
LONE_PAIRS      STATIC     ATOMS    <user>   **** ""
5 34 35 9 10 36
DONOR_HYDROGENS      STATIC     ATOMS    <user>   **** ""
2 19 29
ATOM$BLUE        STATIC     ATOMS    COLORGROUP SYSTEM
5 34 35 9 10 36
ATOM$RED        STATIC     ATOMS    COLORGROUP SYSTEM
2 19 29
