AV-unprocessed.smi:2737|AV-procd|sdf|10547|dock4
  -GOLD-   2272014593D 1   1.00000     0.00000
 Structure written by MMmdl.
 43 44  0  0  0  0  0  0  0  0  1 V2000
  143.0897  144.5604  155.2233 C   0  0  0  0  0  0  0  0  0  0  0  0
  144.2290  143.7053  155.1996 O   0  0  0  0  0  0  0  0  0  0  0  0
  144.4602  142.8663  156.3380 C   0  0  0  0  0  0  0  0  0  0  0  0
  144.5574  143.6974  157.6363 C   0  0  0  0  0  0  0  0  0  0  0  0
  143.2399  141.9344  156.4000 C   0  0  0  0  0  0  0  0  0  0  0  0
  145.7068  142.0614  156.0807 C   0  0  0  0  0  0  0  0  0  0  0  0
  146.5579  142.2111  155.0661 N   0  0  0  0  0  0  0  0  0  0  0  0
  147.5527  141.3513  155.4206 C   0  0  0  0  0  0  0  0  0  0  0  0
  148.7639  141.1197  154.5753 C   0  0  0  0  0  0  0  0  0  0  0  0
  150.0368  141.2810  155.4075 C   0  0  0  0  0  0  0  0  0  0  0  0
  150.9611  140.4780  155.2806 O   0  0  0  0  0  0  0  0  0  0  0  0
  150.0717  142.3222  156.2543 N   0  0  0  0  0  0  0  0  0  0  0  0
  151.1764  142.6434  157.1531 C   0  0  0  0  0  0  0  0  0  0  0  0
  150.9724  141.9216  158.4988 C   0  0  0  0  0  0  0  0  0  0  0  0
  152.0882  142.2694  159.4978 C   0  0  0  0  0  0  0  0  0  0  0  0
  152.1995  143.7886  159.7024 C   0  0  0  0  0  0  0  0  0  0  0  0
  152.4049  144.5148  158.3638 C   0  0  0  0  0  0  0  0  0  0  0  0
  151.2902  144.1682  157.3635 C   0  0  0  0  0  0  0  0  0  0  0  0
  147.3879  140.7230  156.5778 N   0  0  0  0  0  0  0  0  0  0  0  0
  146.1683  141.2288  157.0481 O   0  0  0  0  0  0  0  0  0  0  0  0
  143.1294  145.2286  154.3632 H   0  0  0  0  0  0  0  0  0  0  0  0
  143.0510  145.1803  156.1192 H   0  0  0  0  0  0  0  0  0  0  0  0
  142.1612  143.9944  155.1479 H   0  0  0  0  0  0  0  0  0  0  0  0
  144.6258  143.0501  158.5113 H   0  0  0  0  0  0  0  0  0  0  0  0
  143.6786  144.3293  157.7658 H   0  0  0  0  0  0  0  0  0  0  0  0
  145.4380  144.3399  157.6487 H   0  0  0  0  0  0  0  0  0  0  0  0
  143.3265  141.2210  157.2203 H   0  0  0  0  0  0  0  0  0  0  0  0
  143.1314  141.3641  155.4765 H   0  0  0  0  0  0  0  0  0  0  0  0
  142.3191  142.4995  156.5482 H   0  0  0  0  0  0  0  0  0  0  0  0
  148.7303  140.1169  154.1466 H   0  0  0  0  0  0  0  0  0  0  0  0
  148.7684  141.8206  153.7394 H   0  0  0  0  0  0  0  0  0  0  0  0
  149.2652  142.9287  156.2915 H   0  0  0  0  0  0  0  0  0  0  0  0
  152.1057  142.2778  156.7114 H   0  0  0  0  0  0  0  0  0  0  0  0
  150.0073  142.1995  158.9255 H   0  0  0  0  0  0  0  0  0  0  0  0
  150.9419  140.8422  158.3439 H   0  0  0  0  0  0  0  0  0  0  0  0
  151.8988  141.7780  160.4527 H   0  0  0  0  0  0  0  0  0  0  0  0
  153.0392  141.8791  159.1329 H   0  0  0  0  0  0  0  0  0  0  0  0
  151.2942  144.1600  160.1844 H   0  0  0  0  0  0  0  0  0  0  0  0
  153.0247  144.0138  160.3784 H   0  0  0  0  0  0  0  0  0  0  0  0
  152.4366  145.5925  158.5263 H   0  0  0  0  0  0  0  0  0  0  0  0
  153.3719  144.2376  157.9424 H   0  0  0  0  0  0  0  0  0  0  0  0
  151.4867  144.6683  156.4144 H   0  0  0  0  0  0  0  0  0  0  0  0
  150.3411  144.5629  157.7292 H   0  0  0  0  0  0  0  0  0  0  0  0
  1  2  1  0  0  0  0
  1 21  1  0  0  0  0
  1 22  1  0  0  0  0
  1 23  1  0  0  0  0
  2  3  1  0  0  0  0
  3  4  1  0  0  0  0
  3  5  1  0  0  0  0
  3  6  1  0  0  0  0
  4 24  1  0  0  0  0
  4 25  1  0  0  0  0
  4 26  1  0  0  0  0
  5 27  1  0  0  0  0
  5 28  1  0  0  0  0
  5 29  1  0  0  0  0
  6 20  1  0  0  0  0
  6  7  2  0  0  0  0
  7  8  1  0  0  0  0
  8  9  1  0  0  0  0
  8 19  2  0  0  0  0
  9 10  1  0  0  0  0
  9 30  1  0  0  0  0
  9 31  1  0  0  0  0
 10 11  2  0  0  0  0
 10 12  1  0  0  0  0
 12 13  1  0  0  0  0
 12 32  1  0  0  0  0
 13 18  1  0  0  0  0
 13 14  1  0  0  0  0
 13 33  1  0  0  0  0
 14 15  1  0  0  0  0
 14 34  1  0  0  0  0
 14 35  1  0  0  0  0
 15 16  1  0  0  0  0
 15 36  1  0  0  0  0
 15 37  1  0  0  0  0
 16 17  1  0  0  0  0
 16 38  1  0  0  0  0
 16 39  1  0  0  0  0
 17 18  1  0  0  0  0
 17 40  1  0  0  0  0
 17 41  1  0  0  0  0
 18 42  1  0  0  0  0
 18 43  1  0  0  0  0
 19 20  1  0  0  0  0
M  END
> <s_m_source_file>
AV-unprocessed.smi

> <i_m_source_file_index>
2737

> <i_lp_mmshare_version>
43012

> <i_f3d_flags>
0

> <s_epik_input>
W0NIM11PQyhbQ0gzXSkoW0NIM10pYzFuYyhubzEpW0NIMl1DKD1PKVtOSF1bQ0hdMltDSDJdW0NIMl1bQ0gyXVtDSDJdW0NIMl0y

> <s_epik_cmdline>
J2VwaWtfcHl0aG9uJywgJy1waCcsICc3LjAnLCAnLXRuJywgJzgnLCAnLW1hJywgJzIwMCcsICctbWV0YWxfYmluZGluZycsICctaW1hZScsICc8aW5maWxlLm1hZT4nLCAnLW9tYWUnLCAnPG91dGZpbGUubWFlPic=

> <r_lp_tautomer_probability>
1

> <r_epik_Ionization_Penalty>
6.23621e-08

> <r_epik_Ionization_Penalty_Charging>
0

> <r_epik_Ionization_Penalty_Neutral>
6.23621e-08

> <r_epik_State_Penalty>
-0

> <r_epik_Charging_Adjusted_Penalty>
0

> <i_epik_Tot_Q>
0

> <i_epik_Tot_abs_Q>
0

> <r_epik_Metal_State_Penalty>
-0

> <b_epik_Metal_Only>
0

> <s_lp_Force_Field>
OPLS_2005

> <r_lp_Energy>
12.1287

> <b_lp_Chiralities_Consistent>
1

> <s_lp_Variant>
AV-unprocessed.smi:2737-1

> <Gold.Version>
5.8.1

> <Gold.Id.Protein>
6NUR|6NUR_protein|mol2

> <Gold.PLP.Fitness>
41.5130

> <Gold.PLP.PLP>
-37.6324

> <Gold.PLP.part.hbond>
-2.0000

> <Gold.PLP.part.metal>
0.0000

> <Gold.PLP.part.buried>
-3.8839

> <Gold.PLP.part.nonpolar>
-32.5171

> <Gold.PLP.part.repulsive>
0.8791

> <Gold.PLP.ligand.clash>
0.0000

> <Gold.PLP.ligand.torsion>
0.7880

> <Gold.PLP.Chemscore.Hbond>
1.7440

> <Gold.PLP.Chemscore.CHOScore>
0.0000

> <Gold.PLP.Chemscore.Metal>
0.0000

> <Gold.Chemscore.Hbonds>
donor molecule, donor type, donor heavy atom, donor atom, acceptor molecule, acceptor atom, score
      L1  H    12    32       P1  8028  0.69
      P1  H  7989  7998       L1    11  0.99

> <Gold.PLP.Chemscore.Internal.Correction>
0.2246

> <Gold.Rescore>
     Score         DG    S(hbond)    S(metal)    S(lipo)     H(rot)  DE(clash)    DE(int)     intcor
     13.79     -14.58       0.99        0.00      90.06       1.86       0.33       0.45       ----

> <Gold.Chemscore.Fitness>
13.7936

> <Gold.Chemscore.DG>
-14.5757

> <Gold.Chemscore.ZeroCoef>
-5.4800

> <Gold.Chemscore.Hbond>
0.9938

> <Gold.Chemscore.Metal>
0.0000

> <Gold.Chemscore.Lipo>
90.0587

> <Gold.Chemscore.Internal_Hbond>
0.0000

> <Gold.Chemscore.DEClash>
0.3329

> <Gold.Chemscore.DEInternal>
0.4491

> <Gold.Chemscore.Rot>
1.8596

> <Gold.Chemscore.Internal.Correction>
   9.000000E+99

> <Gold.Chemscore.Hbonds>
donor molecule, donor type, donor heavy atom, donor atom, acceptor molecule, acceptor atom, score
      L1  H    12    32       P1  8028  0.70
      P1  H  7989  7998       L1    11  0.37

> <Gold.Chemscore.Hbond.Weighted>
-3.3192

> <Gold.Chemscore.Metal.Weighted>
-0.0000

> <Gold.Chemscore.Lipo.Weighted>
-10.5369

> <Gold.Chemscore.Internal_Hbond.Weighted>
0.0000

> <Gold.Chemscore.DEClash.Weighted>
0.3329

> <Gold.Chemscore.DEInternal.Weighted>
0.4491

> <Gold.Chemscore.Rot.Weighted>
4.7605

> <Gold.Chemscore.Internal.Correction.Weighted>
   9.000000E+99

> <Gold.Protein.RotatedTorsions>
[ 6907 6896 6895 6894 ] final   92.61 input  -60.11 | X-H torsion
[ 7974 7965 7964 7962 ] final   94.59 input  175.53 | X-H torsion
[ 8008 7997 7996 7995 ] final  105.28 input   59.86 | X-H torsion
[ 10167 10162 10161 10158 ] final   19.69 input  -65.29 | X-H torsion
[ 10718 10713 10712 10709 ] final   70.62 input   66.30 | X-H torsion
[ 10763 10752 10751 10750 ] final  133.24 input  -60.55 | X-H torsion
[ 11005 11000 10999 10996 ] final -106.99 input  -57.11 | X-H torsion

> <Gold.Protein.ActiveResidues>
 VAL166  LYS551  ARG553  GLY616  TRP617  ASP618  TYR619  PRO620  LYS621  CYS622 
 ASP623  PHE694  ASN695  SER759  ASP760  ASP761  ALA762  ILE779  LEU786  VAL792 
 PHE793  MET794  SER795  GLU796  ALA797  LYS798  CYS799  TRP800  GLU811  SER814 

> <Gold.Protein.RotatedAtoms>
  152.5453  134.1475  159.8504 H   0  0  0  0  0  0  0  0  0  0  0  0  # atno 6907 bound_to 6896
  151.1505  133.4903  159.2603 H   0  0  0  0  0  0  0  0  0  0  0  0  # atno 6908 bound_to 6896
  151.1477  135.0222  159.8709 H   0  0  0  0  0  0  0  0  0  0  0  0  # atno 6909 bound_to 6896
  145.4635  139.2285  143.2974 H   0  0  0  0  0  0  0  0  0  0  0  0  # atno 7974 bound_to 7965
  156.1646  140.3133  155.8866 H   0  0  0  0  0  0  0  0  0  0  0  0  # atno 8008 bound_to 7997
  155.3713  140.0482  157.3062 H   0  0  0  0  0  0  0  0  0  0  0  0  # atno 8009 bound_to 7997
  154.5179  140.2188  155.9041 H   0  0  0  0  0  0  0  0  0  0  0  0  # atno 8010 bound_to 7997
  140.5560  143.9424  150.6609 H   0  0  0  0  0  0  0  0  0  0  0  0  # atno 10167 bound_to 10162
  157.6409  130.9486  150.0676 H   0  0  0  0  0  0  0  0  0  0  0  0  # atno 10718 bound_to 10713
  153.8039  135.3138  155.3393 H   0  0  0  0  0  0  0  0  0  0  0  0  # atno 10763 bound_to 10752
  154.8078  135.4686  154.0441 H   0  0  0  0  0  0  0  0  0  0  0  0  # atno 10764 bound_to 10752
  153.1797  135.6891  153.8582 H   0  0  0  0  0  0  0  0  0  0  0  0  # atno 10765 bound_to 10752
  141.0977  133.8942  157.1923 H   0  0  0  0  0  0  0  0  0  0  0  0  # atno 11005 bound_to 11000
  146.2437  140.5407  142.8923 LP  0  0  0  0  0  0  0  0  0  0  0  0  # atno 17320 bound_to 7965
  144.7988  140.6174  143.6492 LP  0  0  0  0  0  0  0  0  0  0  0  0  # atno 17321 bound_to 7965
  140.2862  143.3355  152.1105 LP  0  0  0  0  0  0  0  0  0  0  0  0  # atno 17342 bound_to 10162
  139.5048  144.6783  151.6074 LP  0  0  0  0  0  0  0  0  0  0  0  0  # atno 17343 bound_to 10162
  156.1690  130.3646  149.9192 LP  0  0  0  0  0  0  0  0  0  0  0  0  # atno 17370 bound_to 10713
  156.7172  130.8993  151.3615 LP  0  0  0  0  0  0  0  0  0  0  0  0  # atno 17371 bound_to 10713
  139.9818  135.0095  156.9768 LP  0  0  0  0  0  0  0  0  0  0  0  0  # atno 17394 bound_to 11000
  140.5100  134.1011  155.7268 LP  0  0  0  0  0  0  0  0  0  0  0  0  # atno 17395 bound_to 11000

$$$$
