AV-unprocessed.smi:1915|AV-procd|sdf|7761|dock2
  -GOLD-   22720 9503D 1   1.00000     0.00000
 Structure written by MMmdl.
 44 45  0  0  0  0  0  0  0  0  1 V2000
  149.2130  141.2899  158.0037 C   0  0  0  0  0  0  0  0  0  0  0  0
  150.6987  141.5804  157.7297 C   0  0  0  0  0  0  0  0  0  0  0  0
  151.1328  142.8660  158.4496 C   0  0  0  0  0  0  0  0  0  0  0  0
  151.0401  141.6621  156.2248 C   0  0  0  0  0  0  0  0  0  0  0  0
  150.9830  140.3646  155.5512 N   0  0  0  0  0  0  0  0  0  0  0  0
  149.8754  140.0441  154.6648 C   0  0  0  0  0  0  0  0  0  0  0  0
  150.0125  138.5391  154.3485 C   0  0  2  0  0  0  0  0  0  0  0  0
  148.8983  137.6965  154.9879 C   0  0  0  0  0  0  0  0  0  0  0  0
  148.7088  137.7363  156.2040 O   0  0  0  0  0  0  0  0  0  0  0  0
  148.1821  136.9242  154.1574 N   0  0  0  0  0  0  0  0  0  0  0  0
  147.1388  135.9907  154.5708 C   0  0  0  0  0  0  0  0  0  0  0  0
  145.8987  136.0380  153.6547 C   0  0  0  0  0  0  0  0  0  0  0  0
  145.7978  134.8529  152.7088 C   0  0  0  0  0  0  0  0  0  0  0  0
  144.6280  134.6336  151.9497 C   0  0  0  0  0  0  0  0  0  0  0  0
  144.5773  133.5098  151.1032 C   0  0  0  0  0  0  0  0  0  0  0  0
  145.6934  132.6533  151.0469 C   0  0  0  0  0  0  0  0  0  0  0  0
  146.8154  132.9611  151.8423 C   0  0  0  0  0  0  0  0  0  0  0  0
  146.8734  134.0354  152.6588 N   0  0  0  0  0  0  0  0  0  0  0  0
  151.3971  138.1382  154.8939 C   0  0  0  0  0  0  0  0  0  0  0  0
  151.8365  139.3454  155.7042 C   0  0  0  0  0  0  0  0  0  0  0  0
  152.8465  139.3425  156.4063 O   0  0  0  0  0  0  0  0  0  0  0  0
  148.5715  142.0397  157.5396 H   0  0  0  0  0  0  0  0  0  0  0  0
  149.0039  141.2898  159.0736 H   0  0  0  0  0  0  0  0  0  0  0  0
  148.9169  140.3130  157.6225 H   0  0  0  0  0  0  0  0  0  0  0  0
  151.2771  140.7614  158.1590 H   0  0  0  0  0  0  0  0  0  0  0  0
  150.5913  143.7336  158.0717 H   0  0  0  0  0  0  0  0  0  0  0  0
  152.1985  143.0535  158.3139 H   0  0  0  0  0  0  0  0  0  0  0  0
  150.9472  142.7989  159.5220 H   0  0  0  0  0  0  0  0  0  0  0  0
  150.3712  142.3669  155.7276 H   0  0  0  0  0  0  0  0  0  0  0  0
  152.0438  142.0701  156.0992 H   0  0  0  0  0  0  0  0  0  0  0  0
  148.9214  140.2962  155.1313 H   0  0  0  0  0  0  0  0  0  0  0  0
  149.9612  140.6388  153.7545 H   0  0  0  0  0  0  0  0  0  0  0  0
  149.9899  138.3944  153.2669 H   0  0  0  0  0  0  0  0  0  0  0  0
  148.4029  136.9533  153.1725 H   0  0  0  0  0  0  0  0  0  0  0  0
  147.5367  134.9762  154.6216 H   0  0  0  0  0  0  0  0  0  0  0  0
  146.8477  136.2586  155.5868 H   0  0  0  0  0  0  0  0  0  0  0  0
  144.9942  136.0811  154.2625 H   0  0  0  0  0  0  0  0  0  0  0  0
  145.9087  136.9593  153.0712 H   0  0  0  0  0  0  0  0  0  0  0  0
  143.7855  135.3059  152.0194 H   0  0  0  0  0  0  0  0  0  0  0  0
  143.6978  133.3073  150.5102 H   0  0  0  0  0  0  0  0  0  0  0  0
  145.6903  131.7816  150.4094 H   0  0  0  0  0  0  0  0  0  0  0  0
  147.6888  132.3263  151.8238 H   0  0  0  0  0  0  0  0  0  0  0  0
  151.3822  137.2435  155.5187 H   0  0  0  0  0  0  0  0  0  0  0  0
  152.1051  137.9692  154.0822 H   0  0  0  0  0  0  0  0  0  0  0  0
  1  2  1  0  0  0  0
  1 22  1  0  0  0  0
  1 23  1  0  0  0  0
  1 24  1  0  0  0  0
  2  3  1  0  0  0  0
  2  4  1  0  0  0  0
  2 25  1  0  0  0  0
  3 26  1  0  0  0  0
  3 27  1  0  0  0  0
  3 28  1  0  0  0  0
  4  5  1  0  0  0  0
  4 29  1  0  0  0  0
  4 30  1  0  0  0  0
  5 20  1  0  0  0  0
  5  6  1  0  0  0  0
  6  7  1  0  0  0  0
  6 31  1  0  0  0  0
  6 32  1  0  0  0  0
  7  8  1  0  0  0  0
  7 19  1  0  0  0  0
  7 33  1  0  0  0  0
  8  9  2  0  0  0  0
  8 10  1  0  0  0  0
 10 11  1  0  0  0  0
 10 34  1  0  0  0  0
 11 12  1  0  0  0  0
 11 35  1  0  0  0  0
 11 36  1  0  0  0  0
 12 13  1  0  0  0  0
 12 37  1  0  0  0  0
 12 38  1  0  0  0  0
 13 18  1  0  0  0  0
 13 14  2  0  0  0  0
 14 15  1  0  0  0  0
 14 39  1  0  0  0  0
 15 16  2  0  0  0  0
 15 40  1  0  0  0  0
 16 17  1  0  0  0  0
 16 41  1  0  0  0  0
 17 18  2  0  0  0  0
 17 42  1  0  0  0  0
 19 20  1  0  0  0  0
 19 43  1  0  0  0  0
 19 44  1  0  0  0  0
 20 21  2  0  0  0  0
M  END
> <s_m_source_file>
AV-unprocessed.smi

> <i_m_source_file_index>
1915

> <i_lp_mmshare_version>
43012

> <i_f3d_flags>
0

> <s_epik_input>
W0NIM11bQ0hdKFtDSDNdKVtDSDJdTjFbQ0gyXVtDQEhdKFtDSDJdQzE9TylDKD1PKVtOSF1bQ0gyXVtDSDJdYzJbY0hdW2NIXVtjSF1bY0hdbjI=

> <s_epik_cmdline>
J2VwaWtfcHl0aG9uJywgJy1waCcsICc3LjAnLCAnLXRuJywgJzgnLCAnLW1hJywgJzIwMCcsICctbWV0YWxfYmluZGluZycsICctaW1hZScsICc8aW5maWxlLm1hZT4nLCAnLW9tYWUnLCAnPG91dGZpbGUubWFlPic=

> <r_epik_Ionization_Penalty>
0.0252359

> <r_epik_Ionization_Penalty_Charging>
0

> <r_epik_Ionization_Penalty_Neutral>
0.0252359

> <r_epik_State_Penalty>
0.020532

> <r_epik_Charging_Adjusted_Penalty>
0.020532

> <i_epik_Tot_Q>
0

> <i_epik_Tot_abs_Q>
0

> <r_epik_Metal_State_Penalty>
0.0196901

> <b_epik_Metal_Only>
0

> <s_lp_Force_Field>
OPLS_2005

> <r_lp_Energy>
14.5856

> <b_lp_Chiralities_Consistent>
1

> <s_lp_Variant>
AV-unprocessed.smi:1915-2

> <Gold.Version>
5.8.1

> <Gold.Id.Protein>
6NUR|6NUR_protein|mol2

> <Gold.PLP.Fitness>
42.4005

> <Gold.PLP.PLP>
-34.8549

> <Gold.PLP.part.hbond>
-1.8590

> <Gold.PLP.part.metal>
0.0000

> <Gold.PLP.part.buried>
-4.4038

> <Gold.PLP.part.nonpolar>
-28.9917

> <Gold.PLP.part.repulsive>
0.6892

> <Gold.PLP.ligand.clash>
0.0000

> <Gold.PLP.ligand.torsion>
0.7602

> <Gold.PLP.Chemscore.Hbond>
1.9600

> <Gold.PLP.Chemscore.CHOScore>
1.0000

> <Gold.PLP.Chemscore.Metal>
0.0000

> <Gold.Chemscore.Hbonds>
donor molecule, donor type, donor heavy atom, donor atom, acceptor molecule, acceptor atom, score
      L1  H    10    34       P1  7948  1.00
      P1  H  7997  8008       L1    21  1.00
      L1  C    17    42       P1 10747  1.00

> <Gold.PLP.Chemscore.Internal.Correction>
0.1860

> <Gold.Rescore>
     Score         DG    S(hbond)    S(metal)    S(lipo)     H(rot)  DE(clash)    DE(int)     intcor
     15.89     -16.64       1.96        0.00      77.62       1.75       0.11       0.65       ----

> <Gold.Chemscore.Fitness>
15.8918

> <Gold.Chemscore.DG>
-16.6432

> <Gold.Chemscore.ZeroCoef>
-5.4800

> <Gold.Chemscore.Hbond>
1.9612

> <Gold.Chemscore.Metal>
0.0000

> <Gold.Chemscore.Lipo>
77.6208

> <Gold.Chemscore.Internal_Hbond>
0.0000

> <Gold.Chemscore.DEClash>
0.1053

> <Gold.Chemscore.DEInternal>
0.6461

> <Gold.Chemscore.Rot>
1.7456

> <Gold.Chemscore.Internal.Correction>
   9.000000E+99

> <Gold.Chemscore.Hbonds>
donor molecule, donor type, donor heavy atom, donor atom, acceptor molecule, acceptor atom, score
      L1  H    10    34       P1  7948  0.93
      P1  H  7997  8008       L1    21  1.00

> <Gold.Chemscore.Hbond.Weighted>
-6.5503

> <Gold.Chemscore.Metal.Weighted>
-0.0000

> <Gold.Chemscore.Lipo.Weighted>
-9.0816

> <Gold.Chemscore.Internal_Hbond.Weighted>
0.0000

> <Gold.Chemscore.DEClash.Weighted>
0.1053

> <Gold.Chemscore.DEInternal.Weighted>
0.6461

> <Gold.Chemscore.Rot.Weighted>
4.4688

> <Gold.Chemscore.Internal.Correction.Weighted>
   9.000000E+99

> <Gold.Protein.RotatedTorsions>
[ 6907 6896 6895 6894 ] final  -12.23 input  -60.11 | X-H torsion
[ 7974 7965 7964 7962 ] final  -20.52 input  175.53 | X-H torsion
[ 8008 7997 7996 7995 ] final  -34.78 input   59.86 | X-H torsion
[ 10167 10162 10161 10158 ] final  163.93 input  -65.29 | X-H torsion
[ 10718 10713 10712 10709 ] final -161.63 input   66.30 | X-H torsion
[ 10763 10752 10751 10750 ] final -105.76 input  -60.55 | X-H torsion
[ 11005 11000 10999 10996 ] final  -48.64 input  -57.11 | X-H torsion

> <Gold.Protein.ActiveResidues>
 VAL166  LYS551  ARG553  GLY616  TRP617  ASP618  TYR619  PRO620  LYS621  CYS622 
 ASP623  PHE694  ASN695  SER759  ASP760  ASP761  ALA762  ILE779  LEU786  VAL792 
 PHE793  MET794  SER795  GLU796  ALA797  LYS798  CYS799  TRP800  GLU811  SER814 

> <Gold.Protein.RotatedAtoms>
  151.3738  135.0927  159.9473 H   0  0  0  0  0  0  0  0  0  0  0  0  # atno 6907 bound_to 6896
  152.5128  133.9139  159.7511 H   0  0  0  0  0  0  0  0  0  0  0  0  # atno 6908 bound_to 6896
  150.9558  133.6444  159.2792 H   0  0  0  0  0  0  0  0  0  0  0  0  # atno 6909 bound_to 6896
  146.1784  140.4213  142.8504 H   0  0  0  0  0  0  0  0  0  0  0  0  # atno 7974 bound_to 7965
  154.4112  140.1675  156.2104 H   0  0  0  0  0  0  0  0  0  0  0  0  # atno 8008 bound_to 7997
  155.9449  140.3405  155.6335 H   0  0  0  0  0  0  0  0  0  0  0  0  # atno 8009 bound_to 7997
  155.6943  140.0737  157.2426 H   0  0  0  0  0  0  0  0  0  0  0  0  # atno 8010 bound_to 7997
  139.4881  144.4287  151.9097 H   0  0  0  0  0  0  0  0  0  0  0  0  # atno 10167 bound_to 10162
  156.5989  130.8802  151.2909 H   0  0  0  0  0  0  0  0  0  0  0  0  # atno 10718 bound_to 10713
  154.7968  135.4737  154.0180 H   0  0  0  0  0  0  0  0  0  0  0  0  # atno 10763 bound_to 10752
  153.1716  135.6826  153.8607 H   0  0  0  0  0  0  0  0  0  0  0  0  # atno 10764 bound_to 10752
  153.8187  135.3207  155.3386 H   0  0  0  0  0  0  0  0  0  0  0  0  # atno 10765 bound_to 10752
  141.0712  133.6678  156.3470 H   0  0  0  0  0  0  0  0  0  0  0  0  # atno 11005 bound_to 11000
  144.8273  140.6650  143.6314 LP  0  0  0  0  0  0  0  0  0  0  0  0  # atno 17320 bound_to 7965
  145.4147  139.1574  143.4106 LP  0  0  0  0  0  0  0  0  0  0  0  0  # atno 17321 bound_to 7965
  140.3734  144.2827  150.5917 LP  0  0  0  0  0  0  0  0  0  0  0  0  # atno 17342 bound_to 10162
  140.5298  143.2246  151.8256 LP  0  0  0  0  0  0  0  0  0  0  0  0  # atno 17343 bound_to 10162
  157.7284  130.9657  150.1743 LP  0  0  0  0  0  0  0  0  0  0  0  0  # atno 17370 bound_to 10713
  156.2486  130.3698  149.8258 LP  0  0  0  0  0  0  0  0  0  0  0  0  # atno 17371 bound_to 10713
  140.5668  134.5879  157.5448 LP  0  0  0  0  0  0  0  0  0  0  0  0  # atno 17394 bound_to 11000
  139.9526  134.7591  156.0414 LP  0  0  0  0  0  0  0  0  0  0  0  0  # atno 17395 bound_to 11000

$$$$
