AV-unprocessed.smi:1024|AV-procd|sdf|4465|dock2
  -GOLD-   22720 2443D 1   1.00000     0.00000
 Structure written by MMmdl.
 47 49  0  0  0  0  0  0  0  0  1 V2000
  146.0582  139.8164  154.5749 O   0  0  0  0  0  0  0  0  0  0  0  0
  147.0965  140.0996  153.9753 C   0  0  0  0  0  0  0  0  0  0  0  0
  147.3524  139.6395  152.7389 N   0  0  0  0  0  0  0  0  0  0  0  0
  146.4842  138.7548  151.9716 C   0  0  0  0  0  0  0  0  0  0  0  0
  145.9375  137.6101  152.8398 C   0  0  0  0  0  0  0  0  0  0  0  0
  145.3003  136.5901  152.0323 N   0  0  0  0  0  0  0  0  0  0  0  0
  144.0136  136.0889  152.1778 C   0  0  0  0  0  0  0  0  0  0  0  0
  143.8485  135.1400  151.1941 C   0  0  0  0  0  0  0  0  0  0  0  0
  145.0140  135.0410  150.4375 N   0  0  0  0  0  0  0  0  0  0  0  0
  145.8284  135.9291  150.9930 C   0  0  0  0  0  0  0  0  0  0  0  0
  148.0521  140.9170  154.4868 N   0  0  0  0  0  0  0  0  0  0  0  0
  149.4414  141.0337  154.0172 C   0  0  0  0  0  0  0  0  0  0  0  0
  150.3652  140.3255  155.0272 C   0  0  0  0  0  0  0  0  0  0  0  0
  150.2347  140.8857  156.4715 C   0  0  0  0  0  0  0  0  0  0  0  0
  150.9773  139.9224  157.4345 C   0  0  0  0  0  0  0  0  0  0  0  0
  151.0877  140.4563  158.8739 C   0  0  0  0  0  0  0  0  0  0  0  0
  151.7716  141.8293  158.9046 C   0  0  0  0  0  0  0  0  0  0  0  0
  151.0481  142.8259  157.9896 C   0  0  0  0  0  0  0  0  0  0  0  0
  150.9200  142.2803  156.5552 C   0  0  0  0  0  0  0  0  0  0  0  0
  148.7228  140.9579  156.8409 C   0  0  0  0  0  0  0  0  0  0  0  0
  147.8655  141.6333  155.7526 C   0  0  0  0  0  0  0  0  0  0  0  0
  148.2169  139.9223  152.3005 H   0  0  0  0  0  0  0  0  0  0  0  0
  145.6668  139.3243  151.5260 H   0  0  0  0  0  0  0  0  0  0  0  0
  147.0658  138.3480  151.1439 H   0  0  0  0  0  0  0  0  0  0  0  0
  146.7425  137.1463  153.4116 H   0  0  0  0  0  0  0  0  0  0  0  0
  145.2096  137.9841  153.5611 H   0  0  0  0  0  0  0  0  0  0  0  0
  143.3414  136.4384  152.9476 H   0  0  0  0  0  0  0  0  0  0  0  0
  142.9877  134.5255  150.9749 H   0  0  0  0  0  0  0  0  0  0  0  0
  146.8333  136.1023  150.6363 H   0  0  0  0  0  0  0  0  0  0  0  0
  149.6071  140.6194  153.0230 H   0  0  0  0  0  0  0  0  0  0  0  0
  149.7050  142.0880  153.9287 H   0  0  0  0  0  0  0  0  0  0  0  0
  150.1191  139.2624  155.0261 H   0  0  0  0  0  0  0  0  0  0  0  0
  151.3992  140.3893  154.6863 H   0  0  0  0  0  0  0  0  0  0  0  0
  150.4867  138.9483  157.4469 H   0  0  0  0  0  0  0  0  0  0  0  0
  151.9851  139.7414  157.0575 H   0  0  0  0  0  0  0  0  0  0  0  0
  150.0985  140.5246  159.3273 H   0  0  0  0  0  0  0  0  0  0  0  0
  151.6531  139.7517  159.4844 H   0  0  0  0  0  0  0  0  0  0  0  0
  151.7992  142.2109  159.9257 H   0  0  0  0  0  0  0  0  0  0  0  0
  152.8090  141.7265  158.5841 H   0  0  0  0  0  0  0  0  0  0  0  0
  150.0638  143.0562  158.3968 H   0  0  0  0  0  0  0  0  0  0  0  0
  151.5936  143.7697  157.9744 H   0  0  0  0  0  0  0  0  0  0  0  0
  151.9228  142.2109  156.1314 H   0  0  0  0  0  0  0  0  0  0  0  0
  150.3965  143.0135  155.9434 H   0  0  0  0  0  0  0  0  0  0  0  0
  148.3414  139.9470  156.9925 H   0  0  0  0  0  0  0  0  0  0  0  0
  148.5690  141.4700  157.7895 H   0  0  0  0  0  0  0  0  0  0  0  0
  148.1500  142.6781  155.6267 H   0  0  0  0  0  0  0  0  0  0  0  0
  146.8219  141.6568  156.0693 H   0  0  0  0  0  0  0  0  0  0  0  0
  1  2  2  0  0  0  0
  2  3  1  0  0  0  0
  2 11  1  0  0  0  0
  3  4  1  0  0  0  0
  3 22  1  0  0  0  0
  4  5  1  0  0  0  0
  4 23  1  0  0  0  0
  4 24  1  0  0  0  0
  5  6  1  0  0  0  0
  5 25  1  0  0  0  0
  5 26  1  0  0  0  0
  6 10  1  0  0  0  0
  6  7  1  0  0  0  0
  7  8  2  0  0  0  0
  7 27  1  0  0  0  0
  8  9  1  0  0  0  0
  8 28  1  0  0  0  0
  9 10  2  0  0  0  0
 10 29  1  0  0  0  0
 11 21  1  0  0  0  0
 11 12  1  0  0  0  0
 12 13  1  0  0  0  0
 12 30  1  0  0  0  0
 12 31  1  0  0  0  0
 13 14  1  0  0  0  0
 13 32  1  0  0  0  0
 13 33  1  0  0  0  0
 14 19  1  0  0  0  0
 14 15  1  0  0  0  0
 14 20  1  0  0  0  0
 15 16  1  0  0  0  0
 15 34  1  0  0  0  0
 15 35  1  0  0  0  0
 16 17  1  0  0  0  0
 16 36  1  0  0  0  0
 16 37  1  0  0  0  0
 17 18  1  0  0  0  0
 17 38  1  0  0  0  0
 17 39  1  0  0  0  0
 18 19  1  0  0  0  0
 18 40  1  0  0  0  0
 18 41  1  0  0  0  0
 19 42  1  0  0  0  0
 19 43  1  0  0  0  0
 20 21  1  0  0  0  0
 20 44  1  0  0  0  0
 20 45  1  0  0  0  0
 21 46  1  0  0  0  0
 21 47  1  0  0  0  0
M  END
> <s_m_source_file>
AV-unprocessed.smi

> <i_m_source_file_index>
1024

> <i_lp_mmshare_version>
43012

> <i_f3d_flags>
0

> <s_epik_input>
W2NIXTFuW2NIXVtjSF1uMVtDSDJdW0NIMl1bTkhdQyg9TylOKFtDSDJdW0NIMl0yKVtDSDJdW0NIMl1DMjNbQ0gyXVtDSDJdW0NIMl1bQ0gyXVtDSDJdMw==

> <s_epik_cmdline>
J2VwaWtfcHl0aG9uJywgJy1waCcsICc3LjAnLCAnLXRuJywgJzgnLCAnLW1hJywgJzIwMCcsICctbWV0YWxfYmluZGluZycsICctaW1hZScsICc8aW5maWxlLm1hZT4nLCAnLW9tYWUnLCAnPG91dGZpbGUubWFlPic=

> <r_lp_tautomer_probability>
1

> <r_epik_Ionization_Penalty>
0.632392

> <r_epik_Ionization_Penalty_Charging>
0.632323

> <r_epik_Ionization_Penalty_Neutral>
6.90503e-05

> <r_epik_State_Penalty>
0.649284

> <r_epik_Charging_Adjusted_Penalty>
1.28161

> <i_epik_Tot_Q>
0

> <i_epik_Tot_abs_Q>
0

> <r_epik_Metal_State_Penalty>
0.309626

> <b_epik_Metal_Only>
0

> <s_lp_Force_Field>
OPLS_2005

> <r_lp_Energy>
42.875

> <b_lp_Chiralities_Consistent>
1

> <s_lp_Variant>
AV-unprocessed.smi:1024-2

> <Gold.Version>
5.8.1

> <Gold.Id.Protein>
6NUR|6NUR_protein|mol2

> <Gold.PLP.Fitness>
42.1706

> <Gold.PLP.PLP>
-33.7338

> <Gold.PLP.part.hbond>
-1.0000

> <Gold.PLP.part.metal>
0.0000

> <Gold.PLP.part.buried>
0.7177

> <Gold.PLP.part.nonpolar>
-33.8065

> <Gold.PLP.part.repulsive>
0.7006

> <Gold.PLP.ligand.clash>
0.0000

> <Gold.PLP.ligand.torsion>
0.2488

> <Gold.PLP.Chemscore.Hbond>
1.0000

> <Gold.PLP.Chemscore.CHOScore>
1.9666

> <Gold.PLP.Chemscore.Metal>
0.0000

> <Gold.Chemscore.Hbonds>
donor molecule, donor type, donor heavy atom, donor atom, acceptor molecule, acceptor atom, score
      L1  H     3    22       P1  7957  1.00
      L1  C     8    28       P1 10186  0.96
      L1  C    10    29       P1  7948  1.00

> <Gold.PLP.Chemscore.Internal.Correction>
0.0345

> <Gold.Rescore>
     Score         DG    S(hbond)    S(metal)    S(lipo)     H(rot)  DE(clash)    DE(int)     intcor
     12.67     -14.80       1.00        0.00      84.55       1.52       0.52       1.62       ----

> <Gold.Chemscore.Fitness>
12.6653

> <Gold.Chemscore.DG>
-14.8004

> <Gold.Chemscore.ZeroCoef>
-5.4800

> <Gold.Chemscore.Hbond>
0.9957

> <Gold.Chemscore.Metal>
0.0000

> <Gold.Chemscore.Lipo>
84.5543

> <Gold.Chemscore.Internal_Hbond>
0.0000

> <Gold.Chemscore.DEClash>
0.5174

> <Gold.Chemscore.DEInternal>
1.6176

> <Gold.Chemscore.Rot>
1.5227

> <Gold.Chemscore.Internal.Correction>
   9.000000E+99

> <Gold.Chemscore.Hbonds>
donor molecule, donor type, donor heavy atom, donor atom, acceptor molecule, acceptor atom, score
      L1  H     3    22       P1  7957  1.00

> <Gold.Chemscore.Hbond.Weighted>
-3.3255

> <Gold.Chemscore.Metal.Weighted>
-0.0000

> <Gold.Chemscore.Lipo.Weighted>
-9.8929

> <Gold.Chemscore.Internal_Hbond.Weighted>
0.0000

> <Gold.Chemscore.DEClash.Weighted>
0.5174

> <Gold.Chemscore.DEInternal.Weighted>
1.6176

> <Gold.Chemscore.Rot.Weighted>
3.8980

> <Gold.Chemscore.Internal.Correction.Weighted>
   9.000000E+99

> <Gold.Protein.RotatedTorsions>
[ 6907 6896 6895 6894 ] final  -14.12 input  -60.11 | X-H torsion
[ 7974 7965 7964 7962 ] final -113.25 input  175.53 | X-H torsion
[ 8008 7997 7996 7995 ] final  158.97 input   59.86 | X-H torsion
[ 10167 10162 10161 10158 ] final  131.46 input  -65.29 | X-H torsion
[ 10718 10713 10712 10709 ] final -178.68 input   66.30 | X-H torsion
[ 10763 10752 10751 10750 ] final  178.61 input  -60.55 | X-H torsion
[ 11005 11000 10999 10996 ] final   58.98 input  -57.11 | X-H torsion

> <Gold.Protein.ActiveResidues>
 VAL166  LYS551  ARG553  GLY616  TRP617  ASP618  TYR619  PRO620  LYS621  CYS622 
 ASP623  PHE694  ASN695  SER759  ASP760  ASP761  ALA762  ILE779  LEU786  VAL792 
 PHE793  MET794  SER795  GLU796  ALA797  LYS798  CYS799  TRP800  GLU811  SER814 

> <Gold.Protein.RotatedAtoms>
  151.3443  135.0870  159.9381 H   0  0  0  0  0  0  0  0  0  0  0  0  # atno 6907 bound_to 6896
  152.5203  133.9416  159.7639 H   0  0  0  0  0  0  0  0  0  0  0  0  # atno 6908 bound_to 6896
  150.9779  133.6222  159.2757 H   0  0  0  0  0  0  0  0  0  0  0  0  # atno 6909 bound_to 6896
  145.1342  140.8742  143.3740 H   0  0  0  0  0  0  0  0  0  0  0  0  # atno 7974 bound_to 7965
  156.2269  140.1844  156.7341 H   0  0  0  0  0  0  0  0  0  0  0  0  # atno 8008 bound_to 7997
  154.5956  140.0644  156.9326 H   0  0  0  0  0  0  0  0  0  0  0  0  # atno 8009 bound_to 7997
  155.2262  140.3311  155.4311 H   0  0  0  0  0  0  0  0  0  0  0  0  # atno 8010 bound_to 7997
  139.5383  144.6705  151.4710 H   0  0  0  0  0  0  0  0  0  0  0  0  # atno 10167 bound_to 10162
  156.8478  130.9709  151.3095 H   0  0  0  0  0  0  0  0  0  0  0  0  # atno 10718 bound_to 10713
  154.5098  135.2788  155.1352 H   0  0  0  0  0  0  0  0  0  0  0  0  # atno 10763 bound_to 10752
  154.2951  135.6259  153.5405 H   0  0  0  0  0  0  0  0  0  0  0  0  # atno 10764 bound_to 10752
  152.9917  135.5683  154.5561 H   0  0  0  0  0  0  0  0  0  0  0  0  # atno 10765 bound_to 10752
  140.0338  134.5974  155.9472 H   0  0  0  0  0  0  0  0  0  0  0  0  # atno 11005 bound_to 11000
  145.0602  139.3111  143.5884 LP  0  0  0  0  0  0  0  0  0  0  0  0  # atno 17320 bound_to 7965
  146.3511  140.0041  142.8673 LP  0  0  0  0  0  0  0  0  0  0  0  0  # atno 17321 bound_to 7965
  140.6601  143.8517  150.6878 LP  0  0  0  0  0  0  0  0  0  0  0  0  # atno 17342 bound_to 10162
  140.1909  143.4037  152.1864 LP  0  0  0  0  0  0  0  0  0  0  0  0  # atno 17343 bound_to 10162
  157.6320  130.8736  149.9291 LP  0  0  0  0  0  0  0  0  0  0  0  0  # atno 17370 bound_to 10713
  156.0844  130.3669  150.0516 LP  0  0  0  0  0  0  0  0  0  0  0  0  # atno 17371 bound_to 10713
  141.1846  133.6553  156.5162 LP  0  0  0  0  0  0  0  0  0  0  0  0  # atno 17394 bound_to 11000
  140.4182  134.7211  157.4875 LP  0  0  0  0  0  0  0  0  0  0  0  0  # atno 17395 bound_to 11000

$$$$
