#       Name:                AV-unprocessed.smi:99
#       Creating user name   scv26
#       Creation time:       Thu Mar 26 17:32:09 2020


#       File generated by GOLD software.
#

@<TRIPOS>MOLECULE
AV-unprocessed.smi:99
    65    68     1
SMALL
NO_CHARGES


@<TRIPOS>ATOM
      1 ****        -3.5957  -0.8871  -0.1037 O.2            1 S1                 0.0000
      2 ****        -2.9057   0.0259  -0.5612 C.2            1 S1                 0.0000
      3 ****        -1.7456  -0.1695  -1.2172 O.3            1 S1                 0.0000
      4 ****        -1.1923  -1.4701  -1.3430 C.3            1 S1                 0.0000
      5 ****         0.3215  -1.3411  -1.5540 C.3            1 S1                 0.0000
      6 ****         0.8822  -2.6032  -1.9052 O.3            1 S1                 0.0000
      7 ****         2.2029  -2.6909  -1.4462 C.3            1 S1                 0.0000
      8 ****         2.3415  -3.9149  -0.5680 N.am           1 S1                 0.0000
      9 ****         1.2662  -4.4250   0.1489 C.2            1 S1                 0.0000
     10 ****         1.3635  -5.5087   0.9547 C.2            1 S1                 0.0000
     11 ****         2.6378  -6.2019   1.1135 C.2            1 S1                 0.0000
     12 ****         2.8228  -7.1931   1.8161 O.2            1 S1                 0.0000
     13 ****         3.6949  -5.6457   0.3876 N.am           1 S1                 0.0000
     14 ****         3.6082  -4.5265  -0.4417 C.2            1 S1                 0.0000
     15 ****         4.6112  -4.1083  -1.0185 O.2            1 S1                 0.0000
     16 ****         2.5094  -1.4215  -0.6346 C.3            1 S1                 0.0000
     17 ****         3.2240  -0.4914  -1.4280 O.3            1 S1                 0.0000
     18 ****         1.1055  -0.9448  -0.3042 C.3            1 S1                 0.0000
     19 ****         1.0702   0.4460   0.0036 O.3            1 S1                 0.0000
     20 ****         0.3519   0.9139   1.0486 C.2            1 S1                 0.0000
     21 ****        -0.2533   0.1927   1.8439 O.2            1 S1                 0.0000
     22 ****         0.3341   2.4027   1.1170 C.ar           1 S1                 0.0000
     23 ****        -0.4445   3.0400   2.1112 C.ar           1 S1                 0.0000
     24 ****        -0.5040   4.4451   2.1839 C.ar           1 S1                 0.0000
     25 ****         0.2162   5.2299   1.2647 C.ar           1 S1                 0.0000
     26 ****         0.9965   4.6079   0.2728 C.ar           1 S1                 0.0000
     27 ****         1.0565   3.2027   0.1976 C.ar           1 S1                 0.0000
     28 ****        -3.2525   1.4703  -0.4256 C.ar           1 S1                 0.0000
     29 ****        -4.4045   1.8419   0.3057 C.ar           1 S1                 0.0000
     30 ****        -4.7439   3.1992   0.4684 C.ar           1 S1                 0.0000
     31 ****        -3.9355   4.2016  -0.0983 C.ar           1 S1                 0.0000
     32 ****        -2.7890   3.8451  -0.8316 C.ar           1 S1                 0.0000
     33 ****        -2.4494   2.4885  -0.9970 C.ar           1 S1                 0.0000
     34 ****         4.5984  -6.0881   0.4747 H              1 S1                 0.0000
     35 ****        -1.3932  -2.0794  -0.4606 H              1 S1                 0.0000
     36 ****        -1.6539  -1.9659  -2.1974 H              1 S1                 0.0000
     37 ****         0.5339  -0.6472  -2.3691 H              1 S1                 0.0000
     38 ****         2.8642  -2.8495  -2.3005 H              1 S1                 0.0000
     39 ****         0.3002  -3.9472   0.0781 H              1 S1                 0.0000
     40 ****         0.4934  -5.8644   1.4875 H              1 S1                 0.0000
     41 ****         3.0924  -1.6461   0.2596 H              1 S1                 0.0000
     42 ****         3.3392   0.3018  -0.9273 H              1 S1                 0.0000
     43 ****         0.7482  -1.5457   0.5332 H              1 S1                 0.0000
     44 ****        -1.0128   2.4586   2.8229 H              1 S1                 0.0000
     45 ****        -1.1067   4.9205   2.9435 H              1 S1                 0.0000
     46 ****         0.1693   6.3075   1.3197 H              1 S1                 0.0000
     47 ****         1.5483   5.2095  -0.4343 H              1 S1                 0.0000
     48 ****         1.6603   2.7574  -0.5796 H              1 S1                 0.0000
     49 ****        -5.0374   1.0901   0.7549 H              1 S1                 0.0000
     50 ****        -5.6248   3.4710   1.0313 H              1 S1                 0.0000
     51 ****        -4.1943   5.2424   0.0297 H              1 S1                 0.0000
     52 ****        -2.1649   4.6132  -1.2643 H              1 S1                 0.0000
     53 ****        -1.5584   2.2510  -1.5597 H              1 S1                 0.0000
     54 ****        -3.3026  -1.8372  -0.2106 LP             1 S1                 0.0000
     55 ****        -4.4488  -0.6778   0.3743 LP             1 S1                 0.0000
     56 ****         0.8709  -2.7042  -2.9001 LP             1 S1                 0.0000
     57 ****         0.3390  -3.3329  -1.4899 LP             1 S1                 0.0000
     58 ****         2.0643  -7.5859   2.3361 LP             1 S1                 0.0000
     59 ****         3.7317  -7.6068   1.8677 LP             1 S1                 0.0000
     60 ****         4.5499  -3.3021  -1.6071 LP             1 S1                 0.0000
     61 ****         5.4877  -4.5745  -0.8989 LP             1 S1                 0.0000
     62 ****         2.7087  -0.2926  -2.2617 LP             1 S1                 0.0000
     63 ****         4.1170  -0.8703  -1.6705 LP             1 S1                 0.0000
     64 ****        -0.2300  -0.8011   1.7352 LP             1 S1                 0.0000
     65 ****        -0.7677   0.6013   2.5978 LP             1 S1                 0.0000
@<TRIPOS>BOND
    1    1    2 2     
    2    2    3 1     
    3    2   28 1     
    4    3    4 1     
    5    4    5 1     
    6    4   35 1     
    7    4   36 1     
    8    5   18 1     
    9    5    6 1     
   10    5   37 1     
   11    6    7 1     
   12    7    8 1     
   13    7   16 1     
   14    7   38 1     
   15    8   14 1     
   16    8    9 1     
   17    9   10 2     
   18    9   39 1     
   19   10   11 1     
   20   10   40 1     
   21   11   12 2     
   22   11   13 1     
   23   13   34 1     
   24   13   14 1     
   25   14   15 2     
   26   16   17 1     
   27   16   18 1     
   28   16   41 1     
   29   17   42 1     
   30   18   19 1     
   31   18   43 1     
   32   19   20 1     
   33   20   21 2     
   34   20   22 1     
   35   22   27 ar    
   36   22   23 ar    
   37   23   24 ar    
   38   23   44 1     
   39   24   25 ar    
   40   24   45 1     
   41   25   26 ar    
   42   25   46 1     
   43   26   27 ar    
   44   26   47 1     
   45   27   48 1     
   46   28   33 ar    
   47   28   29 ar    
   48   29   30 ar    
   49   29   49 1     
   50   30   31 ar    
   51   30   50 1     
   52   31   32 ar    
   53   31   51 1     
   54   32   33 ar    
   55   32   52 1     
   56   33   53 1     
   57    1   54 1     
   58    1   55 1     
   59    6   56 1     
   60    6   57 1     
   61   12   58 1     
   62   12   59 1     
   63   15   60 1     
   64   15   61 1     
   65   17   62 1     
   66   17   63 1     
   67   21   64 1     
   68   21   65 1     
@<TRIPOS>SUBSTRUCTURE
      1 S1             1
@<TRIPOS>SET
LONE_PAIRS      STATIC     ATOMS    <user>   **** ""
12 54 55 56 57 58 59 60 61 62 63 64 65
DONOR_HYDROGENS      STATIC     ATOMS    <user>   **** ""
2 34 42
ATOM$BLUE        STATIC     ATOMS    COLORGROUP SYSTEM
12 54 55 56 57 58 59 60 61 62 63 64 65
ATOM$RED        STATIC     ATOMS    COLORGROUP SYSTEM
2 34 42
