AV-unprocessed.smi:21|AV-procd|sdf|155|dock7
  -GOLD-   2262015383D 1   1.00000     0.00000
 Structure written by MMmdl.
 61 64  0  0  0  0  0  0  0  0  1 V2000
  156.5882  136.0780  156.7706 C   0  0  0  0  0  0  0  0  0  0  0  0
  156.4047  136.0059  155.3660 O   0  0  0  0  0  0  0  0  0  0  0  0
  157.4193  136.6738  154.6294 C   0  0  1  0  0  0  0  0  0  0  0  0
  158.7506  135.9140  154.7385 C   0  0  0  0  0  0  0  0  0  0  0  0
  159.0845  135.5010  153.2958 C   0  0  2  0  0  0  0  0  0  0  0  0
  160.5987  135.3612  153.0258 C   0  0  0  0  0  0  0  0  0  0  0  0
  160.8849  134.8467  151.6831 N   0  0  0  0  0  0  0  0  0  0  0  0
  161.4001  135.7887  150.6967 C   0  0  0  0  0  0  0  0  0  0  0  0
  160.4311  133.6199  151.2896 C   0  0  0  0  0  0  0  0  0  0  0  0
  159.6505  132.9152  152.1522 N   0  0  0  0  0  0  0  0  0  0  0  0
  159.1680  131.7152  151.8241 C   0  0  0  0  0  0  0  0  0  0  0  0
  159.3412  131.0304  150.6952 N   0  0  0  0  0  0  0  0  0  0  0  0
  160.1306  131.7137  149.8203 C   0  0  0  0  0  0  0  0  0  0  0  0
  160.7125  132.9999  150.0306 C   0  0  0  0  0  0  0  0  0  0  0  0
  161.4400  133.3609  148.8999 N   0  0  0  0  0  0  0  0  0  0  0  0
  161.3015  132.3552  148.0818 C   0  0  0  0  0  0  0  0  0  0  0  0
  160.5339  131.3185  148.5563 N   0  0  0  0  0  0  0  0  0  0  0  0
  160.2199  130.0864  147.8519 C   0  0  0  0  0  0  0  0  0  0  0  0
  159.4642  130.3448  146.5200 C   0  0  2  0  0  0  0  0  0  0  0  0
  158.4268  131.4780  146.6866 C   0  0  0  0  0  0  0  0  0  0  0  0
  158.2710  132.2019  145.4834 O   0  0  0  0  0  0  0  0  0  0  0  0
  158.7954  129.0558  145.9770 C   0  0  2  0  0  0  0  0  0  0  0  0
  157.9465  129.2496  144.7325 C   0  0  0  0  0  0  0  0  0  0  0  0
  157.0719  128.0016  144.7336 C   0  0  0  0  0  0  0  0  0  0  0  0
  156.8693  127.6758  146.1030 O   0  0  0  0  0  0  0  0  0  0  0  0
  157.7609  128.4278  146.9193 C   0  0  0  0  0  0  0  0  0  0  0  0
  158.4104  136.4887  152.4678 N   0  0  0  0  0  0  0  0  0  0  0  0
  158.2613  136.0886  151.0750 C   0  0  0  0  0  0  0  0  0  0  0  0
  157.1304  136.6741  153.1223 C   0  0  0  0  0  0  0  0  0  0  0  0
  157.5590  137.6917  154.9983 H   0  0  0  0  0  0  0  0  0  0  0  0
  158.6120  134.5332  153.1179 H   0  0  0  0  0  0  0  0  0  0  0  0
  155.7852  135.5370  157.2708 H   0  0  0  0  0  0  0  0  0  0  0  0
  156.5690  137.1087  157.1262 H   0  0  0  0  0  0  0  0  0  0  0  0
  157.5339  135.6232  157.0678 H   0  0  0  0  0  0  0  0  0  0  0  0
  159.5128  136.5847  155.1361 H   0  0  0  0  0  0  0  0  0  0  0  0
  158.6930  135.0498  155.4013 H   0  0  0  0  0  0  0  0  0  0  0  0
  161.0728  136.3398  153.0965 H   0  0  0  0  0  0  0  0  0  0  0  0
  161.0689  134.7683  153.8100 H   0  0  0  0  0  0  0  0  0  0  0  0
  162.1975  135.3364  150.1066 H   0  0  0  0  0  0  0  0  0  0  0  0
  161.8130  136.6736  151.1819 H   0  0  0  0  0  0  0  0  0  0  0  0
  160.6051  136.1191  150.0276 H   0  0  0  0  0  0  0  0  0  0  0  0
  158.5557  131.2363  152.5738 H   0  0  0  0  0  0  0  0  0  0  0  0
  161.7597  132.3425  147.1039 H   0  0  0  0  0  0  0  0  0  0  0  0
  161.1416  129.5275  147.6892 H   0  0  0  0  0  0  0  0  0  0  0  0
  159.6300  129.4656  148.5274 H   0  0  0  0  0  0  0  0  0  0  0  0
  160.1805  130.6754  145.7652 H   0  0  0  0  0  0  0  0  0  0  0  0
  157.4475  131.0800  146.9505 H   0  0  0  0  0  0  0  0  0  0  0  0
  158.7206  132.1600  147.4850 H   0  0  0  0  0  0  0  0  0  0  0  0
  158.9327  131.9154  144.8724 H   0  0  0  0  0  0  0  0  0  0  0  0
  159.5627  128.3113  145.7573 H   0  0  0  0  0  0  0  0  0  0  0  0
  157.3276  130.1433  144.8251 H   0  0  0  0  0  0  0  0  0  0  0  0
  158.5334  129.3316  143.8183 H   0  0  0  0  0  0  0  0  0  0  0  0
  156.1261  128.1546  144.2139 H   0  0  0  0  0  0  0  0  0  0  0  0
  157.5928  127.1725  144.2533 H   0  0  0  0  0  0  0  0  0  0  0  0
  158.2180  127.7926  147.6782 H   0  0  0  0  0  0  0  0  0  0  0  0
  157.1833  129.1996  147.4298 H   0  0  0  0  0  0  0  0  0  0  0  0
  157.6984  136.8395  150.5200 H   0  0  0  0  0  0  0  0  0  0  0  0
  157.7333  135.1381  150.9895 H   0  0  0  0  0  0  0  0  0  0  0  0
  159.2321  135.9838  150.5913 H   0  0  0  0  0  0  0  0  0  0  0  0
  156.4692  135.8395  152.8815 H   0  0  0  0  0  0  0  0  0  0  0  0
  156.6394  137.5905  152.7936 H   0  0  0  0  0  0  0  0  0  0  0  0
  1  2  1  0  0  0  0
  1 32  1  0  0  0  0
  1 33  1  0  0  0  0
  1 34  1  0  0  0  0
  2  3  1  0  0  0  0
  3 30  1  0  0  0  0
  3 29  1  0  0  0  0
  3  4  1  0  0  0  0
  4  5  1  0  0  0  0
  4 35  1  0  0  0  0
  4 36  1  0  0  0  0
  5 31  1  0  0  0  0
  5  6  1  0  0  0  0
  5 27  1  0  0  0  0
  6  7  1  0  0  0  0
  6 37  1  0  0  0  0
  6 38  1  0  0  0  0
  7  8  1  0  0  0  0
  7  9  1  0  0  0  0
  8 39  1  0  0  0  0
  8 40  1  0  0  0  0
  8 41  1  0  0  0  0
  9 14  1  0  0  0  0
  9 10  2  0  0  0  0
 10 11  1  0  0  0  0
 11 12  2  0  0  0  0
 11 42  1  0  0  0  0
 12 13  1  0  0  0  0
 13 17  1  0  0  0  0
 13 14  2  0  0  0  0
 14 15  1  0  0  0  0
 15 16  2  0  0  0  0
 16 17  1  0  0  0  0
 16 43  1  0  0  0  0
 17 18  1  0  0  0  0
 18 19  1  0  0  0  0
 18 44  1  0  0  0  0
 18 45  1  0  0  0  0
 19 20  1  0  0  0  0
 19 22  1  0  0  0  0
 19 46  1  0  0  0  0
 20 21  1  0  0  0  0
 20 47  1  0  0  0  0
 20 48  1  0  0  0  0
 21 49  1  0  0  0  0
 22 26  1  0  0  0  0
 22 23  1  0  0  0  0
 22 50  1  0  0  0  0
 23 24  1  0  0  0  0
 23 51  1  0  0  0  0
 23 52  1  0  0  0  0
 24 25  1  0  0  0  0
 24 53  1  0  0  0  0
 24 54  1  0  0  0  0
 25 26  1  0  0  0  0
 26 55  1  0  0  0  0
 26 56  1  0  0  0  0
 27 28  1  0  0  0  0
 27 29  1  0  0  0  0
 28 57  1  0  0  0  0
 28 58  1  0  0  0  0
 28 59  1  0  0  0  0
 29 60  1  0  0  0  0
 29 61  1  0  0  0  0
M  END
> <s_m_source_file>
AV-unprocessed.smi

> <i_m_source_file_index>
21

> <i_lp_mmshare_version>
43012

> <i_f3d_flags>
0

> <s_epik_input>
W0NIM11PW0NASF0xW0NIMl1bQ0BIXShOKFtDSDNdKVtDSDJdMSlbQ0gyXU4oW0NIM10pYyhuW2NIXW4yKWMoYzIzKW5bY0hdbjNbQ0gyXVtDQEhdKFtDSDJdW09IXSlbQ0BASF00W0NIMl1bQ0gyXU9bQ0gyXTQ=

> <s_epik_cmdline>
J2VwaWtfcHl0aG9uJywgJy1waCcsICc3LjAnLCAnLXRuJywgJzgnLCAnLW1hJywgJzIwMCcsICctbWV0YWxfYmluZGluZycsICctaW1hZScsICc8aW5maWxlLm1hZT4nLCAnLW9tYWUnLCAnPG91dGZpbGUubWFlPic=

> <r_lp_tautomer_probability>
1

> <r_epik_Ionization_Penalty>
2.17574

> <r_epik_Ionization_Penalty_Charging>
0

> <r_epik_Ionization_Penalty_Neutral>
2.17574

> <r_epik_State_Penalty>
2.31336

> <r_epik_Charging_Adjusted_Penalty>
2.31336

> <i_epik_Tot_Q>
0

> <i_epik_Tot_abs_Q>
0

> <r_epik_Metal_State_Penalty>
2.31025

> <b_epik_Metal_Only>
0

> <s_lp_Force_Field>
OPLS_2005

> <r_lp_Energy>
70.8096

> <b_lp_Chiralities_Consistent>
1

> <s_lp_Variant>
AV-unprocessed.smi:21-35

> <Gold.Version>
5.8.1

> <Gold.Id.Protein>
6NUR|6NUR_protein|mol2

> <Gold.PLP.Fitness>
48.7524

> <Gold.PLP.PLP>
-44.4817

> <Gold.PLP.part.hbond>
-2.9212

> <Gold.PLP.part.metal>
0.0000

> <Gold.PLP.part.buried>
-3.0397

> <Gold.PLP.part.nonpolar>
-40.7092

> <Gold.PLP.part.repulsive>
0.3832

> <Gold.PLP.ligand.clash>
0.0000

> <Gold.PLP.ligand.torsion>
0.7398

> <Gold.PLP.Chemscore.Hbond>
1.7127

> <Gold.PLP.Chemscore.CHOScore>
0.0000

> <Gold.PLP.Chemscore.Metal>
0.0000

> <Gold.Chemscore.Hbonds>
donor molecule, donor type, donor heavy atom, donor atom, acceptor molecule, acceptor atom, score
      P1  H 10752 10765       L1     2  1.00

> <Gold.PLP.Chemscore.Internal.Correction>
0.6120

> <Gold.Rescore>
     Score         DG    S(hbond)    S(metal)    S(lipo)     H(rot)  DE(clash)    DE(int)     intcor
      9.81     -16.97       1.88        0.00     110.24       3.00       3.85       3.31       ----

> <Gold.Chemscore.Fitness>
9.8054

> <Gold.Chemscore.DG>
-16.9653

> <Gold.Chemscore.ZeroCoef>
-5.4800

> <Gold.Chemscore.Hbond>
1.8788

> <Gold.Chemscore.Metal>
0.0000

> <Gold.Chemscore.Lipo>
110.2412

> <Gold.Chemscore.Internal_Hbond>
0.0000

> <Gold.Chemscore.DEClash>
3.8549

> <Gold.Chemscore.DEInternal>
3.3050

> <Gold.Chemscore.Rot>
3.0031

> <Gold.Chemscore.Internal.Correction>
   9.000000E+99

> <Gold.Chemscore.Hbonds>
donor molecule, donor type, donor heavy atom, donor atom, acceptor molecule, acceptor atom, score
      P1  H 10752 10765       L1     2  0.81

> <Gold.Chemscore.Hbond.Weighted>
-6.2751

> <Gold.Chemscore.Metal.Weighted>
-0.0000

> <Gold.Chemscore.Lipo.Weighted>
-12.8982

> <Gold.Chemscore.Internal_Hbond.Weighted>
0.0000

> <Gold.Chemscore.DEClash.Weighted>
3.8549

> <Gold.Chemscore.DEInternal.Weighted>
3.3050

> <Gold.Chemscore.Rot.Weighted>
7.6880

> <Gold.Chemscore.Internal.Correction.Weighted>
   9.000000E+99

> <Gold.Protein.RotatedTorsions>
[ 6907 6896 6895 6894 ] final  101.74 input  -60.11 | X-H torsion
[ 7974 7965 7964 7962 ] final  -83.31 input  175.53 | X-H torsion
[ 8008 7997 7996 7995 ] final  -13.98 input   59.86 | X-H torsion
[ 10167 10162 10161 10158 ] final -166.72 input  -65.29 | X-H torsion
[ 10718 10713 10712 10709 ] final  134.97 input   66.30 | X-H torsion
[ 10763 10752 10751 10750 ] final  -41.99 input  -60.55 | X-H torsion
[ 11005 11000 10999 10996 ] final -138.56 input  -57.11 | X-H torsion

> <Gold.Protein.ActiveResidues>
 VAL166  LYS551  ARG553  GLY616  TRP617  ASP618  TYR619  PRO620  LYS621  CYS622 
 ASP623  PHE694  ASN695  SER759  ASP760  ASP761  ALA762  ILE779  LEU786  VAL792 
 PHE793  MET794  SER795  GLU796  ALA797  LYS798  CYS799  TRP800  GLU811  SER814 

> <Gold.Protein.RotatedAtoms>
  152.5342  134.0080  159.7925 H   0  0  0  0  0  0  0  0  0  0  0  0  # atno 6907 bound_to 6896
  151.0287  133.5802  159.2670 H   0  0  0  0  0  0  0  0  0  0  0  0  # atno 6908 bound_to 6896
  151.2814  135.0722  159.9224 H   0  0  0  0  0  0  0  0  0  0  0  0  # atno 6909 bound_to 6896
  145.5217  140.9530  143.1651 H   0  0  0  0  0  0  0  0  0  0  0  0  # atno 7974 bound_to 7965
  154.5247  140.2235  155.8911 H   0  0  0  0  0  0  0  0  0  0  0  0  # atno 8008 bound_to 7997
  156.1701  140.3123  155.8922 H   0  0  0  0  0  0  0  0  0  0  0  0  # atno 8009 bound_to 7997
  155.3576  140.0459  157.3037 H   0  0  0  0  0  0  0  0  0  0  0  0  # atno 8010 bound_to 7997
  139.6096  144.0842  152.1828 H   0  0  0  0  0  0  0  0  0  0  0  0  # atno 10167 bound_to 10162
  157.4619  131.1074  150.9910 H   0  0  0  0  0  0  0  0  0  0  0  0  # atno 10718 bound_to 10713
  153.9716  135.6727  153.4747 H   0  0  0  0  0  0  0  0  0  0  0  0  # atno 10763 bound_to 10752
  153.0790  135.4933  154.8461 H   0  0  0  0  0  0  0  0  0  0  0  0  # atno 10764 bound_to 10752
  154.7216  135.3118  154.8999 H   0  0  0  0  0  0  0  0  0  0  0  0  # atno 10765 bound_to 10752
  140.8604  134.2175  157.4710 H   0  0  0  0  0  0  0  0  0  0  0  0  # atno 11005 bound_to 11000
  144.7672  139.6817  143.7210 LP  0  0  0  0  0  0  0  0  0  0  0  0  # atno 17320 bound_to 7965
  146.2101  139.5452  142.9686 LP  0  0  0  0  0  0  0  0  0  0  0  0  # atno 17321 bound_to 7965
  140.0457  144.5972  150.7375 LP  0  0  0  0  0  0  0  0  0  0  0  0  # atno 17342 bound_to 10162
  140.7310  143.2689  151.3953 LP  0  0  0  0  0  0  0  0  0  0  0  0  # atno 17343 bound_to 10162
  157.0704  130.5862  149.5401 LP  0  0  0  0  0  0  0  0  0  0  0  0  # atno 17370 bound_to 10713
  156.0032  130.5115  150.7739 LP  0  0  0  0  0  0  0  0  0  0  0  0  # atno 17371 bound_to 10713
  139.8707  134.9727  156.4782 LP  0  0  0  0  0  0  0  0  0  0  0  0  # atno 17394 bound_to 11000
  140.8689  133.8003  155.9343 LP  0  0  0  0  0  0  0  0  0  0  0  0  # atno 17395 bound_to 11000

$$$$
