AV-unprocessed.smi:2069|AV-procd|sdf|8433|dock7
  -GOLD-   2272011133D 1   1.00000     0.00000
 Structure written by MMmdl.
 39 40  0  0  0  0  0  0  0  0  2 V2000
  137.7872  137.1717  154.0869 C   0  0  0  0  0  0  0  0  0  0  0  0
  139.2597  137.3270  154.2588 C   0  0  0  0  0  0  0  0  0  0  0  0
  140.0213  136.4054  154.8607 N   0  0  0  0  0  0  0  0  0  0  0  0
  141.3591  136.7723  154.8997 N   0  0  0  0  0  0  0  0  0  0  0  0
  141.5677  137.9639  154.3230 C   0  0  0  0  0  0  0  0  0  0  0  0
  142.8440  138.5785  154.2217 N   0  0  0  0  0  0  0  0  0  0  0  0
  143.9266  138.3791  154.9938 C   0  0  0  0  0  0  0  0  0  0  0  0
  143.9833  137.6155  155.9579 O   0  0  0  0  0  0  0  0  0  0  0  0
  144.9653  139.1181  154.5757 N   0  0  0  0  0  0  0  0  0  0  0  0
  146.2889  139.1431  155.1954 C   0  0  0  0  0  0  0  0  0  0  0  0
  147.2125  140.2531  154.6253 C   0  0  2  0  0  0  0  0  0  0  0  0
  147.1109  140.3174  153.0809 C   0  0  0  0  0  0  0  0  0  0  0  0
  148.6160  140.0575  155.1202 N   0  3  0  0  0  0  0  0  0  0  0  0
  149.4300  139.0562  154.3759 C   0  0  0  0  0  0  0  0  0  0  0  0
  150.8331  138.9121  154.9905 C   0  0  0  0  0  0  0  0  0  0  0  0
  151.4820  140.1744  155.0177 O   0  0  0  0  0  0  0  0  0  0  0  0
  150.7711  141.1061  155.8187 C   0  0  0  0  0  0  0  0  0  0  0  0
  149.3740  141.3350  155.2194 C   0  0  0  0  0  0  0  0  0  0  0  0
  140.1315  138.7411  153.6793 S   0  0  0  0  0  0  0  0  0  0  0  0
  137.4219  136.3139  154.6526 H   0  0  0  0  0  0  0  0  0  0  0  0
  137.5494  137.0230  153.0336 H   0  0  0  0  0  0  0  0  0  0  0  0
  137.2735  138.0658  154.4399 H   0  0  0  0  0  0  0  0  0  0  0  0
  142.9456  139.2400  153.4664 H   0  0  0  0  0  0  0  0  0  0  0  0
  144.8281  139.7166  153.7741 H   0  0  0  0  0  0  0  0  0  0  0  0
  146.1105  139.2889  156.2589 H   0  0  0  0  0  0  0  0  0  0  0  0
  146.7784  138.1715  155.1079 H   0  0  0  0  0  0  0  0  0  0  0  0
  146.8623  141.2171  154.9982 H   0  0  0  0  0  0  0  0  0  0  0  0
  146.0847  140.4680  152.7486 H   0  0  0  0  0  0  0  0  0  0  0  0
  147.4732  139.3984  152.6188 H   0  0  0  0  0  0  0  0  0  0  0  0
  147.6696  141.1555  152.6648 H   0  0  0  0  0  0  0  0  0  0  0  0
  148.9623  138.0727  154.4077 H   0  0  0  0  0  0  0  0  0  0  0  0
  149.5077  139.3517  153.3284 H   0  0  0  0  0  0  0  0  0  0  0  0
  150.7757  138.4967  155.9980 H   0  0  0  0  0  0  0  0  0  0  0  0
  151.4325  138.2211  154.3973 H   0  0  0  0  0  0  0  0  0  0  0  0
  150.7028  140.7485  156.8475 H   0  0  0  0  0  0  0  0  0  0  0  0
  151.3267  142.0436  155.8439 H   0  0  0  0  0  0  0  0  0  0  0  0
  149.4683  141.7805  154.2278 H   0  0  0  0  0  0  0  0  0  0  0  0
  148.8510  142.0588  155.8411 H   0  0  0  0  0  0  0  0  0  0  0  0
  148.5314  139.6934  156.0587 H   0  0  0  0  0  0  0  0  0  0  0  0
  1  2  1  0  0  0  0
  1 20  1  0  0  0  0
  1 21  1  0  0  0  0
  1 22  1  0  0  0  0
  2 19  1  0  0  0  0
  2  3  2  0  0  0  0
  3  4  1  0  0  0  0
  4  5  2  0  0  0  0
  5  6  1  0  0  0  0
  5 19  1  0  0  0  0
  6  7  1  0  0  0  0
  6 23  1  0  0  0  0
  7  8  2  0  0  0  0
  7  9  1  0  0  0  0
  9 10  1  0  0  0  0
  9 24  1  0  0  0  0
 10 11  1  0  0  0  0
 10 25  1  0  0  0  0
 10 26  1  0  0  0  0
 11 12  1  0  0  0  0
 11 13  1  0  0  0  0
 11 27  1  0  0  0  0
 12 28  1  0  0  0  0
 12 29  1  0  0  0  0
 12 30  1  0  0  0  0
 13 18  1  0  0  0  0
 13 14  1  0  0  0  0
 13 39  1  0  0  0  0
 14 15  1  0  0  0  0
 14 31  1  0  0  0  0
 14 32  1  0  0  0  0
 15 16  1  0  0  0  0
 15 33  1  0  0  0  0
 15 34  1  0  0  0  0
 16 17  1  0  0  0  0
 17 18  1  0  0  0  0
 17 35  1  0  0  0  0
 17 36  1  0  0  0  0
 18 37  1  0  0  0  0
 18 38  1  0  0  0  0
M  CHG  1  13   1
M  END
> <s_m_source_file>
AV-unprocessed.smi

> <i_m_source_file_index>
2069

> <i_lp_mmshare_version>
43012

> <i_f3d_flags>
0

> <s_epik_input>
W0NIM11jMW5uYyhzMSlbTkhdQyg9TylbTkhdW0NIMl1bQ0BIXShbQ0gzXSlOMltDSDJdW0NIMl1PW0NIMl1bQ0gyXTI=

> <s_epik_cmdline>
J2VwaWtfcHl0aG9uJywgJy1waCcsICc3LjAnLCAnLXRuJywgJzgnLCAnLW1hJywgJzIwMCcsICctbWV0YWxfYmluZGluZycsICctaW1hZScsICc8aW5maWxlLm1hZT4nLCAnLW9tYWUnLCAnPG91dGZpbGUubWFlPic=

> <r_lp_tautomer_probability>
1

> <r_epik_Ionization_Penalty>
0.70016

> <r_epik_Ionization_Penalty_Charging>
0.695697

> <r_epik_Ionization_Penalty_Neutral>
0.00446266

> <r_epik_State_Penalty>
0.717972

> <r_epik_Charging_Adjusted_Penalty>
1.41367

> <i_epik_Tot_Q>
1

> <i_epik_Tot_abs_Q>
1

> <r_epik_Metal_State_Penalty>
1.06969

> <b_epik_Metal_Only>
0

> <s_lp_Force_Field>
OPLS_2005

> <r_lp_Energy>
19.5762

> <b_lp_Chiralities_Consistent>
1

> <s_lp_Variant>
AV-unprocessed.smi:2069-3

> <Gold.Version>
5.8.1

> <Gold.Id.Protein>
6NUR|6NUR_protein|mol2

> <Gold.PLP.Fitness>
39.4739

> <Gold.PLP.PLP>
-28.9216

> <Gold.PLP.part.hbond>
-4.0142

> <Gold.PLP.part.metal>
0.0000

> <Gold.PLP.part.buried>
-4.1465

> <Gold.PLP.part.nonpolar>
-20.8605

> <Gold.PLP.part.repulsive>
0.1727

> <Gold.PLP.ligand.clash>
0.0000

> <Gold.PLP.ligand.torsion>
0.7365

> <Gold.PLP.Chemscore.Hbond>
3.9920

> <Gold.PLP.Chemscore.CHOScore>
0.0000

> <Gold.PLP.Chemscore.Metal>
0.0000

> <Gold.Chemscore.Hbonds>
donor molecule, donor type, donor heavy atom, donor atom, acceptor molecule, acceptor atom, score
      L1  H     6    23       P1 10175  1.00
      L1  H     9    24       P1 10175  0.99
      P1  H  7989  7998       L1    16  1.00
      P1  H 11000 11005       L1     3  1.00

> <Gold.PLP.Chemscore.Internal.Correction>
0.0492

> <Gold.Rescore>
     Score         DG    S(hbond)    S(metal)    S(lipo)     H(rot)  DE(clash)    DE(int)     intcor
     17.66     -19.77       3.36        0.00      62.39       1.65       0.21       1.89       ----

> <Gold.Chemscore.Fitness>
17.6635

> <Gold.Chemscore.DG>
-19.7685

> <Gold.Chemscore.ZeroCoef>
-5.4800

> <Gold.Chemscore.Hbond>
3.3552

> <Gold.Chemscore.Metal>
0.0000

> <Gold.Chemscore.Lipo>
62.3932

> <Gold.Chemscore.Internal_Hbond>
0.0000

> <Gold.Chemscore.DEClash>
0.2114

> <Gold.Chemscore.DEInternal>
1.8936

> <Gold.Chemscore.Rot>
1.6476

> <Gold.Chemscore.Internal.Correction>
   9.000000E+99

> <Gold.Chemscore.Hbonds>
donor molecule, donor type, donor heavy atom, donor atom, acceptor molecule, acceptor atom, score
      L1  H     6    23       P1 10175  1.00
      L1  H     9    24       P1 10175  0.93
      P1  H  7989  7998       L1    16  0.52
      P1  H 11000 11005       L1     3  0.37

> <Gold.Chemscore.Hbond.Weighted>
-11.2064

> <Gold.Chemscore.Metal.Weighted>
-0.0000

> <Gold.Chemscore.Lipo.Weighted>
-7.3000

> <Gold.Chemscore.Internal_Hbond.Weighted>
0.0000

> <Gold.Chemscore.DEClash.Weighted>
0.2114

> <Gold.Chemscore.DEInternal.Weighted>
1.8936

> <Gold.Chemscore.Rot.Weighted>
4.2179

> <Gold.Chemscore.Internal.Correction.Weighted>
   9.000000E+99

> <Gold.Protein.RotatedTorsions>
[ 6907 6896 6895 6894 ] final  -76.04 input  -60.11 | X-H torsion
[ 7974 7965 7964 7962 ] final -162.59 input  175.53 | X-H torsion
[ 8008 7997 7996 7995 ] final   -3.73 input   59.86 | X-H torsion
[ 10167 10162 10161 10158 ] final -106.21 input  -65.29 | X-H torsion
[ 10718 10713 10712 10709 ] final   -8.11 input   66.30 | X-H torsion
[ 10763 10752 10751 10750 ] final  -75.59 input  -60.55 | X-H torsion
[ 11005 11000 10999 10996 ] final   71.48 input  -57.11 | X-H torsion

> <Gold.Protein.ActiveResidues>
 VAL166  LYS551  ARG553  GLY616  TRP617  ASP618  TYR619  PRO620  LYS621  CYS622 
 ASP623  PHE694  ASN695  SER759  ASP760  ASP761  ALA762  ILE779  LEU786  VAL792 
 PHE793  MET794  SER795  GLU796  ALA797  LYS798  CYS799  TRP800  GLU811  SER814 

> <Gold.Protein.RotatedAtoms>
  150.7040  134.4632  159.5390 H   0  0  0  0  0  0  0  0  0  0  0  0  # atno 6907 bound_to 6896
  152.2302  134.8326  160.0483 H   0  0  0  0  0  0  0  0  0  0  0  0  # atno 6908 bound_to 6896
  151.9144  133.3534  159.3912 H   0  0  0  0  0  0  0  0  0  0  0  0  # atno 6909 bound_to 6896
  144.7352  140.3231  143.6167 H   0  0  0  0  0  0  0  0  0  0  0  0  # atno 7974 bound_to 7965
  154.6218  140.2502  155.7540 H   0  0  0  0  0  0  0  0  0  0  0  0  # atno 8008 bound_to 7997
  156.2431  140.2925  156.0448 H   0  0  0  0  0  0  0  0  0  0  0  0  # atno 8009 bound_to 7997
  155.1885  140.0391  157.2886 H   0  0  0  0  0  0  0  0  0  0  0  0  # atno 8010 bound_to 7997
  140.1903  143.3897  152.1212 H   0  0  0  0  0  0  0  0  0  0  0  0  # atno 10167 bound_to 10162
  156.7074  130.5111  149.5901 H   0  0  0  0  0  0  0  0  0  0  0  0  # atno 10718 bound_to 10713
  154.4886  135.5826  153.6442 H   0  0  0  0  0  0  0  0  0  0  0  0  # atno 10763 bound_to 10752
  152.9858  135.6107  154.3154 H   0  0  0  0  0  0  0  0  0  0  0  0  # atno 10764 bound_to 10752
  154.3052  135.2846  155.2571 H   0  0  0  0  0  0  0  0  0  0  0  0  # atno 10765 bound_to 10752
  139.9541  134.7174  156.0793 H   0  0  0  0  0  0  0  0  0  0  0  0  # atno 11005 bound_to 11000
  145.7549  139.1805  143.2300 LP  0  0  0  0  0  0  0  0  0  0  0  0  # atno 17320 bound_to 7965
  146.1032  140.7519  142.9539 LP  0  0  0  0  0  0  0  0  0  0  0  0  # atno 17321 bound_to 7965
  139.5259  144.7101  151.5232 LP  0  0  0  0  0  0  0  0  0  0  0  0  # atno 17342 bound_to 10162
  140.6460  143.8792  150.6738 LP  0  0  0  0  0  0  0  0  0  0  0  0  # atno 17343 bound_to 10162
  156.1685  130.6421  151.0808 LP  0  0  0  0  0  0  0  0  0  0  0  0  # atno 17370 bound_to 10713
  157.6949  131.0797  150.6997 LP  0  0  0  0  0  0  0  0  0  0  0  0  # atno 17371 bound_to 10713
  141.1210  133.6613  156.3214 LP  0  0  0  0  0  0  0  0  0  0  0  0  # atno 17394 bound_to 11000
  140.5649  134.5897  157.5443 LP  0  0  0  0  0  0  0  0  0  0  0  0  # atno 17395 bound_to 11000

$$$$
