AV-unprocessed.smi:2475|AV-procd|sdf|9755|dock9
  -GOLD-   2272013393D 1   1.00000     0.00000
 Structure written by MMmdl.
 37 38  0  0  0  0  0  0  0  0  1 V2000
  151.9145  146.0910  160.1805 C   0  0  0  0  0  0  0  0  0  0  0  0
  151.9740  144.6880  159.6147 C   0  0  0  0  0  0  0  0  0  0  0  0
  151.2077  144.3108  158.4920 C   0  0  0  0  0  0  0  0  0  0  0  0
  151.3364  142.9779  158.0418 C   0  0  0  0  0  0  0  0  0  0  0  0
  150.5531  142.6275  156.9117 N   0  0  0  0  0  0  0  0  0  0  0  0
  150.6406  141.5231  156.1456 C   0  0  0  0  0  0  0  0  0  0  0  0
  151.4292  140.5989  156.3480 O   0  0  0  0  0  0  0  0  0  0  0  0
  149.6517  141.4295  154.9736 C   0  0  2  0  0  0  0  0  0  0  0  0
  148.1689  141.3484  155.3878 C   0  0  0  0  0  0  0  0  0  0  0  0
  147.6555  140.0965  154.6954 C   0  0  0  0  0  0  0  0  0  0  0  0
  148.6782  139.8727  153.5906 C   0  0  0  0  0  0  0  0  0  0  0  0
  149.8920  140.2415  154.2210 O   0  0  0  0  0  0  0  0  0  0  0  0
  152.1728  142.1254  158.6836 N   0  0  0  0  0  0  0  0  0  0  0  0
  152.8526  142.5812  159.7410 C   0  0  0  0  0  0  0  0  0  0  0  0
  153.7907  141.6016  160.4341 C   0  0  0  0  0  0  0  0  0  0  0  0
  153.6197  140.1705  159.9023 C   0  0  0  0  0  0  0  0  0  0  0  0
  153.6878  141.6889  161.9649 C   0  0  0  0  0  0  0  0  0  0  0  0
  152.7972  143.8196  160.2386 N   0  0  0  0  0  0  0  0  0  0  0  0
  151.2350  146.7198  159.6048 H   0  0  0  0  0  0  0  0  0  0  0  0
  152.9032  146.5501  160.1602 H   0  0  0  0  0  0  0  0  0  0  0  0
  151.5663  146.0685  161.2134 H   0  0  0  0  0  0  0  0  0  0  0  0
  150.5505  145.0130  157.9995 H   0  0  0  0  0  0  0  0  0  0  0  0
  149.8451  143.2962  156.6454 H   0  0  0  0  0  0  0  0  0  0  0  0
  149.8026  142.2877  154.3170 H   0  0  0  0  0  0  0  0  0  0  0  0
  148.0117  141.2850  156.4655 H   0  0  0  0  0  0  0  0  0  0  0  0
  147.6357  142.2301  155.0309 H   0  0  0  0  0  0  0  0  0  0  0  0
  147.6747  139.2557  155.3899 H   0  0  0  0  0  0  0  0  0  0  0  0
  146.6383  140.2029  154.3180 H   0  0  0  0  0  0  0  0  0  0  0  0
  148.7020  138.8410  153.2389 H   0  0  0  0  0  0  0  0  0  0  0  0
  148.4887  140.5280  152.7387 H   0  0  0  0  0  0  0  0  0  0  0  0
  154.8098  141.9003  160.1820 H   0  0  0  0  0  0  0  0  0  0  0  0
  153.7743  140.1336  158.8236 H   0  0  0  0  0  0  0  0  0  0  0  0
  152.6208  139.7854  160.1096 H   0  0  0  0  0  0  0  0  0  0  0  0
  154.3387  139.4924  160.3627 H   0  0  0  0  0  0  0  0  0  0  0  0
  153.8829  142.7036  162.3131 H   0  0  0  0  0  0  0  0  0  0  0  0
  154.4113  141.0296  162.4449 H   0  0  0  0  0  0  0  0  0  0  0  0
  152.6957  141.4013  162.3147 H   0  0  0  0  0  0  0  0  0  0  0  0
  1  2  1  0  0  0  0
  1 19  1  0  0  0  0
  1 20  1  0  0  0  0
  1 21  1  0  0  0  0
  2 18  1  0  0  0  0
  2  3  2  0  0  0  0
  3  4  1  0  0  0  0
  3 22  1  0  0  0  0
  4  5  1  0  0  0  0
  4 13  2  0  0  0  0
  5  6  1  0  0  0  0
  5 23  1  0  0  0  0
  6  7  2  0  0  0  0
  6  8  1  0  0  0  0
  8 12  1  0  0  0  0
  8  9  1  0  0  0  0
  8 24  1  0  0  0  0
  9 10  1  0  0  0  0
  9 25  1  0  0  0  0
  9 26  1  0  0  0  0
 10 11  1  0  0  0  0
 10 27  1  0  0  0  0
 10 28  1  0  0  0  0
 11 12  1  0  0  0  0
 11 29  1  0  0  0  0
 11 30  1  0  0  0  0
 13 14  1  0  0  0  0
 14 15  1  0  0  0  0
 14 18  2  0  0  0  0
 15 16  1  0  0  0  0
 15 17  1  0  0  0  0
 15 31  1  0  0  0  0
 16 32  1  0  0  0  0
 16 33  1  0  0  0  0
 16 34  1  0  0  0  0
 17 35  1  0  0  0  0
 17 36  1  0  0  0  0
 17 37  1  0  0  0  0
M  END
> <s_m_source_file>
AV-unprocessed.smi

> <i_m_source_file_index>
2475

> <i_lp_mmshare_version>
43012

> <i_f3d_flags>
0

> <s_epik_input>
W0NIM11bQ0hdKFtDSDNdKWMobjEpbmMoW2NIXWMxW0NIM10pW05IXUMoPU8pW0NAQEhdMltDSDJdW0NIMl1bQ0gyXU8y

> <s_epik_cmdline>
J2VwaWtfcHl0aG9uJywgJy1waCcsICc3LjAnLCAnLXRuJywgJzgnLCAnLW1hJywgJzIwMCcsICctbWV0YWxfYmluZGluZycsICctaW1hZScsICc8aW5maWxlLm1hZT4nLCAnLW9tYWUnLCAnPG91dGZpbGUubWFlPic=

> <r_lp_tautomer_probability>
1

> <r_epik_Ionization_Penalty>
1.42804e-05

> <r_epik_Ionization_Penalty_Charging>
0

> <r_epik_Ionization_Penalty_Neutral>
1.42804e-05

> <r_epik_State_Penalty>
-0

> <r_epik_Charging_Adjusted_Penalty>
0

> <i_epik_Tot_Q>
0

> <i_epik_Tot_abs_Q>
0

> <r_epik_Metal_State_Penalty>
-0

> <b_epik_Metal_Only>
0

> <s_lp_Force_Field>
OPLS_2005

> <r_lp_Energy>
10.8571

> <b_lp_Chiralities_Consistent>
1

> <s_lp_Variant>
AV-unprocessed.smi:2475-1

> <Gold.Version>
5.8.1

> <Gold.Id.Protein>
6NUR|6NUR_protein|mol2

> <Gold.PLP.Fitness>
42.7695

> <Gold.PLP.PLP>
-38.4238

> <Gold.PLP.part.hbond>
-2.0000

> <Gold.PLP.part.metal>
0.0000

> <Gold.PLP.part.buried>
-0.6451

> <Gold.PLP.part.nonpolar>
-36.4726

> <Gold.PLP.part.repulsive>
0.5492

> <Gold.PLP.ligand.clash>
0.0000

> <Gold.PLP.ligand.torsion>
0.3535

> <Gold.PLP.Chemscore.Hbond>
1.6600

> <Gold.PLP.Chemscore.CHOScore>
0.0000

> <Gold.PLP.Chemscore.Metal>
0.0000

> <Gold.Chemscore.Hbonds>
donor molecule, donor type, donor heavy atom, donor atom, acceptor molecule, acceptor atom, score
      L1  H     5    23       P1  8028  1.00
      P1  H  7989  7998       L1    12  0.62

> <Gold.PLP.Chemscore.Internal.Correction>
0.0728

> <Gold.Rescore>
     Score         DG    S(hbond)    S(metal)    S(lipo)     H(rot)  DE(clash)    DE(int)     intcor
     14.17     -17.08       1.22        0.00      90.33       1.18       1.54       1.37       ----

> <Gold.Chemscore.Fitness>
14.1712

> <Gold.Chemscore.DG>
-17.0820

> <Gold.Chemscore.ZeroCoef>
-5.4800

> <Gold.Chemscore.Hbond>
1.2170

> <Gold.Chemscore.Metal>
0.0000

> <Gold.Chemscore.Lipo>
90.3294

> <Gold.Chemscore.Internal_Hbond>
0.0000

> <Gold.Chemscore.DEClash>
1.5396

> <Gold.Chemscore.DEInternal>
1.3711

> <Gold.Chemscore.Rot>
1.1842

> <Gold.Chemscore.Internal.Correction>
   9.000000E+99

> <Gold.Chemscore.Hbonds>
donor molecule, donor type, donor heavy atom, donor atom, acceptor molecule, acceptor atom, score
      L1  H     5    23       P1  8028  0.98
      P1  H  7989  7998       L1    12  0.06

> <Gold.Chemscore.Hbond.Weighted>
-4.0649

> <Gold.Chemscore.Metal.Weighted>
-0.0000

> <Gold.Chemscore.Lipo.Weighted>
-10.5685

> <Gold.Chemscore.Internal_Hbond.Weighted>
0.0000

> <Gold.Chemscore.DEClash.Weighted>
1.5396

> <Gold.Chemscore.DEInternal.Weighted>
1.3711

> <Gold.Chemscore.Rot.Weighted>
3.0315

> <Gold.Chemscore.Internal.Correction.Weighted>
   9.000000E+99

> <Gold.Protein.RotatedTorsions>
[ 6907 6896 6895 6894 ] final   34.03 input  -60.11 | X-H torsion
[ 7974 7965 7964 7962 ] final  -54.24 input  175.53 | X-H torsion
[ 8008 7997 7996 7995 ] final   15.28 input   59.86 | X-H torsion
[ 10167 10162 10161 10158 ] final   30.34 input  -65.29 | X-H torsion
[ 10718 10713 10712 10709 ] final -172.84 input   66.30 | X-H torsion
[ 10763 10752 10751 10750 ] final  167.62 input  -60.55 | X-H torsion
[ 11005 11000 10999 10996 ] final  -88.90 input  -57.11 | X-H torsion

> <Gold.Protein.ActiveResidues>
 VAL166  LYS551  ARG553  GLY616  TRP617  ASP618  TYR619  PRO620  LYS621  CYS622 
 ASP623  PHE694  ASN695  SER759  ASP760  ASP761  ALA762  ILE779  LEU786  VAL792 
 PHE793  MET794  SER795  GLU796  ALA797  LYS798  CYS799  TRP800  GLU811  SER814 

> <Gold.Protein.RotatedAtoms>
  152.0968  134.9369  160.0570 H   0  0  0  0  0  0  0  0  0  0  0  0  # atno 6907 bound_to 6896
  152.0599  133.4052  159.4421 H   0  0  0  0  0  0  0  0  0  0  0  0  # atno 6908 bound_to 6896
  150.6838  134.3132  159.4798 H   0  0  0  0  0  0  0  0  0  0  0  0  # atno 6909 bound_to 6896
  145.8878  140.8094  142.9807 H   0  0  0  0  0  0  0  0  0  0  0  0  # atno 7974 bound_to 7965
  154.8604  140.2943  155.5543 H   0  0  0  0  0  0  0  0  0  0  0  0  # atno 8008 bound_to 7997
  156.3019  140.2479  156.3509 H   0  0  0  0  0  0  0  0  0  0  0  0  # atno 8009 bound_to 7997
  154.8925  140.0394  157.1836 H   0  0  0  0  0  0  0  0  0  0  0  0  # atno 8010 bound_to 7997
  140.4686  144.0797  150.6231 H   0  0  0  0  0  0  0  0  0  0  0  0  # atno 10167 bound_to 10162
  156.7615  130.9415  151.3118 H   0  0  0  0  0  0  0  0  0  0  0  0  # atno 10718 bound_to 10713
  154.3566  135.2753  155.2343 H   0  0  0  0  0  0  0  0  0  0  0  0  # atno 10763 bound_to 10752
  154.4549  135.5921  153.6220 H   0  0  0  0  0  0  0  0  0  0  0  0  # atno 10764 bound_to 10752
  152.9846  135.6051  154.3782 H   0  0  0  0  0  0  0  0  0  0  0  0  # atno 10765 bound_to 10752
  141.1594  133.7597  156.9518 H   0  0  0  0  0  0  0  0  0  0  0  0  # atno 11005 bound_to 11000
  144.6729  140.1483  143.7432 LP  0  0  0  0  0  0  0  0  0  0  0  0  # atno 17320 bound_to 7965
  145.8945  139.2395  143.1530 LP  0  0  0  0  0  0  0  0  0  0  0  0  # atno 17321 bound_to 7965
  140.4005  143.2706  151.9954 LP  0  0  0  0  0  0  0  0  0  0  0  0  # atno 17342 bound_to 10162
  139.4815  144.6002  151.7620 LP  0  0  0  0  0  0  0  0  0  0  0  0  # atno 17343 bound_to 10162
  157.6732  130.9070  150.0090 LP  0  0  0  0  0  0  0  0  0  0  0  0  # atno 17370 bound_to 10713
  156.1336  130.3643  149.9692 LP  0  0  0  0  0  0  0  0  0  0  0  0  # atno 17371 bound_to 10713
  140.1252  134.9391  157.2260 LP  0  0  0  0  0  0  0  0  0  0  0  0  # atno 17394 bound_to 11000
  140.3022  134.3119  155.7287 LP  0  0  0  0  0  0  0  0  0  0  0  0  # atno 17395 bound_to 11000

$$$$
