#       Name:                AV-unprocessed.smi:1919
#       Creating user name   scv26
#       Creation time:       Fri Mar 27 09:52:05 2020


#       File generated by GOLD software.
#

@<TRIPOS>MOLECULE
AV-unprocessed.smi:1919
    41    43     1
SMALL
NO_CHARGES


@<TRIPOS>ATOM
      1 ****        -1.2096   4.3113   1.3185 O.3            1 S1                 0.0000
      2 ****        -0.4829   3.1111   1.1553 C.3            1 S1                 0.0000
      3 ****        -1.3560   1.9136   0.9519 C.2            1 S1                 0.0000
      4 ****        -2.7200   1.8944   0.9627 N.pl3          1 S1                 1.0000
      5 ****        -3.1784   0.5963   0.7366 C.ar           1 S1                 0.0000
      6 ****        -4.4702   0.0853   0.6585 C.ar           1 S1                 0.0000
      7 ****        -4.5893  -1.2986   0.4133 C.ar           1 S1                 0.0000
      8 ****        -3.4517  -2.1174   0.2564 C.ar           1 S1                 0.0000
      9 ****        -2.1470  -1.5879   0.3387 C.ar           1 S1                 0.0000
     10 ****        -2.0389  -0.2187   0.5808 C.ar           1 S1                 0.0000
     11 ****        -0.9397   0.6353   0.7201 N.pl3          1 S1                 0.0000
     12 ****         0.4176   0.0808   0.6042 C.3            1 S1                 0.0000
     13 ****         0.8635  -0.1152  -0.8585 C.3            1 S1                 0.0000
     14 ****         0.7905   1.1161  -1.5509 O.3            1 S1                 0.0000
     15 ****         2.2480  -0.7385  -0.9322 C.ar           1 S1                 0.0000
     16 ****         3.4038   0.0452  -0.7188 C.ar           1 S1                 0.0000
     17 ****         4.6817  -0.5439  -0.7798 C.ar           1 S1                 0.0000
     18 ****         4.8115  -1.9197  -1.0515 C.ar           1 S1                 0.0000
     19 ****         3.6625  -2.7063  -1.2603 C.ar           1 S1                 0.0000
     20 ****         3.7852  -4.0300  -1.5176 F              1 S1                 0.0000
     21 ****         2.3845  -2.1176  -1.1998 C.ar           1 S1                 0.0000
     22 ****        -0.5954   5.0200   1.4364 H              1 S1                 0.0000
     23 ****         0.1849   3.2180   0.3004 H              1 S1                 0.0000
     24 ****         0.1397   2.9534   2.0361 H              1 S1                 0.0000
     25 ****        -5.3428   0.7107   0.7783 H              1 S1                 0.0000
     26 ****        -5.5726  -1.7406   0.3445 H              1 S1                 0.0000
     27 ****        -3.5824  -3.1735   0.0691 H              1 S1                 0.0000
     28 ****        -1.2818  -2.2228   0.2173 H              1 S1                 0.0000
     29 ****         1.0988   0.7570   1.1222 H              1 S1                 0.0000
     30 ****         0.4500  -0.8629   1.1503 H              1 S1                 0.0000
     31 ****         0.1636  -0.7880  -1.3556 H              1 S1                 0.0000
     32 ****         0.9857   0.9587  -2.4623 H              1 S1                 0.0000
     33 ****         3.3141   1.1005  -0.5052 H              1 S1                 0.0000
     34 ****         5.5623   0.0598  -0.6172 H              1 S1                 0.0000
     35 ****         5.7915  -2.3715  -1.0976 H              1 S1                 0.0000
     36 ****         1.5094  -2.7306  -1.3583 H              1 S1                 0.0000
     37 ****        -3.2901   2.7168   1.1138 H              1 S1                 0.0000
     38 ****        -1.8015   4.2408   2.1214 LP             1 S1                 0.0000
     39 ****        -1.7682   4.4805   0.5065 LP             1 S1                 0.0000
     40 ****         1.4556   1.7579  -1.1692 LP             1 S1                 0.0000
     41 ****        -0.1295   1.4983  -1.4638 LP             1 S1                 0.0000
@<TRIPOS>BOND
    1    1    2 1     
    2    1   22 1     
    3    2    3 1     
    4    2   23 1     
    5    2   24 1     
    6    3   11 1     
    7    3    4 2     
    8    4    5 1     
    9    4   37 1     
   10    5   10 ar    
   11    5    6 ar    
   12    6    7 ar    
   13    6   25 1     
   14    7    8 ar    
   15    7   26 1     
   16    8    9 ar    
   17    8   27 1     
   18    9   10 ar    
   19    9   28 1     
   20   10   11 1     
   21   11   12 1     
   22   12   13 1     
   23   12   29 1     
   24   12   30 1     
   25   13   14 1     
   26   13   15 1     
   27   13   31 1     
   28   14   32 1     
   29   15   21 ar    
   30   15   16 ar    
   31   16   17 ar    
   32   16   33 1     
   33   17   18 ar    
   34   17   34 1     
   35   18   19 ar    
   36   18   35 1     
   37   19   20 1     
   38   19   21 ar    
   39   21   36 1     
   40    1   38 1     
   41    1   39 1     
   42   14   40 1     
   43   14   41 1     
@<TRIPOS>SUBSTRUCTURE
      1 S1             1
@<TRIPOS>SET
LONE_PAIRS      STATIC     ATOMS    <user>   **** ""
4 38 39 40 41
DONOR_HYDROGENS      STATIC     ATOMS    <user>   **** ""
3 22 37 32
ATOM$BLUE        STATIC     ATOMS    COLORGROUP SYSTEM
4 38 39 40 41
ATOM$RED        STATIC     ATOMS    COLORGROUP SYSTEM
3 22 37 32
