AV-unprocessed.smi:1718|AV-procd|sdf|6925|dock7
  -GOLD-   22720 8133D 1   1.00000     0.00000
 Structure written by MMmdl.
 40 41  0  0  0  0  0  0  0  0  1 V2000
  149.5181  140.5762  155.9787 C   0  0  0  0  0  0  0  0  0  0  0  0
  150.0487  139.9960  157.2975 C   0  0  1  0  0  0  0  0  0  0  0  0
  150.2667  141.0867  158.1887 O   0  0  0  0  0  0  0  0  0  0  0  0
  151.0032  142.1792  157.6501 C   0  0  0  0  0  0  0  0  0  0  0  0
  151.6157  142.9797  158.8053 C   0  0  1  0  0  0  0  0  0  0  0  0
  152.3670  144.2360  158.3624 C   0  0  0  0  0  0  0  0  0  0  0  0
  152.2361  145.1188  159.5820 C   0  0  0  0  0  0  0  0  0  0  0  0
  150.8144  144.8031  160.0340 C   0  0  0  0  0  0  0  0  0  0  0  0
  150.5931  143.4386  159.6873 O   0  0  0  0  0  0  0  0  0  0  0  0
  149.0486  139.0021  157.9093 C   0  0  0  0  0  0  0  0  0  0  0  0
  147.9129  139.3836  158.1930 O   0  0  0  0  0  0  0  0  0  0  0  0
  149.5138  137.7509  158.0938 N   0  0  0  0  0  0  0  0  0  0  0  0
  148.8813  136.6504  158.6948 C   0  0  0  0  0  0  0  0  0  0  0  0
  148.2936  136.6721  159.9193 C   0  0  0  0  0  0  0  0  0  0  0  0
  147.6723  135.4938  160.4974 C   0  0  0  0  0  0  0  0  0  0  0  0
  147.0016  135.5564  161.8601 C   0  0  0  0  0  0  0  0  0  0  0  0
  146.5778  134.3569  162.2609 F   0  0  0  0  0  0  0  0  0  0  0  0
  147.8567  136.0240  162.7688 F   0  0  0  0  0  0  0  0  0  0  0  0
  145.9545  136.3797  161.8197 F   0  0  0  0  0  0  0  0  0  0  0  0
  147.7143  134.3682  159.7601 C   0  0  0  0  0  0  0  0  0  0  0  0
  148.3289  134.3342  158.5059 N   0  0  0  0  0  0  0  0  0  0  0  0
  148.9218  135.3991  157.9203 C   0  0  0  0  0  0  0  0  0  0  0  0
  149.4474  135.2869  156.8132 O   0  0  0  0  0  0  0  0  0  0  0  0
  148.3247  133.4505  158.0170 H   0  0  0  0  0  0  0  0  0  0  0  0
  149.3164  139.7886  155.2519 H   0  0  0  0  0  0  0  0  0  0  0  0
  150.2474  141.2540  155.5348 H   0  0  0  0  0  0  0  0  0  0  0  0
  148.5956  141.1387  156.1295 H   0  0  0  0  0  0  0  0  0  0  0  0
  150.9996  139.4976  157.0979 H   0  0  0  0  0  0  0  0  0  0  0  0
  151.7926  141.8425  156.9771 H   0  0  0  0  0  0  0  0  0  0  0  0
  150.3346  142.8190  157.0726 H   0  0  0  0  0  0  0  0  0  0  0  0
  152.2841  142.3435  159.3874 H   0  0  0  0  0  0  0  0  0  0  0  0
  153.4028  144.0363  158.0867 H   0  0  0  0  0  0  0  0  0  0  0  0
  151.8710  144.7036  157.5104 H   0  0  0  0  0  0  0  0  0  0  0  0
  152.9522  144.8130  160.3459 H   0  0  0  0  0  0  0  0  0  0  0  0
  152.3921  146.1764  159.3673 H   0  0  0  0  0  0  0  0  0  0  0  0
  150.6670  144.9745  161.1004 H   0  0  0  0  0  0  0  0  0  0  0  0
  150.0980  145.4194  159.4894 H   0  0  0  0  0  0  0  0  0  0  0  0
  150.4363  137.5592  157.7298 H   0  0  0  0  0  0  0  0  0  0  0  0
  148.2885  137.5680  160.5189 H   0  0  0  0  0  0  0  0  0  0  0  0
  147.2898  133.4223  160.0626 H   0  0  0  0  0  0  0  0  0  0  0  0
  1  2  1  0  0  0  0
  1 25  1  0  0  0  0
  1 26  1  0  0  0  0
  1 27  1  0  0  0  0
  2  3  1  0  0  0  0
  2 10  1  0  0  0  0
  2 28  1  0  0  0  0
  3  4  1  0  0  0  0
  4  5  1  0  0  0  0
  4 29  1  0  0  0  0
  4 30  1  0  0  0  0
  5  9  1  0  0  0  0
  5  6  1  0  0  0  0
  5 31  1  0  0  0  0
  6  7  1  0  0  0  0
  6 32  1  0  0  0  0
  6 33  1  0  0  0  0
  7  8  1  0  0  0  0
  7 34  1  0  0  0  0
  7 35  1  0  0  0  0
  8  9  1  0  0  0  0
  8 36  1  0  0  0  0
  8 37  1  0  0  0  0
 10 11  2  0  0  0  0
 10 12  1  0  0  0  0
 12 13  1  0  0  0  0
 12 38  1  0  0  0  0
 13 22  1  0  0  0  0
 13 14  2  0  0  0  0
 14 15  1  0  0  0  0
 14 39  1  0  0  0  0
 15 16  1  0  0  0  0
 15 20  2  0  0  0  0
 16 17  1  0  0  0  0
 16 18  1  0  0  0  0
 16 19  1  0  0  0  0
 20 21  1  0  0  0  0
 20 40  1  0  0  0  0
 21 24  1  0  0  0  0
 21 22  1  0  0  0  0
 22 23  2  0  0  0  0
M  END
> <s_m_source_file>
AV-unprocessed.smi

> <i_m_source_file_index>
1718

> <i_lp_mmshare_version>
43012

> <i_f3d_flags>
0

> <s_epik_input>
TzFbQ0gyXVtDSDJdW0NIMl1bQ0BIXTFbQ0gyXU9bQ0BASF0oW0NIM10pQyg9TylbTkhdYzJbY0hdYyhDKEYpKEYpRilbY0hdW25IXWMyPU8=

> <s_epik_cmdline>
J2VwaWtfcHl0aG9uJywgJy1waCcsICc3LjAnLCAnLXRuJywgJzgnLCAnLW1hJywgJzIwMCcsICctbWV0YWxfYmluZGluZycsICctaW1hZScsICc8aW5maWxlLm1hZT4nLCAnLW9tYWUnLCAnPG91dGZpbGUubWFlPic=

> <r_lp_tautomer_probability>
0.999

> <r_epik_Ionization_Penalty>
0.00894336

> <r_epik_Ionization_Penalty_Charging>
0.00894326

> <r_epik_Ionization_Penalty_Neutral>
1.00145e-07

> <r_epik_State_Penalty>
0.00676626

> <r_epik_Charging_Adjusted_Penalty>
0.0157095

> <i_epik_Tot_Q>
0

> <i_epik_Tot_abs_Q>
0

> <r_epik_Metal_State_Penalty>
0.321145

> <b_epik_Metal_Only>
0

> <s_lp_Force_Field>
OPLS_2005

> <r_lp_Energy>
34.4612

> <b_lp_Chiralities_Consistent>
1

> <s_lp_Variant>
AV-unprocessed.smi:1718-4

> <Gold.Version>
5.8.1

> <Gold.Id.Protein>
6NUR|6NUR_protein|mol2

> <Gold.PLP.Fitness>
42.0048

> <Gold.PLP.PLP>
-43.3765

> <Gold.PLP.part.hbond>
-1.1638

> <Gold.PLP.part.metal>
0.0000

> <Gold.PLP.part.buried>
-6.6109

> <Gold.PLP.part.nonpolar>
-36.7660

> <Gold.PLP.part.repulsive>
0.3253

> <Gold.PLP.ligand.clash>
0.1115

> <Gold.PLP.ligand.torsion>
0.6833

> <Gold.PLP.Chemscore.Hbond>
0.0000

> <Gold.PLP.Chemscore.CHOScore>
0.0000

> <Gold.PLP.Chemscore.Metal>
0.0000

> <Gold.PLP.Chemscore.Internal.Correction>
0.1063

> <Gold.Rescore>
     Score         DG    S(hbond)    S(metal)    S(lipo)     H(rot)  DE(clash)    DE(int)     intcor
     10.74     -11.59       0.00        0.00      93.31       1.88       0.02       0.83       ----

> <Gold.Chemscore.Fitness>
10.7356

> <Gold.Chemscore.DG>
-11.5876

> <Gold.Chemscore.ZeroCoef>
-5.4800

> <Gold.Chemscore.Hbond>
0.0000

> <Gold.Chemscore.Metal>
0.0000

> <Gold.Chemscore.Lipo>
93.3146

> <Gold.Chemscore.Internal_Hbond>
0.0000

> <Gold.Chemscore.DEClash>
0.0191

> <Gold.Chemscore.DEInternal>
0.8330

> <Gold.Chemscore.Rot>
1.8790

> <Gold.Chemscore.Internal.Correction>
   9.000000E+99

> <Gold.Chemscore.Hbond.Weighted>
-0.0000

> <Gold.Chemscore.Metal.Weighted>
-0.0000

> <Gold.Chemscore.Lipo.Weighted>
-10.9178

> <Gold.Chemscore.Internal_Hbond.Weighted>
0.0000

> <Gold.Chemscore.DEClash.Weighted>
0.0191

> <Gold.Chemscore.DEInternal.Weighted>
0.8330

> <Gold.Chemscore.Rot.Weighted>
4.8102

> <Gold.Chemscore.Internal.Correction.Weighted>
   9.000000E+99

> <Gold.Protein.RotatedTorsions>
[ 6907 6896 6895 6894 ] final  -45.55 input  -60.11 | X-H torsion
[ 7974 7965 7964 7962 ] final -110.57 input  175.53 | X-H torsion
[ 8008 7997 7996 7995 ] final  146.57 input   59.86 | X-H torsion
[ 10167 10162 10161 10158 ] final -144.87 input  -65.29 | X-H torsion
[ 10718 10713 10712 10709 ] final  172.00 input   66.30 | X-H torsion
[ 10763 10752 10751 10750 ] final -170.46 input  -60.55 | X-H torsion
[ 11005 11000 10999 10996 ] final  157.76 input  -57.11 | X-H torsion

> <Gold.Protein.ActiveResidues>
 VAL166  LYS551  ARG553  GLY616  TRP617  ASP618  TYR619  PRO620  LYS621  CYS622 
 ASP623  PHE694  ASN695  SER759  ASP760  ASP761  ALA762  ILE779  LEU786  VAL792 
 PHE793  MET794  SER795  GLU796  ALA797  LYS798  CYS799  TRP800  GLU811  SER814 

> <Gold.Protein.RotatedAtoms>
  150.9207  134.8625  159.7486 H   0  0  0  0  0  0  0  0  0  0  0  0  # atno 6907 bound_to 6896
  152.4991  134.4222  159.9494 H   0  0  0  0  0  0  0  0  0  0  0  0  # atno 6908 bound_to 6896
  151.4257  133.3645  159.2797 H   0  0  0  0  0  0  0  0  0  0  0  0  # atno 6909 bound_to 6896
  145.1667  140.8905  143.3559 H   0  0  0  0  0  0  0  0  0  0  0  0  # atno 7974 bound_to 7965
  156.2851  140.2179  156.5398 H   0  0  0  0  0  0  0  0  0  0  0  0  # atno 8008 bound_to 7997
  154.7379  140.0490  157.0807 H   0  0  0  0  0  0  0  0  0  0  0  0  # atno 8009 bound_to 7997
  155.0268  140.3130  155.4776 H   0  0  0  0  0  0  0  0  0  0  0  0  # atno 8010 bound_to 7997
  139.7859  143.8035  152.2644 H   0  0  0  0  0  0  0  0  0  0  0  0  # atno 10167 bound_to 10162
  156.9853  131.0131  151.2871 H   0  0  0  0  0  0  0  0  0  0  0  0  # atno 10718 bound_to 10713
  154.6412  135.2899  155.0101 H   0  0  0  0  0  0  0  0  0  0  0  0  # atno 10763 bound_to 10752
  154.1227  135.6545  153.4910 H   0  0  0  0  0  0  0  0  0  0  0  0  # atno 10764 bound_to 10752
  153.0327  135.5291  154.7280 H   0  0  0  0  0  0  0  0  0  0  0  0  # atno 10765 bound_to 10752
  140.1800  134.8482  157.2792 H   0  0  0  0  0  0  0  0  0  0  0  0  # atno 11005 bound_to 11000
  145.0275  139.3370  143.6041 LP  0  0  0  0  0  0  0  0  0  0  0  0  # atno 17320 bound_to 7965
  146.3475  139.9600  142.8718 LP  0  0  0  0  0  0  0  0  0  0  0  0  # atno 17321 bound_to 7965
  139.8112  144.7335  150.9695 LP  0  0  0  0  0  0  0  0  0  0  0  0  # atno 17342 bound_to 10162
  140.7819  143.4249  151.0784 LP  0  0  0  0  0  0  0  0  0  0  0  0  # atno 17343 bound_to 10162
  157.5497  130.8174  149.8130 LP  0  0  0  0  0  0  0  0  0  0  0  0  # atno 17370 bound_to 10713
  156.0228  130.3789  150.1910 LP  0  0  0  0  0  0  0  0  0  0  0  0  # atno 17371 bound_to 10713
  140.2278  134.3946  155.7535 LP  0  0  0  0  0  0  0  0  0  0  0  0  # atno 17394 bound_to 11000
  141.2222  133.7199  156.8592 LP  0  0  0  0  0  0  0  0  0  0  0  0  # atno 17395 bound_to 11000

$$$$
