AV-unprocessed.smi:2067|AV-procd|sdf|8424|dock2
  -GOLD-   2272011113D 1   1.00000     0.00000
 Structure written by MMmdl.
 47 48  0  0  0  0  0  0  0  0  1 V2000
  151.4149  144.7281  158.8293 C   0  0  0  0  0  0  0  0  0  0  0  0
  152.3039  144.0843  159.9046 C   0  0  1  0  0  0  0  0  0  0  0  0
  151.6319  144.1039  161.2923 C   0  0  0  0  0  0  0  0  0  0  0  0
  152.5442  143.4945  162.3685 C   0  0  0  0  0  0  0  0  0  0  0  0
  152.9782  142.0712  161.9884 C   0  0  0  0  0  0  0  0  0  0  0  0
  153.6505  142.0442  160.6056 C   0  0  0  0  0  0  0  0  0  0  0  0
  152.7431  142.6547  159.5156 C   0  0  1  0  0  0  0  0  0  0  0  0
  151.5810  141.8512  159.3415 O   0  0  0  0  0  0  0  0  0  0  0  0
  151.8427  140.5341  158.8812 C   0  0  0  0  0  0  0  0  0  0  0  0
  150.8200  140.1798  157.7985 C   0  0  0  0  0  0  0  0  0  0  0  0
  149.5216  140.7617  158.1000 N   0  0  0  0  0  0  0  0  0  0  0  0
  148.5724  141.1792  157.1736 C   0  0  0  0  0  0  0  0  0  0  0  0
  148.8037  141.0921  155.8337 C   0  0  0  0  0  0  0  0  0  0  0  0
  150.0281  140.6059  155.2794 C   0  0  0  0  0  0  0  0  0  0  0  0
  151.0203  140.2264  154.8183 N   0  0  0  0  0  0  0  0  0  0  0  0
  147.8208  141.5340  154.8467 C   0  0  0  0  0  0  0  0  0  0  0  0
  147.9999  141.4775  153.6278 O   0  0  0  0  0  0  0  0  0  0  0  0
  146.6287  142.0530  155.3925 N   0  0  0  0  0  0  0  0  0  0  0  0
  145.6278  142.5178  154.4522 C   0  0  0  0  0  0  0  0  0  0  0  0
  146.3765  142.1815  156.7745 C   0  0  0  0  0  0  0  0  0  0  0  0
  145.3301  142.6818  157.1982 O   0  0  0  0  0  0  0  0  0  0  0  0
  147.3779  141.7160  157.6617 N   0  0  0  0  0  0  0  0  0  0  0  0
  147.0445  141.8423  159.0660 C   0  0  0  0  0  0  0  0  0  0  0  0
  150.4742  144.1888  158.7127 H   0  0  0  0  0  0  0  0  0  0  0  0
  151.9152  144.7377  157.8607 H   0  0  0  0  0  0  0  0  0  0  0  0
  151.1748  145.7601  159.0862 H   0  0  0  0  0  0  0  0  0  0  0  0
  153.2065  144.6933  159.9725 H   0  0  0  0  0  0  0  0  0  0  0  0
  151.3776  145.1278  161.5688 H   0  0  0  0  0  0  0  0  0  0  0  0
  150.6911  143.5529  161.2572 H   0  0  0  0  0  0  0  0  0  0  0  0
  153.4261  144.1233  162.4987 H   0  0  0  0  0  0  0  0  0  0  0  0
  152.0289  143.4818  163.3293 H   0  0  0  0  0  0  0  0  0  0  0  0
  153.6610  141.6770  162.7415 H   0  0  0  0  0  0  0  0  0  0  0  0
  152.1080  141.4141  161.9870 H   0  0  0  0  0  0  0  0  0  0  0  0
  154.5825  142.6088  160.6516 H   0  0  0  0  0  0  0  0  0  0  0  0
  153.9321  141.0229  160.3514 H   0  0  0  0  0  0  0  0  0  0  0  0
  153.2951  142.7118  158.5756 H   0  0  0  0  0  0  0  0  0  0  0  0
  152.8488  140.4952  158.4618 H   0  0  0  0  0  0  0  0  0  0  0  0
  151.7994  139.8059  159.6916 H   0  0  0  0  0  0  0  0  0  0  0  0
  151.1579  140.5230  156.8203 H   0  0  0  0  0  0  0  0  0  0  0  0
  150.7308  139.0947  157.7474 H   0  0  0  0  0  0  0  0  0  0  0  0
  149.1354  140.3999  158.9604 H   0  0  0  0  0  0  0  0  0  0  0  0
  144.6570  142.6220  154.9358 H   0  0  0  0  0  0  0  0  0  0  0  0
  145.5328  141.7761  153.6571 H   0  0  0  0  0  0  0  0  0  0  0  0
  145.9766  143.4761  154.0649 H   0  0  0  0  0  0  0  0  0  0  0  0
  146.9454  142.9073  159.2835 H   0  0  0  0  0  0  0  0  0  0  0  0
  147.8232  141.4056  159.6863 H   0  0  0  0  0  0  0  0  0  0  0  0
  146.1093  141.3047  159.2341 H   0  0  0  0  0  0  0  0  0  0  0  0
  1  2  1  0  0  0  0
  1 24  1  0  0  0  0
  1 25  1  0  0  0  0
  1 26  1  0  0  0  0
  2  7  1  0  0  0  0
  2  3  1  0  0  0  0
  2 27  1  0  0  0  0
  3  4  1  0  0  0  0
  3 28  1  0  0  0  0
  3 29  1  0  0  0  0
  4  5  1  0  0  0  0
  4 30  1  0  0  0  0
  4 31  1  0  0  0  0
  5  6  1  0  0  0  0
  5 32  1  0  0  0  0
  5 33  1  0  0  0  0
  6  7  1  0  0  0  0
  6 34  1  0  0  0  0
  6 35  1  0  0  0  0
  7  8  1  0  0  0  0
  7 36  1  0  0  0  0
  8  9  1  0  0  0  0
  9 10  1  0  0  0  0
  9 37  1  0  0  0  0
  9 38  1  0  0  0  0
 10 11  1  0  0  0  0
 10 39  1  0  0  0  0
 10 40  1  0  0  0  0
 11 12  1  0  0  0  0
 11 41  1  0  0  0  0
 12 22  1  0  0  0  0
 12 13  2  0  0  0  0
 13 14  1  0  0  0  0
 13 16  1  0  0  0  0
 14 15  3  0  0  0  0
 16 17  2  0  0  0  0
 16 18  1  0  0  0  0
 18 19  1  0  0  0  0
 18 20  1  0  0  0  0
 19 42  1  0  0  0  0
 19 43  1  0  0  0  0
 19 44  1  0  0  0  0
 20 21  2  0  0  0  0
 20 22  1  0  0  0  0
 22 23  1  0  0  0  0
 23 45  1  0  0  0  0
 23 46  1  0  0  0  0
 23 47  1  0  0  0  0
M  END
> <s_m_source_file>
AV-unprocessed.smi

> <i_m_source_file_index>
2067

> <i_lp_mmshare_version>
43012

> <i_f3d_flags>
0

> <s_epik_input>
W0NIM11bQ0BASF0xW0NIMl1bQ0gyXVtDSDJdW0NIMl1bQ0BIXTFPW0NIMl1bQ0gyXVtOSF1jMmMoQyNOKWMoPU8pbihbQ0gzXSljKD1PKW4yW0NIM10=

> <s_epik_cmdline>
J2VwaWtfcHl0aG9uJywgJy1waCcsICc3LjAnLCAnLXRuJywgJzgnLCAnLW1hJywgJzIwMCcsICctbWV0YWxfYmluZGluZycsICctaW1hZScsICc8aW5maWxlLm1hZT4nLCAnLW9tYWUnLCAnPG91dGZpbGUubWFlPic=

> <r_epik_Ionization_Penalty>
0.00056529

> <r_epik_Ionization_Penalty_Charging>
3.94678e-10

> <r_epik_Ionization_Penalty_Neutral>
0.000565289

> <r_epik_State_Penalty>
0.000354611

> <r_epik_Charging_Adjusted_Penalty>
0.000354611

> <i_epik_Tot_Q>
0

> <i_epik_Tot_abs_Q>
0

> <r_epik_Metal_State_Penalty>
-0

> <b_epik_Metal_Only>
0

> <s_lp_Force_Field>
OPLS_2005

> <r_lp_Energy>
33.1423

> <b_lp_Chiralities_Consistent>
1

> <s_lp_Variant>
AV-unprocessed.smi:2067-2

> <Gold.Version>
5.8.1

> <Gold.Id.Protein>
6NUR|6NUR_protein|mol2

> <Gold.PLP.Fitness>
52.3702

> <Gold.PLP.PLP>
-48.2781

> <Gold.PLP.part.hbond>
-2.0000

> <Gold.PLP.part.metal>
0.0000

> <Gold.PLP.part.buried>
-5.7822

> <Gold.PLP.part.nonpolar>
-43.8100

> <Gold.PLP.part.repulsive>
3.4324

> <Gold.PLP.ligand.clash>
10.2522

> <Gold.PLP.ligand.torsion>
0.6333

> <Gold.PLP.Chemscore.Hbond>
1.7780

> <Gold.PLP.Chemscore.CHOScore>
0.0000

> <Gold.PLP.Chemscore.Metal>
0.0000

> <Gold.Chemscore.Hbonds>
donor molecule, donor type, donor heavy atom, donor atom, acceptor molecule, acceptor atom, score
      P1  H  7989  7998       L1    15  1.00
      P1  H  8011  8017       L1    17  0.06

> <Gold.PLP.Chemscore.Internal.Correction>
10.2769

> <Gold.Rescore>
     Score         DG    S(hbond)    S(metal)    S(lipo)     H(rot)  DE(clash)    DE(int)     intcor
     12.19     -17.10       0.96        0.00     110.32       1.76       1.61       3.29       ----

> <Gold.Chemscore.Fitness>
12.1915

> <Gold.Chemscore.DG>
-17.0980

> <Gold.Chemscore.ZeroCoef>
-5.4800

> <Gold.Chemscore.Hbond>
0.9615

> <Gold.Chemscore.Metal>
0.0000

> <Gold.Chemscore.Lipo>
110.3240

> <Gold.Chemscore.Internal_Hbond>
0.0000

> <Gold.Chemscore.DEClash>
1.6120

> <Gold.Chemscore.DEInternal>
3.2945

> <Gold.Chemscore.Rot>
1.7583

> <Gold.Chemscore.Internal.Correction>
   9.000000E+99

> <Gold.Chemscore.Hbonds>
donor molecule, donor type, donor heavy atom, donor atom, acceptor molecule, acceptor atom, score
      P1  H  7989  7998       L1    15  0.97
      P1  H  8011  8017       L1    17  0.08

> <Gold.Chemscore.Hbond.Weighted>
-3.2113

> <Gold.Chemscore.Metal.Weighted>
-0.0000

> <Gold.Chemscore.Lipo.Weighted>
-12.9079

> <Gold.Chemscore.Internal_Hbond.Weighted>
0.0000

> <Gold.Chemscore.DEClash.Weighted>
1.6120

> <Gold.Chemscore.DEInternal.Weighted>
3.2945

> <Gold.Chemscore.Rot.Weighted>
4.5012

> <Gold.Chemscore.Internal.Correction.Weighted>
   9.000000E+99

> <Gold.Protein.RotatedTorsions>
[ 6907 6896 6895 6894 ] final   83.70 input  -60.11 | X-H torsion
[ 7974 7965 7964 7962 ] final   80.32 input  175.53 | X-H torsion
[ 8008 7997 7996 7995 ] final  -11.98 input   59.86 | X-H torsion
[ 10167 10162 10161 10158 ] final -126.51 input  -65.29 | X-H torsion
[ 10718 10713 10712 10709 ] final  -65.35 input   66.30 | X-H torsion
[ 10763 10752 10751 10750 ] final   50.62 input  -60.55 | X-H torsion
[ 11005 11000 10999 10996 ] final  -83.62 input  -57.11 | X-H torsion

> <Gold.Protein.ActiveResidues>
 VAL166  LYS551  ARG553  GLY616  TRP617  ASP618  TYR619  PRO620  LYS621  CYS622 
 ASP623  PHE694  ASN695  SER759  ASP760  ASP761  ALA762  ILE779  LEU786  VAL792 
 PHE793  MET794  SER795  GLU796  ALA797  LYS798  CYS799  TRP800  GLU811  SER814 

> <Gold.Protein.RotatedAtoms>
  152.5334  134.2854  159.9022 H   0  0  0  0  0  0  0  0  0  0  0  0  # atno 6907 bound_to 6896
  151.2808  133.4204  159.2634 H   0  0  0  0  0  0  0  0  0  0  0  0  # atno 6908 bound_to 6896
  151.0286  134.9537  159.8155 H   0  0  0  0  0  0  0  0  0  0  0  0  # atno 6909 bound_to 6896
  145.6527  139.2451  143.1967 H   0  0  0  0  0  0  0  0  0  0  0  0  # atno 7974 bound_to 7965
  154.5417  140.2288  155.8630 H   0  0  0  0  0  0  0  0  0  0  0  0  # atno 8008 bound_to 7997
  156.1864  140.3088  155.9209 H   0  0  0  0  0  0  0  0  0  0  0  0  # atno 8009 bound_to 7997
  155.3245  140.0442  157.3031 H   0  0  0  0  0  0  0  0  0  0  0  0  # atno 8010 bound_to 7997
  139.9707  143.5848  152.2413 H   0  0  0  0  0  0  0  0  0  0  0  0  # atno 10167 bound_to 10162
  156.0675  130.4246  150.1552 H   0  0  0  0  0  0  0  0  0  0  0  0  # atno 10718 bound_to 10713
  152.9784  135.5873  154.4282 H   0  0  0  0  0  0  0  0  0  0  0  0  # atno 10763 bound_to 10752
  154.3899  135.2767  155.2163 H   0  0  0  0  0  0  0  0  0  0  0  0  # atno 10764 bound_to 10752
  154.4040  135.6097  153.5968 H   0  0  0  0  0  0  0  0  0  0  0  0  # atno 10765 bound_to 10752
  141.1656  133.7304  156.8747 H   0  0  0  0  0  0  0  0  0  0  0  0  # atno 11005 bound_to 11000
  146.1190  140.7333  142.9466 LP  0  0  0  0  0  0  0  0  0  0  0  0  # atno 17320 bound_to 7965
  144.7117  140.4062  143.7076 LP  0  0  0  0  0  0  0  0  0  0  0  0  # atno 17321 bound_to 7965
  139.6483  144.7659  151.2199 LP  0  0  0  0  0  0  0  0  0  0  0  0  # atno 17342 bound_to 10162
  140.7523  143.6202  150.8520 LP  0  0  0  0  0  0  0  0  0  0  0  0  # atno 17343 bound_to 10162
  156.9609  130.9804  151.3479 LP  0  0  0  0  0  0  0  0  0  0  0  0  # atno 17370 bound_to 10713
  157.5725  130.8320  149.8411 LP  0  0  0  0  0  0  0  0  0  0  0  0  # atno 17371 bound_to 10713
  140.1757  134.9069  157.2887 LP  0  0  0  0  0  0  0  0  0  0  0  0  # atno 17394 bound_to 11000
  140.2452  134.3748  155.7464 LP  0  0  0  0  0  0  0  0  0  0  0  0  # atno 17395 bound_to 11000

$$$$
