AV-unprocessed.smi:696|AV-procd|sdf|3388|dock8
  -GOLD-   22720 0373D 1   1.00000     0.00000
 Structure written by MMmdl.
 37 38  0  0  0  0  0  0  0  0  2 V2000
  150.9135  140.3949  156.3564 O   0  0  0  0  0  0  0  0  0  0  0  0
  150.4362  141.5140  156.5483 C   0  0  0  0  0  0  0  0  0  0  0  0
  149.6013  142.1153  155.6865 N   0  0  0  0  0  0  0  0  0  0  0  0
  149.1416  141.5445  154.4256 C   0  0  0  0  0  0  0  0  0  0  0  0
  147.6110  141.6372  154.2882 C   0  0  0  0  0  0  0  0  0  0  0  0
  147.0458  140.4222  153.6047 C   0  0  0  0  0  0  0  0  0  0  0  0
  146.2072  139.5945  154.1066 N   0  0  0  0  0  0  0  0  0  0  0  0
  146.0315  138.7046  153.1159 N   0  0  0  0  0  0  0  0  0  0  0  0
  146.7620  139.0083  152.0404 C   0  0  0  0  0  0  0  0  0  0  0  0
  146.7658  138.3380  151.0102 O   0  0  0  0  0  0  0  0  0  0  0  0
  147.4372  140.1336  152.3346 N   0  5  0  0  0  0  0  0  0  0  0  0
  150.7902  142.2960  157.8222 C   0  0  0  0  0  0  0  0  0  0  0  0
  151.3107  143.7052  157.4539 C   0  0  0  0  0  0  0  0  0  0  0  0
  151.2742  144.6876  158.6372 C   0  0  0  0  0  0  0  0  0  0  0  0
  152.5192  144.6814  159.5424 C   0  0  0  0  0  0  0  0  0  0  0  0
  153.1667  143.3124  159.8174 C   0  0  0  0  0  0  0  0  0  0  0  0
  152.1867  142.1437  160.0088 C   0  0  0  0  0  0  0  0  0  0  0  0
  151.7793  141.4800  158.6812 C   0  0  0  0  0  0  0  0  0  0  0  0
  145.4068  137.9217  153.2402 H   0  0  0  0  0  0  0  0  0  0  0  0
  149.2554  143.0342  155.9218 H   0  0  0  0  0  0  0  0  0  0  0  0
  149.6246  142.0944  153.6167 H   0  0  0  0  0  0  0  0  0  0  0  0
  149.4764  140.5090  154.3392 H   0  0  0  0  0  0  0  0  0  0  0  0
  147.1545  141.7426  155.2733 H   0  0  0  0  0  0  0  0  0  0  0  0
  147.3417  142.5359  153.7314 H   0  0  0  0  0  0  0  0  0  0  0  0
  149.8690  142.4143  158.3954 H   0  0  0  0  0  0  0  0  0  0  0  0
  152.3126  143.6566  157.0248 H   0  0  0  0  0  0  0  0  0  0  0  0
  150.6743  144.1178  156.6691 H   0  0  0  0  0  0  0  0  0  0  0  0
  151.1487  145.6999  158.2513 H   0  0  0  0  0  0  0  0  0  0  0  0
  150.3838  144.5014  159.2386 H   0  0  0  0  0  0  0  0  0  0  0  0
  153.2789  145.3322  159.1078 H   0  0  0  0  0  0  0  0  0  0  0  0
  152.2487  145.1454  160.4917 H   0  0  0  0  0  0  0  0  0  0  0  0
  153.8654  143.0712  159.0153 H   0  0  0  0  0  0  0  0  0  0  0  0
  153.7830  143.4082  160.7121 H   0  0  0  0  0  0  0  0  0  0  0  0
  152.6851  141.3861  160.6146 H   0  0  0  0  0  0  0  0  0  0  0  0
  151.3114  142.4533  160.5811 H   0  0  0  0  0  0  0  0  0  0  0  0
  151.3204  140.5176  158.9139 H   0  0  0  0  0  0  0  0  0  0  0  0
  152.6760  141.2436  158.1060 H   0  0  0  0  0  0  0  0  0  0  0  0
  1  2  2  0  0  0  0
  2  3  1  0  0  0  0
  2 12  1  0  0  0  0
  3  4  1  0  0  0  0
  3 20  1  0  0  0  0
  4  5  1  0  0  0  0
  4 21  1  0  0  0  0
  4 22  1  0  0  0  0
  5  6  1  0  0  0  0
  5 23  1  0  0  0  0
  5 24  1  0  0  0  0
  6 11  1  0  0  0  0
  6  7  2  0  0  0  0
  7  8  1  0  0  0  0
  8 19  1  0  0  0  0
  8  9  1  0  0  0  0
  9 10  2  0  0  0  0
  9 11  1  0  0  0  0
 12 18  1  0  0  0  0
 12 13  1  0  0  0  0
 12 25  1  0  0  0  0
 13 14  1  0  0  0  0
 13 26  1  0  0  0  0
 13 27  1  0  0  0  0
 14 15  1  0  0  0  0
 14 28  1  0  0  0  0
 14 29  1  0  0  0  0
 15 16  1  0  0  0  0
 15 30  1  0  0  0  0
 15 31  1  0  0  0  0
 16 17  1  0  0  0  0
 16 32  1  0  0  0  0
 16 33  1  0  0  0  0
 17 18  1  0  0  0  0
 17 34  1  0  0  0  0
 17 35  1  0  0  0  0
 18 36  1  0  0  0  0
 18 37  1  0  0  0  0
M  CHG  1  11  -1
M  END
> <s_m_source_file>
AV-unprocessed.smi

> <i_m_source_file_index>
696

> <i_lp_mmshare_version>
43012

> <i_f3d_flags>
0

> <s_epik_input>
W0NIMl0xW0NIMl1bQ0gyXVtDSDJdW0NIMl1bQ0gyXVtDSF0xQyg9TylbTkhdW0NIMl1bQ0gyXWMybltuSF1jKD1PKVtuSF0y

> <s_epik_cmdline>
J2VwaWtfcHl0aG9uJywgJy1waCcsICc3LjAnLCAnLXRuJywgJzgnLCAnLW1hJywgJzIwMCcsICctbWV0YWxfYmluZGluZycsICctaW1hZScsICc8aW5maWxlLm1hZT4nLCAnLW9tYWUnLCAnPG91dGZpbGUubWFlPic=

> <r_lp_tautomer_probability>
1

> <r_epik_Ionization_Penalty>
13.715

> <r_epik_Ionization_Penalty_Charging>
13.715

> <r_epik_Ionization_Penalty_Neutral>
5.16152e-06

> <r_epik_State_Penalty>
4.03036

> <r_epik_Charging_Adjusted_Penalty>
17.7454

> <i_epik_Tot_Q>
-1

> <i_epik_Tot_abs_Q>
1

> <r_epik_Metal_State_Penalty>
0.449398

> <b_epik_Metal_Only>
1

> <s_lp_Force_Field>
OPLS_2005

> <r_lp_Energy>
29.0226

> <b_lp_Chiralities_Consistent>
1

> <s_lp_Variant>
AV-unprocessed.smi:696-3

> <Gold.Version>
5.8.1

> <Gold.Id.Protein>
6NUR|6NUR_protein|mol2

> <Gold.PLP.Fitness>
41.6078

> <Gold.PLP.PLP>
-36.2719

> <Gold.PLP.part.hbond>
-2.9846

> <Gold.PLP.part.metal>
0.0000

> <Gold.PLP.part.buried>
-3.9981

> <Gold.PLP.part.nonpolar>
-33.8591

> <Gold.PLP.part.repulsive>
5.4287

> <Gold.PLP.ligand.clash>
0.0000

> <Gold.PLP.ligand.torsion>
0.3512

> <Gold.PLP.Chemscore.Hbond>
2.0000

> <Gold.PLP.Chemscore.CHOScore>
0.0000

> <Gold.PLP.Chemscore.Metal>
0.0000

> <Gold.Chemscore.Hbonds>
donor molecule, donor type, donor heavy atom, donor atom, acceptor molecule, acceptor atom, score
      L1  H     3    20       P1  8028  1.00
      P1  H  7954  7966       L1    10  1.00

> <Gold.PLP.Chemscore.Internal.Correction>
0.0382

> <Gold.Rescore>
     Score         DG    S(hbond)    S(metal)    S(lipo)     H(rot)  DE(clash)    DE(int)     intcor
     14.39     -16.92       1.98        0.00      90.40       2.25       2.18       0.35       ----

> <Gold.Chemscore.Fitness>
14.3918

> <Gold.Chemscore.DG>
-16.9205

> <Gold.Chemscore.ZeroCoef>
-5.4800

> <Gold.Chemscore.Hbond>
1.9833

> <Gold.Chemscore.Metal>
0.0000

> <Gold.Chemscore.Lipo>
90.3970

> <Gold.Chemscore.Internal_Hbond>
0.0000

> <Gold.Chemscore.DEClash>
2.1768

> <Gold.Chemscore.DEInternal>
0.3519

> <Gold.Chemscore.Rot>
2.2501

> <Gold.Chemscore.Internal.Correction>
   9.000000E+99

> <Gold.Chemscore.Hbonds>
donor molecule, donor type, donor heavy atom, donor atom, acceptor molecule, acceptor atom, score
      L1  H     3    20       P1  8028  0.99
      P1  H  7954  7966       L1    10  0.98

> <Gold.Chemscore.Hbond.Weighted>
-6.6244

> <Gold.Chemscore.Metal.Weighted>
-0.0000

> <Gold.Chemscore.Lipo.Weighted>
-10.5764

> <Gold.Chemscore.Internal_Hbond.Weighted>
0.0000

> <Gold.Chemscore.DEClash.Weighted>
2.1768

> <Gold.Chemscore.DEInternal.Weighted>
0.3519

> <Gold.Chemscore.Rot.Weighted>
5.7603

> <Gold.Chemscore.Internal.Correction.Weighted>
   9.000000E+99

> <Gold.Protein.RotatedTorsions>
[ 6907 6896 6895 6894 ] final  -73.01 input  -60.11 | X-H torsion
[ 7974 7965 7964 7962 ] final  133.74 input  175.53 | X-H torsion
[ 8008 7997 7996 7995 ] final  -88.14 input   59.86 | X-H torsion
[ 10167 10162 10161 10158 ] final  -16.79 input  -65.29 | X-H torsion
[ 10718 10713 10712 10709 ] final   28.20 input   66.30 | X-H torsion
[ 10763 10752 10751 10750 ] final -105.47 input  -60.55 | X-H torsion
[ 11005 11000 10999 10996 ] final  -34.86 input  -57.11 | X-H torsion

> <Gold.Protein.ActiveResidues>
 VAL166  LYS551  ARG553  GLY616  TRP617  ASP618  TYR619  PRO620  LYS621  CYS622 
 ASP623  PHE694  ASN695  SER759  ASP760  ASP761  ALA762  ILE779  LEU786  VAL792 
 PHE793  MET794  SER795  GLU796  ALA797  LYS798  CYS799  TRP800  GLU811  SER814 

> <Gold.Protein.RotatedAtoms>
  150.7147  134.5079  159.5592 H   0  0  0  0  0  0  0  0  0  0  0  0  # atno 6907 bound_to 6896
  152.2662  134.7979  160.0431 H   0  0  0  0  0  0  0  0  0  0  0  0  # atno 6908 bound_to 6896
  151.8675  133.3434  159.3760 H   0  0  0  0  0  0  0  0  0  0  0  0  # atno 6909 bound_to 6896
  144.9834  139.4481  143.5375 H   0  0  0  0  0  0  0  0  0  0  0  0  # atno 7974 bound_to 7965
  154.6714  140.0557  157.0169 H   0  0  0  0  0  0  0  0  0  0  0  0  # atno 8008 bound_to 7997
  155.1084  140.3236  155.4509 H   0  0  0  0  0  0  0  0  0  0  0  0  # atno 8009 bound_to 7997
  156.2659  140.2019  156.6208 H   0  0  0  0  0  0  0  0  0  0  0  0  # atno 8010 bound_to 7997
  140.7238  143.5080  150.9785 H   0  0  0  0  0  0  0  0  0  0  0  0  # atno 10167 bound_to 10162
  157.2303  130.7020  149.6310 H   0  0  0  0  0  0  0  0  0  0  0  0  # atno 10718 bound_to 10713
  154.7948  135.4748  154.0136 H   0  0  0  0  0  0  0  0  0  0  0  0  # atno 10763 bound_to 10752
  153.1687  135.6821  153.8646 H   0  0  0  0  0  0  0  0  0  0  0  0  # atno 10764 bound_to 10752
  153.8235  135.3201  155.3390 H   0  0  0  0  0  0  0  0  0  0  0  0  # atno 10765 bound_to 10752
  140.9750  133.7088  156.1587 H   0  0  0  0  0  0  0  0  0  0  0  0  # atno 11005 bound_to 11000
  146.3414  139.9121  142.8779 LP  0  0  0  0  0  0  0  0  0  0  0  0  # atno 17320 bound_to 7965
  145.2388  141.0001  143.3948 LP  0  0  0  0  0  0  0  0  0  0  0  0  # atno 17321 bound_to 7965
  139.8793  143.7093  152.3158 LP  0  0  0  0  0  0  0  0  0  0  0  0  # atno 17342 bound_to 10162
  139.7369  144.7569  151.0713 LP  0  0  0  0  0  0  0  0  0  0  0  0  # atno 17343 bound_to 10162
  155.9676  130.4491  150.5645 LP  0  0  0  0  0  0  0  0  0  0  0  0  # atno 17370 bound_to 10713
  157.3485  131.0729  151.1732 LP  0  0  0  0  0  0  0  0  0  0  0  0  # atno 17371 bound_to 10713
  140.7272  134.4294  157.5569 LP  0  0  0  0  0  0  0  0  0  0  0  0  # atno 17394 bound_to 11000
  139.8927  134.8748  156.2258 LP  0  0  0  0  0  0  0  0  0  0  0  0  # atno 17395 bound_to 11000

$$$$
