AV-unprocessed.smi:3009|AV-procd|sdf|11449|dock9
  -GOLD-   2272016383D 1   1.00000     0.00000
 Structure written by MMmdl.
 44 45  0  0  0  0  0  0  0  0  2 V2000
  151.8630  143.9141  158.5041 C   0  0  0  0  0  0  0  0  0  0  0  0
  151.2674  142.5688  158.0631 C   0  0  0  0  0  0  0  0  0  0  0  0
  152.1078  141.4048  158.6150 C   0  0  0  0  0  0  0  0  0  0  0  0
  151.1397  142.5118  156.5248 C   0  0  0  0  0  0  0  0  0  0  0  0
  150.3757  141.3329  156.0411 N   0  3  1  0  0  0  0  0  0  0  0  0
  149.4218  141.6452  154.9480 C   0  0  0  0  0  0  0  0  0  0  0  0
  148.6509  140.3816  154.5320 C   0  0  0  0  0  0  0  0  0  0  0  0
  149.5705  139.3659  154.1524 O   0  0  0  0  0  0  0  0  0  0  0  0
  150.4264  138.9857  155.2255 C   0  0  1  0  0  0  0  0  0  0  0  0
  151.3152  137.8216  154.7516 C   0  0  0  0  0  0  0  0  0  0  0  0
  150.5258  136.6824  154.2954 N   0  0  0  0  0  0  0  0  0  0  0  0
  150.5616  135.4579  154.8389 C   0  0  0  0  0  0  0  0  0  0  0  0
  151.2757  135.1626  155.7972 O   0  0  0  0  0  0  0  0  0  0  0  0
  149.7261  134.6173  154.2082 N   0  0  0  0  0  0  0  0  0  0  0  0
  149.4858  133.2554  154.5189 C   0  0  0  0  0  0  0  0  0  0  0  0
  149.0959  132.1887  153.6568 C   0  0  0  0  0  0  0  0  0  0  0  0
  148.9740  131.0512  154.3261 N   0  0  0  0  0  0  0  0  0  0  0  0
  149.2806  131.3795  155.6013 N   0  0  0  0  0  0  0  0  0  0  0  0
  149.5986  132.7099  155.7630 C   0  0  0  0  0  0  0  0  0  0  0  0
  151.2602  140.2106  155.6468 C   0  0  0  0  0  0  0  0  0  0  0  0
  149.2686  130.6918  156.3411 H   0  0  0  0  0  0  0  0  0  0  0  0
  152.8693  144.0517  158.1070 H   0  0  0  0  0  0  0  0  0  0  0  0
  151.9223  143.9817  159.5910 H   0  0  0  0  0  0  0  0  0  0  0  0
  151.2519  144.7482  158.1578 H   0  0  0  0  0  0  0  0  0  0  0  0
  150.2750  142.5068  158.5083 H   0  0  0  0  0  0  0  0  0  0  0  0
  153.1181  141.4143  158.2045 H   0  0  0  0  0  0  0  0  0  0  0  0
  151.6600  140.4397  158.3774 H   0  0  0  0  0  0  0  0  0  0  0  0
  152.1908  141.4634  159.7006 H   0  0  0  0  0  0  0  0  0  0  0  0
  150.6715  143.4213  156.1450 H   0  0  0  0  0  0  0  0  0  0  0  0
  152.1444  142.4887  156.0997 H   0  0  0  0  0  0  0  0  0  0  0  0
  148.7114  142.4082  155.2635 H   0  0  0  0  0  0  0  0  0  0  0  0
  149.9645  142.0474  154.0910 H   0  0  0  0  0  0  0  0  0  0  0  0
  148.0122  140.0287  155.3433 H   0  0  0  0  0  0  0  0  0  0  0  0
  147.9985  140.6005  153.6865 H   0  0  0  0  0  0  0  0  0  0  0  0
  149.8221  138.6579  156.0734 H   0  0  0  0  0  0  0  0  0  0  0  0
  151.9553  138.1471  153.9311 H   0  0  0  0  0  0  0  0  0  0  0  0
  151.9814  137.5019  155.5546 H   0  0  0  0  0  0  0  0  0  0  0  0
  149.9092  136.8392  153.5116 H   0  0  0  0  0  0  0  0  0  0  0  0
  149.2063  134.9896  153.4271 H   0  0  0  0  0  0  0  0  0  0  0  0
  148.9008  132.1910  152.5947 H   0  0  0  0  0  0  0  0  0  0  0  0
  149.8674  133.1353  156.7186 H   0  0  0  0  0  0  0  0  0  0  0  0
  151.9096  140.5276  154.8288 H   0  0  0  0  0  0  0  0  0  0  0  0
  151.9059  139.9415  156.4838 H   0  0  0  0  0  0  0  0  0  0  0  0
  149.8316  141.0004  156.8247 H   0  0  0  0  0  0  0  0  0  0  0  0
  1  2  1  0  0  0  0
  1 22  1  0  0  0  0
  1 23  1  0  0  0  0
  1 24  1  0  0  0  0
  2  3  1  0  0  0  0
  2  4  1  0  0  0  0
  2 25  1  0  0  0  0
  3 26  1  0  0  0  0
  3 27  1  0  0  0  0
  3 28  1  0  0  0  0
  4  5  1  0  0  0  0
  4 29  1  0  0  0  0
  4 30  1  0  0  0  0
  5 20  1  0  0  0  0
  5  6  1  0  0  0  0
  5 44  1  0  0  0  0
  6  7  1  0  0  0  0
  6 31  1  0  0  0  0
  6 32  1  0  0  0  0
  7  8  1  0  0  0  0
  7 33  1  0  0  0  0
  7 34  1  0  0  0  0
  8  9  1  0  0  0  0
  9 10  1  0  0  0  0
  9 20  1  0  0  0  0
  9 35  1  0  0  0  0
 10 11  1  0  0  0  0
 10 36  1  0  0  0  0
 10 37  1  0  0  0  0
 11 12  1  0  0  0  0
 11 38  1  0  0  0  0
 12 13  2  0  0  0  0
 12 14  1  0  0  0  0
 14 15  1  0  0  0  0
 14 39  1  0  0  0  0
 15 19  2  0  0  0  0
 15 16  1  0  0  0  0
 16 17  2  0  0  0  0
 16 40  1  0  0  0  0
 17 18  1  0  0  0  0
 18 21  1  0  0  0  0
 18 19  1  0  0  0  0
 19 41  1  0  0  0  0
 20 42  1  0  0  0  0
 20 43  1  0  0  0  0
M  CHG  1   5   1
M  END
> <s_m_source_file>
AV-unprocessed.smi

> <i_m_source_file_index>
3009

> <i_lp_mmshare_version>
43012

> <i_f3d_flags>
0

> <s_epik_input>
W0NIM11bQ0hdKFtDSDNdKVtDSDJdTjFbQ0gyXVtDSDJdT1tDQEhdKFtDSDJdMSlbQ0gyXVtOSF1DKD1PKVtOSF1jMltjSF1uW25IXVtjSF0y

> <s_epik_cmdline>
J2VwaWtfcHl0aG9uJywgJy1waCcsICc3LjAnLCAnLXRuJywgJzgnLCAnLW1hJywgJzIwMCcsICctbWV0YWxfYmluZGluZycsICctaW1hZScsICc8aW5maWxlLm1hZT4nLCAnLW9tYWUnLCAnPG91dGZpbGUubWFlPic=

> <r_lp_tautomer_probability>
0.5

> <r_epik_Ionization_Penalty>
0.0974064

> <r_epik_Ionization_Penalty_Charging>
0.0973651

> <r_epik_Ionization_Penalty_Neutral>
4.13573e-05

> <r_epik_State_Penalty>
0.0874853

> <r_epik_Charging_Adjusted_Penalty>
0.18485

> <i_epik_Tot_Q>
1

> <i_epik_Tot_abs_Q>
1

> <r_epik_Metal_State_Penalty>
0.0874855

> <b_epik_Metal_Only>
0

> <s_lp_Force_Field>
OPLS_2005

> <r_lp_Energy>
19.2351

> <b_lp_Chiralities_Consistent>
1

> <s_lp_Variant>
AV-unprocessed.smi:3009-1

> <Gold.Version>
5.8.1

> <Gold.Id.Protein>
6NUR|6NUR_protein|mol2

> <Gold.PLP.Fitness>
45.3388

> <Gold.PLP.PLP>
-35.4879

> <Gold.PLP.part.hbond>
-4.2689

> <Gold.PLP.part.metal>
0.0000

> <Gold.PLP.part.buried>
-2.4318

> <Gold.PLP.part.nonpolar>
-29.0905

> <Gold.PLP.part.repulsive>
1.2376

> <Gold.PLP.ligand.clash>
0.0000

> <Gold.PLP.ligand.torsion>
0.7544

> <Gold.PLP.Chemscore.Hbond>
2.7920

> <Gold.PLP.Chemscore.CHOScore>
0.9847

> <Gold.PLP.Chemscore.Metal>
0.0000

> <Gold.Chemscore.Hbonds>
donor molecule, donor type, donor heavy atom, donor atom, acceptor molecule, acceptor atom, score
      L1  H    11    38       P1  7948  1.00
      L1  H    14    39       P1  7948  0.80
      P1  H 10752 10764       L1    13  0.95
      L1  C    16    40       P1 10747  0.69

> <Gold.PLP.Chemscore.Internal.Correction>
0.0297

> <Gold.Rescore>
     Score         DG    S(hbond)    S(metal)    S(lipo)     H(rot)  DE(clash)    DE(int)     intcor
     15.04     -17.12       1.82        0.00      86.78       1.80       0.10       1.98       ----

> <Gold.Chemscore.Fitness>
15.0427

> <Gold.Chemscore.DG>
-17.1226

> <Gold.Chemscore.ZeroCoef>
-5.4800

> <Gold.Chemscore.Hbond>
1.8225

> <Gold.Chemscore.Metal>
0.0000

> <Gold.Chemscore.Lipo>
86.7850

> <Gold.Chemscore.Internal_Hbond>
0.0000

> <Gold.Chemscore.DEClash>
0.1006

> <Gold.Chemscore.DEInternal>
1.9793

> <Gold.Chemscore.Rot>
1.7963

> <Gold.Chemscore.Internal.Correction>
   9.000000E+99

> <Gold.Chemscore.Hbonds>
donor molecule, donor type, donor heavy atom, donor atom, acceptor molecule, acceptor atom, score
      L1  H    11    38       P1  7948  0.28
      L1  H    14    39       P1  7948  0.11
      P1  H 10752 10764       L1    13  0.20

> <Gold.Chemscore.Hbond.Weighted>
-6.0873

> <Gold.Chemscore.Metal.Weighted>
-0.0000

> <Gold.Chemscore.Lipo.Weighted>
-10.1538

> <Gold.Chemscore.Internal_Hbond.Weighted>
0.0000

> <Gold.Chemscore.DEClash.Weighted>
0.1006

> <Gold.Chemscore.DEInternal.Weighted>
1.9793

> <Gold.Chemscore.Rot.Weighted>
4.5985

> <Gold.Chemscore.Internal.Correction.Weighted>
   9.000000E+99

> <Gold.Protein.RotatedTorsions>
[ 6907 6896 6895 6894 ] final   78.46 input  -60.11 | X-H torsion
[ 7974 7965 7964 7962 ] final  153.72 input  175.53 | X-H torsion
[ 8008 7997 7996 7995 ] final  174.08 input   59.86 | X-H torsion
[ 10167 10162 10161 10158 ] final -150.74 input  -65.29 | X-H torsion
[ 10718 10713 10712 10709 ] final -162.69 input   66.30 | X-H torsion
[ 10763 10752 10751 10750 ] final  -37.11 input  -60.55 | X-H torsion
[ 11005 11000 10999 10996 ] final -129.27 input  -57.11 | X-H torsion

> <Gold.Protein.ActiveResidues>
 VAL166  LYS551  ARG553  GLY616  TRP617  ASP618  TYR619  PRO620  LYS621  CYS622 
 ASP623  PHE694  ASN695  SER759  ASP760  ASP761  ALA762  ILE779  LEU786  VAL792 
 PHE793  MET794  SER795  GLU796  ALA797  LYS798  CYS799  TRP800  GLU811  SER814 

> <Gold.Protein.RotatedAtoms>
  152.5160  134.3661  159.9301 H   0  0  0  0  0  0  0  0  0  0  0  0  # atno 6907 bound_to 6896
  151.3614  133.3882  159.2698 H   0  0  0  0  0  0  0  0  0  0  0  0  # atno 6908 bound_to 6896
  150.9649  134.9050  159.7811 H   0  0  0  0  0  0  0  0  0  0  0  0  # atno 6909 bound_to 6896
  144.8136  139.6838  143.6131 H   0  0  0  0  0  0  0  0  0  0  0  0  # atno 7974 bound_to 7965
  156.1011  140.1443  156.9467 H   0  0  0  0  0  0  0  0  0  0  0  0  # atno 8008 bound_to 7997
  154.4703  140.0912  156.7172 H   0  0  0  0  0  0  0  0  0  0  0  0  # atno 8009 bound_to 7997
  155.4759  140.3443  155.4334 H   0  0  0  0  0  0  0  0  0  0  0  0  # atno 8010 bound_to 7997
  139.7328  143.8781  152.2540 H   0  0  0  0  0  0  0  0  0  0  0  0  # atno 10167 bound_to 10162
  156.6140  130.8862  151.2943 H   0  0  0  0  0  0  0  0  0  0  0  0  # atno 10718 bound_to 10713
  153.8908  135.6812  153.4761 H   0  0  0  0  0  0  0  0  0  0  0  0  # atno 10763 bound_to 10752
  153.1182  135.4752  154.9149 H   0  0  0  0  0  0  0  0  0  0  0  0  # atno 10764 bound_to 10752
  154.7623  135.3214  154.8307 H   0  0  0  0  0  0  0  0  0  0  0  0  # atno 10765 bound_to 10752
  140.9446  134.1147  157.4119 H   0  0  0  0  0  0  0  0  0  0  0  0  # atno 11005 bound_to 11000
  146.2437  139.6053  142.9474 LP  0  0  0  0  0  0  0  0  0  0  0  0  # atno 17320 bound_to 7965
  145.5267  141.0429  143.2405 LP  0  0  0  0  0  0  0  0  0  0  0  0  # atno 17321 bound_to 7965
  139.8710  144.7068  150.8988 LP  0  0  0  0  0  0  0  0  0  0  0  0  # atno 17342 bound_to 10162
  140.7774  143.3739  151.1599 LP  0  0  0  0  0  0  0  0  0  0  0  0  # atno 17343 bound_to 10162
  157.7246  130.9605  150.1581 LP  0  0  0  0  0  0  0  0  0  0  0  0  # atno 17370 bound_to 10713
  156.2366  130.3687  149.8384 LP  0  0  0  0  0  0  0  0  0  0  0  0  # atno 17371 bound_to 10713
  139.8830  135.0047  156.6267 LP  0  0  0  0  0  0  0  0  0  0  0  0  # atno 17394 bound_to 11000
  140.7687  133.8756  155.8475 LP  0  0  0  0  0  0  0  0  0  0  0  0  # atno 17395 bound_to 11000

$$$$
