AV-unprocessed.smi:243|AV-procd|sdf|1854|dock2
  -GOLD-   2262020483D 1   1.00000     0.00000
 Structure written by MMmdl.
 58 61  0  0  0  0  0  0  0  0  2 V2000
  144.1575  132.4005  149.6842 C   0  0  0  0  0  0  0  0  0  0  0  0
  143.9567  132.9482  151.1045 C   0  0  0  0  0  0  0  0  0  0  0  0
  143.5091  134.3669  151.1135 N   0  3  2  0  0  0  0  0  0  0  0  0
  144.5177  135.3084  150.5642 C   0  0  0  0  0  0  0  0  0  0  0  0
  145.6755  135.5379  151.5489 C   0  0  0  0  0  0  0  0  0  0  0  0
  145.1553  136.0429  152.9108 C   0  0  2  0  0  0  0  0  0  0  0  0
  146.2546  136.2662  153.8609 N   0  0  0  0  0  0  0  0  0  0  0  0
  147.0455  135.1410  154.3546 C   0  0  0  0  0  0  0  0  0  0  0  0
  146.7919  137.5098  154.0028 C   0  0  0  0  0  0  0  0  0  0  0  0
  146.0388  138.6006  153.6969 N   0  0  0  0  0  0  0  0  0  0  0  0
  146.5427  139.8319  153.8154 C   0  0  0  0  0  0  0  0  0  0  0  0
  147.7586  140.1990  154.2202 N   0  0  0  0  0  0  0  0  0  0  0  0
  148.5199  139.1152  154.5431 C   0  0  0  0  0  0  0  0  0  0  0  0
  148.1217  137.7495  154.4618 C   0  0  0  0  0  0  0  0  0  0  0  0
  149.1676  136.9337  154.8796 N   0  0  0  0  0  0  0  0  0  0  0  0
  150.1276  137.7652  155.1776 C   0  0  0  0  0  0  0  0  0  0  0  0
  149.8211  139.0969  155.0155 N   0  0  0  0  0  0  0  0  0  0  0  0
  150.6947  140.2314  155.2747 C   0  0  0  0  0  0  0  0  0  0  0  0
  150.0079  141.3832  156.0470 C   0  0  2  0  0  0  0  0  0  0  0  0
  149.1274  142.0690  155.1739 O   0  0  0  0  0  0  0  0  0  0  0  0
  151.0029  142.3899  156.6109 C   0  0  0  0  0  0  0  0  0  0  0  0
  150.2824  142.9230  157.8416 C   0  0  0  0  0  0  0  0  0  0  0  0
  149.6654  141.7629  158.3726 O   0  0  0  0  0  0  0  0  0  0  0  0
  149.2139  140.9460  157.2960 C   0  0  0  0  0  0  0  0  0  0  0  0
  144.0714  135.0884  153.4721 C   0  0  1  0  0  0  0  0  0  0  0  0
  143.4446  135.6294  154.7692 C   0  0  0  0  0  0  0  0  0  0  0  0
  142.9693  134.8484  152.4141 C   0  0  0  0  0  0  0  0  0  0  0  0
  144.5885  131.3996  149.7185 H   0  0  0  0  0  0  0  0  0  0  0  0
  144.8362  133.0316  149.1098 H   0  0  0  0  0  0  0  0  0  0  0  0
  143.2186  132.3259  149.1364 H   0  0  0  0  0  0  0  0  0  0  0  0
  143.2661  132.3150  151.6611 H   0  0  0  0  0  0  0  0  0  0  0  0
  144.9145  132.8797  151.6217 H   0  0  0  0  0  0  0  0  0  0  0  0
  144.8945  134.9448  149.6076 H   0  0  0  0  0  0  0  0  0  0  0  0
  144.0261  136.2592  150.3543 H   0  0  0  0  0  0  0  0  0  0  0  0
  146.2394  134.6131  151.6701 H   0  0  0  0  0  0  0  0  0  0  0  0
  146.3712  136.2616  151.1236 H   0  0  0  0  0  0  0  0  0  0  0  0
  144.6482  136.9930  152.7372 H   0  0  0  0  0  0  0  0  0  0  0  0
  148.1145  135.3392  154.2666 H   0  0  0  0  0  0  0  0  0  0  0  0
  146.8388  134.2275  153.7986 H   0  0  0  0  0  0  0  0  0  0  0  0
  146.8142  134.9499  155.4027 H   0  0  0  0  0  0  0  0  0  0  0  0
  145.8761  140.6388  153.5484 H   0  0  0  0  0  0  0  0  0  0  0  0
  151.0905  137.4250  155.5298 H   0  0  0  0  0  0  0  0  0  0  0  0
  151.5599  139.8703  155.8322 H   0  0  0  0  0  0  0  0  0  0  0  0
  151.0778  140.5946  154.3200 H   0  0  0  0  0  0  0  0  0  0  0  0
  149.1883  142.9950  155.3520 H   0  0  0  0  0  0  0  0  0  0  0  0
  151.9161  141.8835  156.9267 H   0  0  0  0  0  0  0  0  0  0  0  0
  151.2855  143.1723  155.9051 H   0  0  0  0  0  0  0  0  0  0  0  0
  150.9584  143.3851  158.5612 H   0  0  0  0  0  0  0  0  0  0  0  0
  149.5189  143.6518  157.5649 H   0  0  0  0  0  0  0  0  0  0  0  0
  148.1367  141.0604  157.1630 H   0  0  0  0  0  0  0  0  0  0  0  0
  149.4013  139.9067  157.5637 H   0  0  0  0  0  0  0  0  0  0  0  0
  144.5261  134.1273  153.7106 H   0  0  0  0  0  0  0  0  0  0  0  0
  142.9820  136.6039  154.6099 H   0  0  0  0  0  0  0  0  0  0  0  0
  144.1880  135.7405  155.5589 H   0  0  0  0  0  0  0  0  0  0  0  0
  142.6756  134.9535  155.1436 H   0  0  0  0  0  0  0  0  0  0  0  0
  142.4402  135.7841  152.2275 H   0  0  0  0  0  0  0  0  0  0  0  0
  142.2175  134.1580  152.7949 H   0  0  0  0  0  0  0  0  0  0  0  0
  142.7360  134.3972  150.4641 H   0  0  0  0  0  0  0  0  0  0  0  0
  1  2  1  0  0  0  0
  1 28  1  0  0  0  0
  1 29  1  0  0  0  0
  1 30  1  0  0  0  0
  2  3  1  0  0  0  0
  2 31  1  0  0  0  0
  2 32  1  0  0  0  0
  3 27  1  0  0  0  0
  3  4  1  0  0  0  0
  3 58  1  0  0  0  0
  4  5  1  0  0  0  0
  4 33  1  0  0  0  0
  4 34  1  0  0  0  0
  5  6  1  0  0  0  0
  5 35  1  0  0  0  0
  5 36  1  0  0  0  0
  6  7  1  0  0  0  0
  6 25  1  0  0  0  0
  6 37  1  0  0  0  0
  7  8  1  0  0  0  0
  7  9  1  0  0  0  0
  8 38  1  0  0  0  0
  8 39  1  0  0  0  0
  8 40  1  0  0  0  0
  9 14  1  0  0  0  0
  9 10  2  0  0  0  0
 10 11  1  0  0  0  0
 11 12  2  0  0  0  0
 11 41  1  0  0  0  0
 12 13  1  0  0  0  0
 13 17  1  0  0  0  0
 13 14  2  0  0  0  0
 14 15  1  0  0  0  0
 15 16  2  0  0  0  0
 16 17  1  0  0  0  0
 16 42  1  0  0  0  0
 17 18  1  0  0  0  0
 18 19  1  0  0  0  0
 18 43  1  0  0  0  0
 18 44  1  0  0  0  0
 19 24  1  0  0  0  0
 19 20  1  0  0  0  0
 19 21  1  0  0  0  0
 20 45  1  0  0  0  0
 21 22  1  0  0  0  0
 21 46  1  0  0  0  0
 21 47  1  0  0  0  0
 22 23  1  0  0  0  0
 22 48  1  0  0  0  0
 22 49  1  0  0  0  0
 23 24  1  0  0  0  0
 24 50  1  0  0  0  0
 24 51  1  0  0  0  0
 25 26  1  0  0  0  0
 25 27  1  0  0  0  0
 25 52  1  0  0  0  0
 26 53  1  0  0  0  0
 26 54  1  0  0  0  0
 26 55  1  0  0  0  0
 27 56  1  0  0  0  0
 27 57  1  0  0  0  0
M  CHG  1   3   1
M  END
> <s_m_source_file>
AV-unprocessed.smi

> <i_m_source_file_index>
243

> <i_lp_mmshare_version>
43012

> <i_f3d_flags>
0

> <s_epik_input>
W0NIM11bQ0gyXU4xW0NIMl1bQ0gyXVtDQEhdKFtDQEBIXShbQ0gzXSlbQ0gyXTEpTihbQ0gzXSljKG5bY0hdbjIpYyhjMjMpbltjSF1uM1tDSDJdW0NAQF00KFtPSF0pW0NIMl1bQ0gyXU9bQ0gyXTQ=

> <s_epik_cmdline>
J2VwaWtfcHl0aG9uJywgJy1waCcsICc3LjAnLCAnLXRuJywgJzgnLCAnLW1hJywgJzIwMCcsICctbWV0YWxfYmluZGluZycsICctaW1hZScsICc8aW5maWxlLm1hZT4nLCAnLW9tYWUnLCAnPG91dGZpbGUubWFlPic=

> <r_lp_tautomer_probability>
1

> <r_epik_Ionization_Penalty>
0.00253099

> <r_epik_Ionization_Penalty_Charging>
0.00137877

> <r_epik_Ionization_Penalty_Neutral>
0.00115221

> <r_epik_State_Penalty>
-0

> <r_epik_Charging_Adjusted_Penalty>
0.00137877

> <i_epik_Tot_Q>
1

> <i_epik_Tot_abs_Q>
1

> <r_epik_Metal_State_Penalty>
-0

> <b_epik_Metal_Only>
0

> <s_lp_Force_Field>
OPLS_2005

> <r_lp_Energy>
46.0239

> <b_lp_Chiralities_Consistent>
1

> <s_lp_Variant>
AV-unprocessed.smi:243-7

> <Gold.Version>
5.8.1

> <Gold.Id.Protein>
6NUR|6NUR_protein|mol2

> <Gold.PLP.Fitness>
45.1351

> <Gold.PLP.PLP>
-34.4293

> <Gold.PLP.part.hbond>
-2.2256

> <Gold.PLP.part.metal>
0.0000

> <Gold.PLP.part.buried>
-5.0442

> <Gold.PLP.part.nonpolar>
-28.7800

> <Gold.PLP.part.repulsive>
1.0817

> <Gold.PLP.ligand.clash>
0.0000

> <Gold.PLP.ligand.torsion>
0.8543

> <Gold.PLP.Chemscore.Hbond>
3.0000

> <Gold.PLP.Chemscore.CHOScore>
0.9735

> <Gold.PLP.Chemscore.Metal>
0.0000

> <Gold.Chemscore.Hbonds>
donor molecule, donor type, donor heavy atom, donor atom, acceptor molecule, acceptor atom, score
      L1  H     3    58       P1 10186  2.00
      L1  H    20    45       P1  8028  1.00
      L1  C    11    41       P1 10175  0.97

> <Gold.PLP.Chemscore.Internal.Correction>
0.4939

> <Gold.Rescore>
     Score         DG    S(hbond)    S(metal)    S(lipo)     H(rot)  DE(clash)    DE(int)     intcor
     12.02     -14.58       1.83        0.00      74.59       2.24       0.35       2.21       ----

> <Gold.Chemscore.Fitness>
12.0167

> <Gold.Chemscore.DG>
-14.5824

> <Gold.Chemscore.ZeroCoef>
-5.4800

> <Gold.Chemscore.Hbond>
1.8277

> <Gold.Chemscore.Metal>
0.0000

> <Gold.Chemscore.Lipo>
74.5884

> <Gold.Chemscore.Internal_Hbond>
0.0000

> <Gold.Chemscore.DEClash>
0.3524

> <Gold.Chemscore.DEInternal>
2.2133

> <Gold.Chemscore.Rot>
2.2379

> <Gold.Chemscore.Internal.Correction>
   9.000000E+99

> <Gold.Chemscore.Hbonds>
donor molecule, donor type, donor heavy atom, donor atom, acceptor molecule, acceptor atom, score
      L1  H     3    58       P1 10186  0.60
      L1  H    20    45       P1  8028  1.00

> <Gold.Chemscore.Hbond.Weighted>
-6.1046

> <Gold.Chemscore.Metal.Weighted>
-0.0000

> <Gold.Chemscore.Lipo.Weighted>
-8.7268

> <Gold.Chemscore.Internal_Hbond.Weighted>
0.0000

> <Gold.Chemscore.DEClash.Weighted>
0.3524

> <Gold.Chemscore.DEInternal.Weighted>
2.2133

> <Gold.Chemscore.Rot.Weighted>
5.7291

> <Gold.Chemscore.Internal.Correction.Weighted>
   9.000000E+99

> <Gold.Protein.RotatedTorsions>
[ 6907 6896 6895 6894 ] final   -0.56 input  -60.11 | X-H torsion
[ 7974 7965 7964 7962 ] final   -8.84 input  175.53 | X-H torsion
[ 8008 7997 7996 7995 ] final -155.01 input   59.86 | X-H torsion
[ 10167 10162 10161 10158 ] final  -74.08 input  -65.29 | X-H torsion
[ 10718 10713 10712 10709 ] final  127.20 input   66.30 | X-H torsion
[ 10763 10752 10751 10750 ] final   34.79 input  -60.55 | X-H torsion
[ 11005 11000 10999 10996 ] final -104.74 input  -57.11 | X-H torsion

> <Gold.Protein.ActiveResidues>
 VAL166  LYS551  ARG553  GLY616  TRP617  ASP618  TYR619  PRO620  LYS621  CYS622 
 ASP623  PHE694  ASN695  SER759  ASP760  ASP761  ALA762  ILE779  LEU786  VAL792 
 PHE793  MET794  SER795  GLU796  ALA797  LYS798  CYS799  TRP800  GLU811  SER814 

> <Gold.Protein.RotatedAtoms>
  151.5603  135.1065  159.9970 H   0  0  0  0  0  0  0  0  0  0  0  0  # atno 6907 bound_to 6896
  152.4450  133.7515  159.6707 H   0  0  0  0  0  0  0  0  0  0  0  0  # atno 6908 bound_to 6896
  150.8363  133.7940  159.3102 H   0  0  0  0  0  0  0  0  0  0  0  0  # atno 6909 bound_to 6896
  146.2269  140.2528  142.8348 H   0  0  0  0  0  0  0  0  0  0  0  0  # atno 7974 bound_to 7965
  155.6952  140.0760  157.2432 H   0  0  0  0  0  0  0  0  0  0  0  0  # atno 8008 bound_to 7997
  154.4082  140.1657  156.2183 H   0  0  0  0  0  0  0  0  0  0  0  0  # atno 8009 bound_to 7997
  155.9416  140.3384  155.6335 H   0  0  0  0  0  0  0  0  0  0  0  0  # atno 8010 bound_to 7997
  140.5057  143.2353  151.7678 H   0  0  0  0  0  0  0  0  0  0  0  0  # atno 10167 bound_to 10162
  157.5353  131.1098  150.8945 H   0  0  0  0  0  0  0  0  0  0  0  0  # atno 10718 bound_to 10713
  153.0148  135.6351  154.1725 H   0  0  0  0  0  0  0  0  0  0  0  0  # atno 10763 bound_to 10752
  154.1465  135.2831  155.3148 H   0  0  0  0  0  0  0  0  0  0  0  0  # atno 10764 bound_to 10752
  154.6086  135.5564  153.7510 H   0  0  0  0  0  0  0  0  0  0  0  0  # atno 10765 bound_to 10752
  141.1086  133.8749  157.1648 H   0  0  0  0  0  0  0  0  0  0  0  0  # atno 11005 bound_to 11000
  144.9399  140.8066  143.5637 LP  0  0  0  0  0  0  0  0  0  0  0  0  # atno 17320 bound_to 7965
  145.2479  139.2044  143.4958 LP  0  0  0  0  0  0  0  0  0  0  0  0  # atno 17321 bound_to 7965
  139.4883  144.4461  151.9709 LP  0  0  0  0  0  0  0  0  0  0  0  0  # atno 17342 bound_to 10162
  140.3551  144.3041  150.5942 LP  0  0  0  0  0  0  0  0  0  0  0  0  # atno 17343 bound_to 10162
  156.9514  130.5421  149.5282 LP  0  0  0  0  0  0  0  0  0  0  0  0  # atno 17370 bound_to 10713
  156.0454  130.5531  150.8868 LP  0  0  0  0  0  0  0  0  0  0  0  0  # atno 17371 bound_to 10713
  139.9968  135.0043  157.0101 LP  0  0  0  0  0  0  0  0  0  0  0  0  # atno 17394 bound_to 11000
  140.4836  134.1265  155.7221 LP  0  0  0  0  0  0  0  0  0  0  0  0  # atno 17395 bound_to 11000

$$$$
