AV-unprocessed.smi:447|AV-procd|sdf|2603|dock6
  -GOLD-   2262023 03D 1   1.00000     0.00000
 Structure written by MMmdl.
 46 48  0  0  0  0  0  0  0  0  2 V2000
  149.3114  139.0878  153.4533 C   0  0  0  0  0  0  0  0  0  0  0  0
  147.8597  138.7382  153.7624 C   0  0  0  0  0  0  0  0  0  0  0  0
  147.1862  139.4813  154.4752 O   0  0  0  0  0  0  0  0  0  0  0  0
  147.3896  137.6029  153.2222 N   0  0  0  0  0  0  0  0  0  0  0  0
  146.0419  137.0750  153.4181 C   0  0  2  0  0  0  0  0  0  0  0  0
  145.8158  136.7658  154.9036 C   0  0  0  0  0  0  0  0  0  0  0  0
  145.7764  135.8570  152.5808 C   0  0  0  0  0  0  0  0  0  0  0  0
  146.6935  135.1862  151.8258 N   0  3  0  0  0  0  0  0  0  0  0  0
  146.0826  134.1089  151.1840 C   0  0  0  0  0  0  0  0  0  0  0  0
  146.6012  133.1533  150.3154 C   0  0  0  0  0  0  0  0  0  0  0  0
  145.6991  132.1848  149.8284 C   0  0  0  0  0  0  0  0  0  0  0  0
  144.3409  132.1914  150.2063 C   0  0  0  0  0  0  0  0  0  0  0  0
  143.8279  133.1635  151.0901 C   0  0  0  0  0  0  0  0  0  0  0  0
  144.7266  134.1166  151.5695 C   0  0  0  0  0  0  0  0  0  0  0  0
  144.5858  135.2058  152.4384 N   0  0  0  0  0  0  0  0  0  0  0  0
  143.2715  135.4932  153.0359 C   0  0  0  0  0  0  0  0  0  0  0  0
  143.0413  136.9979  153.2799 C   0  0  1  0  0  0  0  0  0  0  0  0
  143.3973  137.7394  152.1294 O   0  0  0  0  0  0  0  0  0  0  0  0
  141.6133  137.2741  153.7204 C   0  0  0  0  0  0  0  0  0  0  0  0
  141.1148  138.5952  153.7529 C   0  0  0  0  0  0  0  0  0  0  0  0
  139.7891  138.8435  154.1588 C   0  0  0  0  0  0  0  0  0  0  0  0
  138.9542  137.7729  154.5318 C   0  0  0  0  0  0  0  0  0  0  0  0
  139.4445  136.4533  154.4960 C   0  0  0  0  0  0  0  0  0  0  0  0
  140.7703  136.2043  154.0903 C   0  0  0  0  0  0  0  0  0  0  0  0
  149.6023  138.7262  152.4663 H   0  0  0  0  0  0  0  0  0  0  0  0
  149.9725  138.6379  154.1943 H   0  0  0  0  0  0  0  0  0  0  0  0
  149.4573  140.1683  153.4746 H   0  0  0  0  0  0  0  0  0  0  0  0
  148.0167  137.0546  152.6512 H   0  0  0  0  0  0  0  0  0  0  0  0
  145.3383  137.8572  153.1303 H   0  0  0  0  0  0  0  0  0  0  0  0
  144.7963  136.4210  155.0799 H   0  0  0  0  0  0  0  0  0  0  0  0
  145.9723  137.6533  155.5173 H   0  0  0  0  0  0  0  0  0  0  0  0
  146.4956  135.9904  155.2589 H   0  0  0  0  0  0  0  0  0  0  0  0
  147.6407  133.1483  150.0215 H   0  0  0  0  0  0  0  0  0  0  0  0
  146.0547  131.4233  149.1493 H   0  0  0  0  0  0  0  0  0  0  0  0
  143.6776  131.4365  149.8098 H   0  0  0  0  0  0  0  0  0  0  0  0
  142.7839  133.1619  151.3661 H   0  0  0  0  0  0  0  0  0  0  0  0
  142.4879  135.0676  152.4088 H   0  0  0  0  0  0  0  0  0  0  0  0
  143.2218  134.9515  153.9813 H   0  0  0  0  0  0  0  0  0  0  0  0
  143.7088  137.3273  154.0760 H   0  0  0  0  0  0  0  0  0  0  0  0
  143.3324  138.6594  152.3363 H   0  0  0  0  0  0  0  0  0  0  0  0
  141.7476  139.4222  153.4658 H   0  0  0  0  0  0  0  0  0  0  0  0
  139.4132  139.8557  154.1837 H   0  0  0  0  0  0  0  0  0  0  0  0
  137.9380  137.9636  154.8439 H   0  0  0  0  0  0  0  0  0  0  0  0
  138.8038  135.6315  154.7797 H   0  0  0  0  0  0  0  0  0  0  0  0
  141.1367  135.1885  154.0650 H   0  0  0  0  0  0  0  0  0  0  0  0
  147.6660  135.4553  151.7509 H   0  0  0  0  0  0  0  0  0  0  0  0
  1  2  1  0  0  0  0
  1 25  1  0  0  0  0
  1 26  1  0  0  0  0
  1 27  1  0  0  0  0
  2  3  2  0  0  0  0
  2  4  1  0  0  0  0
  4  5  1  0  0  0  0
  4 28  1  0  0  0  0
  5  6  1  0  0  0  0
  5  7  1  0  0  0  0
  5 29  1  0  0  0  0
  6 30  1  0  0  0  0
  6 31  1  0  0  0  0
  6 32  1  0  0  0  0
  7 15  1  0  0  0  0
  7  8  2  0  0  0  0
  8  9  1  0  0  0  0
  8 46  1  0  0  0  0
  9 14  2  0  0  0  0
  9 10  1  0  0  0  0
 10 11  2  0  0  0  0
 10 33  1  0  0  0  0
 11 12  1  0  0  0  0
 11 34  1  0  0  0  0
 12 13  2  0  0  0  0
 12 35  1  0  0  0  0
 13 14  1  0  0  0  0
 13 36  1  0  0  0  0
 14 15  1  0  0  0  0
 15 16  1  0  0  0  0
 16 17  1  0  0  0  0
 16 37  1  0  0  0  0
 16 38  1  0  0  0  0
 17 18  1  0  0  0  0
 17 19  1  0  0  0  0
 17 39  1  0  0  0  0
 18 40  1  0  0  0  0
 19 24  1  0  0  0  0
 19 20  2  0  0  0  0
 20 21  1  0  0  0  0
 20 41  1  0  0  0  0
 21 22  2  0  0  0  0
 21 42  1  0  0  0  0
 22 23  1  0  0  0  0
 22 43  1  0  0  0  0
 23 24  2  0  0  0  0
 23 44  1  0  0  0  0
 24 45  1  0  0  0  0
M  CHG  1   8   1
M  END
> <s_m_source_file>
AV-unprocessed.smi

> <i_m_source_file_index>
447

> <i_lp_mmshare_version>
43012

> <i_f3d_flags>
0

> <s_epik_input>
W0NIM11DKD1PKVtOSF1bQ0BIXShbQ0gzXSljKG4xKW4oYyhjMTIpW2NIXVtjSF1bY0hdW2NIXTIpW0NIMl1bQ0BIXShbT0hdKWMzW2NIXVtjSF1bY0hdW2NIXVtjSF0z

> <s_epik_cmdline>
J2VwaWtfcHl0aG9uJywgJy1waCcsICc3LjAnLCAnLXRuJywgJzgnLCAnLW1hJywgJzIwMCcsICctbWV0YWxfYmluZGluZycsICctaW1hZScsICc8aW5maWxlLm1hZT4nLCAnLW9tYWUnLCAnPG91dGZpbGUubWFlPic=

> <r_epik_Ionization_Penalty>
0.950381

> <r_epik_Ionization_Penalty_Charging>
0.950379

> <r_epik_Ionization_Penalty_Neutral>
1.42115e-06

> <r_epik_State_Penalty>
0.994584

> <r_epik_Charging_Adjusted_Penalty>
1.94496

> <i_epik_Tot_Q>
1

> <i_epik_Tot_abs_Q>
1

> <r_epik_Metal_State_Penalty>
1.10485

> <b_epik_Metal_Only>
0

> <s_lp_Force_Field>
OPLS_2005

> <r_lp_Energy>
11.1979

> <b_lp_Chiralities_Consistent>
1

> <s_lp_Variant>
AV-unprocessed.smi:447-7

> <Gold.Version>
5.8.1

> <Gold.Id.Protein>
6NUR|6NUR_protein|mol2

> <Gold.PLP.Fitness>
55.7564

> <Gold.PLP.PLP>
-45.3265

> <Gold.PLP.part.hbond>
-3.7275

> <Gold.PLP.part.metal>
0.0000

> <Gold.PLP.part.buried>
-5.9362

> <Gold.PLP.part.nonpolar>
-35.6362

> <Gold.PLP.part.repulsive>
0.1171

> <Gold.PLP.ligand.clash>
0.0000

> <Gold.PLP.ligand.torsion>
0.8378

> <Gold.PLP.Chemscore.Hbond>
4.0000

> <Gold.PLP.Chemscore.CHOScore>
0.0000

> <Gold.PLP.Chemscore.Metal>
0.0000

> <Gold.Chemscore.Hbonds>
donor molecule, donor type, donor heavy atom, donor atom, acceptor molecule, acceptor atom, score
      L1  H     4    28       P1  7948  0.84
      L1  H     8    46       P1  7948  1.66
      L1  H    18    40       P1 10175  1.00

> <Gold.PLP.Chemscore.Internal.Correction>
0.1055

> <Gold.Rescore>
     Score         DG    S(hbond)    S(metal)    S(lipo)     H(rot)  DE(clash)    DE(int)     intcor
     19.57     -21.45       2.89        0.00     106.88       2.41       0.05       1.83       ----

> <Gold.Chemscore.Fitness>
19.5717

> <Gold.Chemscore.DG>
-21.4527

> <Gold.Chemscore.ZeroCoef>
-5.4800

> <Gold.Chemscore.Hbond>
2.8865

> <Gold.Chemscore.Metal>
0.0000

> <Gold.Chemscore.Lipo>
106.8757

> <Gold.Chemscore.Internal_Hbond>
0.0000

> <Gold.Chemscore.DEClash>
0.0465

> <Gold.Chemscore.DEInternal>
1.8344

> <Gold.Chemscore.Rot>
2.4112

> <Gold.Chemscore.Internal.Correction>
   9.000000E+99

> <Gold.Chemscore.Hbonds>
donor molecule, donor type, donor heavy atom, donor atom, acceptor molecule, acceptor atom, score
      L1  H     4    28       P1  7948  0.84
      L1  H     8    46       P1  7948  0.79
      L1  H    18    40       P1 10175  1.00

> <Gold.Chemscore.Hbond.Weighted>
-9.6409

> <Gold.Chemscore.Metal.Weighted>
-0.0000

> <Gold.Chemscore.Lipo.Weighted>
-12.5045

> <Gold.Chemscore.Internal_Hbond.Weighted>
0.0000

> <Gold.Chemscore.DEClash.Weighted>
0.0465

> <Gold.Chemscore.DEInternal.Weighted>
1.8344

> <Gold.Chemscore.Rot.Weighted>
6.1727

> <Gold.Chemscore.Internal.Correction.Weighted>
   9.000000E+99

> <Gold.Protein.RotatedTorsions>
[ 6907 6896 6895 6894 ] final  -99.98 input  -60.11 | X-H torsion
[ 7974 7965 7964 7962 ] final -122.53 input  175.53 | X-H torsion
[ 8008 7997 7996 7995 ] final -149.58 input   59.86 | X-H torsion
[ 10167 10162 10161 10158 ] final  -67.97 input  -65.29 | X-H torsion
[ 10718 10713 10712 10709 ] final   39.78 input   66.30 | X-H torsion
[ 10763 10752 10751 10750 ] final   19.37 input  -60.55 | X-H torsion
[ 11005 11000 10999 10996 ] final -178.38 input  -57.11 | X-H torsion

> <Gold.Protein.ActiveResidues>
 VAL166  LYS551  ARG553  GLY616  TRP617  ASP618  TYR619  PRO620  LYS621  CYS622 
 ASP623  PHE694  ASN695  SER759  ASP760  ASP761  ALA762  ILE779  LEU786  VAL792 
 PHE793  MET794  SER795  GLU796  ALA797  LYS798  CYS799  TRP800  GLU811  SER814 

> <Gold.Protein.RotatedAtoms>
  150.7099  134.0958  159.3947 H   0  0  0  0  0  0  0  0  0  0  0  0  # atno 6907 bound_to 6896
  151.8944  135.0401  160.0510 H   0  0  0  0  0  0  0  0  0  0  0  0  # atno 6908 bound_to 6896
  152.2466  133.5144  159.5337 H   0  0  0  0  0  0  0  0  0  0  0  0  # atno 6909 bound_to 6896
  145.0284  140.8047  143.4338 H   0  0  0  0  0  0  0  0  0  0  0  0  # atno 7974 bound_to 7965
  155.6099  140.0670  157.2709 H   0  0  0  0  0  0  0  0  0  0  0  0  # atno 8008 bound_to 7997
  154.4256  140.1803  156.1309 H   0  0  0  0  0  0  0  0  0  0  0  0  # atno 8009 bound_to 7997
  156.0093  140.3328  155.6928 H   0  0  0  0  0  0  0  0  0  0  0  0  # atno 8010 bound_to 7997
  140.5542  143.2312  151.6852 H   0  0  0  0  0  0  0  0  0  0  0  0  # atno 10167 bound_to 10162
  157.3745  130.7719  149.7145 H   0  0  0  0  0  0  0  0  0  0  0  0  # atno 10718 bound_to 10713
  153.1168  135.6710  153.9405 H   0  0  0  0  0  0  0  0  0  0  0  0  # atno 10763 bound_to 10752
  153.8932  135.3044  155.3449 H   0  0  0  0  0  0  0  0  0  0  0  0  # atno 10764 bound_to 10752
  154.7583  135.5000  153.9495 H   0  0  0  0  0  0  0  0  0  0  0  0  # atno 10765 bound_to 10752
  140.4304  134.6524  157.4709 H   0  0  0  0  0  0  0  0  0  0  0  0  # atno 11005 bound_to 11000
  145.1803  139.2356  143.5296 LP  0  0  0  0  0  0  0  0  0  0  0  0  # atno 17320 bound_to 7965
  146.3495  140.1575  142.8591 LP  0  0  0  0  0  0  0  0  0  0  0  0  # atno 17321 bound_to 7965
  139.5041  144.3768  152.0416 LP  0  0  0  0  0  0  0  0  0  0  0  0  # atno 17342 bound_to 10162
  140.2888  144.3777  150.6095 LP  0  0  0  0  0  0  0  0  0  0  0  0  # atno 17343 bound_to 10162
  155.9762  130.4078  150.3793 LP  0  0  0  0  0  0  0  0  0  0  0  0  # atno 17370 bound_to 10713
  157.1888  131.0410  151.2711 LP  0  0  0  0  0  0  0  0  0  0  0  0  # atno 17371 bound_to 10713
  140.0138  134.6649  155.9340 LP  0  0  0  0  0  0  0  0  0  0  0  0  # atno 17394 bound_to 11000
  141.1748  133.6539  156.4787 LP  0  0  0  0  0  0  0  0  0  0  0  0  # atno 17395 bound_to 11000

$$$$
