AV-unprocessed.smi:2509|AV-procd|sdf|9868|dock5
  -GOLD-   2272013503D 1   1.00000     0.00000
 Structure written by MMmdl.
 45 46  0  0  0  0  0  0  0  0  1 V2000
  149.8585  141.6360  158.3370 C   0  0  0  0  0  0  0  0  0  0  0  0
  150.6360  141.3818  157.0238 C   0  0  0  0  0  0  0  0  0  0  0  0
  150.9444  142.7261  156.3390 C   0  0  0  0  0  0  0  0  0  0  0  0
  151.9598  140.6959  157.4366 C   0  0  0  0  0  0  0  0  0  0  0  0
  149.8271  140.4911  156.0647 C   0  0  0  0  0  0  0  0  0  0  0  0
  150.4095  140.1582  154.9052 N   0  0  0  0  0  0  0  0  0  0  0  0
  149.7653  139.2781  154.1108 C   0  0  0  0  0  0  0  0  0  0  0  0
  148.5366  138.6973  154.4821 C   0  0  0  0  0  0  0  0  0  0  0  0
  147.9224  137.7660  153.6026 N   0  0  0  0  0  0  0  0  0  0  0  0
  146.6128  137.5227  153.4273 C   0  0  0  0  0  0  0  0  0  0  0  0
  145.6974  138.1012  154.0120 O   0  0  0  0  0  0  0  0  0  0  0  0
  146.4178  136.5708  152.5035 N   0  0  0  0  0  0  0  0  0  0  0  0
  145.1178  136.0826  152.0530 C   0  0  0  0  0  0  0  0  0  0  0  0
  145.1524  134.5736  151.7293 C   0  0  2  0  0  0  0  0  0  0  0  0
  146.4793  134.0440  151.1667 C   0  0  0  0  0  0  0  0  0  0  0  0
  146.1303  132.7475  150.4207 C   0  0  0  0  0  0  0  0  0  0  0  0
  144.5978  132.7036  150.3125 C   0  0  0  0  0  0  0  0  0  0  0  0
  144.1053  134.0987  150.7110 C   0  0  2  0  0  0  0  0  0  0  0  0
  144.0893  134.9264  149.5630 O   0  0  0  0  0  0  0  0  0  0  0  0
  148.0356  139.0776  155.7499 C   0  0  0  0  0  0  0  0  0  0  0  0
  148.6916  139.9583  156.5350 N   0  0  0  0  0  0  0  0  0  0  0  0
  150.4464  142.2298  159.0379 H   0  0  0  0  0  0  0  0  0  0  0  0
  149.6029  140.7000  158.8353 H   0  0  0  0  0  0  0  0  0  0  0  0
  148.9308  142.1830  158.1644 H   0  0  0  0  0  0  0  0  0  0  0  0
  150.0282  143.2507  156.0651 H   0  0  0  0  0  0  0  0  0  0  0  0
  151.5250  142.5820  155.4271 H   0  0  0  0  0  0  0  0  0  0  0  0
  151.5172  143.3840  156.9932 H   0  0  0  0  0  0  0  0  0  0  0  0
  152.5135  141.3019  158.1545 H   0  0  0  0  0  0  0  0  0  0  0  0
  152.6213  140.5367  156.5841 H   0  0  0  0  0  0  0  0  0  0  0  0
  151.7777  139.7251  157.8993 H   0  0  0  0  0  0  0  0  0  0  0  0
  150.2400  139.0339  153.1716 H   0  0  0  0  0  0  0  0  0  0  0  0
  148.5539  137.2581  153.0004 H   0  0  0  0  0  0  0  0  0  0  0  0
  147.2308  136.1551  152.0729 H   0  0  0  0  0  0  0  0  0  0  0  0
  144.4002  136.2649  152.8533 H   0  0  0  0  0  0  0  0  0  0  0  0
  144.7680  136.6600  151.1956 H   0  0  0  0  0  0  0  0  0  0  0  0
  144.9576  134.0316  152.6568 H   0  0  0  0  0  0  0  0  0  0  0  0
  146.8993  134.7634  150.4625 H   0  0  0  0  0  0  0  0  0  0  0  0
  147.2222  133.8816  151.9484 H   0  0  0  0  0  0  0  0  0  0  0  0
  146.5931  132.7435  149.4333 H   0  0  0  0  0  0  0  0  0  0  0  0
  146.5000  131.8724  150.9564 H   0  0  0  0  0  0  0  0  0  0  0  0
  144.2536  132.3950  149.3243 H   0  0  0  0  0  0  0  0  0  0  0  0
  144.2140  131.9737  151.0266 H   0  0  0  0  0  0  0  0  0  0  0  0
  143.1022  134.0687  151.1380 H   0  0  0  0  0  0  0  0  0  0  0  0
  144.9171  134.8343  149.1161 H   0  0  0  0  0  0  0  0  0  0  0  0
  147.1282  138.6708  156.1679 H   0  0  0  0  0  0  0  0  0  0  0  0
  1  2  1  0  0  0  0
  1 22  1  0  0  0  0
  1 23  1  0  0  0  0
  1 24  1  0  0  0  0
  2  3  1  0  0  0  0
  2  4  1  0  0  0  0
  2  5  1  0  0  0  0
  3 25  1  0  0  0  0
  3 26  1  0  0  0  0
  3 27  1  0  0  0  0
  4 28  1  0  0  0  0
  4 29  1  0  0  0  0
  4 30  1  0  0  0  0
  5 21  1  0  0  0  0
  5  6  2  0  0  0  0
  6  7  1  0  0  0  0
  7  8  2  0  0  0  0
  7 31  1  0  0  0  0
  8  9  1  0  0  0  0
  8 20  1  0  0  0  0
  9 10  1  0  0  0  0
  9 32  1  0  0  0  0
 10 11  2  0  0  0  0
 10 12  1  0  0  0  0
 12 13  1  0  0  0  0
 12 33  1  0  0  0  0
 13 14  1  0  0  0  0
 13 34  1  0  0  0  0
 13 35  1  0  0  0  0
 14 18  1  0  0  0  0
 14 15  1  0  0  0  0
 14 36  1  0  0  0  0
 15 16  1  0  0  0  0
 15 37  1  0  0  0  0
 15 38  1  0  0  0  0
 16 17  1  0  0  0  0
 16 39  1  0  0  0  0
 16 40  1  0  0  0  0
 17 18  1  0  0  0  0
 17 41  1  0  0  0  0
 17 42  1  0  0  0  0
 18 19  1  0  0  0  0
 18 43  1  0  0  0  0
 19 44  1  0  0  0  0
 20 21  2  0  0  0  0
 20 45  1  0  0  0  0
M  END
> <s_m_source_file>
AV-unprocessed.smi

> <i_m_source_file_index>
2509

> <i_lp_mmshare_version>
43012

> <i_f3d_flags>
0

> <s_epik_input>
W0NIM11DKFtDSDNdKShbQ0gzXSljMW5bY0hdYyhbY0hdbjEpW05IXUMoPU8pW05IXVtDSDJdW0NAQEhdMltDSDJdW0NIMl1bQ0gyXVtDQEhdMltPSF0=

> <s_epik_cmdline>
J2VwaWtfcHl0aG9uJywgJy1waCcsICc3LjAnLCAnLXRuJywgJzgnLCAnLW1hJywgJzIwMCcsICctbWV0YWxfYmluZGluZycsICctaW1hZScsICc8aW5maWxlLm1hZT4nLCAnLW9tYWUnLCAnPG91dGZpbGUubWFlPic=

> <r_lp_tautomer_probability>
1

> <r_epik_Ionization_Penalty>
2.77586e-05

> <r_epik_Ionization_Penalty_Charging>
0

> <r_epik_Ionization_Penalty_Neutral>
2.77586e-05

> <r_epik_State_Penalty>
-0

> <r_epik_Charging_Adjusted_Penalty>
0

> <i_epik_Tot_Q>
0

> <i_epik_Tot_abs_Q>
0

> <r_epik_Metal_State_Penalty>
-0

> <b_epik_Metal_Only>
0

> <s_lp_Force_Field>
OPLS_2005

> <r_lp_Energy>
21.5241

> <b_lp_Chiralities_Consistent>
1

> <s_lp_Variant>
AV-unprocessed.smi:2509-3

> <Gold.Version>
5.8.1

> <Gold.Id.Protein>
6NUR|6NUR_protein|mol2

> <Gold.PLP.Fitness>
42.0151

> <Gold.PLP.PLP>
-29.4735

> <Gold.PLP.part.hbond>
-4.6920

> <Gold.PLP.part.metal>
0.0000

> <Gold.PLP.part.buried>
-2.2501

> <Gold.PLP.part.nonpolar>
-22.2368

> <Gold.PLP.part.repulsive>
0.2674

> <Gold.PLP.ligand.clash>
0.0000

> <Gold.PLP.ligand.torsion>
0.7910

> <Gold.PLP.Chemscore.Hbond>
3.8100

> <Gold.PLP.Chemscore.CHOScore>
0.8488

> <Gold.PLP.Chemscore.Metal>
0.0000

> <Gold.Chemscore.Hbonds>
donor molecule, donor type, donor heavy atom, donor atom, acceptor molecule, acceptor atom, score
      L1  H     9    32       P1  7948  1.00
      L1  H    12    33       P1  7948  0.96
      L1  H    19    44       P1  7921  1.00
      P1  H  7989  7998       L1     6  0.80
      L1  C     7    31       P1  7957  0.86

> <Gold.PLP.Chemscore.Internal.Correction>
0.1473

> <Gold.Rescore>
     Score         DG    S(hbond)    S(metal)    S(lipo)     H(rot)  DE(clash)    DE(int)     intcor
     17.47     -19.61       3.02        0.00      76.47       1.91       1.33       0.81       ----

> <Gold.Chemscore.Fitness>
17.4703

> <Gold.Chemscore.DG>
-19.6080

> <Gold.Chemscore.ZeroCoef>
-5.4800

> <Gold.Chemscore.Hbond>
3.0164

> <Gold.Chemscore.Metal>
0.0000

> <Gold.Chemscore.Lipo>
76.4687

> <Gold.Chemscore.Internal_Hbond>
0.0000

> <Gold.Chemscore.DEClash>
1.3296

> <Gold.Chemscore.DEInternal>
0.8080

> <Gold.Chemscore.Rot>
1.9116

> <Gold.Chemscore.Internal.Correction>
   9.000000E+99

> <Gold.Chemscore.Hbonds>
donor molecule, donor type, donor heavy atom, donor atom, acceptor molecule, acceptor atom, score
      L1  H     9    32       P1  7948  0.96
      L1  H    12    33       P1  7948  0.92
      L1  H    19    44       P1  7921  0.99
      P1  H  7989  7998       L1     6  0.11

> <Gold.Chemscore.Hbond.Weighted>
-10.0747

> <Gold.Chemscore.Metal.Weighted>
-0.0000

> <Gold.Chemscore.Lipo.Weighted>
-8.9468

> <Gold.Chemscore.Internal_Hbond.Weighted>
0.0000

> <Gold.Chemscore.DEClash.Weighted>
1.3296

> <Gold.Chemscore.DEInternal.Weighted>
0.8080

> <Gold.Chemscore.Rot.Weighted>
4.8936

> <Gold.Chemscore.Internal.Correction.Weighted>
   9.000000E+99

> <Gold.Protein.RotatedTorsions>
[ 6907 6896 6895 6894 ] final -101.67 input  -60.11 | X-H torsion
[ 7974 7965 7964 7962 ] final   -0.44 input  175.53 | X-H torsion
[ 8008 7997 7996 7995 ] final   81.22 input   59.86 | X-H torsion
[ 10167 10162 10161 10158 ] final  171.55 input  -65.29 | X-H torsion
[ 10718 10713 10712 10709 ] final  -92.41 input   66.30 | X-H torsion
[ 10763 10752 10751 10750 ] final   30.42 input  -60.55 | X-H torsion
[ 11005 11000 10999 10996 ] final  -18.94 input  -57.11 | X-H torsion

> <Gold.Protein.ActiveResidues>
 VAL166  LYS551  ARG553  GLY616  TRP617  ASP618  TYR619  PRO620  LYS621  CYS622 
 ASP623  PHE694  ASN695  SER759  ASP760  ASP761  ALA762  ILE779  LEU786  VAL792 
 PHE793  MET794  SER795  GLU796  ALA797  LYS798  CYS799  TRP800  GLU811  SER814 

> <Gold.Protein.RotatedAtoms>
  150.7164  134.0699  159.3860 H   0  0  0  0  0  0  0  0  0  0  0  0  # atno 6907 bound_to 6896
  151.8681  135.0497  160.0485 H   0  0  0  0  0  0  0  0  0  0  0  0  # atno 6908 bound_to 6896
  152.2665  133.5308  159.5449 H   0  0  0  0  0  0  0  0  0  0  0  0  # atno 6909 bound_to 6896
  146.2427  140.1270  142.8339 H   0  0  0  0  0  0  0  0  0  0  0  0  # atno 7974 bound_to 7965
  155.8942  140.3437  155.5979 H   0  0  0  0  0  0  0  0  0  0  0  0  # atno 8008 bound_to 7997
  155.7575  140.0828  157.2190 H   0  0  0  0  0  0  0  0  0  0  0  0  # atno 8009 bound_to 7997
  154.4036  140.1542  156.2782 H   0  0  0  0  0  0  0  0  0  0  0  0  # atno 8010 bound_to 7997
  139.5050  144.3473  151.9958 H   0  0  0  0  0  0  0  0  0  0  0  0  # atno 10167 bound_to 10162
  156.0002  130.4986  150.5621 H   0  0  0  0  0  0  0  0  0  0  0  0  # atno 10718 bound_to 10713
  153.0373  135.6464  154.1042 H   0  0  0  0  0  0  0  0  0  0  0  0  # atno 10763 bound_to 10752
  154.0754  135.2877  155.3302 H   0  0  0  0  0  0  0  0  0  0  0  0  # atno 10764 bound_to 10752
  154.6566  135.5407  153.8030 H   0  0  0  0  0  0  0  0  0  0  0  0  # atno 10765 bound_to 10752
  140.8317  133.7992  155.9766 H   0  0  0  0  0  0  0  0  0  0  0  0  # atno 11005 bound_to 11000
  145.0358  140.8907  143.5082 LP  0  0  0  0  0  0  0  0  0  0  0  0  # atno 17320 bound_to 7965
  145.1342  139.2613  143.5524 LP  0  0  0  0  0  0  0  0  0  0  0  0  # atno 17321 bound_to 7965
  140.2910  144.3754  150.6089 LP  0  0  0  0  0  0  0  0  0  0  0  0  # atno 17342 bound_to 10162
  140.5946  143.2167  151.7187 LP  0  0  0  0  0  0  0  0  0  0  0  0  # atno 17343 bound_to 10162
  157.3528  131.0736  151.1699 LP  0  0  0  0  0  0  0  0  0  0  0  0  # atno 17370 bound_to 10713
  157.2510  130.6614  149.5931 LP  0  0  0  0  0  0  0  0  0  0  0  0  # atno 17371 bound_to 10713
  140.8991  134.2401  157.5052 LP  0  0  0  0  0  0  0  0  0  0  0  0  # atno 17394 bound_to 11000
  139.8705  134.9698  156.4678 LP  0  0  0  0  0  0  0  0  0  0  0  0  # atno 17395 bound_to 11000

$$$$
