#       Name:                AV-unprocessed.smi:1758
#       Creating user name   scv26
#       Creation time:       Fri Mar 27 08:30:06 2020


#       File generated by GOLD software.
#

@<TRIPOS>MOLECULE
AV-unprocessed.smi:1758
    47    49     1
SMALL
NO_CHARGES


@<TRIPOS>ATOM
      1 ****        -6.0461   0.1985   3.7844 C.3            1 S1                 0.0000
      2 ****        -5.5408  -1.1537   3.2680 C.3            1 S1                 0.0000
      3 ****        -4.0949  -1.1841   3.1677 N.pl3          1 S1                 0.0000
      4 ****        -3.3140  -1.0200   2.0408 C.2            1 S1                 0.0000
      5 ****        -2.0211  -1.1342   2.4679 C.2            1 S1                 0.0000
      6 ****        -0.8169  -1.0562   1.7235 N.am           1 S1                 0.0000
      7 ****        -0.6856  -0.8228   0.4074 C.2            1 S1                 0.0000
      8 ****        -1.6157  -0.6021  -0.3679 O.2            1 S1                 0.0000
      9 ****         0.6017  -0.8554   0.0350 N.am           1 S1                 0.0000
     10 ****         1.0980  -0.6408  -1.3217 C.3            1 S1                 0.0000
     11 ****         1.8803  -1.8423  -1.8812 C.3            1 S1                 0.0000
     12 ****         3.0456  -1.2305  -2.6853 C.3            1 S1                 0.0000
     13 ****         2.8298   0.2286  -2.6373 N.4            1 S1                 1.0000
     14 ****         4.0146   1.0944  -2.8229 C.3            1 S1                 0.0000
     15 ****         3.5714   2.5718  -2.8171 C.3            1 S1                 0.0000
     16 ****         2.7386   2.9184  -1.5653 C.3            1 S1                 0.0000
     17 ****         1.5752   1.9252  -1.3776 C.3            1 S1                 0.0000
     18 ****         2.1242   0.4897  -1.3740 C.3            1 S1                 0.0000
     19 ****        -2.0943  -1.3657   3.8661 C.2            1 S1                 0.0000
     20 ****        -3.3512  -1.3940   4.2821 N.2            1 S1                 0.0000
     21 ****        -7.1348   0.2103   3.8375 H              1 S1                 0.0000
     22 ****        -5.7355   1.0112   3.1272 H              1 S1                 0.0000
     23 ****        -5.6623   0.4083   4.7834 H              1 S1                 0.0000
     24 ****        -5.8651  -1.9588   3.9289 H              1 S1                 0.0000
     25 ****        -5.9631  -1.3623   2.2842 H              1 S1                 0.0000
     26 ****        -3.7440  -0.8430   1.0660 H              1 S1                 0.0000
     27 ****         0.0325  -1.2048   2.2482 H              1 S1                 0.0000
     28 ****         1.2924  -1.0454   0.7465 H              1 S1                 0.0000
     29 ****         0.2857  -0.4075  -2.0132 H              1 S1                 0.0000
     30 ****         2.2741  -2.4706  -1.0809 H              1 S1                 0.0000
     31 ****         1.2413  -2.4691  -2.5042 H              1 S1                 0.0000
     32 ****         3.9972  -1.4854  -2.2162 H              1 S1                 0.0000
     33 ****         3.0708  -1.5834  -3.7166 H              1 S1                 0.0000
     34 ****         4.7394   0.9094  -2.0286 H              1 S1                 0.0000
     35 ****         4.5013   0.8512  -3.7681 H              1 S1                 0.0000
     36 ****         4.4436   3.2237  -2.8777 H              1 S1                 0.0000
     37 ****         2.9766   2.7721  -3.7094 H              1 S1                 0.0000
     38 ****         3.3817   2.8945  -0.6847 H              1 S1                 0.0000
     39 ****         2.3550   3.9363  -1.6399 H              1 S1                 0.0000
     40 ****         1.0499   2.1327  -0.4449 H              1 S1                 0.0000
     41 ****         0.8483   2.0484  -2.1817 H              1 S1                 0.0000
     42 ****         2.8319   0.3718  -0.5497 H              1 S1                 0.0000
     43 ****        -1.2957  -1.5117   4.5785 H              1 S1                 0.0000
     44 ****         2.1781   0.4469  -3.3775 H              1 S1                 0.0000
     45 ****        -2.5563  -0.5873  -0.0289 LP             1 S1                 0.0000
     46 ****        -1.4307  -0.4376  -1.3368 LP             1 S1                 0.0000
     47 ****        -3.6803  -1.5387   5.2152 LP             1 S1                 0.0000
@<TRIPOS>BOND
    1    1    2 1     
    2    1   21 1     
    3    1   22 1     
    4    1   23 1     
    5    2    3 1     
    6    2   24 1     
    7    2   25 1     
    8    3   20 1     
    9    3    4 1     
   10    4    5 2     
   11    4   26 1     
   12    5    6 1     
   13    5   19 1     
   14    6    7 am    
   15    6   27 1     
   16    7    8 2     
   17    7    9 am    
   18    9   10 1     
   19    9   28 1     
   20   10   18 1     
   21   10   11 1     
   22   10   29 1     
   23   11   12 1     
   24   11   30 1     
   25   11   31 1     
   26   12   13 1     
   27   12   32 1     
   28   12   33 1     
   29   13   18 1     
   30   13   14 1     
   31   13   44 1     
   32   14   15 1     
   33   14   34 1     
   34   14   35 1     
   35   15   16 1     
   36   15   36 1     
   37   15   37 1     
   38   16   17 1     
   39   16   38 1     
   40   16   39 1     
   41   17   18 1     
   42   17   40 1     
   43   17   41 1     
   44   18   42 1     
   45   19   20 2     
   46   19   43 1     
   47    8   45 1     
   48    8   46 1     
   49   20   47 1     
@<TRIPOS>SUBSTRUCTURE
      1 S1             1
@<TRIPOS>SET
LONE_PAIRS      STATIC     ATOMS    <user>   **** ""
3 45 46 47
DONOR_HYDROGENS      STATIC     ATOMS    <user>   **** ""
3 27 28 44
ATOM$BLUE        STATIC     ATOMS    COLORGROUP SYSTEM
3 45 46 47
ATOM$RED        STATIC     ATOMS    COLORGROUP SYSTEM
3 27 28 44
