AV-unprocessed.smi:170|AV-procd|sdf|1410|dock5
  -GOLD-   2262019173D 1   1.00000     0.00000
 Structure written by MMmdl.
 57 61  0  0  0  0  0  0  0  0  1 V2000
  153.8381  139.9876  160.0851 O   0  0  0  0  0  0  0  0  0  0  0  0
  152.7987  140.9252  159.8766 C   0  0  2  0  0  0  0  0  0  0  0  0
  152.4781  141.0629  158.3755 C   0  0  0  0  0  0  0  0  0  0  0  0
  151.5717  140.0287  157.9095 N   0  0  0  0  0  0  0  0  0  0  0  0
  150.4862  139.5217  158.5864 C   0  0  0  0  0  0  0  0  0  0  0  0
  149.8289  138.5850  157.9590 N   0  0  0  0  0  0  0  0  0  0  0  0
  150.5160  138.4321  156.7601 C   0  0  0  0  0  0  0  0  0  0  0  0
  150.3625  137.5897  155.6217 C   0  0  0  0  0  0  0  0  0  0  0  0
  149.4059  136.6450  155.4767 N   0  0  0  0  0  0  0  0  0  0  0  0
  149.9727  135.4126  154.9423 C   0  0  0  0  0  0  0  0  0  0  0  0
  148.9236  134.2931  154.9645 C   0  0  0  0  0  0  0  0  0  0  0  0
  147.7802  134.7156  154.2335 O   0  0  0  0  0  0  0  0  0  0  0  0
  147.1747  135.8681  154.8096 C   0  0  0  0  0  0  0  0  0  0  0  0
  148.1647  137.0563  154.8083 C   0  0  1  0  0  0  0  0  0  0  0  0
  147.5379  138.3222  155.4507 C   0  0  0  0  0  0  0  0  0  0  0  0
  146.5271  139.0514  154.5622 C   0  0  0  0  0  0  0  0  0  0  0  0
  145.6045  138.2313  153.6430 C   0  0  0  0  0  0  0  0  0  0  0  0
  146.5611  138.5292  152.4871 C   0  0  0  0  0  0  0  0  0  0  0  0
  147.0445  139.7399  153.2887 C   0  0  0  0  0  0  0  0  0  0  0  0
  151.2410  137.7350  154.5995 N   0  0  0  0  0  0  0  0  0  0  0  0
  152.2248  138.6353  154.6868 C   0  0  0  0  0  0  0  0  0  0  0  0
  152.5014  139.4766  155.6859 N   0  0  0  0  0  0  0  0  0  0  0  0
  151.6108  139.3400  156.7102 C   0  0  0  0  0  0  0  0  0  0  0  0
  153.1514  142.2715  160.5400 C   0  0  1  0  0  0  0  0  0  0  0  0
  152.3283  143.4891  160.0859 C   0  0  0  0  0  0  0  0  0  0  0  0
  151.8927  144.1427  161.3881 C   0  0  0  0  0  0  0  0  0  0  0  0
  152.8298  143.5315  162.4231 C   0  0  0  0  0  0  0  0  0  0  0  0
  153.0024  142.2054  161.9534 O   0  0  0  0  0  0  0  0  0  0  0  0
  153.7297  139.2814  159.4661 H   0  0  0  0  0  0  0  0  0  0  0  0
  151.9178  140.5259  160.3806 H   0  0  0  0  0  0  0  0  0  0  0  0
  152.0219  142.0330  158.1748 H   0  0  0  0  0  0  0  0  0  0  0  0
  153.3912  141.0201  157.7808 H   0  0  0  0  0  0  0  0  0  0  0  0
  150.1980  139.8684  159.5681 H   0  0  0  0  0  0  0  0  0  0  0  0
  150.3147  135.5802  153.9198 H   0  0  0  0  0  0  0  0  0  0  0  0
  150.8432  135.1142  155.5285 H   0  0  0  0  0  0  0  0  0  0  0  0
  149.3262  133.3899  154.5059 H   0  0  0  0  0  0  0  0  0  0  0  0
  148.6453  134.0369  155.9881 H   0  0  0  0  0  0  0  0  0  0  0  0
  146.2882  136.1026  154.2216 H   0  0  0  0  0  0  0  0  0  0  0  0
  146.8350  135.6423  155.8219 H   0  0  0  0  0  0  0  0  0  0  0  0
  148.4052  137.2727  153.7683 H   0  0  0  0  0  0  0  0  0  0  0  0
  147.0637  138.0461  156.3931 H   0  0  0  0  0  0  0  0  0  0  0  0
  148.3204  139.0309  155.7210 H   0  0  0  0  0  0  0  0  0  0  0  0
  145.9378  139.7643  155.1395 H   0  0  0  0  0  0  0  0  0  0  0  0
  145.5168  137.1729  153.8884 H   0  0  0  0  0  0  0  0  0  0  0  0
  144.6249  138.6929  153.5077 H   0  0  0  0  0  0  0  0  0  0  0  0
  147.3308  137.7645  152.3675 H   0  0  0  0  0  0  0  0  0  0  0  0
  146.0758  138.7696  151.5410 H   0  0  0  0  0  0  0  0  0  0  0  0
  146.4959  140.6514  153.0461 H   0  0  0  0  0  0  0  0  0  0  0  0
  148.1227  139.9007  153.2588 H   0  0  0  0  0  0  0  0  0  0  0  0
  152.8875  138.6866  153.8354 H   0  0  0  0  0  0  0  0  0  0  0  0
  154.2045  142.4860  160.3492 H   0  0  0  0  0  0  0  0  0  0  0  0
  152.9500  144.1649  159.4976 H   0  0  0  0  0  0  0  0  0  0  0  0
  151.4651  143.2256  159.4743 H   0  0  0  0  0  0  0  0  0  0  0  0
  151.9459  145.2312  161.3593 H   0  0  0  0  0  0  0  0  0  0  0  0
  150.8637  143.8607  161.6142 H   0  0  0  0  0  0  0  0  0  0  0  0
  153.7917  144.0463  162.4324 H   0  0  0  0  0  0  0  0  0  0  0  0
  152.4165  143.5517  163.4315 H   0  0  0  0  0  0  0  0  0  0  0  0
  1  2  1  0  0  0  0
  1 29  1  0  0  0  0
  2  3  1  0  0  0  0
  2 24  1  0  0  0  0
  2 30  1  0  0  0  0
  3  4  1  0  0  0  0
  3 31  1  0  0  0  0
  3 32  1  0  0  0  0
  4 23  1  0  0  0  0
  4  5  1  0  0  0  0
  5  6  2  0  0  0  0
  5 33  1  0  0  0  0
  6  7  1  0  0  0  0
  7 23  2  0  0  0  0
  7  8  1  0  0  0  0
  8  9  1  0  0  0  0
  8 20  2  0  0  0  0
  9 14  1  0  0  0  0
  9 10  1  0  0  0  0
 10 11  1  0  0  0  0
 10 34  1  0  0  0  0
 10 35  1  0  0  0  0
 11 12  1  0  0  0  0
 11 36  1  0  0  0  0
 11 37  1  0  0  0  0
 12 13  1  0  0  0  0
 13 14  1  0  0  0  0
 13 38  1  0  0  0  0
 13 39  1  0  0  0  0
 14 15  1  0  0  0  0
 14 40  1  0  0  0  0
 15 16  1  0  0  0  0
 15 41  1  0  0  0  0
 15 42  1  0  0  0  0
 16 19  1  0  0  0  0
 16 17  1  0  0  0  0
 16 43  1  0  0  0  0
 17 18  1  0  0  0  0
 17 44  1  0  0  0  0
 17 45  1  0  0  0  0
 18 19  1  0  0  0  0
 18 46  1  0  0  0  0
 18 47  1  0  0  0  0
 19 48  1  0  0  0  0
 19 49  1  0  0  0  0
 20 21  1  0  0  0  0
 21 22  2  0  0  0  0
 21 50  1  0  0  0  0
 22 23  1  0  0  0  0
 24 28  1  0  0  0  0
 24 25  1  0  0  0  0
 24 51  1  0  0  0  0
 25 26  1  0  0  0  0
 25 52  1  0  0  0  0
 25 53  1  0  0  0  0
 26 27  1  0  0  0  0
 26 54  1  0  0  0  0
 26 55  1  0  0  0  0
 27 28  1  0  0  0  0
 27 56  1  0  0  0  0
 27 57  1  0  0  0  0
M  END
> <s_m_source_file>
AV-unprocessed.smi

> <i_m_source_file_index>
170

> <i_lp_mmshare_version>
43012

> <i_f3d_flags>
0

> <s_epik_input>
TzFbQ0gyXVtDSDJdW0NIMl1bQ0BIXTFbQ0BIXShbT0hdKVtDSDJdbihbY0hdbjIpYyhjMjMpbltjSF1uYzNONFtDSDJdW0NIMl1PW0NIMl1bQ0BIXTRbQ0gyXVtDSF01W0NIMl1bQ0gyXVtDSDJdNQ==

> <s_epik_cmdline>
J2VwaWtfcHl0aG9uJywgJy1waCcsICc3LjAnLCAnLXRuJywgJzgnLCAnLW1hJywgJzIwMCcsICctbWV0YWxfYmluZGluZycsICctaW1hZScsICc8aW5maWxlLm1hZT4nLCAnLW9tYWUnLCAnPG91dGZpbGUubWFlPic=

> <r_lp_tautomer_probability>
1

> <r_epik_Ionization_Penalty>
4.98275e-05

> <r_epik_Ionization_Penalty_Charging>
0

> <r_epik_Ionization_Penalty_Neutral>
4.98275e-05

> <r_epik_State_Penalty>
-0

> <r_epik_Charging_Adjusted_Penalty>
0

> <i_epik_Tot_Q>
0

> <i_epik_Tot_abs_Q>
0

> <r_epik_Metal_State_Penalty>
-0

> <b_epik_Metal_Only>
0

> <s_lp_Force_Field>
OPLS_2005

> <r_lp_Energy>
54.4618

> <b_lp_Chiralities_Consistent>
1

> <s_lp_Variant>
AV-unprocessed.smi:170-5

> <Gold.Version>
5.8.1

> <Gold.Id.Protein>
6NUR|6NUR_protein|mol2

> <Gold.PLP.Fitness>
40.9733

> <Gold.PLP.PLP>
-41.1466

> <Gold.PLP.part.hbond>
-1.0000

> <Gold.PLP.part.metal>
0.0000

> <Gold.PLP.part.buried>
-5.9124

> <Gold.PLP.part.nonpolar>
-34.9956

> <Gold.PLP.part.repulsive>
1.2888

> <Gold.PLP.ligand.clash>
0.0000

> <Gold.PLP.ligand.torsion>
1.7481

> <Gold.PLP.Chemscore.Hbond>
1.0000

> <Gold.PLP.Chemscore.CHOScore>
0.0000

> <Gold.PLP.Chemscore.Metal>
0.0000

> <Gold.Chemscore.Hbonds>
donor molecule, donor type, donor heavy atom, donor atom, acceptor molecule, acceptor atom, score
      P1  H  7997  8008       L1    22  1.00

> <Gold.PLP.Chemscore.Internal.Correction>
0.3230

> <Gold.Rescore>
     Score         DG    S(hbond)    S(metal)    S(lipo)     H(rot)  DE(clash)    DE(int)     intcor
     12.15     -14.15       0.94        0.00     104.45       2.61       0.21       1.79       ----

> <Gold.Chemscore.Fitness>
12.1492

> <Gold.Chemscore.DG>
-14.1495

> <Gold.Chemscore.ZeroCoef>
-5.4800

> <Gold.Chemscore.Hbond>
0.9406

> <Gold.Chemscore.Metal>
0.0000

> <Gold.Chemscore.Lipo>
104.4521

> <Gold.Chemscore.Internal_Hbond>
0.0000

> <Gold.Chemscore.DEClash>
0.2059

> <Gold.Chemscore.DEInternal>
1.7944

> <Gold.Chemscore.Rot>
2.6144

> <Gold.Chemscore.Internal.Correction>
   9.000000E+99

> <Gold.Chemscore.Hbonds>
donor molecule, donor type, donor heavy atom, donor atom, acceptor molecule, acceptor atom, score
      P1  H  7997  8008       L1    22  0.89

> <Gold.Chemscore.Hbond.Weighted>
-3.1416

> <Gold.Chemscore.Metal.Weighted>
-0.0000

> <Gold.Chemscore.Lipo.Weighted>
-12.2209

> <Gold.Chemscore.Internal_Hbond.Weighted>
0.0000

> <Gold.Chemscore.DEClash.Weighted>
0.2059

> <Gold.Chemscore.DEInternal.Weighted>
1.7944

> <Gold.Chemscore.Rot.Weighted>
6.6929

> <Gold.Chemscore.Internal.Correction.Weighted>
   9.000000E+99

> <Gold.Protein.RotatedTorsions>
[ 6907 6896 6895 6894 ] final  -92.14 input  -60.11 | X-H torsion
[ 7974 7965 7964 7962 ] final    6.35 input  175.53 | X-H torsion
[ 8008 7997 7996 7995 ] final  -30.81 input   59.86 | X-H torsion
[ 10167 10162 10161 10158 ] final -121.67 input  -65.29 | X-H torsion
[ 10718 10713 10712 10709 ] final  -58.13 input   66.30 | X-H torsion
[ 10763 10752 10751 10750 ] final  121.43 input  -60.55 | X-H torsion
[ 11005 11000 10999 10996 ] final   78.72 input  -57.11 | X-H torsion

> <Gold.Protein.ActiveResidues>
 VAL166  LYS551  ARG553  GLY616  TRP617  ASP618  TYR619  PRO620  LYS621  CYS622 
 ASP623  PHE694  ASN695  SER759  ASP760  ASP761  ALA762  ILE779  LEU786  VAL792 
 PHE793  MET794  SER795  GLU796  ALA797  LYS798  CYS799  TRP800  GLU811  SER814 

> <Gold.Protein.RotatedAtoms>
  150.6902  134.2168  159.4380 H   0  0  0  0  0  0  0  0  0  0  0  0  # atno 6907 bound_to 6896
  152.0127  134.9865  160.0578 H   0  0  0  0  0  0  0  0  0  0  0  0  # atno 6908 bound_to 6896
  152.1473  133.4465  159.4833 H   0  0  0  0  0  0  0  0  0  0  0  0  # atno 6909 bound_to 6896
  146.2435  140.0246  142.8395 H   0  0  0  0  0  0  0  0  0  0  0  0  # atno 7974 bound_to 7965
  154.4236  140.1781  156.1467 H   0  0  0  0  0  0  0  0  0  0  0  0  # atno 8008 bound_to 7997
  155.9948  140.3365  155.6763 H   0  0  0  0  0  0  0  0  0  0  0  0  # atno 8009 bound_to 7997
  155.6323  140.0671  157.2635 H   0  0  0  0  0  0  0  0  0  0  0  0  # atno 8010 bound_to 7997
  140.0225  143.5329  152.2214 H   0  0  0  0  0  0  0  0  0  0  0  0  # atno 10167 bound_to 10162
  156.1158  130.4170  150.0535 H   0  0  0  0  0  0  0  0  0  0  0  0  # atno 10718 bound_to 10713
  153.6139  135.3425  155.2988 H   0  0  0  0  0  0  0  0  0  0  0  0  # atno 10763 bound_to 10752
  154.8613  135.4257  154.2280 H   0  0  0  0  0  0  0  0  0  0  0  0  # atno 10764 bound_to 10752
  153.3137  135.7033  153.7165 H   0  0  0  0  0  0  0  0  0  0  0  0  # atno 10765 bound_to 10752
  139.9201  134.7786  156.1686 H   0  0  0  0  0  0  0  0  0  0  0  0  # atno 11005 bound_to 11000
  145.1209  140.9462  143.4601 LP  0  0  0  0  0  0  0  0  0  0  0  0  # atno 17320 bound_to 7965
  145.0482  139.3204  143.5942 LP  0  0  0  0  0  0  0  0  0  0  0  0  # atno 17321 bound_to 7965
  139.6130  144.7613  151.2910 LP  0  0  0  0  0  0  0  0  0  0  0  0  # atno 17342 bound_to 10162
  140.7336  143.6789  150.8017 LP  0  0  0  0  0  0  0  0  0  0  0  0  # atno 17343 bound_to 10162
  156.8487  130.9451  151.3627 LP  0  0  0  0  0  0  0  0  0  0  0  0  # atno 17370 bound_to 10713
  157.6341  130.8753  149.9327 LP  0  0  0  0  0  0  0  0  0  0  0  0  # atno 17371 bound_to 10713
  141.0714  133.6795  156.2148 LP  0  0  0  0  0  0  0  0  0  0  0  0  # atno 17394 bound_to 11000
  140.6501  134.5076  157.5577 LP  0  0  0  0  0  0  0  0  0  0  0  0  # atno 17395 bound_to 11000

$$$$
