AV-unprocessed.smi:1911|AV-procd|sdf|7746|dock1
  -GOLD-   22720 9483D 1   1.00000     0.00000
 Structure written by MMmdl.
 52 54  0  0  0  0  0  0  0  0  4 V2000
  142.9741  132.4306  148.9665 N   0  5  0  0  0  0  0  0  0  0  0  0
  144.1547  132.4671  149.6166 C   0  0  0  0  0  0  0  0  0  0  0  0
  145.2709  132.2126  149.1702 O   0  0  0  0  0  0  0  0  0  0  0  0
  144.0008  132.8847  151.0831 C   0  0  0  0  0  0  0  0  0  0  0  0
  144.8654  134.0518  151.3949 N   0  3  2  0  0  0  0  0  0  0  0  0
  144.8277  134.4450  152.8289 C   0  0  0  0  0  0  0  0  0  0  0  0
  145.8404  135.5638  153.1244 C   0  0  0  0  0  0  0  0  0  0  0  0
  145.5991  136.7859  152.2198 C   0  0  1  0  0  0  0  0  0  0  0  0
  146.6210  137.8063  152.4382 N   0  0  0  0  0  0  0  0  0  0  0  0
  147.0194  138.2547  153.6376 C   0  0  0  0  0  0  0  0  0  0  0  0
  146.5566  137.8459  154.7023 O   0  0  0  0  0  0  0  0  0  0  0  0
  147.9619  139.2055  153.5152 N   0  0  0  0  0  0  0  0  0  0  0  0
  148.6400  139.9148  154.5431 C   0  0  0  0  0  0  0  0  0  0  0  0
  149.1272  139.3175  155.7317 C   0  0  0  0  0  0  0  0  0  0  0  0
  149.8045  140.1098  156.6814 C   0  0  0  0  0  0  0  0  0  0  0  0
  149.9956  141.4907  156.4386 C   0  0  0  0  0  0  0  0  0  0  0  0
  150.6659  142.3409  157.3388 N   0  0  0  0  0  0  0  0  0  0  0  0
  151.3679  141.8200  158.5051 C   0  0  0  0  0  0  0  0  0  0  0  0
  152.4873  142.8260  158.7956 C   0  0  0  0  0  0  0  0  0  0  0  0
  152.0146  144.1135  158.1210 C   0  0  0  0  0  0  0  0  0  0  0  0
  151.2383  143.6052  156.9069 C   0  0  0  0  0  0  0  0  0  0  0  0
  149.5277  142.0125  155.2797 N   0  3  0  0  0  0  0  0  0  0  0  0
  148.8755  141.2904  154.3435 C   0  0  0  0  0  0  0  0  0  0  0  0
  145.6079  136.3432  150.7479 C   0  0  0  0  0  0  0  0  0  0  0  0
  144.6004  135.2075  150.5016 C   0  0  0  0  0  0  0  0  0  0  0  0
  142.3111  131.6797  149.1939 H   0  0  0  0  0  0  0  0  0  0  0  0
  142.9515  133.1337  151.2499 H   0  0  0  0  0  0  0  0  0  0  0  0
  144.2322  132.0511  151.7482 H   0  0  0  0  0  0  0  0  0  0  0  0
  143.8206  134.7727  153.0908 H   0  0  0  0  0  0  0  0  0  0  0  0
  145.0534  133.5859  153.4611 H   0  0  0  0  0  0  0  0  0  0  0  0
  145.7705  135.8503  154.1744 H   0  0  0  0  0  0  0  0  0  0  0  0
  146.8521  135.1837  152.9744 H   0  0  0  0  0  0  0  0  0  0  0  0
  144.6172  137.2077  152.4438 H   0  0  0  0  0  0  0  0  0  0  0  0
  147.0526  138.1999  151.6147 H   0  0  0  0  0  0  0  0  0  0  0  0
  148.1806  139.4945  152.5727 H   0  0  0  0  0  0  0  0  0  0  0  0
  149.0096  138.2635  155.9298 H   0  0  0  0  0  0  0  0  0  0  0  0
  150.1739  139.6435  157.5826 H   0  0  0  0  0  0  0  0  0  0  0  0
  150.6692  141.7673  159.3406 H   0  0  0  0  0  0  0  0  0  0  0  0
  151.7751  140.8225  158.3365 H   0  0  0  0  0  0  0  0  0  0  0  0
  152.6794  142.9491  159.8616 H   0  0  0  0  0  0  0  0  0  0  0  0
  153.4124  142.4891  158.3263 H   0  0  0  0  0  0  0  0  0  0  0  0
  151.3434  144.6537  158.7900 H   0  0  0  0  0  0  0  0  0  0  0  0
  152.8332  144.7819  157.8527 H   0  0  0  0  0  0  0  0  0  0  0  0
  151.9104  143.4319  156.0655 H   0  0  0  0  0  0  0  0  0  0  0  0
  150.4688  144.3132  156.5975 H   0  0  0  0  0  0  0  0  0  0  0  0
  148.5590  141.8377  153.4673 H   0  0  0  0  0  0  0  0  0  0  0  0
  145.3732  137.1891  150.1006 H   0  0  0  0  0  0  0  0  0  0  0  0
  146.6067  136.0054  150.4670 H   0  0  0  0  0  0  0  0  0  0  0  0
  144.6684  134.8900  149.4604 H   0  0  0  0  0  0  0  0  0  0  0  0
  143.5813  135.5641  150.6593 H   0  0  0  0  0  0  0  0  0  0  0  0
  145.8074  133.7443  151.1956 H   0  0  0  0  0  0  0  0  0  0  0  0
  149.6770  143.0060  155.1028 H   0  0  0  0  0  0  0  0  0  0  0  0
  1  2  1  0  0  0  0
  1 26  1  0  0  0  0
  2  3  2  0  0  0  0
  2  4  1  0  0  0  0
  4  5  1  0  0  0  0
  4 27  1  0  0  0  0
  4 28  1  0  0  0  0
  5 25  1  0  0  0  0
  5  6  1  0  0  0  0
  5 51  1  0  0  0  0
  6  7  1  0  0  0  0
  6 29  1  0  0  0  0
  6 30  1  0  0  0  0
  7  8  1  0  0  0  0
  7 31  1  0  0  0  0
  7 32  1  0  0  0  0
  8  9  1  0  0  0  0
  8 24  1  0  0  0  0
  8 33  1  0  0  0  0
  9 10  1  0  0  0  0
  9 34  1  0  0  0  0
 10 11  2  0  0  0  0
 10 12  1  0  0  0  0
 12 13  1  0  0  0  0
 12 35  1  0  0  0  0
 13 23  1  0  0  0  0
 13 14  2  0  0  0  0
 14 15  1  0  0  0  0
 14 36  1  0  0  0  0
 15 16  2  0  0  0  0
 15 37  1  0  0  0  0
 16 17  1  0  0  0  0
 16 22  1  0  0  0  0
 17 21  1  0  0  0  0
 17 18  1  0  0  0  0
 18 19  1  0  0  0  0
 18 38  1  0  0  0  0
 18 39  1  0  0  0  0
 19 20  1  0  0  0  0
 19 40  1  0  0  0  0
 19 41  1  0  0  0  0
 20 21  1  0  0  0  0
 20 42  1  0  0  0  0
 20 43  1  0  0  0  0
 21 44  1  0  0  0  0
 21 45  1  0  0  0  0
 22 23  2  0  0  0  0
 22 52  1  0  0  0  0
 23 46  1  0  0  0  0
 24 25  1  0  0  0  0
 24 47  1  0  0  0  0
 24 48  1  0  0  0  0
 25 49  1  0  0  0  0
 25 50  1  0  0  0  0
M  CHG  1   1  -1
M  CHG  1   5   1
M  CHG  1  22   1
M  END
> <s_m_source_file>
AV-unprocessed.smi

> <i_m_source_file_index>
1911

> <i_lp_mmshare_version>
43012

> <i_f3d_flags>
0

> <s_epik_input>
W05IMl1DKD1PKVtDSDJdTjFbQ0gyXVtDSDJdW0NIXShbQ0gyXVtDSDJdMSlbTkhdQyg9TylbTkhdYzJbY0hdW2NIXWMobltjSF0yKU4zW0NIMl1bQ0gyXVtDSDJdW0NIMl0z

> <s_epik_cmdline>
J2VwaWtfcHl0aG9uJywgJy1waCcsICc3LjAnLCAnLXRuJywgJzgnLCAnLW1hJywgJzIwMCcsICctbWV0YWxfYmluZGluZycsICctaW1hZScsICc8aW5maWxlLm1hZT4nLCAnLW9tYWUnLCAnPG91dGZpbGUubWFlPic=

> <r_lp_tautomer_probability>
0.999994

> <r_epik_Ionization_Penalty>
6.97817

> <r_epik_Ionization_Penalty_Charging>
6.97815

> <r_epik_Ionization_Penalty_Neutral>
1.89299e-05

> <r_epik_State_Penalty>
7.80985

> <r_epik_Charging_Adjusted_Penalty>
14.788

> <i_epik_Tot_Q>
1

> <i_epik_Tot_abs_Q>
3

> <r_epik_Metal_State_Penalty>
3.85727

> <b_epik_Metal_Only>
1

> <s_lp_Force_Field>
OPLS_2005

> <r_lp_Energy>
40.2861

> <b_lp_Chiralities_Consistent>
1

> <s_lp_Variant>
AV-unprocessed.smi:1911-9

> <Gold.Version>
5.8.1

> <Gold.Id.Protein>
6NUR|6NUR_protein|mol2

> <Gold.PLP.Fitness>
54.8910

> <Gold.PLP.PLP>
-45.4925

> <Gold.PLP.part.hbond>
-5.3910

> <Gold.PLP.part.metal>
0.0000

> <Gold.PLP.part.buried>
-4.6107

> <Gold.PLP.part.nonpolar>
-36.9807

> <Gold.PLP.part.repulsive>
0.5353

> <Gold.PLP.ligand.clash>
0.0000

> <Gold.PLP.ligand.torsion>
0.5842

> <Gold.PLP.Chemscore.Hbond>
3.4080

> <Gold.PLP.Chemscore.CHOScore>
0.0000

> <Gold.PLP.Chemscore.Metal>
0.0000

> <Gold.Chemscore.Hbonds>
donor molecule, donor type, donor heavy atom, donor atom, acceptor molecule, acceptor atom, score
      L1  H     1    26       P1 10952  1.00
      L1  H    12    35       P1  7957  0.90
      L1  H    22    52       P1  8028  1.54

> <Gold.PLP.Chemscore.Internal.Correction>
0.3428

> <Gold.Rescore>
     Score         DG    S(hbond)    S(metal)    S(lipo)     H(rot)  DE(clash)    DE(int)     intcor
     17.98     -20.56       2.57        0.00      96.98       1.90       0.51       2.06       ----

> <Gold.Chemscore.Fitness>
17.9810

> <Gold.Chemscore.DG>
-20.5567

> <Gold.Chemscore.ZeroCoef>
-5.4800

> <Gold.Chemscore.Hbond>
2.5716

> <Gold.Chemscore.Metal>
0.0000

> <Gold.Chemscore.Lipo>
96.9769

> <Gold.Chemscore.Internal_Hbond>
0.0000

> <Gold.Chemscore.DEClash>
0.5114

> <Gold.Chemscore.DEInternal>
2.0642

> <Gold.Chemscore.Rot>
1.8979

> <Gold.Chemscore.Internal.Correction>
   9.000000E+99

> <Gold.Chemscore.Hbonds>
donor molecule, donor type, donor heavy atom, donor atom, acceptor molecule, acceptor atom, score
      L1  H     1    26       P1 10952  0.93
      L1  H    12    35       P1  7957  0.82
      L1  H    22    52       P1  8028  0.75

> <Gold.Chemscore.Hbond.Weighted>
-8.5891

> <Gold.Chemscore.Metal.Weighted>
-0.0000

> <Gold.Chemscore.Lipo.Weighted>
-11.3463

> <Gold.Chemscore.Internal_Hbond.Weighted>
0.0000

> <Gold.Chemscore.DEClash.Weighted>
0.5114

> <Gold.Chemscore.DEInternal.Weighted>
2.0642

> <Gold.Chemscore.Rot.Weighted>
4.8587

> <Gold.Chemscore.Internal.Correction.Weighted>
   9.000000E+99

> <Gold.Protein.RotatedTorsions>
[ 6907 6896 6895 6894 ] final -144.96 input  -60.11 | X-H torsion
[ 7974 7965 7964 7962 ] final -150.02 input  175.53 | X-H torsion
[ 8008 7997 7996 7995 ] final  149.94 input   59.86 | X-H torsion
[ 10167 10162 10161 10158 ] final -124.76 input  -65.29 | X-H torsion
[ 10718 10713 10712 10709 ] final -170.16 input   66.30 | X-H torsion
[ 10763 10752 10751 10750 ] final   11.25 input  -60.55 | X-H torsion
[ 11005 11000 10999 10996 ] final -145.51 input  -57.11 | X-H torsion

> <Gold.Protein.ActiveResidues>
 VAL166  LYS551  ARG553  GLY616  TRP617  ASP618  TYR619  PRO620  LYS621  CYS622 
 ASP623  PHE694  ASN695  SER759  ASP760  ASP761  ALA762  ILE779  LEU786  VAL792 
 PHE793  MET794  SER795  GLU796  ALA797  LYS798  CYS799  TRP800  GLU811  SER814 

> <Gold.Protein.RotatedAtoms>
  151.1212  133.5102  159.2601 H   0  0  0  0  0  0  0  0  0  0  0  0  # atno 6907 bound_to 6896
  151.1859  135.0381  159.8822 H   0  0  0  0  0  0  0  0  0  0  0  0  # atno 6908 bound_to 6896
  152.5456  134.1058  159.8391 H   0  0  0  0  0  0  0  0  0  0  0  0  # atno 6909 bound_to 6896
  144.7932  140.4988  143.5758 H   0  0  0  0  0  0  0  0  0  0  0  0  # atno 7974 bound_to 7965
  156.2735  140.2088  156.5938 H   0  0  0  0  0  0  0  0  0  0  0  0  # atno 8008 bound_to 7997
  154.6961  140.0525  157.0436 H   0  0  0  0  0  0  0  0  0  0  0  0  # atno 8009 bound_to 7997
  155.0799  140.3185  155.4608 H   0  0  0  0  0  0  0  0  0  0  0  0  # atno 8010 bound_to 7997
  139.9894  143.5657  152.2348 H   0  0  0  0  0  0  0  0  0  0  0  0  # atno 10167 bound_to 10162
  156.7222  130.9274  151.3098 H   0  0  0  0  0  0  0  0  0  0  0  0  # atno 10718 bound_to 10713
  153.1946  135.6847  153.8308 H   0  0  0  0  0  0  0  0  0  0  0  0  # atno 10763 bound_to 10752
  153.7596  135.3212  155.3336 H   0  0  0  0  0  0  0  0  0  0  0  0  # atno 10764 bound_to 10752
  154.8137  135.4700  154.0684 H   0  0  0  0  0  0  0  0  0  0  0  0  # atno 10765 bound_to 10752
  140.7915  134.2963  157.5012 H   0  0  0  0  0  0  0  0  0  0  0  0  # atno 11005 bound_to 11000
  145.5739  139.1485  143.3273 LP  0  0  0  0  0  0  0  0  0  0  0  0  # atno 17320 bound_to 7965
  146.2192  140.5872  142.9025 LP  0  0  0  0  0  0  0  0  0  0  0  0  # atno 17321 bound_to 7965
  139.6351  144.7649  151.2454 LP  0  0  0  0  0  0  0  0  0  0  0  0  # atno 17342 bound_to 10162
  140.7460  143.6412  150.8333 LP  0  0  0  0  0  0  0  0  0  0  0  0  # atno 17343 bound_to 10162
  157.6893  130.9217  150.0471 LP  0  0  0  0  0  0  0  0  0  0  0  0  # atno 17370 bound_to 10713
  156.1587  130.3643  149.9331 LP  0  0  0  0  0  0  0  0  0  0  0  0  # atno 17371 bound_to 10713
  139.8731  134.9377  156.3695 LP  0  0  0  0  0  0  0  0  0  0  0  0  # atno 17394 bound_to 11000
  140.9385  133.7531  156.0116 LP  0  0  0  0  0  0  0  0  0  0  0  0  # atno 17395 bound_to 11000

$$$$
