#       Name:                AV-unprocessed.smi:156
#       Creating user name   scv26
#       Creation time:       Thu Mar 26 18:56:57 2020


#       File generated by GOLD software.
#

@<TRIPOS>MOLECULE
AV-unprocessed.smi:156
    58    60     1
SMALL
NO_CHARGES


@<TRIPOS>ATOM
      1 ****        -3.0842  -2.1275   2.8276 C.3            1 S1                 0.0000
      2 ****        -2.6548  -1.7176   1.4041 C.3            1 S1                 0.0000
      3 ****        -3.3800  -2.5139   0.2805 C.3            1 S1                 0.0000
      4 ****        -4.9144  -2.4702   0.4118 C.3            1 S1                 0.0000
      5 ****        -2.8947  -1.9418  -1.4312 S.o2           1 S1                 0.0000
      6 ****        -3.1846  -0.1226  -1.3734 C.3            1 S1                 0.0000
      7 ****        -1.4542  -2.1578  -1.6331 O.2            1 S1                 0.0000
      8 ****        -3.8483  -2.5075  -2.3979 O.2            1 S1                 0.0000
      9 ****        -1.1936  -1.7938   1.2763 N.pl3          1 S1                 0.0000
     10 ****        -0.5007  -3.0768   1.3574 C.3            1 S1                 0.0000
     11 ****        -0.4388  -0.6633   1.3233 C.ar           1 S1                 0.0000
     12 ****        -0.8950   0.4104   2.0218 N.ar           1 S1                 0.0000
     13 ****        -0.1770   1.5347   2.0863 C.ar           1 S1                 0.0000
     14 ****         1.0035   1.8025   1.5277 N.ar           1 S1                 0.0000
     15 ****         1.4665   0.7361   0.8149 C.ar           1 S1                 0.0000
     16 ****         0.8214  -0.5259   0.6703 C.ar           1 S1                 0.0000
     17 ****         1.6013  -1.3597  -0.1229 N.2            1 S1                 0.0000
     18 ****         2.6434  -0.6360  -0.4253 C.2            1 S1                 0.0000
     19 ****         2.6362   0.6448   0.0791 N.pl3          1 S1                 0.0000
     20 ****         3.6600   1.6651  -0.1048 C.3            1 S1                 0.0000
     21 ****         3.4942   2.5348  -1.3756 C.3            1 S1                 0.0000
     22 ****         4.5883   3.6115  -1.3633 C.3            1 S1                 0.0000
     23 ****         4.3739   4.5522  -0.3303 O.3            1 S1                 0.0000
     24 ****         3.3479   1.7697  -2.7021 C.3            1 S1                 0.0000
     25 ****         1.9207   1.9803  -2.7290 O.3            1 S1                 0.0000
     26 ****         2.0766   3.0142  -1.7343 C.3            1 S1                 0.0000
     27 ****        -4.1287  -1.8825   3.0178 H              1 S1                 0.0000
     28 ****        -2.4976  -1.5989   3.5797 H              1 S1                 0.0000
     29 ****        -2.9570  -3.1963   2.9990 H              1 S1                 0.0000
     30 ****        -2.9682  -0.6815   1.2842 H              1 S1                 0.0000
     31 ****        -3.0824  -3.5612   0.3380 H              1 S1                 0.0000
     32 ****        -5.2529  -2.9460   1.3315 H              1 S1                 0.0000
     33 ****        -5.3991  -3.0045  -0.4051 H              1 S1                 0.0000
     34 ****        -5.2882  -1.4465   0.4080 H              1 S1                 0.0000
     35 ****        -3.0128   0.2958  -2.3647 H              1 S1                 0.0000
     36 ****        -2.4928   0.3446  -0.6736 H              1 S1                 0.0000
     37 ****        -4.2107   0.0835  -1.0721 H              1 S1                 0.0000
     38 ****         0.3675  -3.0130   2.0143 H              1 S1                 0.0000
     39 ****        -0.1638  -3.3918   0.3700 H              1 S1                 0.0000
     40 ****        -1.1519  -3.8580   1.7476 H              1 S1                 0.0000
     41 ****        -0.6119   2.3350   2.6666 H              1 S1                 0.0000
     42 ****         3.4479  -1.0209  -1.0343 H              1 S1                 0.0000
     43 ****         3.6648   2.2857   0.7917 H              1 S1                 0.0000
     44 ****         4.6275   1.1615  -0.1181 H              1 S1                 0.0000
     45 ****         5.5764   3.1671  -1.2393 H              1 S1                 0.0000
     46 ****         4.6098   4.1556  -2.3083 H              1 S1                 0.0000
     47 ****         5.0518   5.2092  -0.3755 H              1 S1                 0.0000
     48 ****         3.8392   2.2517  -3.5491 H              1 S1                 0.0000
     49 ****         3.6229   0.7170  -2.6559 H              1 S1                 0.0000
     50 ****         1.3487   2.9431  -0.9281 H              1 S1                 0.0000
     51 ****         2.0498   4.0090  -2.1825 H              1 S1                 0.0000
     52 ****        -1.7763   0.3578   2.4915 LP             1 S1                 0.0000
     53 ****         1.4870   2.6730   1.6195 LP             1 S1                 0.0000
     54 ****         1.4072  -2.3010  -0.3990 LP             1 S1                 0.0000
     55 ****         4.4091   4.0922   0.5569 LP             1 S1                 0.0000
     56 ****         3.4789   4.9829  -0.4472 LP             1 S1                 0.0000
     57 ****         1.3830   1.1941  -2.4243 LP             1 S1                 0.0000
     58 ****         1.5692   2.3042  -3.6074 LP             1 S1                 0.0000
@<TRIPOS>BOND
    1    1    2 1     
    2    1   27 1     
    3    1   28 1     
    4    1   29 1     
    5    2    3 1     
    6    2    9 1     
    7    2   30 1     
    8    3    4 1     
    9    3    5 1     
   10    3   31 1     
   11    4   32 1     
   12    4   33 1     
   13    4   34 1     
   14    5    6 1     
   15    5    7 2     
   16    5    8 2     
   17    6   35 1     
   18    6   36 1     
   19    6   37 1     
   20    9   10 1     
   21    9   11 1     
   22   10   38 1     
   23   10   39 1     
   24   10   40 1     
   25   11   16 ar    
   26   11   12 ar    
   27   12   13 ar    
   28   13   14 ar    
   29   13   41 1     
   30   14   15 ar    
   31   15   19 1     
   32   15   16 ar    
   33   16   17 1     
   34   17   18 2     
   35   18   19 1     
   36   18   42 1     
   37   19   20 1     
   38   20   21 1     
   39   20   43 1     
   40   20   44 1     
   41   21   26 1     
   42   21   22 1     
   43   21   24 1     
   44   22   23 1     
   45   22   45 1     
   46   22   46 1     
   47   23   47 1     
   48   24   25 1     
   49   24   48 1     
   50   24   49 1     
   51   25   26 1     
   52   26   50 1     
   53   26   51 1     
   54   12   52 1     
   55   14   53 1     
   56   17   54 1     
   57   23   55 1     
   58   23   56 1     
   59   25   57 1     
   60   25   58 1     
@<TRIPOS>SUBSTRUCTURE
      1 S1             1
@<TRIPOS>SET
LONE_PAIRS      STATIC     ATOMS    <user>   **** ""
9 7 8 52 53 54 55 56 57 58
DONOR_HYDROGENS      STATIC     ATOMS    <user>   **** ""
1 47
ATOM$BLUE        STATIC     ATOMS    COLORGROUP SYSTEM
9 7 8 52 53 54 55 56 57 58
ATOM$RED        STATIC     ATOMS    COLORGROUP SYSTEM
1 47
