AV-unprocessed.smi:3002|AV-procd|sdf|11435|dock1
  -GOLD-   2272016363D 1   1.00000     0.00000
 Structure written by MMmdl.
 34 35  0  0  0  0  0  0  0  0  1 V2000
  150.2816  138.6678  154.4355 C   0  0  0  0  0  0  0  0  0  0  0  0
  149.9534  140.1221  154.8315 C   0  0  2  0  0  0  0  0  0  0  0  0
  149.9227  140.3361  156.3527 C   0  0  0  0  0  0  0  0  0  0  0  0
  149.1320  139.7122  157.0615 O   0  0  0  0  0  0  0  0  0  0  0  0
  150.7765  141.2529  156.8363 N   0  0  0  0  0  0  0  0  0  0  0  0
  150.8302  141.7153  158.2190 C   0  0  0  0  0  0  0  0  0  0  0  0
  152.2645  141.6575  158.7808 C   0  0  1  0  0  0  0  0  0  0  0  0
  152.4372  142.3660  160.1423 C   0  0  0  0  0  0  0  0  0  0  0  0
  153.8057  141.9949  160.7210 C   0  0  0  0  0  0  0  0  0  0  0  0
  154.1292  140.2796  160.1683 S   0  0  0  0  0  0  0  0  0  0  0  0
  155.4234  140.2382  159.4709 O   0  0  0  0  0  0  0  0  0  0  0  0
  153.8285  139.3449  161.2630 O   0  0  0  0  0  0  0  0  0  0  0  0
  152.7697  140.2152  158.9402 C   0  0  0  0  0  0  0  0  0  0  0  0
  148.7011  140.5834  154.2434 N   0  0  0  0  0  0  0  0  0  0  0  0
  148.1210  141.7846  154.2938 C   0  0  0  0  0  0  0  0  0  0  0  0
  146.9407  141.8392  153.6928 N   0  0  0  0  0  0  0  0  0  0  0  0
  146.8402  140.5443  153.2699 C   0  0  0  0  0  0  0  0  0  0  0  0
  147.8614  139.7471  153.5827 N   0  0  0  0  0  0  0  0  0  0  0  0
  151.2471  138.3591  154.8376 H   0  0  0  0  0  0  0  0  0  0  0  0
  150.3326  138.5633  153.3514 H   0  0  0  0  0  0  0  0  0  0  0  0
  149.5320  137.9639  154.7993 H   0  0  0  0  0  0  0  0  0  0  0  0
  150.7484  140.7538  154.4312 H   0  0  0  0  0  0  0  0  0  0  0  0
  151.3967  141.7094  156.1832 H   0  0  0  0  0  0  0  0  0  0  0  0
  150.4217  142.7230  158.3136 H   0  0  0  0  0  0  0  0  0  0  0  0
  150.1809  141.0685  158.8096 H   0  0  0  0  0  0  0  0  0  0  0  0
  152.9299  142.1555  158.0734 H   0  0  0  0  0  0  0  0  0  0  0  0
  152.3322  143.4482  160.0580 H   0  0  0  0  0  0  0  0  0  0  0  0
  151.6587  142.0230  160.8254 H   0  0  0  0  0  0  0  0  0  0  0  0
  154.5859  142.6353  160.3090 H   0  0  0  0  0  0  0  0  0  0  0  0
  153.8408  142.0559  161.8090 H   0  0  0  0  0  0  0  0  0  0  0  0
  151.9901  139.5685  159.3439 H   0  0  0  0  0  0  0  0  0  0  0  0
  153.1281  139.7837  158.0056 H   0  0  0  0  0  0  0  0  0  0  0  0
  148.5672  142.6350  154.7881 H   0  0  0  0  0  0  0  0  0  0  0  0
  145.9854  140.1762  152.7218 H   0  0  0  0  0  0  0  0  0  0  0  0
  1  2  1  0  0  0  0
  1 19  1  0  0  0  0
  1 20  1  0  0  0  0
  1 21  1  0  0  0  0
  2  3  1  0  0  0  0
  2 14  1  0  0  0  0
  2 22  1  0  0  0  0
  3  4  2  0  0  0  0
  3  5  1  0  0  0  0
  5  6  1  0  0  0  0
  5 23  1  0  0  0  0
  6  7  1  0  0  0  0
  6 24  1  0  0  0  0
  6 25  1  0  0  0  0
  7 13  1  0  0  0  0
  7  8  1  0  0  0  0
  7 26  1  0  0  0  0
  8  9  1  0  0  0  0
  8 27  1  0  0  0  0
  8 28  1  0  0  0  0
  9 10  1  0  0  0  0
  9 29  1  0  0  0  0
  9 30  1  0  0  0  0
 10 11  2  0  0  0  0
 10 12  2  0  0  0  0
 10 13  1  0  0  0  0
 13 31  1  0  0  0  0
 13 32  1  0  0  0  0
 14 18  1  0  0  0  0
 14 15  1  0  0  0  0
 15 16  2  0  0  0  0
 15 33  1  0  0  0  0
 16 17  1  0  0  0  0
 17 18  2  0  0  0  0
 17 34  1  0  0  0  0
M  END
> <s_m_source_file>
AV-unprocessed.smi

> <i_m_source_file_index>
3002

> <i_lp_mmshare_version>
43012

> <i_f3d_flags>
0

> <s_epik_input>
bjFbY0hdbltjSF1uMVtDQEhdKFtDSDNdKUMoPU8pW05IXVtDSDJdW0NAQEhdKFtDSDJdMilbQ0gyXVtDSDJdUzIoPU8pPU8=

> <s_epik_cmdline>
J2VwaWtfcHl0aG9uJywgJy1waCcsICc3LjAnLCAnLXRuJywgJzgnLCAnLW1hJywgJzIwMCcsICctbWV0YWxfYmluZGluZycsICctaW1hZScsICc8aW5maWxlLm1hZT4nLCAnLW9tYWUnLCAnPG91dGZpbGUubWFlPic=

> <r_lp_tautomer_probability>
1

> <r_epik_Ionization_Penalty>
1.1748e-05

> <r_epik_Ionization_Penalty_Charging>
0

> <r_epik_Ionization_Penalty_Neutral>
1.1748e-05

> <r_epik_State_Penalty>
-0

> <r_epik_Charging_Adjusted_Penalty>
0

> <i_epik_Tot_Q>
0

> <i_epik_Tot_abs_Q>
0

> <r_epik_Metal_State_Penalty>
-0

> <b_epik_Metal_Only>
0

> <s_lp_Force_Field>
OPLS_2005

> <r_lp_Energy>
9.21474

> <b_lp_Chiralities_Consistent>
1

> <s_lp_Variant>
AV-unprocessed.smi:3002-3

> <Gold.Version>
5.8.1

> <Gold.Id.Protein>
6NUR|6NUR_protein|mol2

> <Gold.PLP.Fitness>
39.2195

> <Gold.PLP.PLP>
-30.4556

> <Gold.PLP.part.hbond>
-1.0000

> <Gold.PLP.part.metal>
0.0000

> <Gold.PLP.part.buried>
-4.3032

> <Gold.PLP.part.nonpolar>
-27.4944

> <Gold.PLP.part.repulsive>
1.6563

> <Gold.PLP.ligand.clash>
0.0000

> <Gold.PLP.ligand.torsion>
0.1768

> <Gold.PLP.Chemscore.Hbond>
0.9913

> <Gold.PLP.Chemscore.CHOScore>
2.0000

> <Gold.PLP.Chemscore.Metal>
0.0000

> <Gold.Chemscore.Hbonds>
donor molecule, donor type, donor heavy atom, donor atom, acceptor molecule, acceptor atom, score
      P1  H  7997  8009       L1    11  0.75
      L1  C    15    33       P1  8028  1.00
      L1  C    17    34       P1 10175  1.00

> <Gold.PLP.Chemscore.Internal.Correction>
0.1436

> <Gold.Rescore>
     Score         DG    S(hbond)    S(metal)    S(lipo)     H(rot)  DE(clash)    DE(int)     intcor
      8.41      -8.76       0.97        0.00      52.63       2.39       0.06       0.28       ----

> <Gold.Chemscore.Fitness>
8.4131

> <Gold.Chemscore.DG>
-8.7566

> <Gold.Chemscore.ZeroCoef>
-5.4800

> <Gold.Chemscore.Hbond>
0.9728

> <Gold.Chemscore.Metal>
0.0000

> <Gold.Chemscore.Lipo>
52.6291

> <Gold.Chemscore.Internal_Hbond>
0.0000

> <Gold.Chemscore.DEClash>
0.0618

> <Gold.Chemscore.DEInternal>
0.2817

> <Gold.Chemscore.Rot>
2.3946

> <Gold.Chemscore.Internal.Correction>
   9.000000E+99

> <Gold.Chemscore.Hbonds>
donor molecule, donor type, donor heavy atom, donor atom, acceptor molecule, acceptor atom, score
      P1  H  7997  8009       L1    11  0.70

> <Gold.Chemscore.Hbond.Weighted>
-3.2491

> <Gold.Chemscore.Metal.Weighted>
-0.0000

> <Gold.Chemscore.Lipo.Weighted>
-6.1576

> <Gold.Chemscore.Internal_Hbond.Weighted>
0.0000

> <Gold.Chemscore.DEClash.Weighted>
0.0618

> <Gold.Chemscore.DEInternal.Weighted>
0.2817

> <Gold.Chemscore.Rot.Weighted>
6.1301

> <Gold.Chemscore.Internal.Correction.Weighted>
   9.000000E+99

> <Gold.Protein.RotatedTorsions>
[ 6907 6896 6895 6894 ] final  139.89 input  -60.11 | X-H torsion
[ 7974 7965 7964 7962 ] final   73.18 input  175.53 | X-H torsion
[ 8008 7997 7996 7995 ] final  102.12 input   59.86 | X-H torsion
[ 10167 10162 10161 10158 ] final    8.20 input  -65.29 | X-H torsion
[ 10718 10713 10712 10709 ] final   43.52 input   66.30 | X-H torsion
[ 10763 10752 10751 10750 ] final -112.27 input  -60.55 | X-H torsion
[ 11005 11000 10999 10996 ] final  136.43 input  -57.11 | X-H torsion

> <Gold.Protein.ActiveResidues>
 VAL166  LYS551  ARG553  GLY616  TRP617  ASP618  TYR619  PRO620  LYS621  CYS622 
 ASP623  PHE694  ASN695  SER759  ASP760  ASP761  ALA762  ILE779  LEU786  VAL792 
 PHE793  MET794  SER795  GLU796  ALA797  LYS798  CYS799  TRP800  GLU811  SER814 

> <Gold.Protein.RotatedAtoms>
  152.2496  133.5203  159.5317 H   0  0  0  0  0  0  0  0  0  0  0  0  # atno 6907 bound_to 6896
  150.7089  134.0978  159.3964 H   0  0  0  0  0  0  0  0  0  0  0  0  # atno 6908 bound_to 6896
  151.8898  135.0421  160.0547 H   0  0  0  0  0  0  0  0  0  0  0  0  # atno 6909 bound_to 6896
  145.7441  139.2733  143.1469 H   0  0  0  0  0  0  0  0  0  0  0  0  # atno 7974 bound_to 7965
  156.1363  140.3186  155.8426 H   0  0  0  0  0  0  0  0  0  0  0  0  # atno 8008 bound_to 7997
  155.4238  140.0514  157.3041 H   0  0  0  0  0  0  0  0  0  0  0  0  # atno 8009 bound_to 7997
  154.4940  140.2103  155.9500 H   0  0  0  0  0  0  0  0  0  0  0  0  # atno 8010 bound_to 7997
  140.6328  143.7955  150.7318 H   0  0  0  0  0  0  0  0  0  0  0  0  # atno 10167 bound_to 10162
  157.4168  130.7946  149.7479 H   0  0  0  0  0  0  0  0  0  0  0  0  # atno 10718 bound_to 10713
  154.8341  135.4497  154.1167 H   0  0  0  0  0  0  0  0  0  0  0  0  # atno 10763 bound_to 10752
  153.2414  135.6917  153.7785 H   0  0  0  0  0  0  0  0  0  0  0  0  # atno 10764 bound_to 10752
  153.7131  135.3353  155.3226 H   0  0  0  0  0  0  0  0  0  0  0  0  # atno 10765 bound_to 10752
  140.0046  134.9464  157.0146 H   0  0  0  0  0  0  0  0  0  0  0  0  # atno 11005 bound_to 11000
  146.0420  140.8156  142.9824 LP  0  0  0  0  0  0  0  0  0  0  0  0  # atno 17320 bound_to 7965
  144.6864  140.2924  143.7276 LP  0  0  0  0  0  0  0  0  0  0  0  0  # atno 17321 bound_to 7965
  140.1570  143.4308  152.2093 LP  0  0  0  0  0  0  0  0  0  0  0  0  # atno 17342 bound_to 10162
  139.5540  144.7359  151.4348 LP  0  0  0  0  0  0  0  0  0  0  0  0  # atno 17343 bound_to 10162
  155.9868  130.3972  150.3197 LP  0  0  0  0  0  0  0  0  0  0  0  0  # atno 17370 bound_to 10713
  157.1341  131.0279  151.2956 LP  0  0  0  0  0  0  0  0  0  0  0  0  # atno 17371 bound_to 10713
  140.4665  134.1430  155.7197 LP  0  0  0  0  0  0  0  0  0  0  0  0  # atno 17394 bound_to 11000
  141.1667  133.8689  157.1693 LP  0  0  0  0  0  0  0  0  0  0  0  0  # atno 17395 bound_to 11000

$$$$
