#       Name:                AV-unprocessed.smi:1906
#       Creating user name   scv26
#       Creation time:       Fri Mar 27 09:47:12 2020


#       File generated by GOLD software.
#

@<TRIPOS>MOLECULE
AV-unprocessed.smi:1906
    38    40     1
SMALL
NO_CHARGES


@<TRIPOS>ATOM
      1 ****        -1.6384  -0.1740  -2.1520 C.3            1 S1                 0.0000
      2 ****        -1.4498   0.5999  -0.8903 C.2            1 S1                 0.0000
      3 ****        -1.4979   1.9569  -0.7711 N.pl3          1 S1                 1.0000
      4 ****        -1.2721   2.3233   0.5564 C.ar           1 S1                 0.0000
      5 ****        -1.2245   3.5753   1.1618 C.ar           1 S1                 0.0000
      6 ****        -0.9708   3.5980   2.5491 C.ar           1 S1                 0.0000
      7 ****        -0.7760   2.4078   3.2799 C.ar           1 S1                 0.0000
      8 ****        -0.8264   1.1443   2.6551 C.ar           1 S1                 0.0000
      9 ****        -1.0770   1.1312   1.2833 C.ar           1 S1                 0.0000
     10 ****        -1.1906   0.0947   0.3504 N.pl3          1 S1                 0.0000
     11 ****        -1.0232  -1.2960   0.8001 C.3            1 S1                 0.0000
     12 ****         0.4562  -1.6873   0.9925 C.3            1 S1                 0.0000
     13 ****         0.4983  -2.9727   1.5764 O.3            1 S1                 0.0000
     14 ****         1.2462  -1.6132  -0.3066 C.ar           1 S1                 0.0000
     15 ****         1.1719  -2.6540  -1.2590 C.ar           1 S1                 0.0000
     16 ****         1.8910  -2.5633  -2.4667 C.ar           1 S1                 0.0000
     17 ****         2.6856  -1.4314  -2.7307 C.ar           1 S1                 0.0000
     18 ****         2.7617  -0.3900  -1.7862 C.ar           1 S1                 0.0000
     19 ****         3.5207   0.7018  -2.0410 F              1 S1                 0.0000
     20 ****         2.0450  -0.4813  -0.5776 C.ar           1 S1                 0.0000
     21 ****        -1.9541   0.4847  -2.9613 H              1 S1                 0.0000
     22 ****        -2.3995  -0.9424  -2.0158 H              1 S1                 0.0000
     23 ****        -0.7045  -0.6544  -2.4427 H              1 S1                 0.0000
     24 ****        -1.3738   4.4885   0.6045 H              1 S1                 0.0000
     25 ****        -0.9252   4.5473   3.0633 H              1 S1                 0.0000
     26 ****        -0.5843   2.4649   4.3418 H              1 S1                 0.0000
     27 ****        -0.6762   0.2379   3.2231 H              1 S1                 0.0000
     28 ****        -1.5821  -1.4173   1.7292 H              1 S1                 0.0000
     29 ****        -1.5007  -1.9492   0.0689 H              1 S1                 0.0000
     30 ****         0.9173  -1.0120   1.7140 H              1 S1                 0.0000
     31 ****         1.3980  -3.1823   1.7764 H              1 S1                 0.0000
     32 ****         0.5582  -3.5229  -1.0700 H              1 S1                 0.0000
     33 ****         1.8306  -3.3615  -3.1920 H              1 S1                 0.0000
     34 ****         3.2349  -1.3616  -3.6581 H              1 S1                 0.0000
     35 ****         2.1033   0.3254   0.1383 H              1 S1                 0.0000
     36 ****        -1.6728   2.5851  -1.5449 H              1 S1                 0.0000
     37 ****         0.1295  -3.6463   0.9359 LP             1 S1                 0.0000
     38 ****        -0.0443  -2.9795   2.4164 LP             1 S1                 0.0000
@<TRIPOS>BOND
    1    1    2 1     
    2    1   21 1     
    3    1   22 1     
    4    1   23 1     
    5    2   10 1     
    6    2    3 2     
    7    3    4 1     
    8    3   36 1     
    9    4    9 ar    
   10    4    5 ar    
   11    5    6 ar    
   12    5   24 1     
   13    6    7 ar    
   14    6   25 1     
   15    7    8 ar    
   16    7   26 1     
   17    8    9 ar    
   18    8   27 1     
   19    9   10 1     
   20   10   11 1     
   21   11   12 1     
   22   11   28 1     
   23   11   29 1     
   24   12   13 1     
   25   12   14 1     
   26   12   30 1     
   27   13   31 1     
   28   14   20 ar    
   29   14   15 ar    
   30   15   16 ar    
   31   15   32 1     
   32   16   17 ar    
   33   16   33 1     
   34   17   18 ar    
   35   17   34 1     
   36   18   19 1     
   37   18   20 ar    
   38   20   35 1     
   39   13   37 1     
   40   13   38 1     
@<TRIPOS>SUBSTRUCTURE
      1 S1             1
@<TRIPOS>SET
LONE_PAIRS      STATIC     ATOMS    <user>   **** ""
2 37 38
DONOR_HYDROGENS      STATIC     ATOMS    <user>   **** ""
2 36 31
ATOM$BLUE        STATIC     ATOMS    COLORGROUP SYSTEM
2 37 38
ATOM$RED        STATIC     ATOMS    COLORGROUP SYSTEM
2 36 31
