#       Name:                AV-unprocessed.smi:100
#       Creating user name   scv26
#       Creation time:       Thu Mar 26 17:40:26 2020


#       File generated by GOLD software.
#

@<TRIPOS>MOLECULE
AV-unprocessed.smi:100
    40    42     1
SMALL
NO_CHARGES


@<TRIPOS>ATOM
      1 ****        -4.9536   0.1335  -0.4285 N.pl3          1 S1                 0.0000
      2 ****        -3.6460   0.4191  -0.3592 C.ar           1 S1                 0.0000
      3 ****        -3.2752   1.7186  -0.2797 N.ar           1 S1                 0.0000
      4 ****        -1.9766   2.0289  -0.2090 C.ar           1 S1                 0.0000
      5 ****        -0.9214   1.2103  -0.2041 N.ar           1 S1                 0.0000
      6 ****        -1.2967  -0.0993  -0.2845 C.ar           1 S1                 0.0000
      7 ****        -2.6349  -0.5749  -0.3647 C.ar           1 S1                 0.0000
      8 ****        -2.6410  -1.9614  -0.4331 N.2            1 S1                 0.0000
      9 ****        -1.3755  -2.2825  -0.3972 C.2            1 S1                 0.0000
     10 ****        -0.4974  -1.2245  -0.3050 N.pl3          1 S1                 0.0000
     11 ****         0.9944  -1.2853  -0.2451 C.3            1 S1                 0.0000
     12 ****         1.5076  -0.3189  -1.1106 O.3            1 S1                 0.0000
     13 ****         2.7028   0.2375  -0.5603 C.3            1 S1                 0.0000
     14 ****         2.6205   1.7775  -0.5498 C.3            1 S1                 0.0000
     15 ****         1.9289   2.2834   0.5734 O.3            1 S1                 0.0000
     16 ****         2.9088  -0.4378   0.8046 C.3            1 S1                 0.0000
     17 ****         3.7404  -1.4682   0.6231 F              1 S1                 0.0000
     18 ****         1.5109  -0.9318   1.1486 C.3            1 S1                 0.0000
     19 ****         1.5682  -2.0332   2.0337 O.3            1 S1                 0.0000
     20 ****        -5.2554  -0.8284  -0.4881 H              1 S1                 0.0000
     21 ****        -5.6336   0.8797  -0.4205 H              1 S1                 0.0000
     22 ****        -1.7495   3.0829  -0.1473 H              1 S1                 0.0000
     23 ****        -1.0449  -3.3105  -0.4345 H              1 S1                 0.0000
     24 ****         1.2746  -2.2845  -0.5841 H              1 S1                 0.0000
     25 ****         3.5169  -0.0402  -1.2317 H              1 S1                 0.0000
     26 ****         3.6279   2.1928  -0.5186 H              1 S1                 0.0000
     27 ****         2.1562   2.1445  -1.4656 H              1 S1                 0.0000
     28 ****         1.8944   3.2254   0.5058 H              1 S1                 0.0000
     29 ****         3.3494   0.2068   1.5658 H              1 S1                 0.0000
     30 ****         0.9136  -0.1248   1.5745 H              1 S1                 0.0000
     31 ****         0.6866  -2.3344   2.1922 H              1 S1                 0.0000
     32 ****        -3.9670   2.4407  -0.2739 LP             1 S1                 0.0000
     33 ****         0.0280   1.5193  -0.1483 LP             1 S1                 0.0000
     34 ****        -3.4304  -2.5721  -0.4954 LP             1 S1                 0.0000
     35 ****         0.8311   0.4066  -1.2368 LP             1 S1                 0.0000
     36 ****         1.7135  -0.7400  -1.9939 LP             1 S1                 0.0000
     37 ****         2.4095   2.0228   1.4107 LP             1 S1                 0.0000
     38 ****         1.0004   1.9125   0.5928 LP             1 S1                 0.0000
     39 ****         1.9892  -1.7520   2.8960 LP             1 S1                 0.0000
     40 ****         2.1077  -2.7685   1.6235 LP             1 S1                 0.0000
@<TRIPOS>BOND
    1    1    2 1     
    2    1   20 1     
    3    1   21 1     
    4    2    7 ar    
    5    2    3 ar    
    6    3    4 ar    
    7    4    5 ar    
    8    4   22 1     
    9    5    6 ar    
   10    6   10 1     
   11    6    7 ar    
   12    7    8 1     
   13    8    9 2     
   14    9   10 1     
   15    9   23 1     
   16   10   11 1     
   17   11   18 1     
   18   11   12 1     
   19   11   24 1     
   20   12   13 1     
   21   13   14 1     
   22   13   16 1     
   23   13   25 1     
   24   14   15 1     
   25   14   26 1     
   26   14   27 1     
   27   15   28 1     
   28   16   17 1     
   29   16   18 1     
   30   16   29 1     
   31   18   19 1     
   32   18   30 1     
   33   19   31 1     
   34    3   32 1     
   35    5   33 1     
   36    8   34 1     
   37   12   35 1     
   38   12   36 1     
   39   15   37 1     
   40   15   38 1     
   41   19   39 1     
   42   19   40 1     
@<TRIPOS>SUBSTRUCTURE
      1 S1             1
@<TRIPOS>SET
LONE_PAIRS      STATIC     ATOMS    <user>   **** ""
9 32 33 34 35 36 37 38 39 40
DONOR_HYDROGENS      STATIC     ATOMS    <user>   **** ""
4 20 21 28 31
ATOM$BLUE        STATIC     ATOMS    COLORGROUP SYSTEM
9 32 33 34 35 36 37 38 39 40
ATOM$RED        STATIC     ATOMS    COLORGROUP SYSTEM
4 20 21 28 31
