AV-unprocessed.smi:3279|AV-procd|sdf|12551|dock1
  -GOLD-   2272018463D 1   1.00000     0.00000
 Structure written by MMmdl.
 36 36  0  0  0  0  0  0  0  0  1 V2000
  155.6954  137.7022  163.5934 C   0  0  0  0  0  0  0  0  0  0  0  0
  154.6546  138.2834  162.6200 C   0  0  1  0  0  0  0  0  0  0  0  0
  155.0931  139.6115  161.9669 C   0  0  0  0  0  0  0  0  0  0  0  0
  153.9643  140.3617  161.4242 N   0  0  0  0  0  0  0  0  0  0  0  0
  153.7273  140.5877  160.1224 C   0  0  0  0  0  0  0  0  0  0  0  0
  154.4468  140.1696  159.2157 O   0  0  0  0  0  0  0  0  0  0  0  0
  152.4842  141.4108  159.7954 C   0  0  0  0  0  0  0  0  0  0  0  0
  152.8839  142.5356  159.0173 O   0  0  0  0  0  0  0  0  0  0  0  0
  152.0484  143.6957  159.0250 C   0  0  0  0  0  0  0  0  0  0  0  0
  152.7900  144.7037  158.1324 C   0  0  0  0  0  0  0  0  0  0  0  0
  151.9216  144.2676  160.4508 C   0  0  0  0  0  0  0  0  0  0  0  0
  150.6630  143.3939  158.4194 C   0  0  0  0  0  0  0  0  0  0  0  0
  154.2709  137.2748  161.5810 C   0  0  0  0  0  0  0  0  0  0  0  0
  153.3304  137.4156  160.6540 N   0  0  0  0  0  0  0  0  0  0  0  0
  153.3754  136.2204  159.9549 N   0  0  0  0  0  0  0  0  0  0  0  0
  154.2872  135.4229  160.4350 N   0  0  0  0  0  0  0  0  0  0  0  0
  154.8614  136.0831  161.4657 N   0  0  0  0  0  0  0  0  0  0  0  0
  155.6087  135.6994  162.0259 H   0  0  0  0  0  0  0  0  0  0  0  0
  155.3352  136.7756  164.0413 H   0  0  0  0  0  0  0  0  0  0  0  0
  155.9132  138.3905  164.4098 H   0  0  0  0  0  0  0  0  0  0  0  0
  156.6345  137.4822  163.0842 H   0  0  0  0  0  0  0  0  0  0  0  0
  153.7565  138.4931  163.2038 H   0  0  0  0  0  0  0  0  0  0  0  0
  155.6635  140.2147  162.6755 H   0  0  0  0  0  0  0  0  0  0  0  0
  155.7686  139.4028  161.1365 H   0  0  0  0  0  0  0  0  0  0  0  0
  153.3138  140.7504  162.0917 H   0  0  0  0  0  0  0  0  0  0  0  0
  151.7761  140.7850  159.2520 H   0  0  0  0  0  0  0  0  0  0  0  0
  152.0183  141.7130  160.7329 H   0  0  0  0  0  0  0  0  0  0  0  0
  152.2466  145.6465  158.0594 H   0  0  0  0  0  0  0  0  0  0  0  0
  152.9166  144.3161  157.1208 H   0  0  0  0  0  0  0  0  0  0  0  0
  153.7830  144.9243  158.5254 H   0  0  0  0  0  0  0  0  0  0  0  0
  152.9020  144.4191  160.9036 H   0  0  0  0  0  0  0  0  0  0  0  0
  151.3485  143.6127  161.1066 H   0  0  0  0  0  0  0  0  0  0  0  0
  151.4114  145.2311  160.4408 H   0  0  0  0  0  0  0  0  0  0  0  0
  150.0838  144.3094  158.2948 H   0  0  0  0  0  0  0  0  0  0  0  0
  150.0739  142.7310  159.0530 H   0  0  0  0  0  0  0  0  0  0  0  0
  150.7534  142.9258  157.4386 H   0  0  0  0  0  0  0  0  0  0  0  0
  1  2  1  0  0  0  0
  1 19  1  0  0  0  0
  1 20  1  0  0  0  0
  1 21  1  0  0  0  0
  2  3  1  0  0  0  0
  2 13  1  0  0  0  0
  2 22  1  0  0  0  0
  3  4  1  0  0  0  0
  3 23  1  0  0  0  0
  3 24  1  0  0  0  0
  4  5  1  0  0  0  0
  4 25  1  0  0  0  0
  5  6  2  0  0  0  0
  5  7  1  0  0  0  0
  7  8  1  0  0  0  0
  7 26  1  0  0  0  0
  7 27  1  0  0  0  0
  8  9  1  0  0  0  0
  9 10  1  0  0  0  0
  9 11  1  0  0  0  0
  9 12  1  0  0  0  0
 10 28  1  0  0  0  0
 10 29  1  0  0  0  0
 10 30  1  0  0  0  0
 11 31  1  0  0  0  0
 11 32  1  0  0  0  0
 11 33  1  0  0  0  0
 12 34  1  0  0  0  0
 12 35  1  0  0  0  0
 12 36  1  0  0  0  0
 13 17  1  0  0  0  0
 13 14  2  0  0  0  0
 14 15  1  0  0  0  0
 15 16  2  0  0  0  0
 16 17  1  0  0  0  0
 17 18  1  0  0  0  0
M  END
> <s_m_source_file>
AV-unprocessed.smi

> <i_m_source_file_index>
3279

> <i_lp_mmshare_version>
43012

> <i_f3d_flags>
0

> <s_epik_input>
W25IXTFubm5jMVtDQEhdKFtDSDNdKVtDSDJdW05IXUMoPU8pW0NIMl1PQyhbQ0gzXSkoW0NIM10pW0NIM10=

> <s_epik_cmdline>
J2VwaWtfcHl0aG9uJywgJy1waCcsICc3LjAnLCAnLXRuJywgJzgnLCAnLW1hJywgJzIwMCcsICctbWV0YWxfYmluZGluZycsICctaW1hZScsICc8aW5maWxlLm1hZT4nLCAnLW9tYWUnLCAnPG91dGZpbGUubWFlPic=

> <r_lp_tautomer_probability>
0.3

> <r_epik_Ionization_Penalty>
1.45055

> <r_epik_Ionization_Penalty_Charging>
0

> <r_epik_Ionization_Penalty_Neutral>
1.45055

> <r_epik_State_Penalty>
2.31845

> <r_epik_Charging_Adjusted_Penalty>
2.31845

> <i_epik_Tot_Q>
0

> <i_epik_Tot_abs_Q>
0

> <r_epik_Metal_State_Penalty>
2.36898

> <b_epik_Metal_Only>
0

> <s_lp_Force_Field>
OPLS_2005

> <r_lp_Energy>
7.01933

> <b_lp_Chiralities_Consistent>
1

> <s_lp_Variant>
AV-unprocessed.smi:3279-4

> <Gold.Version>
5.8.1

> <Gold.Id.Protein>
6NUR|6NUR_protein|mol2

> <Gold.PLP.Fitness>
36.4588

> <Gold.PLP.PLP>
-31.2623

> <Gold.PLP.part.hbond>
-2.7828

> <Gold.PLP.part.metal>
0.0000

> <Gold.PLP.part.buried>
-4.4461

> <Gold.PLP.part.nonpolar>
-23.9756

> <Gold.PLP.part.repulsive>
0.0580

> <Gold.PLP.ligand.clash>
0.0000

> <Gold.PLP.ligand.torsion>
0.3455

> <Gold.PLP.Chemscore.Hbond>
1.9120

> <Gold.PLP.Chemscore.CHOScore>
0.0000

> <Gold.PLP.Chemscore.Metal>
0.0000

> <Gold.Chemscore.Hbonds>
donor molecule, donor type, donor heavy atom, donor atom, acceptor molecule, acceptor atom, score
      P1  H  6896  6908       L1    15  0.90
      P1  H  7997  8009       L1     6  0.91

> <Gold.PLP.Chemscore.Internal.Correction>
0.1516

> <Gold.Rescore>
     Score         DG    S(hbond)    S(metal)    S(lipo)     H(rot)  DE(clash)    DE(int)     intcor
     12.42     -12.89       1.69        0.00      74.26       2.71       0.00       0.47       ----

> <Gold.Chemscore.Fitness>
12.4225

> <Gold.Chemscore.DG>
-12.8915

> <Gold.Chemscore.ZeroCoef>
-5.4800

> <Gold.Chemscore.Hbond>
1.6945

> <Gold.Chemscore.Metal>
0.0000

> <Gold.Chemscore.Lipo>
74.2551

> <Gold.Chemscore.Internal_Hbond>
0.0000

> <Gold.Chemscore.DEClash>
0.0018

> <Gold.Chemscore.DEInternal>
0.4672

> <Gold.Chemscore.Rot>
2.7094

> <Gold.Chemscore.Internal.Correction>
   9.000000E+99

> <Gold.Chemscore.Hbonds>
donor molecule, donor type, donor heavy atom, donor atom, acceptor molecule, acceptor atom, score
      P1  H  6896  6908       L1    15  0.17
      P1  H  7997  8009       L1     6  0.86

> <Gold.Chemscore.Hbond.Weighted>
-5.6596

> <Gold.Chemscore.Metal.Weighted>
-0.0000

> <Gold.Chemscore.Lipo.Weighted>
-8.6878

> <Gold.Chemscore.Internal_Hbond.Weighted>
0.0000

> <Gold.Chemscore.DEClash.Weighted>
0.0018

> <Gold.Chemscore.DEInternal.Weighted>
0.4672

> <Gold.Chemscore.Rot.Weighted>
6.9360

> <Gold.Chemscore.Internal.Correction.Weighted>
   9.000000E+99

> <Gold.Protein.RotatedTorsions>
[ 6907 6896 6895 6894 ] final  -97.91 input  -60.11 | X-H torsion
[ 7974 7965 7964 7962 ] final   45.58 input  175.53 | X-H torsion
[ 8008 7997 7996 7995 ] final  115.89 input   59.86 | X-H torsion
[ 10167 10162 10161 10158 ] final   44.79 input  -65.29 | X-H torsion
[ 10718 10713 10712 10709 ] final   92.52 input   66.30 | X-H torsion
[ 10763 10752 10751 10750 ] final   56.36 input  -60.55 | X-H torsion
[ 11005 11000 10999 10996 ] final -131.27 input  -57.11 | X-H torsion

> <Gold.Protein.ActiveResidues>
 VAL166  LYS551  ARG553  GLY616  TRP617  ASP618  TYR619  PRO620  LYS621  CYS622 
 ASP623  PHE694  ASN695  SER759  ASP760  ASP761  ALA762  ILE779  LEU786  VAL792 
 PHE793  MET794  SER795  GLU796  ALA797  LYS798  CYS799  TRP800  GLU811  SER814 

> <Gold.Protein.RotatedAtoms>
  150.7030  134.1276  159.4057 H   0  0  0  0  0  0  0  0  0  0  0  0  # atno 6907 bound_to 6896
  151.9262  135.0274  160.0535 H   0  0  0  0  0  0  0  0  0  0  0  0  # atno 6908 bound_to 6896
  152.2215  133.4952  159.5201 H   0  0  0  0  0  0  0  0  0  0  0  0  # atno 6909 bound_to 6896
  146.0468  139.4949  142.9744 H   0  0  0  0  0  0  0  0  0  0  0  0  # atno 7974 bound_to 7965
  156.2408  140.2929  156.0439 H   0  0  0  0  0  0  0  0  0  0  0  0  # atno 8008 bound_to 7997
  155.1957  140.0408  157.2925 H   0  0  0  0  0  0  0  0  0  0  0  0  # atno 8009 bound_to 7997
  154.6164  140.2465  155.7611 H   0  0  0  0  0  0  0  0  0  0  0  0  # atno 8010 bound_to 7997
  140.3308  144.2591  150.6168 H   0  0  0  0  0  0  0  0  0  0  0  0  # atno 10167 bound_to 10162
  157.6958  131.0446  150.3894 H   0  0  0  0  0  0  0  0  0  0  0  0  # atno 10718 bound_to 10713
  152.9831  135.5679  154.5217 H   0  0  0  0  0  0  0  0  0  0  0  0  # atno 10763 bound_to 10752
  154.4704  135.2784  155.1649 H   0  0  0  0  0  0  0  0  0  0  0  0  # atno 10764 bound_to 10752
  154.3200  135.6271  153.5556 H   0  0  0  0  0  0  0  0  0  0  0  0  # atno 10765 bound_to 10752
  140.9273  134.1365  157.4264 H   0  0  0  0  0  0  0  0  0  0  0  0  # atno 11005 bound_to 11000
  145.6793  141.0195  143.1615 LP  0  0  0  0  0  0  0  0  0  0  0  0  # atno 17320 bound_to 7965
  144.7102  139.8402  143.7417 LP  0  0  0  0  0  0  0  0  0  0  0  0  # atno 17321 bound_to 7965
  140.5399  143.2225  151.8101 LP  0  0  0  0  0  0  0  0  0  0  0  0  # atno 17342 bound_to 10162
  139.4857  144.4613  151.9537 LP  0  0  0  0  0  0  0  0  0  0  0  0  # atno 17343 bound_to 10162
  156.4299  130.3970  149.6767 LP  0  0  0  0  0  0  0  0  0  0  0  0  # atno 17370 bound_to 10713
  156.3988  130.7664  151.2670 LP  0  0  0  0  0  0  0  0  0  0  0  0  # atno 17371 bound_to 10713
  139.8788  134.9993  156.5946 LP  0  0  0  0  0  0  0  0  0  0  0  0  # atno 17394 bound_to 11000
  140.7909  133.8583  155.8645 LP  0  0  0  0  0  0  0  0  0  0  0  0  # atno 17395 bound_to 11000

$$$$
