AV-unprocessed.smi:1602|AV-procd|sdf|6441|dock7
  -GOLD-   22720 7 93D 1   1.00000     0.00000
 Structure written by MMmdl.
 35 36  0  0  0  0  0  0  0  0  2 V2000
  154.2265  139.6717  160.6617 C   0  0  0  0  0  0  0  0  0  0  0  0
  153.7522  140.7255  159.6487 C   0  0  2  0  0  0  0  0  0  0  0  0
  152.5993  141.6160  160.1924 C   0  0  0  0  0  0  0  0  0  0  0  0
  152.2605  142.7770  159.3710 N   0  0  0  0  0  0  0  0  0  0  0  0
  152.6245  144.0985  159.5486 C   0  0  0  0  0  0  0  0  0  0  0  0
  152.0891  144.8153  158.5170 C   0  0  0  0  0  0  0  0  0  0  0  0
  151.4187  143.8332  157.7362 C   0  0  0  0  0  0  0  0  0  0  0  0
  151.5333  142.6160  158.2398 N   0  0  0  0  0  0  0  0  0  0  0  0
  153.3481  140.0483  158.4245 N   0  5  0  0  0  0  0  0  0  0  0  0
  152.4499  138.6999  158.4961 S   0  0  0  0  0  0  0  0  0  0  0  0
  153.2231  137.4502  158.4079 O   0  0  0  0  0  0  0  0  0  0  0  0
  151.3915  138.7802  159.5160 O   0  0  0  0  0  0  0  0  0  0  0  0
  151.6684  138.8762  156.9552 N   0  0  0  0  0  0  0  0  0  0  0  0
  152.5081  138.6835  155.7606 C   0  0  0  0  0  0  0  0  0  0  0  0
  151.6569  138.6408  154.4811 C   0  0  0  0  0  0  0  0  0  0  0  0
  150.8427  139.7994  154.3925 O   0  0  0  0  0  0  0  0  0  0  0  0
  149.9303  139.8698  155.4769 C   0  0  0  0  0  0  0  0  0  0  0  0
  150.6944  139.9774  156.8058 C   0  0  0  0  0  0  0  0  0  0  0  0
  154.5151  140.1390  161.6033 H   0  0  0  0  0  0  0  0  0  0  0  0
  155.0953  139.1306  160.2855 H   0  0  0  0  0  0  0  0  0  0  0  0
  153.4508  138.9365  160.8779 H   0  0  0  0  0  0  0  0  0  0  0  0
  154.6030  141.3814  159.4601 H   0  0  0  0  0  0  0  0  0  0  0  0
  151.6981  141.0097  160.2877 H   0  0  0  0  0  0  0  0  0  0  0  0
  152.8249  141.9584  161.2028 H   0  0  0  0  0  0  0  0  0  0  0  0
  153.2226  144.4142  160.3905 H   0  0  0  0  0  0  0  0  0  0  0  0
  152.1670  145.8781  158.3447 H   0  0  0  0  0  0  0  0  0  0  0  0
  150.8605  143.9661  156.8213 H   0  0  0  0  0  0  0  0  0  0  0  0
  153.2316  139.4977  155.7051 H   0  0  0  0  0  0  0  0  0  0  0  0
  153.0743  137.7568  155.8508 H   0  0  0  0  0  0  0  0  0  0  0  0
  152.3040  138.5975  153.6050 H   0  0  0  0  0  0  0  0  0  0  0  0
  151.0365  137.7433  154.4594 H   0  0  0  0  0  0  0  0  0  0  0  0
  149.2909  140.7425  155.3438 H   0  0  0  0  0  0  0  0  0  0  0  0
  149.2760  138.9965  155.4767 H   0  0  0  0  0  0  0  0  0  0  0  0
  149.9831  139.9747  157.6307 H   0  0  0  0  0  0  0  0  0  0  0  0
  151.2279  140.9273  156.8529 H   0  0  0  0  0  0  0  0  0  0  0  0
  1  2  1  0  0  0  0
  1 19  1  0  0  0  0
  1 20  1  0  0  0  0
  1 21  1  0  0  0  0
  2  3  1  0  0  0  0
  2  9  1  0  0  0  0
  2 22  1  0  0  0  0
  3  4  1  0  0  0  0
  3 23  1  0  0  0  0
  3 24  1  0  0  0  0
  4  8  1  0  0  0  0
  4  5  1  0  0  0  0
  5  6  2  0  0  0  0
  5 25  1  0  0  0  0
  6  7  1  0  0  0  0
  6 26  1  0  0  0  0
  7  8  2  0  0  0  0
  7 27  1  0  0  0  0
  9 10  1  0  0  0  0
 10 11  2  0  0  0  0
 10 12  2  0  0  0  0
 10 13  1  0  0  0  0
 13 18  1  0  0  0  0
 13 14  1  0  0  0  0
 14 15  1  0  0  0  0
 14 28  1  0  0  0  0
 14 29  1  0  0  0  0
 15 16  1  0  0  0  0
 15 30  1  0  0  0  0
 15 31  1  0  0  0  0
 16 17  1  0  0  0  0
 17 18  1  0  0  0  0
 17 32  1  0  0  0  0
 17 33  1  0  0  0  0
 18 34  1  0  0  0  0
 18 35  1  0  0  0  0
M  CHG  1   9  -1
M  END
> <s_m_source_file>
AV-unprocessed.smi

> <i_m_source_file_index>
1602

> <i_lp_mmshare_version>
43012

> <i_f3d_flags>
0

> <s_epik_input>
bjFbY0hdW2NIXVtjSF1uMVtDSDJdW0NAQEhdKFtDSDNdKVtOSF1TKD1PKSg9TylOMltDSDJdW0NIMl1PW0NIMl1bQ0gyXTI=

> <s_epik_cmdline>
J2VwaWtfcHl0aG9uJywgJy1waCcsICc3LjAnLCAnLXRuJywgJzgnLCAnLW1hJywgJzIwMCcsICctbWV0YWxfYmluZGluZycsICctaW1hZScsICc8aW5maWxlLm1hZT4nLCAnLW9tYWUnLCAnPG91dGZpbGUubWFlPic=

> <r_lp_tautomer_probability>
1

> <r_epik_Ionization_Penalty>
1.03144

> <r_epik_Ionization_Penalty_Charging>
1.03142

> <r_epik_Ionization_Penalty_Neutral>
2.21579e-05

> <r_epik_State_Penalty>
1.0826

> <r_epik_Charging_Adjusted_Penalty>
2.11402

> <i_epik_Tot_Q>
-1

> <i_epik_Tot_abs_Q>
1

> <r_epik_Metal_State_Penalty>
0.386234

> <b_epik_Metal_Only>
0

> <s_lp_Force_Field>
OPLS_2005

> <r_lp_Energy>
6.71123

> <b_lp_Chiralities_Consistent>
1

> <s_lp_Variant>
AV-unprocessed.smi:1602-3

> <Gold.Version>
5.8.1

> <Gold.Id.Protein>
6NUR|6NUR_protein|mol2

> <Gold.PLP.Fitness>
46.0174

> <Gold.PLP.PLP>
-35.3340

> <Gold.PLP.part.hbond>
-2.8096

> <Gold.PLP.part.metal>
0.0000

> <Gold.PLP.part.buried>
-2.4381

> <Gold.PLP.part.nonpolar>
-30.6486

> <Gold.PLP.part.repulsive>
0.1497

> <Gold.PLP.ligand.clash>
0.0000

> <Gold.PLP.ligand.torsion>
1.4218

> <Gold.PLP.Chemscore.Hbond>
3.0000

> <Gold.PLP.Chemscore.CHOScore>
1.0000

> <Gold.PLP.Chemscore.Metal>
0.0000

> <Gold.Chemscore.Hbonds>
donor molecule, donor type, donor heavy atom, donor atom, acceptor molecule, acceptor atom, score
      P1  H  7989  7998       L1    16  1.00
      P1  H  7997  8009       L1     9  2.00
      L1  C     7    27       P1  8028  1.00

> <Gold.PLP.Chemscore.Internal.Correction>
1.5270

> <Gold.Rescore>
     Score         DG    S(hbond)    S(metal)    S(lipo)     H(rot)  DE(clash)    DE(int)     intcor
     16.51     -18.04       1.85        0.00      91.00       1.67       0.10       1.44       ----

> <Gold.Chemscore.Fitness>
16.5092

> <Gold.Chemscore.DG>
-18.0444

> <Gold.Chemscore.ZeroCoef>
-5.4800

> <Gold.Chemscore.Hbond>
1.8531

> <Gold.Chemscore.Metal>
0.0000

> <Gold.Chemscore.Lipo>
91.0014

> <Gold.Chemscore.Internal_Hbond>
0.0000

> <Gold.Chemscore.DEClash>
0.0969

> <Gold.Chemscore.DEInternal>
1.4384

> <Gold.Chemscore.Rot>
1.6688

> <Gold.Chemscore.Internal.Correction>
   9.000000E+99

> <Gold.Chemscore.Hbonds>
donor molecule, donor type, donor heavy atom, donor atom, acceptor molecule, acceptor atom, score
      P1  H  7989  7998       L1    16  0.60
      P1  H  7997  8009       L1     9  0.77

> <Gold.Chemscore.Hbond.Weighted>
-6.1895

> <Gold.Chemscore.Metal.Weighted>
-0.0000

> <Gold.Chemscore.Lipo.Weighted>
-10.6472

> <Gold.Chemscore.Internal_Hbond.Weighted>
0.0000

> <Gold.Chemscore.DEClash.Weighted>
0.0969

> <Gold.Chemscore.DEInternal.Weighted>
1.4384

> <Gold.Chemscore.Rot.Weighted>
4.2722

> <Gold.Chemscore.Internal.Correction.Weighted>
   9.000000E+99

> <Gold.Protein.RotatedTorsions>
[ 6907 6896 6895 6894 ] final -104.18 input  -60.11 | X-H torsion
[ 7974 7965 7964 7962 ] final  167.36 input  175.53 | X-H torsion
[ 8008 7997 7996 7995 ] final  152.85 input   59.86 | X-H torsion
[ 10167 10162 10161 10158 ] final  -62.24 input  -65.29 | X-H torsion
[ 10718 10713 10712 10709 ] final -105.55 input   66.30 | X-H torsion
[ 10763 10752 10751 10750 ] final  -83.24 input  -60.55 | X-H torsion
[ 11005 11000 10999 10996 ] final   44.00 input  -57.11 | X-H torsion

> <Gold.Protein.ActiveResidues>
 VAL166  LYS551  ARG553  GLY616  TRP617  ASP618  TYR619  PRO620  LYS621  CYS622 
 ASP623  PHE694  ASN695  SER759  ASP760  ASP761  ALA762  ILE779  LEU786  VAL792 
 PHE793  MET794  SER795  GLU796  ALA797  LYS798  CYS799  TRP800  GLU811  SER814 

> <Gold.Protein.RotatedAtoms>
  150.7275  134.0316  159.3735 H   0  0  0  0  0  0  0  0  0  0  0  0  # atno 6907 bound_to 6896
  151.8286  135.0626  160.0443 H   0  0  0  0  0  0  0  0  0  0  0  0  # atno 6908 bound_to 6896
  152.2950  133.5563  159.5618 H   0  0  0  0  0  0  0  0  0  0  0  0  # atno 6909 bound_to 6896
  144.7427  139.8750  143.6392 H   0  0  0  0  0  0  0  0  0  0  0  0  # atno 7974 bound_to 7965
  156.2610  140.2009  156.6398 H   0  0  0  0  0  0  0  0  0  0  0  0  # atno 8008 bound_to 7997
  154.6618  140.0560  157.0095 H   0  0  0  0  0  0  0  0  0  0  0  0  # atno 8009 bound_to 7997
  155.1264  140.3229  155.4487 H   0  0  0  0  0  0  0  0  0  0  0  0  # atno 8010 bound_to 7997
  140.5952  143.2349  151.6051 H   0  0  0  0  0  0  0  0  0  0  0  0  # atno 10167 bound_to 10162
  156.0351  130.5569  150.7555 H   0  0  0  0  0  0  0  0  0  0  0  0  # atno 10718 bound_to 10713
  154.5854  135.5563  153.7225 H   0  0  0  0  0  0  0  0  0  0  0  0  # atno 10763 bound_to 10752
  153.0096  135.6330  154.1924 H   0  0  0  0  0  0  0  0  0  0  0  0  # atno 10764 bound_to 10752
  154.1865  135.2884  155.3015 H   0  0  0  0  0  0  0  0  0  0  0  0  # atno 10765 bound_to 10752
  140.1592  134.4363  155.8329 H   0  0  0  0  0  0  0  0  0  0  0  0  # atno 11005 bound_to 11000
  146.1253  139.4278  143.0203 LP  0  0  0  0  0  0  0  0  0  0  0  0  # atno 17320 bound_to 7965
  145.7244  141.0064  143.1385 LP  0  0  0  0  0  0  0  0  0  0  0  0  # atno 17321 bound_to 7965
  139.5254  144.3077  152.1020 LP  0  0  0  0  0  0  0  0  0  0  0  0  # atno 17342 bound_to 10162
  140.2248  144.4429  150.6326 LP  0  0  0  0  0  0  0  0  0  0  0  0  # atno 17343 bound_to 10162
  157.5088  131.0924  151.0224 LP  0  0  0  0  0  0  0  0  0  0  0  0  # atno 17370 bound_to 10713
  157.0585  130.5816  149.5382 LP  0  0  0  0  0  0  0  0  0  0  0  0  # atno 17371 bound_to 10713
  141.2207  133.6906  156.7563 LP  0  0  0  0  0  0  0  0  0  0  0  0  # atno 17394 bound_to 11000
  140.2510  134.8540  157.3667 LP  0  0  0  0  0  0  0  0  0  0  0  0  # atno 17395 bound_to 11000

$$$$
