AV-unprocessed.smi:3011|AV-procd|sdf|11458|dock7
  -GOLD-   2272016393D 1   1.00000     0.00000
 Structure written by MMmdl.
 46 48  0  0  0  0  0  0  0  0  1 V2000
  153.8217  141.4102  161.6639 C   0  0  0  0  0  0  0  0  0  0  0  0
  153.1475  141.5374  160.4208 O   0  0  0  0  0  0  0  0  0  0  0  0
  152.5034  142.7252  160.1424 C   0  0  0  0  0  0  0  0  0  0  0  0
  152.4777  143.8296  161.0315 C   0  0  0  0  0  0  0  0  0  0  0  0
  151.8111  145.0165  160.6779 C   0  0  0  0  0  0  0  0  0  0  0  0
  151.1653  145.1148  159.4341 C   0  0  0  0  0  0  0  0  0  0  0  0
  151.1842  144.0258  158.5442 C   0  0  0  0  0  0  0  0  0  0  0  0
  151.8507  142.8231  158.8914 C   0  0  0  0  0  0  0  0  0  0  0  0
  151.9004  141.7153  158.0708 O   0  0  0  0  0  0  0  0  0  0  0  0
  150.9655  141.6211  157.0051 C   0  0  0  0  0  0  0  0  0  0  0  0
  151.6158  140.9208  155.8039 C   0  0  0  0  0  0  0  0  0  0  0  0
  150.6846  140.0536  155.0938 N   0  0  0  0  0  0  0  0  0  0  0  0
  150.8265  138.7522  154.7240 C   0  0  0  0  0  0  0  0  0  0  0  0
  152.0591  137.9371  155.0247 C   0  0  1  0  0  0  0  0  0  0  0  0
  153.3407  138.6228  154.5296 C   0  0  0  0  0  0  0  0  0  0  0  0
  152.1264  137.7201  156.4656 N   0  0  0  0  0  0  0  0  0  0  0  0
  153.0295  136.9363  157.0669 C   0  0  0  0  0  0  0  0  0  0  0  0
  153.8972  136.3186  156.4553 O   0  0  0  0  0  0  0  0  0  0  0  0
  149.8035  138.2370  154.0365 N   0  0  0  0  0  0  0  0  0  0  0  0
  148.9053  139.2824  153.9863 C   0  0  0  0  0  0  0  0  0  0  0  0
  147.6196  139.3608  153.4049 C   0  0  0  0  0  0  0  0  0  0  0  0
  146.8731  140.5549  153.4824 C   0  0  0  0  0  0  0  0  0  0  0  0
  147.4012  141.6844  154.1399 C   0  0  0  0  0  0  0  0  0  0  0  0
  148.6817  141.6274  154.7232 C   0  0  0  0  0  0  0  0  0  0  0  0
  149.4232  140.4329  154.6430 C   0  0  0  0  0  0  0  0  0  0  0  0
  154.2614  140.4155  161.7330 H   0  0  0  0  0  0  0  0  0  0  0  0
  153.1351  141.5252  162.5037 H   0  0  0  0  0  0  0  0  0  0  0  0
  154.6314  142.1353  161.7547 H   0  0  0  0  0  0  0  0  0  0  0  0
  152.9655  143.7933  161.9936 H   0  0  0  0  0  0  0  0  0  0  0  0
  151.7975  145.8527  161.3613 H   0  0  0  0  0  0  0  0  0  0  0  0
  150.6535  146.0262  159.1616 H   0  0  0  0  0  0  0  0  0  0  0  0
  150.6742  144.1386  157.6002 H   0  0  0  0  0  0  0  0  0  0  0  0
  150.0809  141.0636  157.3161 H   0  0  0  0  0  0  0  0  0  0  0  0
  150.6460  142.6210  156.7080 H   0  0  0  0  0  0  0  0  0  0  0  0
  151.9759  141.6738  155.1025 H   0  0  0  0  0  0  0  0  0  0  0  0
  152.4988  140.3576  156.1036 H   0  0  0  0  0  0  0  0  0  0  0  0
  152.0063  136.9689  154.5293 H   0  0  0  0  0  0  0  0  0  0  0  0
  153.2936  138.8079  153.4562 H   0  0  0  0  0  0  0  0  0  0  0  0
  154.2168  138.0031  154.7222 H   0  0  0  0  0  0  0  0  0  0  0  0
  153.4992  139.5826  155.0224 H   0  0  0  0  0  0  0  0  0  0  0  0
  151.4355  138.1844  157.0366 H   0  0  0  0  0  0  0  0  0  0  0  0
  152.8956  136.9183  158.1597 H   0  0  0  0  0  0  0  0  0  0  0  0
  147.2072  138.5004  152.8991 H   0  0  0  0  0  0  0  0  0  0  0  0
  145.8911  140.6042  153.0352 H   0  0  0  0  0  0  0  0  0  0  0  0
  146.8232  142.5952  154.1956 H   0  0  0  0  0  0  0  0  0  0  0  0
  149.0875  142.4918  155.2272 H   0  0  0  0  0  0  0  0  0  0  0  0
  1  2  1  0  0  0  0
  1 26  1  0  0  0  0
  1 27  1  0  0  0  0
  1 28  1  0  0  0  0
  2  3  1  0  0  0  0
  3  8  1  0  0  0  0
  3  4  2  0  0  0  0
  4  5  1  0  0  0  0
  4 29  1  0  0  0  0
  5  6  2  0  0  0  0
  5 30  1  0  0  0  0
  6  7  1  0  0  0  0
  6 31  1  0  0  0  0
  7  8  2  0  0  0  0
  7 32  1  0  0  0  0
  8  9  1  0  0  0  0
  9 10  1  0  0  0  0
 10 11  1  0  0  0  0
 10 33  1  0  0  0  0
 10 34  1  0  0  0  0
 11 12  1  0  0  0  0
 11 35  1  0  0  0  0
 11 36  1  0  0  0  0
 12 25  1  0  0  0  0
 12 13  1  0  0  0  0
 13 14  1  0  0  0  0
 13 19  2  0  0  0  0
 14 15  1  0  0  0  0
 14 16  1  0  0  0  0
 14 37  1  0  0  0  0
 15 38  1  0  0  0  0
 15 39  1  0  0  0  0
 15 40  1  0  0  0  0
 16 17  1  0  0  0  0
 16 41  1  0  0  0  0
 17 18  2  0  0  0  0
 17 42  1  0  0  0  0
 19 20  1  0  0  0  0
 20 25  2  0  0  0  0
 20 21  1  0  0  0  0
 21 22  2  0  0  0  0
 21 43  1  0  0  0  0
 22 23  1  0  0  0  0
 22 44  1  0  0  0  0
 23 24  2  0  0  0  0
 23 45  1  0  0  0  0
 24 25  1  0  0  0  0
 24 46  1  0  0  0  0
M  END
> <s_m_source_file>
AV-unprocessed.smi

> <i_m_source_file_index>
3011

> <i_lp_mmshare_version>
43012

> <i_f3d_flags>
0

> <s_epik_input>
W0NIM11PYzFbY0hdW2NIXVtjSF1bY0hdYzFPW0NIMl1bQ0gyXW4oYyhuMilbQ0BIXShbQ0gzXSlbTkhdW0NIXT1PKWMoYzIzKVtjSF1bY0hdW2NIXVtjSF0z

> <s_epik_cmdline>
J2VwaWtfcHl0aG9uJywgJy1waCcsICc3LjAnLCAnLXRuJywgJzgnLCAnLW1hJywgJzIwMCcsICctbWV0YWxfYmluZGluZycsICctaW1hZScsICc8aW5maWxlLm1hZT4nLCAnLW9tYWUnLCAnPG91dGZpbGUubWFlPic=

> <r_lp_tautomer_probability>
1

> <r_epik_Ionization_Penalty>
0.0924205

> <r_epik_Ionization_Penalty_Charging>
0

> <r_epik_Ionization_Penalty_Neutral>
0.0924205

> <r_epik_State_Penalty>
0.0827154

> <r_epik_Charging_Adjusted_Penalty>
0.0827154

> <i_epik_Tot_Q>
0

> <i_epik_Tot_abs_Q>
0

> <r_epik_Metal_State_Penalty>
0.071464

> <b_epik_Metal_Only>
0

> <s_lp_Force_Field>
OPLS_2005

> <r_lp_Energy>
16.1318

> <b_lp_Chiralities_Consistent>
1

> <s_lp_Variant>
AV-unprocessed.smi:3011-2

> <Gold.Version>
5.8.1

> <Gold.Id.Protein>
6NUR|6NUR_protein|mol2

> <Gold.PLP.Fitness>
56.0406

> <Gold.PLP.PLP>
-54.7345

> <Gold.PLP.part.hbond>
-1.0000

> <Gold.PLP.part.metal>
0.0000

> <Gold.PLP.part.buried>
-3.7887

> <Gold.PLP.part.nonpolar>
-49.5008

> <Gold.PLP.part.repulsive>
0.5324

> <Gold.PLP.ligand.clash>
0.0000

> <Gold.PLP.ligand.torsion>
0.9020

> <Gold.PLP.Chemscore.Hbond>
1.0000

> <Gold.PLP.Chemscore.CHOScore>
0.0000

> <Gold.PLP.Chemscore.Metal>
0.0000

> <Gold.Chemscore.Hbonds>
donor molecule, donor type, donor heavy atom, donor atom, acceptor molecule, acceptor atom, score
      P1  H 10752 10765       L1    18  0.69

> <Gold.PLP.Chemscore.Internal.Correction>
0.1100

> <Gold.Rescore>
     Score         DG    S(hbond)    S(metal)    S(lipo)     H(rot)  DE(clash)    DE(int)     intcor
     18.57     -19.93       1.00        0.00     151.72       2.59       0.54       0.82       ----

> <Gold.Chemscore.Fitness>
18.5711

> <Gold.Chemscore.DG>
-19.9290

> <Gold.Chemscore.ZeroCoef>
-5.4800

> <Gold.Chemscore.Hbond>
0.9976

> <Gold.Chemscore.Metal>
0.0000

> <Gold.Chemscore.Lipo>
151.7198

> <Gold.Chemscore.Internal_Hbond>
0.0000

> <Gold.Chemscore.DEClash>
0.5373

> <Gold.Chemscore.DEInternal>
0.8206

> <Gold.Chemscore.Rot>
2.5914

> <Gold.Chemscore.Internal.Correction>
   9.000000E+99

> <Gold.Chemscore.Hbonds>
donor molecule, donor type, donor heavy atom, donor atom, acceptor molecule, acceptor atom, score
      P1  H 10752 10765       L1    18  0.67

> <Gold.Chemscore.Hbond.Weighted>
-3.3318

> <Gold.Chemscore.Metal.Weighted>
-0.0000

> <Gold.Chemscore.Lipo.Weighted>
-17.7512

> <Gold.Chemscore.Internal_Hbond.Weighted>
0.0000

> <Gold.Chemscore.DEClash.Weighted>
0.5373

> <Gold.Chemscore.DEInternal.Weighted>
0.8206

> <Gold.Chemscore.Rot.Weighted>
6.6340

> <Gold.Chemscore.Internal.Correction.Weighted>
   9.000000E+99

> <Gold.Protein.RotatedTorsions>
[ 6907 6896 6895 6894 ] final  119.81 input  -60.11 | X-H torsion
[ 7974 7965 7964 7962 ] final   53.53 input  175.53 | X-H torsion
[ 8008 7997 7996 7995 ] final   48.29 input   59.86 | X-H torsion
[ 10167 10162 10161 10158 ] final  -92.57 input  -65.29 | X-H torsion
[ 10718 10713 10712 10709 ] final  173.38 input   66.30 | X-H torsion
[ 10763 10752 10751 10750 ] final -108.04 input  -60.55 | X-H torsion
[ 11005 11000 10999 10996 ] final -122.16 input  -57.11 | X-H torsion

> <Gold.Protein.ActiveResidues>
 VAL166  LYS551  ARG553  GLY616  TRP617  ASP618  TYR619  PRO620  LYS621  CYS622 
 ASP623  PHE694  ASN695  SER759  ASP760  ASP761  ALA762  ILE779  LEU786  VAL792 
 PHE793  MET794  SER795  GLU796  ALA797  LYS798  CYS799  TRP800  GLU811  SER814 

> <Gold.Protein.RotatedAtoms>
  152.4444  133.7509  159.6693 H   0  0  0  0  0  0  0  0  0  0  0  0  # atno 6907 bound_to 6896
  150.8341  133.8031  159.3092 H   0  0  0  0  0  0  0  0  0  0  0  0  # atno 6908 bound_to 6896
  151.5676  135.1066  160.0039 H   0  0  0  0  0  0  0  0  0  0  0  0  # atno 6909 bound_to 6896
  145.9702  139.4142  143.0194 H   0  0  0  0  0  0  0  0  0  0  0  0  # atno 7974 bound_to 7965
  155.3831  140.3429  155.4247 H   0  0  0  0  0  0  0  0  0  0  0  0  # atno 8008 bound_to 7997
  156.1599  140.1597  156.8663 H   0  0  0  0  0  0  0  0  0  0  0  0  # atno 8009 bound_to 7997
  154.5130  140.0785  156.8008 H   0  0  0  0  0  0  0  0  0  0  0  0  # atno 8010 bound_to 7997
  140.3335  143.2981  151.9915 H   0  0  0  0  0  0  0  0  0  0  0  0  # atno 10167 bound_to 10162
  156.9651  131.0072  151.2918 H   0  0  0  0  0  0  0  0  0  0  0  0  # atno 10718 bound_to 10713
  154.8112  135.4652  154.0521 H   0  0  0  0  0  0  0  0  0  0  0  0  # atno 10763 bound_to 10752
  153.1950  135.6861  153.8310 H   0  0  0  0  0  0  0  0  0  0  0  0  # atno 10764 bound_to 10752
  153.7814  135.3256  155.3343 H   0  0  0  0  0  0  0  0  0  0  0  0  # atno 10765 bound_to 10752
  141.0016  134.0394  157.3530 H   0  0  0  0  0  0  0  0  0  0  0  0  # atno 11005 bound_to 11000
  145.7916  140.9811  143.1046 LP  0  0  0  0  0  0  0  0  0  0  0  0  # atno 17320 bound_to 7965
  144.6835  139.9690  143.7482 LP  0  0  0  0  0  0  0  0  0  0  0  0  # atno 17321 bound_to 7965
  139.4852  144.6216  151.7245 LP  0  0  0  0  0  0  0  0  0  0  0  0  # atno 17342 bound_to 10162
  140.5375  144.0632  150.6076 LP  0  0  0  0  0  0  0  0  0  0  0  0  # atno 17343 bound_to 10162
  157.5631  130.8259  149.8292 LP  0  0  0  0  0  0  0  0  0  0  0  0  # atno 17370 bound_to 10713
  156.0306  130.3766  150.1698 LP  0  0  0  0  0  0  0  0  0  0  0  0  # atno 17371 bound_to 10713
  139.9042  135.0174  156.7409 LP  0  0  0  0  0  0  0  0  0  0  0  0  # atno 17394 bound_to 11000
  140.6879  133.9416  155.7949 LP  0  0  0  0  0  0  0  0  0  0  0  0  # atno 17395 bound_to 11000

$$$$
