AV-unprocessed.smi:2069|AV-procd|sdf|8432|dock9
  -GOLD-   2272011133D 1   1.00000     0.00000
 Structure written by MMmdl.
 38 39  0  0  0  0  0  0  0  0  1 V2000
  150.7699  141.7213  156.1639 C   0  0  0  0  0  0  0  0  0  0  0  0
  150.8364  140.3543  155.5732 C   0  0  0  0  0  0  0  0  0  0  0  0
  151.9318  139.8777  154.9691 N   0  0  0  0  0  0  0  0  0  0  0  0
  151.7534  138.5834  154.5007 N   0  0  0  0  0  0  0  0  0  0  0  0
  150.5247  138.1199  154.7680 C   0  0  0  0  0  0  0  0  0  0  0  0
  150.0727  136.8243  154.4021 N   0  0  0  0  0  0  0  0  0  0  0  0
  150.1087  135.6928  155.1278 C   0  0  0  0  0  0  0  0  0  0  0  0
  150.5600  135.5940  156.2690 O   0  0  0  0  0  0  0  0  0  0  0  0
  149.5884  134.6633  154.4429 N   0  0  0  0  0  0  0  0  0  0  0  0
  149.4665  133.2905  154.9298 C   0  0  0  0  0  0  0  0  0  0  0  0
  149.0081  132.2930  153.8283 C   0  0  1  0  0  0  0  0  0  0  0  0
  149.2147  130.8446  154.3398 C   0  0  0  0  0  0  0  0  0  0  0  0
  147.6244  132.5408  153.3580 N   0  0  0  0  0  0  0  0  0  0  0  0
  147.5463  133.6106  152.3559 C   0  0  0  0  0  0  0  0  0  0  0  0
  146.1143  133.8493  151.8458 C   0  0  0  0  0  0  0  0  0  0  0  0
  145.5870  132.6425  151.3134 O   0  0  0  0  0  0  0  0  0  0  0  0
  145.5684  131.5998  152.2781 C   0  0  0  0  0  0  0  0  0  0  0  0
  146.9966  131.3421  152.7890 C   0  0  0  0  0  0  0  0  0  0  0  0
  149.4763  139.2393  155.6225 S   0  0  0  0  0  0  0  0  0  0  0  0
  151.5912  142.3384  155.7979 H   0  0  0  0  0  0  0  0  0  0  0  0
  150.8345  141.6608  157.2503 H   0  0  0  0  0  0  0  0  0  0  0  0
  149.8285  142.2002  155.8944 H   0  0  0  0  0  0  0  0  0  0  0  0
  149.6741  136.7508  153.4779 H   0  0  0  0  0  0  0  0  0  0  0  0
  149.2464  134.8408  153.5100 H   0  0  0  0  0  0  0  0  0  0  0  0
  150.3952  132.9413  155.3843 H   0  0  0  0  0  0  0  0  0  0  0  0
  148.7370  133.3525  155.7349 H   0  0  0  0  0  0  0  0  0  0  0  0
  149.6795  132.4271  152.9787 H   0  0  0  0  0  0  0  0  0  0  0  0
  150.2227  130.6758  154.7161 H   0  0  0  0  0  0  0  0  0  0  0  0
  149.0832  130.1035  153.5529 H   0  0  0  0  0  0  0  0  0  0  0  0
  148.5198  130.6093  155.1466 H   0  0  0  0  0  0  0  0  0  0  0  0
  147.8920  134.5548  152.7715 H   0  0  0  0  0  0  0  0  0  0  0  0
  148.1973  133.3761  151.5122 H   0  0  0  0  0  0  0  0  0  0  0  0
  145.4734  134.2120  152.6509 H   0  0  0  0  0  0  0  0  0  0  0  0
  146.1122  134.6121  151.0671 H   0  0  0  0  0  0  0  0  0  0  0  0
  144.9050  131.8664  153.1021 H   0  0  0  0  0  0  0  0  0  0  0  0
  145.1622  130.6980  151.8198 H   0  0  0  0  0  0  0  0  0  0  0  0
  147.6081  130.9553  151.9724 H   0  0  0  0  0  0  0  0  0  0  0  0
  146.9278  130.5528  153.5353 H   0  0  0  0  0  0  0  0  0  0  0  0
  1  2  1  0  0  0  0
  1 20  1  0  0  0  0
  1 21  1  0  0  0  0
  1 22  1  0  0  0  0
  2 19  1  0  0  0  0
  2  3  2  0  0  0  0
  3  4  1  0  0  0  0
  4  5  2  0  0  0  0
  5  6  1  0  0  0  0
  5 19  1  0  0  0  0
  6  7  1  0  0  0  0
  6 23  1  0  0  0  0
  7  8  2  0  0  0  0
  7  9  1  0  0  0  0
  9 10  1  0  0  0  0
  9 24  1  0  0  0  0
 10 11  1  0  0  0  0
 10 25  1  0  0  0  0
 10 26  1  0  0  0  0
 11 12  1  0  0  0  0
 11 13  1  0  0  0  0
 11 27  1  0  0  0  0
 12 28  1  0  0  0  0
 12 29  1  0  0  0  0
 12 30  1  0  0  0  0
 13 18  1  0  0  0  0
 13 14  1  0  0  0  0
 14 15  1  0  0  0  0
 14 31  1  0  0  0  0
 14 32  1  0  0  0  0
 15 16  1  0  0  0  0
 15 33  1  0  0  0  0
 15 34  1  0  0  0  0
 16 17  1  0  0  0  0
 17 18  1  0  0  0  0
 17 35  1  0  0  0  0
 17 36  1  0  0  0  0
 18 37  1  0  0  0  0
 18 38  1  0  0  0  0
M  END
> <s_m_source_file>
AV-unprocessed.smi

> <i_m_source_file_index>
2069

> <i_lp_mmshare_version>
43012

> <i_f3d_flags>
0

> <s_epik_input>
W0NIM11jMW5uYyhzMSlbTkhdQyg9TylbTkhdW0NIMl1bQ0BIXShbQ0gzXSlOMltDSDJdW0NIMl1PW0NIMl1bQ0gyXTI=

> <s_epik_cmdline>
J2VwaWtfcHl0aG9uJywgJy1waCcsICc3LjAnLCAnLXRuJywgJzgnLCAnLW1hJywgJzIwMCcsICctbWV0YWxfYmluZGluZycsICctaW1hZScsICc8aW5maWxlLm1hZT4nLCAnLW9tYWUnLCAnPG91dGZpbGUubWFlPic=

> <r_lp_tautomer_probability>
1

> <r_epik_Ionization_Penalty>
0.221104

> <r_epik_Ionization_Penalty_Charging>
0

> <r_epik_Ionization_Penalty_Neutral>
0.221104

> <r_epik_State_Penalty>
0.209349

> <r_epik_Charging_Adjusted_Penalty>
0.209349

> <i_epik_Tot_Q>
0

> <i_epik_Tot_abs_Q>
0

> <r_epik_Metal_State_Penalty>
0.561068

> <b_epik_Metal_Only>
0

> <s_lp_Force_Field>
OPLS_2005

> <r_lp_Energy>
28.2693

> <b_lp_Chiralities_Consistent>
1

> <s_lp_Variant>
AV-unprocessed.smi:2069-2

> <Gold.Version>
5.8.1

> <Gold.Id.Protein>
6NUR|6NUR_protein|mol2

> <Gold.PLP.Fitness>
34.4199

> <Gold.PLP.PLP>
-29.3212

> <Gold.PLP.part.hbond>
-3.6419

> <Gold.PLP.part.metal>
0.0000

> <Gold.PLP.part.buried>
-2.7463

> <Gold.PLP.part.nonpolar>
-22.9735

> <Gold.PLP.part.repulsive>
0.5136

> <Gold.PLP.ligand.clash>
0.0000

> <Gold.PLP.ligand.torsion>
1.3940

> <Gold.PLP.Chemscore.Hbond>
2.6195

> <Gold.PLP.Chemscore.CHOScore>
0.0000

> <Gold.PLP.Chemscore.Metal>
0.0000

> <Gold.Chemscore.Hbonds>
donor molecule, donor type, donor heavy atom, donor atom, acceptor molecule, acceptor atom, score
      L1  H     6    23       P1  7948  1.00
      L1  H     9    24       P1  7948  0.56
      P1  H  7989  7998       L1     3  0.59

> <Gold.PLP.Chemscore.Internal.Correction>
0.0282

> <Gold.Rescore>
     Score         DG    S(hbond)    S(metal)    S(lipo)     H(rot)  DE(clash)    DE(int)     intcor
     11.37     -13.00       1.54        0.00      55.46       1.60       0.11       1.53       ----

> <Gold.Chemscore.Fitness>
11.3671

> <Gold.Chemscore.DG>
-13.0018

> <Gold.Chemscore.ZeroCoef>
-5.4800

> <Gold.Chemscore.Hbond>
1.5368

> <Gold.Chemscore.Metal>
0.0000

> <Gold.Chemscore.Lipo>
55.4617

> <Gold.Chemscore.Internal_Hbond>
0.0000

> <Gold.Chemscore.DEClash>
0.1095

> <Gold.Chemscore.DEInternal>
1.5252

> <Gold.Chemscore.Rot>
1.6016

> <Gold.Chemscore.Internal.Correction>
   9.000000E+99

> <Gold.Chemscore.Hbonds>
donor molecule, donor type, donor heavy atom, donor atom, acceptor molecule, acceptor atom, score
      L1  H     6    23       P1  7948  0.60
      L1  H     9    24       P1  7948  0.07
      P1  H  7989  7998       L1     3  0.02

> <Gold.Chemscore.Hbond.Weighted>
-5.1329

> <Gold.Chemscore.Metal.Weighted>
-0.0000

> <Gold.Chemscore.Lipo.Weighted>
-6.4890

> <Gold.Chemscore.Internal_Hbond.Weighted>
0.0000

> <Gold.Chemscore.DEClash.Weighted>
0.1095

> <Gold.Chemscore.DEInternal.Weighted>
1.5252

> <Gold.Chemscore.Rot.Weighted>
4.1001

> <Gold.Chemscore.Internal.Correction.Weighted>
   9.000000E+99

> <Gold.Protein.RotatedTorsions>
[ 6907 6896 6895 6894 ] final  -91.41 input  -60.11 | X-H torsion
[ 7974 7965 7964 7962 ] final -146.47 input  175.53 | X-H torsion
[ 8008 7997 7996 7995 ] final  -19.83 input   59.86 | X-H torsion
[ 10167 10162 10161 10158 ] final  121.69 input  -65.29 | X-H torsion
[ 10718 10713 10712 10709 ] final -112.92 input   66.30 | X-H torsion
[ 10763 10752 10751 10750 ] final   60.41 input  -60.55 | X-H torsion
[ 11005 11000 10999 10996 ] final   -0.35 input  -57.11 | X-H torsion

> <Gold.Protein.ActiveResidues>
 VAL166  LYS551  ARG553  GLY616  TRP617  ASP618  TYR619  PRO620  LYS621  CYS622 
 ASP623  PHE694  ASN695  SER759  ASP760  ASP761  ALA762  ILE779  LEU786  VAL792 
 PHE793  MET794  SER795  GLU796  ALA797  LYS798  CYS799  TRP800  GLU811  SER814 

> <Gold.Protein.RotatedAtoms>
  150.6892  134.2281  159.4423 H   0  0  0  0  0  0  0  0  0  0  0  0  # atno 6907 bound_to 6896
  152.0233  134.9808  160.0580 H   0  0  0  0  0  0  0  0  0  0  0  0  # atno 6908 bound_to 6896
  152.1376  133.4410  159.4788 H   0  0  0  0  0  0  0  0  0  0  0  0  # atno 6909 bound_to 6896
  144.8157  140.5452  143.5612 H   0  0  0  0  0  0  0  0  0  0  0  0  # atno 7974 bound_to 7965
  154.4810  140.2078  155.9764 H   0  0  0  0  0  0  0  0  0  0  0  0  # atno 8008 bound_to 7997
  156.1165  140.3220  155.8116 H   0  0  0  0  0  0  0  0  0  0  0  0  # atno 8009 bound_to 7997
  155.4544  140.0519  157.2988 H   0  0  0  0  0  0  0  0  0  0  0  0  # atno 8010 bound_to 7997
  139.5904  144.7023  151.3304 H   0  0  0  0  0  0  0  0  0  0  0  0  # atno 10167 bound_to 10162
  156.0735  130.5946  150.8573 H   0  0  0  0  0  0  0  0  0  0  0  0  # atno 10718 bound_to 10713
  152.9920  135.5537  154.5869 H   0  0  0  0  0  0  0  0  0  0  0  0  # atno 10763 bound_to 10752
  154.5238  135.2809  155.1241 H   0  0  0  0  0  0  0  0  0  0  0  0  # atno 10764 bound_to 10752
  154.2584  135.6386  153.5318 H   0  0  0  0  0  0  0  0  0  0  0  0  # atno 10765 bound_to 10752
  140.6353  133.9538  155.8296 H   0  0  0  0  0  0  0  0  0  0  0  0  # atno 11005 bound_to 11000
  145.5220  139.1476  143.3547 LP  0  0  0  0  0  0  0  0  0  0  0  0  # atno 17320 bound_to 7965
  146.2460  140.5360  142.8913 LP  0  0  0  0  0  0  0  0  0  0  0  0  # atno 17321 bound_to 7965
  140.7168  143.7244  150.7671 LP  0  0  0  0  0  0  0  0  0  0  0  0  # atno 17342 bound_to 10162
  140.0799  143.4979  152.2536 LP  0  0  0  0  0  0  0  0  0  0  0  0  # atno 17343 bound_to 10162
  157.5818  131.0946  150.9258 LP  0  0  0  0  0  0  0  0  0  0  0  0  # atno 17370 bound_to 10713
  156.9452  130.5399  149.5281 LP  0  0  0  0  0  0  0  0  0  0  0  0  # atno 17371 bound_to 10713
  141.0646  134.0296  157.3611 LP  0  0  0  0  0  0  0  0  0  0  0  0  # atno 17394 bound_to 11000
  139.9100  135.0188  156.7653 LP  0  0  0  0  0  0  0  0  0  0  0  0  # atno 17395 bound_to 11000

$$$$
