#       Name:                AV-unprocessed.smi:199
#       Creating user name   scv26
#       Creation time:       Thu Mar 26 19:45:13 2020


#       File generated by GOLD software.
#

@<TRIPOS>MOLECULE
AV-unprocessed.smi:199
    61    65     1
SMALL
NO_CHARGES


@<TRIPOS>ATOM
      1 ****        -5.8769   0.6819  -0.9696 C.3            1 S1                 0.0000
      2 ****        -5.0308   1.9464  -0.7532 C.3            1 S1                 0.0000
      3 ****        -5.2035   2.7862  -1.8916 O.3            1 S1                 0.0000
      4 ****        -4.0300   3.5589  -2.0680 C.3            1 S1                 0.0000
      5 ****        -2.9309   2.5482  -1.7788 C.3            1 S1                 0.0000
      6 ****        -3.4948   1.7489  -0.6060 C.3            1 S1                 0.0000
      7 ****        -3.0926   2.3941   0.5904 O.3            1 S1                 0.0000
      8 ****        -2.9879   0.2833  -0.5542 C.3            1 S1                 0.0000
      9 ****        -1.5369   0.1723  -0.5240 N.pl3          1 S1                 0.0000
     10 ****        -0.6991   0.0503  -1.6089 C.2            1 S1                 0.0000
     11 ****         0.5713  -0.0276  -1.3239 N.2            1 S1                 0.0000
     12 ****         0.6165   0.0288   0.0642 C.ar           1 S1                 0.0000
     13 ****         1.6641  -0.0055   1.0292 C.ar           1 S1                 0.0000
     14 ****         2.9794  -0.1209   0.7041 N.3            1 S1                 0.0000
     15 ****         3.9867  -0.4621   1.6960 C.3            1 S1                 0.0000
     16 ****         5.2940  -0.2312   0.9179 C.3            1 S1                 0.0000
     17 ****         4.8827  -0.6668  -0.4992 C.3            1 S1                 0.0000
     18 ****         3.4251  -1.1063  -0.2702 C.3            1 S1                 0.0000
     19 ****         3.4351  -2.4546   0.4941 C.3            1 S1                 0.0000
     20 ****         2.1122  -3.2397   0.4053 C.3            1 S1                 0.0000
     21 ****         2.2547  -4.5022   1.0205 O.3            1 S1                 0.0000
     22 ****         3.7910  -1.9761   1.9168 C.3            1 S1                 0.0000
     23 ****         1.3096   0.1073   2.3368 N.ar           1 S1                 0.0000
     24 ****         0.0243   0.2160   2.6838 C.ar           1 S1                 0.0000
     25 ****        -1.0520   0.2457   1.8967 N.ar           1 S1                 0.0000
     26 ****        -0.7046   0.1552   0.5817 C.ar           1 S1                 0.0000
     27 ****        -5.7910  -0.0040  -0.1269 H              1 S1                 0.0000
     28 ****        -5.5819   0.1513  -1.8749 H              1 S1                 0.0000
     29 ****        -6.9311   0.9394  -1.0734 H              1 S1                 0.0000
     30 ****        -5.4293   2.4815   0.1113 H              1 S1                 0.0000
     31 ****        -3.9679   3.9755  -3.0735 H              1 S1                 0.0000
     32 ****        -4.0129   4.3791  -1.3486 H              1 S1                 0.0000
     33 ****        -2.8131   1.9031  -2.6504 H              1 S1                 0.0000
     34 ****        -1.9642   3.0110  -1.5752 H              1 S1                 0.0000
     35 ****        -2.1575   2.2955   0.6852 H              1 S1                 0.0000
     36 ****        -3.3902  -0.2313   0.3194 H              1 S1                 0.0000
     37 ****        -3.3366  -0.2704  -1.4262 H              1 S1                 0.0000
     38 ****        -1.0609   0.0276  -2.6265 H              1 S1                 0.0000
     39 ****         3.9394   0.1208   2.6166 H              1 S1                 0.0000
     40 ****         5.5745   0.8228   0.9282 H              1 S1                 0.0000
     41 ****         6.1279  -0.8100   1.3159 H              1 S1                 0.0000
     42 ****         4.9271   0.1793  -1.1863 H              1 S1                 0.0000
     43 ****         5.5121  -1.4608  -0.9024 H              1 S1                 0.0000
     44 ****         2.8625  -1.1411  -1.2016 H              1 S1                 0.0000
     45 ****         4.2288  -3.0900   0.0977 H              1 S1                 0.0000
     46 ****         1.2912  -2.7069   0.8839 H              1 S1                 0.0000
     47 ****         1.8319  -3.3927  -0.6371 H              1 S1                 0.0000
     48 ****         2.9424  -4.9767   0.5789 H              1 S1                 0.0000
     49 ****         4.6835  -2.4612   2.3133 H              1 S1                 0.0000
     50 ****         2.9755  -2.1634   2.6165 H              1 S1                 0.0000
     51 ****        -0.1688   0.2904   3.7438 H              1 S1                 0.0000
     52 ****        -5.9864   3.3914  -1.7476 LP             1 S1                 0.0000
     53 ****        -5.3615   2.2242  -2.7034 LP             1 S1                 0.0000
     54 ****        -3.5566   1.9760   1.3714 LP             1 S1                 0.0000
     55 ****        -3.3263   3.3653   0.5447 LP             1 S1                 0.0000
     56 ****         1.3388  -0.1093  -1.9598 LP             1 S1                 0.0000
     57 ****         2.9430   0.8351   0.4130 LP             1 S1                 0.0000
     58 ****         1.3962  -5.0101   0.9503 LP             1 S1                 0.0000
     59 ****         2.4932  -4.3824   1.9843 LP             1 S1                 0.0000
     60 ****         2.0165   0.1089   3.0442 LP             1 S1                 0.0000
     61 ****        -1.9921   0.3242   2.2284 LP             1 S1                 0.0000
@<TRIPOS>BOND
    1    1    2 1     
    2    1   27 1     
    3    1   28 1     
    4    1   29 1     
    5    2    6 1     
    6    2    3 1     
    7    2   30 1     
    8    3    4 1     
    9    4    5 1     
   10    4   31 1     
   11    4   32 1     
   12    5    6 1     
   13    5   33 1     
   14    5   34 1     
   15    6    7 1     
   16    6    8 1     
   17    7   35 1     
   18    8    9 1     
   19    8   36 1     
   20    8   37 1     
   21    9   26 1     
   22    9   10 1     
   23   10   11 2     
   24   10   38 1     
   25   11   12 1     
   26   12   26 ar    
   27   12   13 ar    
   28   13   14 1     
   29   13   23 ar    
   30   14   18 1     
   31   14   15 1     
   32   15   22 1     
   33   15   16 1     
   34   15   39 1     
   35   16   17 1     
   36   16   40 1     
   37   16   41 1     
   38   17   18 1     
   39   17   42 1     
   40   17   43 1     
   41   18   19 1     
   42   18   44 1     
   43   19   20 1     
   44   19   22 1     
   45   19   45 1     
   46   20   21 1     
   47   20   46 1     
   48   20   47 1     
   49   21   48 1     
   50   22   49 1     
   51   22   50 1     
   52   23   24 ar    
   53   24   25 ar    
   54   24   51 1     
   55   25   26 ar    
   56    3   52 1     
   57    3   53 1     
   58    7   54 1     
   59    7   55 1     
   60   11   56 1     
   61   14   57 1     
   62   21   58 1     
   63   21   59 1     
   64   23   60 1     
   65   25   61 1     
@<TRIPOS>SUBSTRUCTURE
      1 S1             1
@<TRIPOS>SET
LONE_PAIRS      STATIC     ATOMS    <user>   **** ""
10 52 53 54 55 56 57 58 59 60 61
DONOR_HYDROGENS      STATIC     ATOMS    <user>   **** ""
2 35 48
ATOM$BLUE        STATIC     ATOMS    COLORGROUP SYSTEM
10 52 53 54 55 56 57 58 59 60 61
ATOM$RED        STATIC     ATOMS    COLORGROUP SYSTEM
2 35 48
