#       Name:                AV-unprocessed.smi:2265
#       Creating user name   scv26
#       Creation time:       Fri Mar 27 12:35:01 2020


#       File generated by GOLD software.
#

@<TRIPOS>MOLECULE
AV-unprocessed.smi:2265
    41    42     1
SMALL
NO_CHARGES


@<TRIPOS>ATOM
      1 ****         5.8580   2.3834  -5.8088 C.3            1 S1                 0.0000
      2 ****         4.4993   2.1276  -5.1477 C.3            1 S1                 0.0000
      3 ****         4.6291   1.7325  -3.6705 C.3            1 S1                 0.0000
      4 ****         3.2843   1.4882  -3.0158 C.3            1 S1                 0.0000
      5 ****         2.4925   2.6373  -2.4505 C.3            1 S1                 0.0000
      6 ****         3.1151   1.6189  -1.5177 C.3            1 S1                 0.0000
      7 ****         2.2145   0.7283  -0.8503 N.am           1 S1                 0.0000
      8 ****         2.4851  -0.0901   0.1823 C.2            1 S1                 0.0000
      9 ****         3.6050  -0.1102   0.6926 O.2            1 S1                 0.0000
     10 ****         1.4229  -0.8145   0.5994 N.am           1 S1                 0.0000
     11 ****         1.3567  -1.7314   1.6554 C.2            1 S1                 0.0000
     12 ****         2.3982  -2.1044   2.3453 N.2            1 S1                 0.0000
     13 ****         2.2958  -3.0253   3.3881 C.2            1 S1                 0.0000
     14 ****         1.1089  -3.5663   3.7170 C.2            1 S1                 0.0000
     15 ****        -0.0552  -3.2169   3.0179 N.am           1 S1                 0.0000
     16 ****        -1.3207  -3.8336   3.4167 C.3            1 S1                 0.0000
     17 ****        -0.0152  -2.3218   1.9938 C.2            1 S1                 0.0000
     18 ****        -1.0113  -1.9809   1.3526 O.2            1 S1                 0.0000
     19 ****         5.7347   2.6599  -6.8561 H              1 S1                 0.0000
     20 ****         6.4883   1.4943  -5.7711 H              1 S1                 0.0000
     21 ****         6.3911   3.1942  -5.3112 H              1 S1                 0.0000
     22 ****         3.8837   3.0237  -5.2342 H              1 S1                 0.0000
     23 ****         3.9769   1.3403  -5.6923 H              1 S1                 0.0000
     24 ****         5.2261   0.8246  -3.5790 H              1 S1                 0.0000
     25 ****         5.1592   2.5121  -3.1218 H              1 S1                 0.0000
     26 ****         2.7050   0.6995  -3.4931 H              1 S1                 0.0000
     27 ****         2.9426   3.6277  -2.4828 H              1 S1                 0.0000
     28 ****         1.4130   2.6142  -2.5875 H              1 S1                 0.0000
     29 ****         3.9706   1.9842  -0.9511 H              1 S1                 0.0000
     30 ****         1.2482   0.7841  -1.1379 H              1 S1                 0.0000
     31 ****         0.5645  -0.6524   0.0931 H              1 S1                 0.0000
     32 ****         3.2094  -3.2747   3.9074 H              1 S1                 0.0000
     33 ****         0.9802  -4.2819   4.5158 H              1 S1                 0.0000
     34 ****        -1.7826  -4.3456   2.5713 H              1 S1                 0.0000
     35 ****        -2.0168  -3.0749   3.7768 H              1 S1                 0.0000
     36 ****        -1.1946  -4.5682   4.2125 H              1 S1                 0.0000
     37 ****         4.3260   0.4864   0.3400 LP             1 S1                 0.0000
     38 ****         3.7940  -0.7230   1.4599 LP             1 S1                 0.0000
     39 ****         3.2939  -1.7203   2.1211 LP             1 S1                 0.0000
     40 ****        -0.9246  -1.3173   0.6095 LP             1 S1                 0.0000
     41 ****        -1.9060  -2.3679   1.5755 LP             1 S1                 0.0000
@<TRIPOS>BOND
    1    1    2 1     
    2    1   19 1     
    3    1   20 1     
    4    1   21 1     
    5    2    3 1     
    6    2   22 1     
    7    2   23 1     
    8    3    4 1     
    9    3   24 1     
   10    3   25 1     
   11    4    6 1     
   12    4    5 1     
   13    4   26 1     
   14    5    6 1     
   15    5   27 1     
   16    5   28 1     
   17    6    7 1     
   18    6   29 1     
   19    7    8 am    
   20    7   30 1     
   21    8    9 2     
   22    8   10 am    
   23   10   11 1     
   24   10   31 1     
   25   11   17 1     
   26   11   12 2     
   27   12   13 1     
   28   13   14 2     
   29   13   32 1     
   30   14   15 1     
   31   14   33 1     
   32   15   16 1     
   33   15   17 am    
   34   16   34 1     
   35   16   35 1     
   36   16   36 1     
   37   17   18 2     
   38    9   37 1     
   39    9   38 1     
   40   12   39 1     
   41   18   40 1     
   42   18   41 1     
@<TRIPOS>SUBSTRUCTURE
      1 S1             1
@<TRIPOS>SET
LONE_PAIRS      STATIC     ATOMS    <user>   **** ""
5 37 38 39 40 41
DONOR_HYDROGENS      STATIC     ATOMS    <user>   **** ""
2 30 31
ATOM$BLUE        STATIC     ATOMS    COLORGROUP SYSTEM
5 37 38 39 40 41
ATOM$RED        STATIC     ATOMS    COLORGROUP SYSTEM
2 30 31
