AV-unprocessed.smi:281|AV-procd|sdf|2105|dock7
  -GOLD-   2262021393D 1   1.00000     0.00000
 Structure written by MMmdl.
 55 59  0  0  0  0  0  0  0  0  1 V2000
  146.2649  142.9072  154.3668 C   0  0  0  0  0  0  0  0  0  0  0  0
  146.8346  141.4986  154.5608 C   0  0  2  0  0  0  0  0  0  0  0  0
  148.3482  141.5198  154.8235 C   0  0  0  0  0  0  0  0  0  0  0  0
  148.8677  140.1577  154.9179 N   0  0  0  0  0  0  0  0  0  0  0  0
  150.1405  140.0012  155.3708 C   0  0  0  0  0  0  0  0  0  0  0  0
  151.1005  139.5146  154.5377 N   0  0  0  0  0  0  0  0  0  0  0  0
  152.3536  139.3462  154.9688 C   0  0  0  0  0  0  0  0  0  0  0  0
  152.8611  139.6004  156.1755 N   0  0  0  0  0  0  0  0  0  0  0  0
  151.9101  140.0980  157.0163 C   0  0  0  0  0  0  0  0  0  0  0  0
  150.5395  140.3248  156.7002 C   0  0  0  0  0  0  0  0  0  0  0  0
  149.8840  140.8429  157.8105 N   0  0  0  0  0  0  0  0  0  0  0  0
  150.8070  140.9088  158.7297 C   0  0  0  0  0  0  0  0  0  0  0  0
  152.0577  140.4915  158.3354 N   0  0  0  0  0  0  0  0  0  0  0  0
  153.2633  140.4623  159.1505 C   0  0  0  0  0  0  0  0  0  0  0  0
  153.5002  141.7619  159.9572 C   0  0  1  0  0  0  0  0  0  0  0  0
  154.8362  141.7705  160.4273 O   0  0  0  0  0  0  0  0  0  0  0  0
  153.2585  143.0202  159.1203 C   0  0  0  0  0  0  0  0  0  0  0  0
  151.9649  143.5879  159.6921 C   0  0  0  0  0  0  0  0  0  0  0  0
  152.0709  143.2717  161.0682 O   0  0  0  0  0  0  0  0  0  0  0  0
  152.5410  141.9343  161.1525 C   0  0  0  0  0  0  0  0  0  0  0  0
  148.5210  139.3260  153.7675 C   0  0  0  0  0  0  0  0  0  0  0  0
  147.0034  139.3868  153.4408 C   0  0  1  0  0  0  0  0  0  0  0  0
  146.7371  138.7829  152.0671 C   0  0  0  0  0  0  0  0  0  0  0  0
  146.4538  137.3242  152.3848 C   0  0  0  0  0  0  0  0  0  0  0  0
  145.6585  137.3998  153.5542 O   0  0  0  0  0  0  0  0  0  0  0  0
  146.0552  138.5289  154.3299 C   0  0  1  0  0  0  0  0  0  0  0  0
  146.5920  138.0372  155.6830 C   0  0  0  0  0  0  0  0  0  0  0  0
  146.5845  140.7517  153.3735 O   0  0  0  0  0  0  0  0  0  0  0  0
  146.4209  143.5195  155.2552 H   0  0  0  0  0  0  0  0  0  0  0  0
  145.1926  142.8696  154.1737 H   0  0  0  0  0  0  0  0  0  0  0  0
  146.7377  143.4122  153.5238 H   0  0  0  0  0  0  0  0  0  0  0  0
  146.3209  141.0362  155.4043 H   0  0  0  0  0  0  0  0  0  0  0  0
  148.8599  142.0496  154.0183 H   0  0  0  0  0  0  0  0  0  0  0  0
  148.5488  142.0599  155.7497 H   0  0  0  0  0  0  0  0  0  0  0  0
  153.0486  138.9508  154.2426 H   0  0  0  0  0  0  0  0  0  0  0  0
  150.6001  141.2731  159.7256 H   0  0  0  0  0  0  0  0  0  0  0  0
  153.1990  139.6055  159.8229 H   0  0  0  0  0  0  0  0  0  0  0  0
  154.1147  140.2708  158.4961 H   0  0  0  0  0  0  0  0  0  0  0  0
  155.4151  141.7684  159.6800 H   0  0  0  0  0  0  0  0  0  0  0  0
  154.0588  143.7482  159.2653 H   0  0  0  0  0  0  0  0  0  0  0  0
  153.1865  142.8245  158.0497 H   0  0  0  0  0  0  0  0  0  0  0  0
  151.8663  144.6613  159.5295 H   0  0  0  0  0  0  0  0  0  0  0  0
  151.0933  143.0897  159.2644 H   0  0  0  0  0  0  0  0  0  0  0  0
  151.6756  141.2776  161.0620 H   0  0  0  0  0  0  0  0  0  0  0  0
  153.0053  141.7346  162.1193 H   0  0  0  0  0  0  0  0  0  0  0  0
  149.0912  139.7022  152.9169 H   0  0  0  0  0  0  0  0  0  0  0  0
  148.8313  138.2917  153.9050 H   0  0  0  0  0  0  0  0  0  0  0  0
  145.8454  139.2291  151.6240 H   0  0  0  0  0  0  0  0  0  0  0  0
  147.5569  138.9139  151.3601 H   0  0  0  0  0  0  0  0  0  0  0  0
  145.9335  136.8076  151.5782 H   0  0  0  0  0  0  0  0  0  0  0  0
  147.3758  136.7840  152.6040 H   0  0  0  0  0  0  0  0  0  0  0  0
  145.1402  139.0934  154.5141 H   0  0  0  0  0  0  0  0  0  0  0  0
  146.9059  138.8635  156.3199 H   0  0  0  0  0  0  0  0  0  0  0  0
  147.4362  137.3619  155.5539 H   0  0  0  0  0  0  0  0  0  0  0  0
  145.8206  137.4876  156.2221 H   0  0  0  0  0  0  0  0  0  0  0  0
  1  2  1  0  0  0  0
  1 29  1  0  0  0  0
  1 30  1  0  0  0  0
  1 31  1  0  0  0  0
  2 28  1  0  0  0  0
  2  3  1  0  0  0  0
  2 32  1  0  0  0  0
  3  4  1  0  0  0  0
  3 33  1  0  0  0  0
  3 34  1  0  0  0  0
  4  5  1  0  0  0  0
  4 21  1  0  0  0  0
  5 10  1  0  0  0  0
  5  6  2  0  0  0  0
  6  7  1  0  0  0  0
  7  8  2  0  0  0  0
  7 35  1  0  0  0  0
  8  9  1  0  0  0  0
  9 13  1  0  0  0  0
  9 10  2  0  0  0  0
 10 11  1  0  0  0  0
 11 12  2  0  0  0  0
 12 13  1  0  0  0  0
 12 36  1  0  0  0  0
 13 14  1  0  0  0  0
 14 15  1  0  0  0  0
 14 37  1  0  0  0  0
 14 38  1  0  0  0  0
 15 20  1  0  0  0  0
 15 16  1  0  0  0  0
 15 17  1  0  0  0  0
 16 39  1  0  0  0  0
 17 18  1  0  0  0  0
 17 40  1  0  0  0  0
 17 41  1  0  0  0  0
 18 19  1  0  0  0  0
 18 42  1  0  0  0  0
 18 43  1  0  0  0  0
 19 20  1  0  0  0  0
 20 44  1  0  0  0  0
 20 45  1  0  0  0  0
 21 22  1  0  0  0  0
 21 46  1  0  0  0  0
 21 47  1  0  0  0  0
 22 26  1  0  0  0  0
 22 23  1  0  0  0  0
 22 28  1  0  0  0  0
 23 24  1  0  0  0  0
 23 48  1  0  0  0  0
 23 49  1  0  0  0  0
 24 25  1  0  0  0  0
 24 50  1  0  0  0  0
 24 51  1  0  0  0  0
 25 26  1  0  0  0  0
 26 27  1  0  0  0  0
 26 52  1  0  0  0  0
 27 53  1  0  0  0  0
 27 54  1  0  0  0  0
 27 55  1  0  0  0  0
M  END
> <s_m_source_file>
AV-unprocessed.smi

> <i_m_source_file_index>
281

> <i_lp_mmshare_version>
43012

> <i_f3d_flags>
0

> <s_epik_input>
W0NIM11bQ0BASF0xT1tDSDJdW0NIMl1bQ0BAXTEyW0NIMl1OKFtDSDJdW0NASF0oTzIpW0NIM10pYyhuW2NIXW4zKWMoYzM0KW5bY0hdbjRbQ0gyXVtDQEBdNShbT0hdKVtDSDJdW0NIMl1PW0NIMl01

> <s_epik_cmdline>
J2VwaWtfcHl0aG9uJywgJy1waCcsICc3LjAnLCAnLXRuJywgJzgnLCAnLW1hJywgJzIwMCcsICctbWV0YWxfYmluZGluZycsICctaW1hZScsICc8aW5maWxlLm1hZT4nLCAnLW9tYWUnLCAnPG91dGZpbGUubWFlPic=

> <r_lp_tautomer_probability>
1

> <r_epik_Ionization_Penalty>
0.00571331

> <r_epik_Ionization_Penalty_Charging>
0

> <r_epik_Ionization_Penalty_Neutral>
0.00571331

> <r_epik_State_Penalty>
0.00399586

> <r_epik_Charging_Adjusted_Penalty>
0.00399586

> <i_epik_Tot_Q>
0

> <i_epik_Tot_abs_Q>
0

> <r_epik_Metal_State_Penalty>
-0

> <b_epik_Metal_Only>
0

> <s_lp_Force_Field>
OPLS_2005

> <r_lp_Energy>
53.3416

> <b_lp_Chiralities_Consistent>
1

> <s_lp_Variant>
AV-unprocessed.smi:281-5

> <Gold.Version>
5.8.1

> <Gold.Id.Protein>
6NUR|6NUR_protein|mol2

> <Gold.PLP.Fitness>
49.3509

> <Gold.PLP.PLP>
-45.1733

> <Gold.PLP.part.hbond>
-3.0000

> <Gold.PLP.part.metal>
0.0000

> <Gold.PLP.part.buried>
5.5278

> <Gold.PLP.part.nonpolar>
-46.4793

> <Gold.PLP.part.repulsive>
0.7145

> <Gold.PLP.ligand.clash>
0.0000

> <Gold.PLP.ligand.torsion>
0.6789

> <Gold.PLP.Chemscore.Hbond>
1.7500

> <Gold.PLP.Chemscore.CHOScore>
0.0000

> <Gold.PLP.Chemscore.Metal>
0.0000

> <Gold.Chemscore.Hbonds>
donor molecule, donor type, donor heavy atom, donor atom, acceptor molecule, acceptor atom, score
      P1  H  7989  7998       L1     6  0.50
      P1  H  7997  8009       L1     8  1.00

> <Gold.PLP.Chemscore.Internal.Correction>
0.2854

> <Gold.Rescore>
     Score         DG    S(hbond)    S(metal)    S(lipo)     H(rot)  DE(clash)    DE(int)     intcor
     12.49     -15.85       0.88        0.00     109.46       2.09       2.02       1.35       ----

> <Gold.Chemscore.Fitness>
12.4859

> <Gold.Chemscore.DG>
-15.8539

> <Gold.Chemscore.ZeroCoef>
-5.4800

> <Gold.Chemscore.Hbond>
0.8757

> <Gold.Chemscore.Metal>
0.0000

> <Gold.Chemscore.Lipo>
109.4561

> <Gold.Chemscore.Internal_Hbond>
0.0000

> <Gold.Chemscore.DEClash>
2.0171

> <Gold.Chemscore.DEInternal>
1.3509

> <Gold.Chemscore.Rot>
2.0927

> <Gold.Chemscore.Internal.Correction>
   9.000000E+99

> <Gold.Chemscore.Hbonds>
donor molecule, donor type, donor heavy atom, donor atom, acceptor molecule, acceptor atom, score
      P1  H  7989  7998       L1     6  0.01
      P1  H  7997  8009       L1     8  0.89

> <Gold.Chemscore.Hbond.Weighted>
-2.9249

> <Gold.Chemscore.Metal.Weighted>
-0.0000

> <Gold.Chemscore.Lipo.Weighted>
-12.8064

> <Gold.Chemscore.Internal_Hbond.Weighted>
0.0000

> <Gold.Chemscore.DEClash.Weighted>
2.0171

> <Gold.Chemscore.DEInternal.Weighted>
1.3509

> <Gold.Chemscore.Rot.Weighted>
5.3573

> <Gold.Chemscore.Internal.Correction.Weighted>
   9.000000E+99

> <Gold.Protein.RotatedTorsions>
[ 6907 6896 6895 6894 ] final   44.28 input  -60.11 | X-H torsion
[ 7974 7965 7964 7962 ] final   98.22 input  175.53 | X-H torsion
[ 8008 7997 7996 7995 ] final -170.83 input   59.86 | X-H torsion
[ 10167 10162 10161 10158 ] final -168.91 input  -65.29 | X-H torsion
[ 10718 10713 10712 10709 ] final   91.50 input   66.30 | X-H torsion
[ 10763 10752 10751 10750 ] final  -74.29 input  -60.55 | X-H torsion
[ 11005 11000 10999 10996 ] final -167.75 input  -57.11 | X-H torsion

> <Gold.Protein.ActiveResidues>
 VAL166  LYS551  ARG553  GLY616  TRP617  ASP618  TYR619  PRO620  LYS621  CYS622 
 ASP623  PHE694  ASN695  SER759  ASP760  ASP761  ALA762  ILE779  LEU786  VAL792 
 PHE793  MET794  SER795  GLU796  ALA797  LYS798  CYS799  TRP800  GLU811  SER814 

> <Gold.Protein.RotatedAtoms>
  152.2306  134.8325  160.0473 H   0  0  0  0  0  0  0  0  0  0  0  0  # atno 6907 bound_to 6896
  151.9076  133.3548  159.3860 H   0  0  0  0  0  0  0  0  0  0  0  0  # atno 6908 bound_to 6896
  150.7024  134.4691  159.5461 H   0  0  0  0  0  0  0  0  0  0  0  0  # atno 6909 bound_to 6896
  145.4150  139.2329  143.3227 H   0  0  0  0  0  0  0  0  0  0  0  0  # atno 7974 bound_to 7965
  155.9236  140.1078  157.1188 H   0  0  0  0  0  0  0  0  0  0  0  0  # atno 8008 bound_to 7997
  154.4058  140.1251  156.4776 H   0  0  0  0  0  0  0  0  0  0  0  0  # atno 8009 bound_to 7997
  155.7166  140.3470  155.4999 H   0  0  0  0  0  0  0  0  0  0  0  0  # atno 8010 bound_to 7997
  139.5955  144.1121  152.1684 H   0  0  0  0  0  0  0  0  0  0  0  0  # atno 10167 bound_to 10162
  157.6960  131.0410  150.3740 H   0  0  0  0  0  0  0  0  0  0  0  0  # atno 10718 bound_to 10713
  154.4711  135.5869  153.6322 H   0  0  0  0  0  0  0  0  0  0  0  0  # atno 10763 bound_to 10752
  152.9835  135.6067  154.3365 H   0  0  0  0  0  0  0  0  0  0  0  0  # atno 10764 bound_to 10752
  154.3247  135.2843  155.2481 H   0  0  0  0  0  0  0  0  0  0  0  0  # atno 10765 bound_to 10752
  140.5498  134.5440  157.5120 H   0  0  0  0  0  0  0  0  0  0  0  0  # atno 11005 bound_to 11000
  146.2685  140.4867  142.8824 LP  0  0  0  0  0  0  0  0  0  0  0  0  # atno 17320 bound_to 7965
  144.8283  140.6665  143.6307 LP  0  0  0  0  0  0  0  0  0  0  0  0  # atno 17321 bound_to 7965
  140.0705  144.5783  150.7195 LP  0  0  0  0  0  0  0  0  0  0  0  0  # atno 17342 bound_to 10162
  140.7208  143.2587  151.4283 LP  0  0  0  0  0  0  0  0  0  0  0  0  # atno 17343 bound_to 10162
  156.4161  130.3943  149.6857 LP  0  0  0  0  0  0  0  0  0  0  0  0  # atno 17370 bound_to 10713
  156.4124  130.7728  151.2742 LP  0  0  0  0  0  0  0  0  0  0  0  0  # atno 17371 bound_to 10713
  139.9461  134.7700  156.0559 LP  0  0  0  0  0  0  0  0  0  0  0  0  # atno 17394 bound_to 11000
  141.1178  133.6622  156.3138 LP  0  0  0  0  0  0  0  0  0  0  0  0  # atno 17395 bound_to 11000

$$$$
