AV-unprocessed.smi:550|AV-procd|sdf|2896|dock10
  -GOLD-   2262023393D 1   1.00000     0.00000
 Structure written by MMmdl.
 46 48  0  0  0  0  0  0  0  0  2 V2000
  151.0878  137.1930  156.5266 O   0  0  0  0  0  0  0  0  0  0  0  0
  150.5338  137.4612  155.4609 C   0  0  0  0  0  0  0  0  0  0  0  0
  150.1916  136.5346  154.5544 N   0  0  0  0  0  0  0  0  0  0  0  0
  150.3969  135.0973  154.7072 C   0  0  0  0  0  0  0  0  0  0  0  0
  149.0927  134.2848  154.5341 C   0  0  2  0  0  0  0  0  0  0  0  0
  148.2638  134.2015  155.8361 C   0  0  0  0  0  0  0  0  0  0  0  0
  148.8790  133.1442  156.7636 C   0  0  0  0  0  0  0  0  0  0  0  0
  149.6483  131.8966  155.6629 S   0  0  0  0  0  0  0  0  0  0  0  0
  151.0874  131.8261  155.9576 O   0  0  0  0  0  0  0  0  0  0  0  0
  148.8207  130.6811  155.6340 O   0  0  0  0  0  0  0  0  0  0  0  0
  149.3901  132.8373  154.1110 C   0  0  0  0  0  0  0  0  0  0  0  0
  150.2089  138.6969  155.0422 N   0  0  0  0  0  0  0  0  0  0  0  0
  150.3619  139.9360  155.7233 C   0  0  0  0  0  0  0  0  0  0  0  0
  151.1113  139.9386  156.9198 C   0  0  0  0  0  0  0  0  0  0  0  0
  151.3066  141.1450  157.6231 C   0  0  0  0  0  0  0  0  0  0  0  0
  150.7555  142.3428  157.1114 C   0  0  0  0  0  0  0  0  0  0  0  0
  150.8909  143.5935  157.7302 N   0  0  0  0  0  0  0  0  0  0  0  0
  150.3011  143.6751  159.0551 C   0  0  0  0  0  0  0  0  0  0  0  0
  150.8899  144.9391  159.6853 C   0  0  0  0  0  0  0  0  0  0  0  0
  152.1976  145.1856  158.9234 C   0  0  0  0  0  0  0  0  0  0  0  0
  152.2547  144.0792  157.8658 C   0  0  0  0  0  0  0  0  0  0  0  0
  150.0509  142.3011  155.9602 N   0  3  0  0  0  0  0  0  0  0  0  0
  149.8384  141.1674  155.2573 C   0  0  0  0  0  0  0  0  0  0  0  0
  149.7446  136.8408  153.7024 H   0  0  0  0  0  0  0  0  0  0  0  0
  151.1468  134.7613  153.9889 H   0  0  0  0  0  0  0  0  0  0  0  0
  150.8267  134.9233  155.6938 H   0  0  0  0  0  0  0  0  0  0  0  0
  148.4965  134.7626  153.7555 H   0  0  0  0  0  0  0  0  0  0  0  0
  148.1619  135.1645  156.3363 H   0  0  0  0  0  0  0  0  0  0  0  0
  147.2529  133.8840  155.5776 H   0  0  0  0  0  0  0  0  0  0  0  0
  149.6634  133.5764  157.3849 H   0  0  0  0  0  0  0  0  0  0  0  0
  148.1427  132.6702  157.4131 H   0  0  0  0  0  0  0  0  0  0  0  0
  148.5284  132.4052  153.6014 H   0  0  0  0  0  0  0  0  0  0  0  0
  150.2579  132.7380  153.4583 H   0  0  0  0  0  0  0  0  0  0  0  0
  149.8260  138.7605  154.1103 H   0  0  0  0  0  0  0  0  0  0  0  0
  151.5335  139.0208  157.3030 H   0  0  0  0  0  0  0  0  0  0  0  0
  151.8731  141.1433  158.5428 H   0  0  0  0  0  0  0  0  0  0  0  0
  149.2132  143.7243  158.9992 H   0  0  0  0  0  0  0  0  0  0  0  0
  150.5698  142.7986  159.6464 H   0  0  0  0  0  0  0  0  0  0  0  0
  150.2132  145.7822  159.5404 H   0  0  0  0  0  0  0  0  0  0  0  0
  151.0475  144.8204  160.7579 H   0  0  0  0  0  0  0  0  0  0  0  0
  152.1744  146.1678  158.4496 H   0  0  0  0  0  0  0  0  0  0  0  0
  153.0688  145.1538  159.5784 H   0  0  0  0  0  0  0  0  0  0  0  0
  152.9212  143.2821  158.1964 H   0  0  0  0  0  0  0  0  0  0  0  0
  152.6299  144.4559  156.9137 H   0  0  0  0  0  0  0  0  0  0  0  0
  149.2710  141.3015  154.3489 H   0  0  0  0  0  0  0  0  0  0  0  0
  149.6623  143.1730  155.5995 H   0  0  0  0  0  0  0  0  0  0  0  0
  1  2  2  0  0  0  0
  2  3  1  0  0  0  0
  2 12  1  0  0  0  0
  3  4  1  0  0  0  0
  3 24  1  0  0  0  0
  4  5  1  0  0  0  0
  4 25  1  0  0  0  0
  4 26  1  0  0  0  0
  5 11  1  0  0  0  0
  5  6  1  0  0  0  0
  5 27  1  0  0  0  0
  6  7  1  0  0  0  0
  6 28  1  0  0  0  0
  6 29  1  0  0  0  0
  7  8  1  0  0  0  0
  7 30  1  0  0  0  0
  7 31  1  0  0  0  0
  8  9  2  0  0  0  0
  8 10  2  0  0  0  0
  8 11  1  0  0  0  0
 11 32  1  0  0  0  0
 11 33  1  0  0  0  0
 12 13  1  0  0  0  0
 12 34  1  0  0  0  0
 13 23  1  0  0  0  0
 13 14  2  0  0  0  0
 14 15  1  0  0  0  0
 14 35  1  0  0  0  0
 15 16  2  0  0  0  0
 15 36  1  0  0  0  0
 16 17  1  0  0  0  0
 16 22  1  0  0  0  0
 17 21  1  0  0  0  0
 17 18  1  0  0  0  0
 18 19  1  0  0  0  0
 18 37  1  0  0  0  0
 18 38  1  0  0  0  0
 19 20  1  0  0  0  0
 19 39  1  0  0  0  0
 19 40  1  0  0  0  0
 20 21  1  0  0  0  0
 20 41  1  0  0  0  0
 20 42  1  0  0  0  0
 21 43  1  0  0  0  0
 21 44  1  0  0  0  0
 22 23  2  0  0  0  0
 22 46  1  0  0  0  0
 23 45  1  0  0  0  0
M  CHG  1  22   1
M  END
> <s_m_source_file>
AV-unprocessed.smi

> <i_m_source_file_index>
550

> <i_lp_mmshare_version>
43012

> <i_f3d_flags>
0

> <s_epik_input>
Tz1TMSg9TylbQ0gyXVtDSDJdW0NASF0oW0NIMl0xKVtDSDJdW05IXUMoPU8pW05IXWMyW2NIXVtjSF1jKG5bY0hdMilOM1tDSDJdW0NIMl1bQ0gyXVtDSDJdMw==

> <s_epik_cmdline>
J2VwaWtfcHl0aG9uJywgJy1waCcsICc3LjAnLCAnLXRuJywgJzgnLCAnLW1hJywgJzIwMCcsICctbWV0YWxfYmluZGluZycsICctaW1hZScsICc8aW5maWxlLm1hZT4nLCAnLW9tYWUnLCAnPG91dGZpbGUubWFlPic=

> <r_lp_tautomer_probability>
0.999994

> <r_epik_Ionization_Penalty>
1.12573

> <r_epik_Ionization_Penalty_Charging>
1.12571

> <r_epik_Ionization_Penalty_Neutral>
1.93198e-05

> <r_epik_State_Penalty>
1.18495

> <r_epik_Charging_Adjusted_Penalty>
2.31065

> <i_epik_Tot_Q>
1

> <i_epik_Tot_abs_Q>
1

> <r_epik_Metal_State_Penalty>
1.26884

> <b_epik_Metal_Only>
0

> <s_lp_Force_Field>
OPLS_2005

> <r_lp_Energy>
42.4783

> <b_lp_Chiralities_Consistent>
1

> <s_lp_Variant>
AV-unprocessed.smi:550-3

> <Gold.Version>
5.8.1

> <Gold.Id.Protein>
6NUR|6NUR_protein|mol2

> <Gold.PLP.Fitness>
46.3350

> <Gold.PLP.PLP>
-38.3780

> <Gold.PLP.part.hbond>
-2.3183

> <Gold.PLP.part.metal>
0.0000

> <Gold.PLP.part.buried>
-6.9366

> <Gold.PLP.part.nonpolar>
-31.5144

> <Gold.PLP.part.repulsive>
0.7650

> <Gold.PLP.ligand.clash>
0.0000

> <Gold.PLP.ligand.torsion>
0.2989

> <Gold.PLP.Chemscore.Hbond>
2.8445

> <Gold.PLP.Chemscore.CHOScore>
0.0000

> <Gold.PLP.Chemscore.Metal>
0.0000

> <Gold.Chemscore.Hbonds>
donor molecule, donor type, donor heavy atom, donor atom, acceptor molecule, acceptor atom, score
      L1  H     3    24       P1  7948  0.83
      L1  H    22    46       P1  8028  2.00

> <Gold.PLP.Chemscore.Internal.Correction>
0.0213

> <Gold.Rescore>
     Score         DG    S(hbond)    S(metal)    S(lipo)     H(rot)  DE(clash)    DE(int)     intcor
     16.30     -18.11       1.71        0.00      91.91       1.50       0.18       1.63       ----

> <Gold.Chemscore.Fitness>
16.3023

> <Gold.Chemscore.DG>
-18.1057

> <Gold.Chemscore.ZeroCoef>
-5.4800

> <Gold.Chemscore.Hbond>
1.7075

> <Gold.Chemscore.Metal>
0.0000

> <Gold.Chemscore.Lipo>
91.9058

> <Gold.Chemscore.Internal_Hbond>
0.0000

> <Gold.Chemscore.DEClash>
0.1754

> <Gold.Chemscore.DEInternal>
1.6280

> <Gold.Chemscore.Rot>
1.4962

> <Gold.Chemscore.Internal.Correction>
   9.000000E+99

> <Gold.Chemscore.Hbonds>
donor molecule, donor type, donor heavy atom, donor atom, acceptor molecule, acceptor atom, score
      L1  H     3    24       P1  7948  0.47
      L1  H    22    46       P1  8028  0.99

> <Gold.Chemscore.Hbond.Weighted>
-5.7030

> <Gold.Chemscore.Metal.Weighted>
-0.0000

> <Gold.Chemscore.Lipo.Weighted>
-10.7530

> <Gold.Chemscore.Internal_Hbond.Weighted>
0.0000

> <Gold.Chemscore.DEClash.Weighted>
0.1754

> <Gold.Chemscore.DEInternal.Weighted>
1.6280

> <Gold.Chemscore.Rot.Weighted>
3.8303

> <Gold.Chemscore.Internal.Correction.Weighted>
   9.000000E+99

> <Gold.Protein.RotatedTorsions>
[ 6907 6896 6895 6894 ] final -106.77 input  -60.11 | X-H torsion
[ 7974 7965 7964 7962 ] final  104.17 input  175.53 | X-H torsion
[ 8008 7997 7996 7995 ] final  136.68 input   59.86 | X-H torsion
[ 10167 10162 10161 10158 ] final -158.79 input  -65.29 | X-H torsion
[ 10718 10713 10712 10709 ] final -127.02 input   66.30 | X-H torsion
[ 10763 10752 10751 10750 ] final  -90.11 input  -60.55 | X-H torsion
[ 11005 11000 10999 10996 ] final  -87.50 input  -57.11 | X-H torsion

> <Gold.Protein.ActiveResidues>
 VAL166  LYS551  ARG553  GLY616  TRP617  ASP618  TYR619  PRO620  LYS621  CYS622 
 ASP623  PHE694  ASN695  SER759  ASP760  ASP761  ALA762  ILE779  LEU786  VAL792 
 PHE793  MET794  SER795  GLU796  ALA797  LYS798  CYS799  TRP800  GLU811  SER814 

> <Gold.Protein.RotatedAtoms>
  150.7407  133.9926  159.3611 H   0  0  0  0  0  0  0  0  0  0  0  0  # atno 6907 bound_to 6896
  151.7875  135.0743  160.0392 H   0  0  0  0  0  0  0  0  0  0  0  0  # atno 6908 bound_to 6896
  152.3231  133.5839  159.5794 H   0  0  0  0  0  0  0  0  0  0  0  0  # atno 6909 bound_to 6896
  145.3363  139.2474  143.3634 H   0  0  0  0  0  0  0  0  0  0  0  0  # atno 7974 bound_to 7965
  156.3004  140.2439  156.3784 H   0  0  0  0  0  0  0  0  0  0  0  0  # atno 8008 bound_to 7997
  154.8723  140.0415  157.1752 H   0  0  0  0  0  0  0  0  0  0  0  0  # atno 8009 bound_to 7997
  154.8782  140.2945  155.5445 H   0  0  0  0  0  0  0  0  0  0  0  0  # atno 8010 bound_to 7997
  139.6665  143.9820  152.2258 H   0  0  0  0  0  0  0  0  0  0  0  0  # atno 10167 bound_to 10162
  156.1818  130.6737  151.0314 H   0  0  0  0  0  0  0  0  0  0  0  0  # atno 10718 bound_to 10713
  154.6624  135.5316  153.8034 H   0  0  0  0  0  0  0  0  0  0  0  0  # atno 10763 bound_to 10752
  153.0450  135.6509  154.0852 H   0  0  0  0  0  0  0  0  0  0  0  0  # atno 10764 bound_to 10752
  154.0759  135.2950  155.3279 H   0  0  0  0  0  0  0  0  0  0  0  0  # atno 10765 bound_to 10752
  141.1616  133.7515  156.9316 H   0  0  0  0  0  0  0  0  0  0  0  0  # atno 11005 bound_to 11000
  146.3025  140.3951  142.8699 LP  0  0  0  0  0  0  0  0  0  0  0  0  # atno 17320 bound_to 7965
  144.8825  140.7419  143.5977 LP  0  0  0  0  0  0  0  0  0  0  0  0  # atno 17321 bound_to 7965
  139.9573  144.6581  150.8113 LP  0  0  0  0  0  0  0  0  0  0  0  0  # atno 17342 bound_to 10162
  140.7601  143.3144  151.2768 LP  0  0  0  0  0  0  0  0  0  0  0  0  # atno 17343 bound_to 10162
  157.6873  131.0821  150.7206 LP  0  0  0  0  0  0  0  0  0  0  0  0  # atno 17370 bound_to 10713
  156.7263  130.4696  149.5510 LP  0  0  0  0  0  0  0  0  0  0  0  0  # atno 17371 bound_to 10713
  140.1382  134.9311  157.2431 LP  0  0  0  0  0  0  0  0  0  0  0  0  # atno 17394 bound_to 11000
  140.2869  134.3286  155.7326 LP  0  0  0  0  0  0  0  0  0  0  0  0  # atno 17395 bound_to 11000

$$$$
