AV-unprocessed.smi:36|AV-procd|sdf|293|dock10
  -GOLD-   2262016 83D 1   1.00000     0.00000
 Structure written by MMmdl.
 64 67  0  0  0  0  0  0  0  0  1 V2000
  147.4935  135.0524  163.0216 C   0  0  0  0  0  0  0  0  0  0  0  0
  146.6269  134.5127  161.8716 C   0  0  0  0  0  0  0  0  0  0  0  0
  147.3353  133.3269  161.1956 C   0  0  0  0  0  0  0  0  0  0  0  0
  145.2613  134.0597  162.4147 C   0  0  0  0  0  0  0  0  0  0  0  0
  146.3541  135.8945  160.5807 Si  0  0  0  0  0  0  0  0  0  0  0  0
  145.4899  137.3962  161.3629 C   0  0  0  0  0  0  0  0  0  0  0  0
  148.0008  136.4434  159.8074 C   0  0  0  0  0  0  0  0  0  0  0  0
  145.3734  135.2754  159.3460 O   0  0  0  0  0  0  0  0  0  0  0  0
  145.6717  134.1029  158.6143 C   0  0  0  0  0  0  0  0  0  0  0  0
  145.3395  134.3265  157.1247 C   0  0  2  0  0  0  0  0  0  0  0  0
  146.3742  135.1446  156.5728 O   0  0  0  0  0  0  0  0  0  0  0  0
  145.8958  136.4297  156.2997 C   0  0  2  0  0  0  0  0  0  0  0  0
  146.8375  137.4354  156.8743 N   0  0  0  0  0  0  0  0  0  0  0  0
  146.5736  138.3972  157.7804 C   0  0  0  0  0  0  0  0  0  0  0  0
  147.6080  139.1689  158.1073 N   0  0  0  0  0  0  0  0  0  0  0  0
  148.6365  138.6461  157.3298 C   0  0  0  0  0  0  0  0  0  0  0  0
  150.0546  139.0515  157.2162 C   0  0  0  0  0  0  0  0  0  0  0  0
  150.4576  140.0504  157.9416 N   0  0  0  0  0  0  0  0  0  0  0  0
  151.7814  140.4677  157.8798 C   0  0  0  0  0  0  0  0  0  0  0  0
  152.7696  139.8459  157.4796 O   0  0  0  0  0  0  0  0  0  0  0  0
  151.9764  141.8855  158.3100 C   0  0  0  0  0  0  0  0  0  0  0  0
  152.8618  142.1918  159.3656 C   0  0  0  0  0  0  0  0  0  0  0  0
  153.0432  143.5288  159.7703 C   0  0  0  0  0  0  0  0  0  0  0  0
  152.3415  144.5631  159.1216 C   0  0  0  0  0  0  0  0  0  0  0  0
  151.4559  144.2606  158.0690 C   0  0  0  0  0  0  0  0  0  0  0  0
  151.2721  142.9239  157.6643 C   0  0  0  0  0  0  0  0  0  0  0  0
  150.7122  138.2262  156.2943 N   0  0  0  0  0  0  0  0  0  0  0  0
  150.1331  137.1689  155.5752 C   0  0  0  0  0  0  0  0  0  0  0  0
  148.8834  136.7996  155.6664 N   0  0  0  0  0  0  0  0  0  0  0  0
  148.1859  137.5876  156.5708 C   0  0  0  0  0  0  0  0  0  0  0  0
  144.5276  136.5495  156.9622 C   0  0  0  0  0  0  0  0  0  0  0  0
  144.0509  135.1204  156.8521 C   0  0  2  0  0  0  0  0  0  0  0  0
  142.9872  134.8458  157.7412 O   0  0  0  0  0  0  0  0  0  0  0  0
  147.6711  134.2858  163.7766 H   0  0  0  0  0  0  0  0  0  0  0  0
  147.0146  135.8966  163.5179 H   0  0  0  0  0  0  0  0  0  0  0  0
  148.4661  135.3904  162.6625 H   0  0  0  0  0  0  0  0  0  0  0  0
  148.3092  133.6179  160.8014 H   0  0  0  0  0  0  0  0  0  0  0  0
  146.7473  132.9360  160.3645 H   0  0  0  0  0  0  0  0  0  0  0  0
  147.4977  132.5087  161.8982 H   0  0  0  0  0  0  0  0  0  0  0  0
  145.3710  133.2550  163.1425 H   0  0  0  0  0  0  0  0  0  0  0  0
  144.6180  133.6944  161.6134 H   0  0  0  0  0  0  0  0  0  0  0  0
  144.7376  134.8784  162.9088 H   0  0  0  0  0  0  0  0  0  0  0  0
  146.0901  137.8308  162.1619 H   0  0  0  0  0  0  0  0  0  0  0  0
  144.5250  137.1269  161.7916 H   0  0  0  0  0  0  0  0  0  0  0  0
  145.3113  138.1816  160.6287 H   0  0  0  0  0  0  0  0  0  0  0  0
  148.6843  136.8391  160.5581 H   0  0  0  0  0  0  0  0  0  0  0  0
  147.8514  137.2248  159.0625 H   0  0  0  0  0  0  0  0  0  0  0  0
  148.5058  135.6155  159.3105 H   0  0  0  0  0  0  0  0  0  0  0  0
  146.7286  133.8716  158.7476 H   0  0  0  0  0  0  0  0  0  0  0  0
  145.1107  133.2643  159.0267 H   0  0  0  0  0  0  0  0  0  0  0  0
  145.3020  133.3692  156.6056 H   0  0  0  0  0  0  0  0  0  0  0  0
  145.8843  136.6124  155.2244 H   0  0  0  0  0  0  0  0  0  0  0  0
  145.5944  138.5396  158.2132 H   0  0  0  0  0  0  0  0  0  0  0  0
  153.4035  141.4037  159.8683 H   0  0  0  0  0  0  0  0  0  0  0  0
  153.7206  143.7606  160.5788 H   0  0  0  0  0  0  0  0  0  0  0  0
  152.4814  145.5878  159.4323 H   0  0  0  0  0  0  0  0  0  0  0  0
  150.9178  145.0540  157.5716 H   0  0  0  0  0  0  0  0  0  0  0  0
  150.5904  142.7001  156.8562 H   0  0  0  0  0  0  0  0  0  0  0  0
  150.8259  136.6551  154.9076 H   0  0  0  0  0  0  0  0  0  0  0  0
  144.6429  136.8497  158.0054 H   0  0  0  0  0  0  0  0  0  0  0  0
  143.8969  137.2728  156.4444 H   0  0  0  0  0  0  0  0  0  0  0  0
  143.7153  134.9300  155.8314 H   0  0  0  0  0  0  0  0  0  0  0  0
  142.1745  134.8945  157.2614 H   0  0  0  0  0  0  0  0  0  0  0  0
  151.6919  138.4105  156.1326 H   0  0  0  0  0  0  0  0  0  0  0  0
  1  2  1  0  0  0  0
  1 34  1  0  0  0  0
  1 35  1  0  0  0  0
  1 36  1  0  0  0  0
  2  3  1  0  0  0  0
  2  4  1  0  0  0  0
  2  5  1  0  0  0  0
  3 37  1  0  0  0  0
  3 38  1  0  0  0  0
  3 39  1  0  0  0  0
  4 40  1  0  0  0  0
  4 41  1  0  0  0  0
  4 42  1  0  0  0  0
  5  6  1  0  0  0  0
  5  7  1  0  0  0  0
  5  8  1  0  0  0  0
  6 43  1  0  0  0  0
  6 44  1  0  0  0  0
  6 45  1  0  0  0  0
  7 46  1  0  0  0  0
  7 47  1  0  0  0  0
  7 48  1  0  0  0  0
  8  9  1  0  0  0  0
  9 10  1  0  0  0  0
  9 49  1  0  0  0  0
  9 50  1  0  0  0  0
 10 32  1  0  0  0  0
 10 11  1  0  0  0  0
 10 51  1  0  0  0  0
 11 12  1  0  0  0  0
 12 13  1  0  0  0  0
 12 31  1  0  0  0  0
 12 52  1  0  0  0  0
 13 30  1  0  0  0  0
 13 14  1  0  0  0  0
 14 15  2  0  0  0  0
 14 53  1  0  0  0  0
 15 16  1  0  0  0  0
 16 30  2  0  0  0  0
 16 17  1  0  0  0  0
 17 18  2  0  0  0  0
 17 27  1  0  0  0  0
 18 19  1  0  0  0  0
 19 20  2  0  0  0  0
 19 21  1  0  0  0  0
 21 26  1  0  0  0  0
 21 22  2  0  0  0  0
 22 23  1  0  0  0  0
 22 54  1  0  0  0  0
 23 24  2  0  0  0  0
 23 55  1  0  0  0  0
 24 25  1  0  0  0  0
 24 56  1  0  0  0  0
 25 26  2  0  0  0  0
 25 57  1  0  0  0  0
 26 58  1  0  0  0  0
 27 28  1  0  0  0  0
 27 64  1  0  0  0  0
 28 29  2  0  0  0  0
 28 59  1  0  0  0  0
 29 30  1  0  0  0  0
 31 32  1  0  0  0  0
 31 60  1  0  0  0  0
 31 61  1  0  0  0  0
 32 33  1  0  0  0  0
 32 62  1  0  0  0  0
 33 63  1  0  0  0  0
M  END
> <s_m_source_file>
AV-unprocessed.smi

> <i_m_source_file_index>
36

> <i_lp_mmshare_version>
43012

> <i_f3d_flags>
0

> <s_epik_input>
W0NIM11DKFtDSDNdKShbQ0gzXSlbU2ldKFtDSDNdKShbQ0gzXSlPW0NIMl1bQ0BASF0xT1tDQEhdKFtDSDJdW0NASF0xW09IXSluKFtjSF1uMiljKGMyMyluW2NIXW5jM1tOSF1DKD1PKWM0W2NIXVtjSF1bY0hdW2NIXVtjSF00

> <s_epik_cmdline>
J2VwaWtfcHl0aG9uJywgJy1waCcsICc3LjAnLCAnLXRuJywgJzgnLCAnLW1hJywgJzIwMCcsICctbWV0YWxfYmluZGluZycsICctaW1hZScsICc8aW5maWxlLm1hZT4nLCAnLW9tYWUnLCAnPG91dGZpbGUubWFlPic=

> <r_epik_Ionization_Penalty>
0.0850405

> <r_epik_Ionization_Penalty_Charging>
0.0850403

> <r_epik_Ionization_Penalty_Neutral>
1.47497e-07

> <r_epik_State_Penalty>
2.6133

> <r_epik_Charging_Adjusted_Penalty>
2.69834

> <i_epik_Tot_Q>
0

> <i_epik_Tot_abs_Q>
0

> <r_epik_Metal_State_Penalty>
2.92945

> <b_epik_Metal_Only>
0

> <s_epik_Chemistry_Notes>
This compound contains an acetal/aminal-like group ( X-CH(R)-Y where X, Y are N, S, or O) that may be acid/base labile, releasing an aldehyde.

> <s_lp_Force_Field>
OPLS_2005

> <r_lp_Energy>
48.5801

> <b_lp_Chiralities_Consistent>
1

> <s_lp_Variant>
AV-unprocessed.smi:36-15

> <Gold.Version>
5.8.1

> <Gold.Id.Protein>
6NUR|6NUR_protein|mol2

> <Gold.PLP.Fitness>
48.5102

> <Gold.PLP.PLP>
-45.6107

> <Gold.PLP.part.hbond>
-3.0000

> <Gold.PLP.part.metal>
0.0000

> <Gold.PLP.part.buried>
-5.8676

> <Gold.PLP.part.nonpolar>
-37.1181

> <Gold.PLP.part.repulsive>
0.0744

> <Gold.PLP.ligand.clash>
0.0000

> <Gold.PLP.ligand.torsion>
1.6790

> <Gold.PLP.Chemscore.Hbond>
2.0000

> <Gold.PLP.Chemscore.CHOScore>
0.0000

> <Gold.PLP.Chemscore.Metal>
0.0000

> <Gold.Chemscore.Hbonds>
donor molecule, donor type, donor heavy atom, donor atom, acceptor molecule, acceptor atom, score
      L1  H    33    63       P1 11000  1.00
      P1  H  7997  8008       L1    20  1.00

> <Gold.PLP.Chemscore.Internal.Correction>
0.2575

> <Gold.Rescore>
     Score         DG    S(hbond)    S(metal)    S(lipo)     H(rot)  DE(clash)    DE(int)     intcor
     14.37     -18.44       1.95        0.00     114.43       2.70       0.03       4.05       ----

> <Gold.Chemscore.Fitness>
14.3669

> <Gold.Chemscore.DG>
-18.4419

> <Gold.Chemscore.ZeroCoef>
-5.4800

> <Gold.Chemscore.Hbond>
1.9451

> <Gold.Chemscore.Metal>
0.0000

> <Gold.Chemscore.Lipo>
114.4255

> <Gold.Chemscore.Internal_Hbond>
0.0000

> <Gold.Chemscore.DEClash>
0.0276

> <Gold.Chemscore.DEInternal>
4.0473

> <Gold.Chemscore.Rot>
2.7041

> <Gold.Chemscore.Internal.Correction>
   9.000000E+99

> <Gold.Chemscore.Hbonds>
donor molecule, donor type, donor heavy atom, donor atom, acceptor molecule, acceptor atom, score
      L1  H    33    63       P1 11000  0.27
      P1  H  7997  8008       L1    20  0.97

> <Gold.Chemscore.Hbond.Weighted>
-6.4966

> <Gold.Chemscore.Metal.Weighted>
-0.0000

> <Gold.Chemscore.Lipo.Weighted>
-13.3878

> <Gold.Chemscore.Internal_Hbond.Weighted>
0.0000

> <Gold.Chemscore.DEClash.Weighted>
0.0276

> <Gold.Chemscore.DEInternal.Weighted>
4.0473

> <Gold.Chemscore.Rot.Weighted>
6.9225

> <Gold.Chemscore.Internal.Correction.Weighted>
   9.000000E+99

> <Gold.Protein.RotatedTorsions>
[ 6907 6896 6895 6894 ] final -155.95 input  -60.11 | X-H torsion
[ 7974 7965 7964 7962 ] final  -39.06 input  175.53 | X-H torsion
[ 8008 7997 7996 7995 ] final  -54.17 input   59.86 | X-H torsion
[ 10167 10162 10161 10158 ] final  -10.82 input  -65.29 | X-H torsion
[ 10718 10713 10712 10709 ] final  101.21 input   66.30 | X-H torsion
[ 10763 10752 10751 10750 ] final   58.93 input  -60.55 | X-H torsion
[ 11005 11000 10999 10996 ] final   28.43 input  -57.11 | X-H torsion

> <Gold.Protein.ActiveResidues>
 VAL166  LYS551  ARG553  GLY616  TRP617  ASP618  TYR619  PRO620  LYS621  CYS622 
 ASP623  PHE694  ASN695  SER759  ASP760  ASP761  ALA762  ILE779  LEU786  VAL792 
 PHE793  MET794  SER795  GLU796  ALA797  LYS798  CYS799  TRP800  GLU811  SER814 

> <Gold.Protein.RotatedAtoms>
  151.2802  133.4213  159.2626 H   0  0  0  0  0  0  0  0  0  0  0  0  # atno 6907 bound_to 6896
  151.0367  134.9578  159.8150 H   0  0  0  0  0  0  0  0  0  0  0  0  # atno 6908 bound_to 6896
  152.5357  134.2762  159.9042 H   0  0  0  0  0  0  0  0  0  0  0  0  # atno 6909 bound_to 6896
  146.0430  140.6583  142.9078 H   0  0  0  0  0  0  0  0  0  0  0  0  # atno 7974 bound_to 7965
  154.4155  140.1182  156.5272 H   0  0  0  0  0  0  0  0  0  0  0  0  # atno 8008 bound_to 7997
  155.6642  140.3496  155.4774 H   0  0  0  0  0  0  0  0  0  0  0  0  # atno 8009 bound_to 7997
  155.9688  140.1137  157.0821 H   0  0  0  0  0  0  0  0  0  0  0  0  # atno 8010 bound_to 7997
  140.7123  143.5706  150.9096 H   0  0  0  0  0  0  0  0  0  0  0  0  # atno 10167 bound_to 10162
  157.6835  131.0720  150.5218 H   0  0  0  0  0  0  0  0  0  0  0  0  # atno 10718 bound_to 10713
  152.9882  135.5589  154.5632 H   0  0  0  0  0  0  0  0  0  0  0  0  # atno 10763 bound_to 10752
  154.5047  135.2799  155.1394 H   0  0  0  0  0  0  0  0  0  0  0  0  # atno 10764 bound_to 10752
  154.2810  135.6344  153.5400 H   0  0  0  0  0  0  0  0  0  0  0  0  # atno 10765 bound_to 10752
  140.3157  134.2600  155.7726 H   0  0  0  0  0  0  0  0  0  0  0  0  # atno 11005 bound_to 11000
  144.7084  140.3943  143.7100 LP  0  0  0  0  0  0  0  0  0  0  0  0  # atno 17320 bound_to 7965
  145.6852  139.1627  143.2678 LP  0  0  0  0  0  0  0  0  0  0  0  0  # atno 17321 bound_to 7965
  139.9432  143.6357  152.3048 LP  0  0  0  0  0  0  0  0  0  0  0  0  # atno 17342 bound_to 10162
  139.6849  144.7652  151.1541 LP  0  0  0  0  0  0  0  0  0  0  0  0  # atno 17343 bound_to 10162
  156.5531  130.4236  149.6098 LP  0  0  0  0  0  0  0  0  0  0  0  0  # atno 17370 bound_to 10713
  156.2886  130.7111  151.1954 LP  0  0  0  0  0  0  0  0  0  0  0  0  # atno 17371 bound_to 10713
  141.2098  133.7738  156.9973 LP  0  0  0  0  0  0  0  0  0  0  0  0  # atno 17394 bound_to 11000
  140.0986  134.9549  157.1887 LP  0  0  0  0  0  0  0  0  0  0  0  0  # atno 17395 bound_to 11000

$$$$
