#       Name:                AV-unprocessed.smi:3252
#       Creating user name   scv26
#       Creation time:       Fri Mar 27 18:33:52 2020


#       File generated by GOLD software.
#

@<TRIPOS>MOLECULE
AV-unprocessed.smi:3252
    41    42     1
SMALL
NO_CHARGES


@<TRIPOS>ATOM
      1 ****        -4.6564  -1.4694  -2.7575 C.3            1 S1                 0.0000
      2 ****        -3.1324  -1.3801  -2.5939 C.3            1 S1                 0.0000
      3 ****        -2.6804  -0.6011  -1.4427 N.3            1 S1                 0.0000
      4 ****        -2.9899   0.8208  -1.5713 C.3            1 S1                 0.0000
      5 ****        -2.4730   1.6312  -0.3701 C.3            1 S1                 0.0000
      6 ****        -1.0743   1.4152  -0.2124 O.3            1 S1                 0.0000
      7 ****        -0.7410   0.0421  -0.0213 C.3            1 S1                 0.0000
      8 ****         0.7802  -0.0745   0.1420 C.3            1 S1                 0.0000
      9 ****         1.2294   0.4869   1.4082 N.pl3          1 S1                 0.0000
     10 ****         2.5729   0.3990   1.7966 C.ar           1 S1                 0.0000
     11 ****         2.9471   0.9138   3.0559 C.ar           1 S1                 0.0000
     12 ****         4.2956   0.8239   3.4535 C.ar           1 S1                 0.0000
     13 ****         5.2224   0.2240   2.5782 C.ar           1 S1                 0.0000
     14 ****         6.6239   0.1066   2.9430 C.1            1 S1                 0.0000
     15 ****         7.7399   0.0131   3.2338 N.1            1 S1                 0.0000
     16 ****         4.7548  -0.2601   1.3395 C.ar           1 S1                 0.0000
     17 ****         3.4631  -0.1777   0.9536 N.ar           1 S1                 0.0000
     18 ****        -1.2439  -0.7548  -1.2406 C.3            1 S1                 0.0000
     19 ****        -4.9135  -2.1479  -3.5710 H              1 S1                 0.0000
     20 ****        -5.1000  -0.5017  -2.9911 H              1 S1                 0.0000
     21 ****        -5.1277  -1.8483  -1.8503 H              1 S1                 0.0000
     22 ****        -2.7554  -2.3992  -2.4977 H              1 S1                 0.0000
     23 ****        -2.6899  -0.9826  -3.5084 H              1 S1                 0.0000
     24 ****        -2.5477   1.2138  -2.4880 H              1 S1                 0.0000
     25 ****        -4.0662   0.9680  -1.6541 H              1 S1                 0.0000
     26 ****        -2.6542   2.6950  -0.5241 H              1 S1                 0.0000
     27 ****        -2.9968   1.3457   0.5435 H              1 S1                 0.0000
     28 ****        -1.2322  -0.3316   0.8794 H              1 S1                 0.0000
     29 ****         1.0669  -1.1264   0.1109 H              1 S1                 0.0000
     30 ****         1.2891   0.4233  -0.6844 H              1 S1                 0.0000
     31 ****         0.5515   0.9202   2.0186 H              1 S1                 0.0000
     32 ****         2.2164   1.3681   3.7091 H              1 S1                 0.0000
     33 ****         4.6063   1.2090   4.4142 H              1 S1                 0.0000
     34 ****         5.4294  -0.7275   0.6365 H              1 S1                 0.0000
     35 ****        -1.0040  -1.8099  -1.1032 H              1 S1                 0.0000
     36 ****        -0.7083  -0.4286  -2.1337 H              1 S1                 0.0000
     37 ****        -3.1774  -0.9601  -0.6527 LP             1 S1                 0.0000
     38 ****        -0.7595   1.9333   0.5829 LP             1 S1                 0.0000
     39 ****        -0.6064   1.7457  -1.0321 LP             1 S1                 0.0000
     40 ****         8.7044  -0.0677   3.4851 LP             1 S1                 0.0000
     41 ****         3.1705  -0.5340   0.0662 LP             1 S1                 0.0000
@<TRIPOS>BOND
    1    1    2 1     
    2    1   19 1     
    3    1   20 1     
    4    1   21 1     
    5    2    3 1     
    6    2   22 1     
    7    2   23 1     
    8    3   18 1     
    9    3    4 1     
   10    4    5 1     
   11    4   24 1     
   12    4   25 1     
   13    5    6 1     
   14    5   26 1     
   15    5   27 1     
   16    6    7 1     
   17    7    8 1     
   18    7   18 1     
   19    7   28 1     
   20    8    9 1     
   21    8   29 1     
   22    8   30 1     
   23    9   10 1     
   24    9   31 1     
   25   10   17 ar    
   26   10   11 ar    
   27   11   12 ar    
   28   11   32 1     
   29   12   13 ar    
   30   12   33 1     
   31   13   14 1     
   32   13   16 ar    
   33   14   15 3     
   34   16   17 ar    
   35   16   34 1     
   36   18   35 1     
   37   18   36 1     
   38    3   37 1     
   39    6   38 1     
   40    6   39 1     
   41   15   40 1     
   42   17   41 1     
@<TRIPOS>SUBSTRUCTURE
      1 S1             1
@<TRIPOS>SET
LONE_PAIRS      STATIC     ATOMS    <user>   **** ""
5 37 38 39 40 41
DONOR_HYDROGENS      STATIC     ATOMS    <user>   **** ""
1 31
ATOM$BLUE        STATIC     ATOMS    COLORGROUP SYSTEM
5 37 38 39 40 41
ATOM$RED        STATIC     ATOMS    COLORGROUP SYSTEM
1 31
