AV-unprocessed.smi:2845|AV-procd|sdf|10947|dock7
  -GOLD-   2272015393D 1   1.00000     0.00000
 Structure written by MMmdl.
 43 45  0  0  0  0  0  0  0  0  2 V2000
  153.8957  142.6118  163.5780 C   0  0  0  0  0  0  0  0  0  0  0  0
  153.2588  142.8968  162.2284 C   0  0  0  0  0  0  0  0  0  0  0  0
  152.4604  144.0549  162.0907 C   0  0  0  0  0  0  0  0  0  0  0  0
  151.8927  144.2894  160.8440 C   0  0  0  0  0  0  0  0  0  0  0  0
  151.0715  145.3247  160.3914 N   0  3  0  0  0  0  0  0  0  0  0  0
  150.7664  145.1220  159.0796 C   0  0  0  0  0  0  0  0  0  0  0  0
  151.3804  143.9723  158.6893 N   0  0  0  0  0  0  0  0  0  0  0  0
  151.3859  143.3043  157.3818 C   0  0  0  0  0  0  0  0  0  0  0  0
  150.3216  142.1911  157.2781 C   0  0  2  0  0  0  0  0  0  0  0  0
  149.0672  142.7030  157.6872 O   0  0  0  0  0  0  0  0  0  0  0  0
  150.6676  140.9277  158.0956 C   0  0  0  0  0  0  0  0  0  0  0  0
  149.6918  139.8583  157.9666 N   0  0  0  0  0  0  0  0  0  0  0  0
  148.6108  139.7601  157.1866 C   0  0  0  0  0  0  0  0  0  0  0  0
  147.9408  138.6251  157.3331 N   0  0  0  0  0  0  0  0  0  0  0  0
  148.7210  138.0396  158.2879 C   0  0  0  0  0  0  0  0  0  0  0  0
  148.3343  136.3943  158.9635 S   0  0  1  0  0  0  0  0  0  0  0  0
  147.2072  135.8884  157.5802 C   0  0  0  0  0  0  0  0  0  0  0  0
  149.6148  135.5686  158.8231 O   0  0  0  0  0  0  0  0  0  0  0  0
  149.7783  138.7293  158.7101 N   0  0  0  0  0  0  0  0  0  0  0  0
  152.0947  143.4183  159.7560 C   0  0  0  0  0  0  0  0  0  0  0  0
  152.8779  142.2729  159.8737 C   0  0  0  0  0  0  0  0  0  0  0  0
  153.4647  142.0171  161.1339 C   0  0  0  0  0  0  0  0  0  0  0  0
  154.3246  140.7747  161.2938 C   0  0  0  0  0  0  0  0  0  0  0  0
  153.6360  143.3759  164.3113 H   0  0  0  0  0  0  0  0  0  0  0  0
  154.9823  142.5889  163.4919 H   0  0  0  0  0  0  0  0  0  0  0  0
  153.5582  141.6503  163.9659 H   0  0  0  0  0  0  0  0  0  0  0  0
  152.2992  144.7286  162.9196 H   0  0  0  0  0  0  0  0  0  0  0  0
  150.1531  145.7595  158.4590 H   0  0  0  0  0  0  0  0  0  0  0  0
  151.2422  144.0577  156.6065 H   0  0  0  0  0  0  0  0  0  0  0  0
  152.3867  142.8962  157.2355 H   0  0  0  0  0  0  0  0  0  0  0  0
  150.2178  141.8957  156.2336 H   0  0  0  0  0  0  0  0  0  0  0  0
  148.9540  143.5615  157.3084 H   0  0  0  0  0  0  0  0  0  0  0  0
  151.6474  140.5440  157.8067 H   0  0  0  0  0  0  0  0  0  0  0  0
  150.7416  141.1871  159.1524 H   0  0  0  0  0  0  0  0  0  0  0  0
  148.3111  140.5332  156.4942 H   0  0  0  0  0  0  0  0  0  0  0  0
  146.7214  136.7557  157.1325 H   0  0  0  0  0  0  0  0  0  0  0  0
  146.4340  135.2183  157.9553 H   0  0  0  0  0  0  0  0  0  0  0  0
  147.7706  135.3679  156.8058 H   0  0  0  0  0  0  0  0  0  0  0  0
  153.0345  141.6048  159.0398 H   0  0  0  0  0  0  0  0  0  0  0  0
  154.3815  140.2059  160.3651 H   0  0  0  0  0  0  0  0  0  0  0  0
  153.9115  140.1191  162.0607 H   0  0  0  0  0  0  0  0  0  0  0  0
  155.3408  141.0463  161.5803 H   0  0  0  0  0  0  0  0  0  0  0  0
  150.7434  146.1136  160.9339 H   0  0  0  0  0  0  0  0  0  0  0  0
  1  2  1  0  0  0  0
  1 24  1  0  0  0  0
  1 25  1  0  0  0  0
  1 26  1  0  0  0  0
  2 22  1  0  0  0  0
  2  3  2  0  0  0  0
  3  4  1  0  0  0  0
  3 27  1  0  0  0  0
  4 20  2  0  0  0  0
  4  5  1  0  0  0  0
  5  6  2  0  0  0  0
  5 43  1  0  0  0  0
  6  7  1  0  0  0  0
  6 28  1  0  0  0  0
  7  8  1  0  0  0  0
  7 20  1  0  0  0  0
  8  9  1  0  0  0  0
  8 29  1  0  0  0  0
  8 30  1  0  0  0  0
  9 10  1  0  0  0  0
  9 11  1  0  0  0  0
  9 31  1  0  0  0  0
 10 32  1  0  0  0  0
 11 12  1  0  0  0  0
 11 33  1  0  0  0  0
 11 34  1  0  0  0  0
 12 19  1  0  0  0  0
 12 13  1  0  0  0  0
 13 14  2  0  0  0  0
 13 35  1  0  0  0  0
 14 15  1  0  0  0  0
 15 16  1  0  0  0  0
 15 19  2  0  0  0  0
 16 17  1  0  0  0  0
 16 18  2  0  0  0  0
 17 36  1  0  0  0  0
 17 37  1  0  0  0  0
 17 38  1  0  0  0  0
 20 21  1  0  0  0  0
 21 22  2  0  0  0  0
 21 39  1  0  0  0  0
 22 23  1  0  0  0  0
 23 40  1  0  0  0  0
 23 41  1  0  0  0  0
 23 42  1  0  0  0  0
M  CHG  1   5   1
M  END
> <s_m_source_file>
AV-unprocessed.smi

> <i_m_source_file_index>
2845

> <i_lp_mmshare_version>
43012

> <i_f3d_flags>
0

> <s_epik_input>
W0NIM11jKFtjSF0xKWMoW0NIM10pW2NIXWMoYzEyKW4oW2NIXW4yKVtDSDJdW0NASF0oW09IXSlbQ0gyXW4zW2NIXW5jKG4zKVtTQF0oPU8pW0NIM10=

> <s_epik_cmdline>
J2VwaWtfcHl0aG9uJywgJy1waCcsICc3LjAnLCAnLXRuJywgJzgnLCAnLW1hJywgJzIwMCcsICctbWV0YWxfYmluZGluZycsICctaW1hZScsICc8aW5maWxlLm1hZT4nLCAnLW9tYWUnLCAnPG91dGZpbGUubWFlPic=

> <r_lp_tautomer_probability>
1

> <r_epik_Ionization_Penalty>
1.12076

> <r_epik_Ionization_Penalty_Charging>
1.12075

> <r_epik_Ionization_Penalty_Neutral>
1.54566e-06

> <r_epik_State_Penalty>
1.17957

> <r_epik_Charging_Adjusted_Penalty>
2.30033

> <i_epik_Tot_Q>
1

> <i_epik_Tot_abs_Q>
1

> <r_epik_Metal_State_Penalty>
1.26402

> <b_epik_Metal_Only>
0

> <s_lp_Force_Field>
OPLS_2005

> <r_lp_Energy>
15.2254

> <b_lp_Chiralities_Consistent>
1

> <s_lp_Variant>
AV-unprocessed.smi:2845-5

> <Gold.Version>
5.8.1

> <Gold.Id.Protein>
6NUR|6NUR_protein|mol2

> <Gold.PLP.Fitness>
56.8467

> <Gold.PLP.PLP>
-48.9836

> <Gold.PLP.part.hbond>
-2.7809

> <Gold.PLP.part.metal>
0.0000

> <Gold.PLP.part.buried>
-6.8666

> <Gold.PLP.part.nonpolar>
-39.9577

> <Gold.PLP.part.repulsive>
0.1859

> <Gold.PLP.ligand.clash>
0.0000

> <Gold.PLP.ligand.torsion>
0.9858

> <Gold.PLP.Chemscore.Hbond>
1.9920

> <Gold.PLP.Chemscore.CHOScore>
0.9494

> <Gold.PLP.Chemscore.Metal>
0.0000

> <Gold.Chemscore.Hbonds>
donor molecule, donor type, donor heavy atom, donor atom, acceptor molecule, acceptor atom, score
      L1  H    10    32       P1  8028  0.99
      P1  H  6896  6909       L1    18  1.00
      L1  C     6    28       P1  8029  0.99

> <Gold.PLP.Chemscore.Internal.Correction>
1.0105

> <Gold.Rescore>
     Score         DG    S(hbond)    S(metal)    S(lipo)     H(rot)  DE(clash)    DE(int)     intcor
     17.25     -18.29       1.99        0.00     113.36       2.77       0.12       0.93       ----

> <Gold.Chemscore.Fitness>
17.2455

> <Gold.Chemscore.DG>
-18.2941

> <Gold.Chemscore.ZeroCoef>
-5.4800

> <Gold.Chemscore.Hbond>
1.9871

> <Gold.Chemscore.Metal>
0.0000

> <Gold.Chemscore.Lipo>
113.3622

> <Gold.Chemscore.Internal_Hbond>
0.0000

> <Gold.Chemscore.DEClash>
0.1162

> <Gold.Chemscore.DEInternal>
0.9324

> <Gold.Chemscore.Rot>
2.7681

> <Gold.Chemscore.Internal.Correction>
   9.000000E+99

> <Gold.Chemscore.Hbonds>
donor molecule, donor type, donor heavy atom, donor atom, acceptor molecule, acceptor atom, score
      L1  H    10    32       P1  8028  0.27
      P1  H  6896  6909       L1    18  0.99

> <Gold.Chemscore.Hbond.Weighted>
-6.6369

> <Gold.Chemscore.Metal.Weighted>
-0.0000

> <Gold.Chemscore.Lipo.Weighted>
-13.2634

> <Gold.Chemscore.Internal_Hbond.Weighted>
0.0000

> <Gold.Chemscore.DEClash.Weighted>
0.1162

> <Gold.Chemscore.DEInternal.Weighted>
0.9324

> <Gold.Chemscore.Rot.Weighted>
7.0863

> <Gold.Chemscore.Internal.Correction.Weighted>
   9.000000E+99

> <Gold.Protein.RotatedTorsions>
[ 6907 6896 6895 6894 ] final   55.64 input  -60.11 | X-H torsion
[ 7974 7965 7964 7962 ] final  119.70 input  175.53 | X-H torsion
[ 8008 7997 7996 7995 ] final  -28.55 input   59.86 | X-H torsion
[ 10167 10162 10161 10158 ] final   28.44 input  -65.29 | X-H torsion
[ 10718 10713 10712 10709 ] final   -6.08 input   66.30 | X-H torsion
[ 10763 10752 10751 10750 ] final   73.19 input  -60.55 | X-H torsion
[ 11005 11000 10999 10996 ] final  -40.99 input  -57.11 | X-H torsion

> <Gold.Protein.ActiveResidues>
 VAL166  LYS551  ARG553  GLY616  TRP617  ASP618  TYR619  PRO620  LYS621  CYS622 
 ASP623  PHE694  ASN695  SER759  ASP760  ASP761  ALA762  ILE779  LEU786  VAL792 
 PHE793  MET794  SER795  GLU796  ALA797  LYS798  CYS799  TRP800  GLU811  SER814 

> <Gold.Protein.RotatedAtoms>
  152.3558  134.6942  160.0222 H   0  0  0  0  0  0  0  0  0  0  0  0  # atno 6907 bound_to 6896
  151.7281  133.3311  159.3341 H   0  0  0  0  0  0  0  0  0  0  0  0  # atno 6908 bound_to 6896
  150.7570  134.6321  159.6237 H   0  0  0  0  0  0  0  0  0  0  0  0  # atno 6909 bound_to 6896
  145.1399  139.3274  143.4621 H   0  0  0  0  0  0  0  0  0  0  0  0  # atno 7974 bound_to 7965
  154.4327  140.1842  156.1107 H   0  0  0  0  0  0  0  0  0  0  0  0  # atno 8008 bound_to 7997
  156.0220  140.3340  155.7023 H   0  0  0  0  0  0  0  0  0  0  0  0  # atno 8009 bound_to 7997
  155.5962  140.0636  157.2736 H   0  0  0  0  0  0  0  0  0  0  0  0  # atno 8010 bound_to 7997
  140.4852  144.0554  150.6278 H   0  0  0  0  0  0  0  0  0  0  0  0  # atno 10167 bound_to 10162
  156.7371  130.5198  149.5832 H   0  0  0  0  0  0  0  0  0  0  0  0  # atno 10718 bound_to 10713
  153.0505  135.5072  154.7856 H   0  0  0  0  0  0  0  0  0  0  0  0  # atno 10763 bound_to 10752
  154.6722  135.2955  154.9729 H   0  0  0  0  0  0  0  0  0  0  0  0  # atno 10764 bound_to 10752
  154.0544  135.6699  153.4857 H   0  0  0  0  0  0  0  0  0  0  0  0  # atno 10765 bound_to 10752
  141.0214  133.6861  156.2396 H   0  0  0  0  0  0  0  0  0  0  0  0  # atno 11005 bound_to 11000
  146.3506  140.1432  142.8594 LP  0  0  0  0  0  0  0  0  0  0  0  0  # atno 17320 bound_to 7965
  145.0543  140.9041  143.4977 LP  0  0  0  0  0  0  0  0  0  0  0  0  # atno 17321 bound_to 7965
  140.3807  143.2804  152.0173 LP  0  0  0  0  0  0  0  0  0  0  0  0  # atno 17342 bound_to 10162
  139.4840  144.6157  151.7351 LP  0  0  0  0  0  0  0  0  0  0  0  0  # atno 17343 bound_to 10162
  156.1490  130.6296  151.0569 LP  0  0  0  0  0  0  0  0  0  0  0  0  # atno 17370 bound_to 10713
  157.6834  131.0831  150.7308 LP  0  0  0  0  0  0  0  0  0  0  0  0  # atno 17371 bound_to 10713
  140.6566  134.5011  157.5581 LP  0  0  0  0  0  0  0  0  0  0  0  0  # atno 17394 bound_to 11000
  139.9148  134.8268  156.1402 LP  0  0  0  0  0  0  0  0  0  0  0  0  # atno 17395 bound_to 11000

$$$$
