AV-unprocessed.smi:2364|AV-procd|sdf|9418|dock6
  -GOLD-   2272013 53D 1   1.00000     0.00000
 Structure written by MMmdl.
 46 47  0  0  0  0  0  0  0  0  1 V2000
  146.1309  137.1683  159.9087 C   0  0  0  0  0  0  0  0  0  0  0  0
  146.4083  136.7793  158.4454 C   0  0  0  0  0  0  0  0  0  0  0  0
  147.8120  136.1761  158.1528 C   0  0  2  0  0  0  0  0  0  0  0  0
  147.9021  135.7893  156.6600 C   0  0  0  0  0  0  0  0  0  0  0  0
  148.0038  134.9069  159.0267 C   0  0  0  0  0  0  0  0  0  0  0  0
  149.2364  134.2602  158.7734 O   0  0  0  0  0  0  0  0  0  0  0  0
  148.8771  137.1545  158.4207 N   0  0  0  0  0  0  0  0  0  0  0  0
  148.9364  138.4472  158.0570 C   0  0  0  0  0  0  0  0  0  0  0  0
  148.0658  139.0190  157.4003 O   0  0  0  0  0  0  0  0  0  0  0  0
  150.0677  139.0197  158.5044 N   0  0  0  0  0  0  0  0  0  0  0  0
  150.5093  140.3558  158.3186 C   0  0  0  0  0  0  0  0  0  0  0  0
  149.6775  141.2543  157.7196 N   0  0  0  0  0  0  0  0  0  0  0  0
  150.4597  142.3249  157.7621 C   0  0  0  0  0  0  0  0  0  0  0  0
  151.6692  142.1067  158.2952 N   0  0  0  0  0  0  0  0  0  0  0  0
  152.7649  143.0324  158.5997 C   0  0  0  0  0  0  0  0  0  0  0  0
  153.0339  143.1461  160.1186 C   0  0  0  0  0  0  0  0  0  0  0  0
  151.8743  143.8373  160.8601 C   0  0  0  0  0  0  0  0  0  0  0  0
  151.5939  145.2301  160.2722 C   0  0  0  0  0  0  0  0  0  0  0  0
  151.3586  145.1667  158.7537 C   0  0  0  0  0  0  0  0  0  0  0  0
  152.5251  144.4574  158.0407 C   0  0  0  0  0  0  0  0  0  0  0  0
  151.6986  140.8154  158.7112 N   0  0  0  0  0  0  0  0  0  0  0  0
  145.1166  137.5538  160.0124 H   0  0  0  0  0  0  0  0  0  0  0  0
  146.8080  137.9471  160.2580 H   0  0  0  0  0  0  0  0  0  0  0  0
  146.2221  136.3151  160.5806 H   0  0  0  0  0  0  0  0  0  0  0  0
  145.6342  136.0788  158.1314 H   0  0  0  0  0  0  0  0  0  0  0  0
  146.2610  137.6606  157.8198 H   0  0  0  0  0  0  0  0  0  0  0  0
  147.1278  135.0711  156.3889 H   0  0  0  0  0  0  0  0  0  0  0  0
  148.8643  135.3381  156.4161 H   0  0  0  0  0  0  0  0  0  0  0  0
  147.7904  136.6548  156.0075 H   0  0  0  0  0  0  0  0  0  0  0  0
  147.9479  135.1398  160.0900 H   0  0  0  0  0  0  0  0  0  0  0  0
  147.2035  134.1926  158.8305 H   0  0  0  0  0  0  0  0  0  0  0  0
  149.3334  134.1559  157.8393 H   0  0  0  0  0  0  0  0  0  0  0  0
  149.6534  136.8036  158.9622 H   0  0  0  0  0  0  0  0  0  0  0  0
  150.6883  138.4301  159.0388 H   0  0  0  0  0  0  0  0  0  0  0  0
  150.1356  143.2867  157.3942 H   0  0  0  0  0  0  0  0  0  0  0  0
  153.6557  142.6223  158.1225 H   0  0  0  0  0  0  0  0  0  0  0  0
  153.2307  142.1668  160.5544 H   0  0  0  0  0  0  0  0  0  0  0  0
  153.9468  143.7221  160.2760 H   0  0  0  0  0  0  0  0  0  0  0  0
  150.9732  143.2263  160.7996 H   0  0  0  0  0  0  0  0  0  0  0  0
  152.1131  143.9258  161.9201 H   0  0  0  0  0  0  0  0  0  0  0  0
  150.7295  145.6755  160.7650 H   0  0  0  0  0  0  0  0  0  0  0  0
  152.4396  145.8868  160.4801 H   0  0  0  0  0  0  0  0  0  0  0  0
  150.4229  144.6457  158.5483 H   0  0  0  0  0  0  0  0  0  0  0  0
  151.2405  146.1751  158.3562 H   0  0  0  0  0  0  0  0  0  0  0  0
  153.4322  145.0488  158.1721 H   0  0  0  0  0  0  0  0  0  0  0  0
  152.3489  144.4338  156.9648 H   0  0  0  0  0  0  0  0  0  0  0  0
  1  2  1  0  0  0  0
  1 22  1  0  0  0  0
  1 23  1  0  0  0  0
  1 24  1  0  0  0  0
  2  3  1  0  0  0  0
  2 25  1  0  0  0  0
  2 26  1  0  0  0  0
  3  4  1  0  0  0  0
  3  5  1  0  0  0  0
  3  7  1  0  0  0  0
  4 27  1  0  0  0  0
  4 28  1  0  0  0  0
  4 29  1  0  0  0  0
  5  6  1  0  0  0  0
  5 30  1  0  0  0  0
  5 31  1  0  0  0  0
  6 32  1  0  0  0  0
  7  8  1  0  0  0  0
  7 33  1  0  0  0  0
  8  9  2  0  0  0  0
  8 10  1  0  0  0  0
 10 11  1  0  0  0  0
 10 34  1  0  0  0  0
 11 21  2  0  0  0  0
 11 12  1  0  0  0  0
 12 13  2  0  0  0  0
 13 14  1  0  0  0  0
 13 35  1  0  0  0  0
 14 15  1  0  0  0  0
 14 21  1  0  0  0  0
 15 20  1  0  0  0  0
 15 16  1  0  0  0  0
 15 36  1  0  0  0  0
 16 17  1  0  0  0  0
 16 37  1  0  0  0  0
 16 38  1  0  0  0  0
 17 18  1  0  0  0  0
 17 39  1  0  0  0  0
 17 40  1  0  0  0  0
 18 19  1  0  0  0  0
 18 41  1  0  0  0  0
 18 42  1  0  0  0  0
 19 20  1  0  0  0  0
 19 43  1  0  0  0  0
 19 44  1  0  0  0  0
 20 45  1  0  0  0  0
 20 46  1  0  0  0  0
M  END
> <s_m_source_file>
AV-unprocessed.smi

> <i_m_source_file_index>
2364

> <i_lp_mmshare_version>
43012

> <i_f3d_flags>
0

> <s_epik_input>
W0NIM11bQ0gyXVtDQEBdKFtDSDNdKShbQ0gyXVtPSF0pW05IXUMoPU8pW05IXWMxbltjSF1uKG4xKVtDSF0yW0NIMl1bQ0gyXVtDSDJdW0NIMl1bQ0gyXTI=

> <s_epik_cmdline>
J2VwaWtfcHl0aG9uJywgJy1waCcsICc3LjAnLCAnLXRuJywgJzgnLCAnLW1hJywgJzIwMCcsICctbWV0YWxfYmluZGluZycsICctaW1hZScsICc8aW5maWxlLm1hZT4nLCAnLW9tYWUnLCAnPG91dGZpbGUubWFlPic=

> <r_lp_tautomer_probability>
1

> <r_epik_Ionization_Penalty>
9.31261e-05

> <r_epik_Ionization_Penalty_Charging>
0

> <r_epik_Ionization_Penalty_Neutral>
9.31261e-05

> <r_epik_State_Penalty>
-0

> <r_epik_Charging_Adjusted_Penalty>
0

> <i_epik_Tot_Q>
0

> <i_epik_Tot_abs_Q>
0

> <r_epik_Metal_State_Penalty>
-0

> <b_epik_Metal_Only>
0

> <s_lp_Force_Field>
OPLS_2005

> <r_lp_Energy>
24.8913

> <b_lp_Chiralities_Consistent>
1

> <s_lp_Variant>
AV-unprocessed.smi:2364-2

> <Gold.Version>
5.8.1

> <Gold.Id.Protein>
6NUR|6NUR_protein|mol2

> <Gold.PLP.Fitness>
39.0447

> <Gold.PLP.PLP>
-33.5706

> <Gold.PLP.part.hbond>
-1.0000

> <Gold.PLP.part.metal>
0.0000

> <Gold.PLP.part.buried>
-4.7957

> <Gold.PLP.part.nonpolar>
-27.4156

> <Gold.PLP.part.repulsive>
0.3221

> <Gold.PLP.ligand.clash>
0.0000

> <Gold.PLP.ligand.torsion>
0.3147

> <Gold.PLP.Chemscore.Hbond>
1.0000

> <Gold.PLP.Chemscore.CHOScore>
1.0000

> <Gold.PLP.Chemscore.Metal>
0.0000

> <Gold.Chemscore.Hbonds>
donor molecule, donor type, donor heavy atom, donor atom, acceptor molecule, acceptor atom, score
      P1  H  6896  6907       L1     6  0.99
      L1  C    13    35       P1  8028  0.92

> <Gold.PLP.Chemscore.Internal.Correction>
0.1035

> <Gold.Rescore>
     Score         DG    S(hbond)    S(metal)    S(lipo)     H(rot)  DE(clash)    DE(int)     intcor
      9.00     -12.47       0.98        0.00      82.76       2.34       0.03       3.43       ----

> <Gold.Chemscore.Fitness>
9.0006

> <Gold.Chemscore.DG>
-12.4654

> <Gold.Chemscore.ZeroCoef>
-5.4800

> <Gold.Chemscore.Hbond>
0.9823

> <Gold.Chemscore.Metal>
0.0000

> <Gold.Chemscore.Lipo>
82.7622

> <Gold.Chemscore.Internal_Hbond>
0.0000

> <Gold.Chemscore.DEClash>
0.0308

> <Gold.Chemscore.DEInternal>
3.4340

> <Gold.Chemscore.Rot>
2.3354

> <Gold.Chemscore.Internal.Correction>
   9.000000E+99

> <Gold.Chemscore.Hbonds>
donor molecule, donor type, donor heavy atom, donor atom, acceptor molecule, acceptor atom, score
      P1  H  6896  6907       L1     6  0.60

> <Gold.Chemscore.Hbond.Weighted>
-3.2810

> <Gold.Chemscore.Metal.Weighted>
-0.0000

> <Gold.Chemscore.Lipo.Weighted>
-9.6832

> <Gold.Chemscore.Internal_Hbond.Weighted>
0.0000

> <Gold.Chemscore.DEClash.Weighted>
0.0308

> <Gold.Chemscore.DEInternal.Weighted>
3.4340

> <Gold.Chemscore.Rot.Weighted>
5.9787

> <Gold.Chemscore.Internal.Correction.Weighted>
   9.000000E+99

> <Gold.Protein.RotatedTorsions>
[ 6907 6896 6895 6894 ] final  -92.22 input  -60.11 | X-H torsion
[ 7974 7965 7964 7962 ] final  148.79 input  175.53 | X-H torsion
[ 8008 7997 7996 7995 ] final -166.24 input   59.86 | X-H torsion
[ 10167 10162 10161 10158 ] final  145.23 input  -65.29 | X-H torsion
[ 10718 10713 10712 10709 ] final   83.28 input   66.30 | X-H torsion
[ 10763 10752 10751 10750 ] final   38.66 input  -60.55 | X-H torsion
[ 11005 11000 10999 10996 ] final  -89.20 input  -57.11 | X-H torsion

> <Gold.Protein.ActiveResidues>
 VAL166  LYS551  ARG553  GLY616  TRP617  ASP618  TYR619  PRO620  LYS621  CYS622 
 ASP623  PHE694  ASN695  SER759  ASP760  ASP761  ALA762  ILE779  LEU786  VAL792 
 PHE793  MET794  SER795  GLU796  ALA797  LYS798  CYS799  TRP800  GLU811  SER814 

> <Gold.Protein.RotatedAtoms>
  150.6903  134.2156  159.4376 H   0  0  0  0  0  0  0  0  0  0  0  0  # atno 6907 bound_to 6896
  152.0115  134.9871  160.0577 H   0  0  0  0  0  0  0  0  0  0  0  0  # atno 6908 bound_to 6896
  152.1484  133.4472  159.4838 H   0  0  0  0  0  0  0  0  0  0  0  0  # atno 6909 bound_to 6896
  144.8487  139.6198  143.5983 H   0  0  0  0  0  0  0  0  0  0  0  0  # atno 7974 bound_to 7965
  155.8610  140.0978  157.1613 H   0  0  0  0  0  0  0  0  0  0  0  0  # atno 8008 bound_to 7997
  154.3990  140.1365  156.4023 H   0  0  0  0  0  0  0  0  0  0  0  0  # atno 8009 bound_to 7997
  155.7857  140.3457  155.5324 H   0  0  0  0  0  0  0  0  0  0  0  0  # atno 8010 bound_to 7997
  139.4930  144.5916  151.6669 H   0  0  0  0  0  0  0  0  0  0  0  0  # atno 10167 bound_to 10162
  157.6875  131.0084  150.2500 H   0  0  0  0  0  0  0  0  0  0  0  0  # atno 10718 bound_to 10713
  152.9993  135.6243  154.2339 H   0  0  0  0  0  0  0  0  0  0  0  0  # atno 10763 bound_to 10752
  154.2081  135.2801  155.2969 H   0  0  0  0  0  0  0  0  0  0  0  0  # atno 10764 bound_to 10752
  154.5629  135.5700  153.7082 H   0  0  0  0  0  0  0  0  0  0  0  0  # atno 10765 bound_to 10752
  141.1589  133.7616  156.9561 H   0  0  0  0  0  0  0  0  0  0  0  0  # atno 11005 bound_to 11000
  146.2766  139.6769  142.9258 LP  0  0  0  0  0  0  0  0  0  0  0  0  # atno 17320 bound_to 7965
  145.4544  141.0430  143.2786 LP  0  0  0  0  0  0  0  0  0  0  0  0  # atno 17321 bound_to 7965
  140.5544  144.0372  150.6141 LP  0  0  0  0  0  0  0  0  0  0  0  0  # atno 17342 bound_to 10162
  140.3437  143.3004  152.0561 LP  0  0  0  0  0  0  0  0  0  0  0  0  # atno 17343 bound_to 10162
  156.3099  130.3770  149.7672 LP  0  0  0  0  0  0  0  0  0  0  0  0  # atno 17370 bound_to 10713
  156.5275  130.8243  151.3225 LP  0  0  0  0  0  0  0  0  0  0  0  0  # atno 17371 bound_to 10713
  140.1225  134.9408  157.2223 LP  0  0  0  0  0  0  0  0  0  0  0  0  # atno 17394 bound_to 11000
  140.3055  134.3083  155.7279 LP  0  0  0  0  0  0  0  0  0  0  0  0  # atno 17395 bound_to 11000

$$$$
