AV-unprocessed.smi:1740|AV-procd|sdf|7011|dock9
  -GOLD-   22720 8223D 1   1.00000     0.00000
 Structure written by MMmdl.
 53 55  0  0  0  0  0  0  0  0  3 V2000
  143.8411  137.7302  152.5087 N   0  0  0  0  0  0  0  0  0  0  0  0
  145.0950  137.2957  152.6505 C   0  0  0  0  0  0  0  0  0  0  0  0
  145.3543  136.1359  152.9664 O   0  0  0  0  0  0  0  0  0  0  0  0
  146.2124  138.3096  152.3826 C   0  0  0  0  0  0  0  0  0  0  0  0
  146.1713  139.4744  153.3040 N   0  3  2  0  0  0  0  0  0  0  0  0
  147.0866  140.5740  152.8981 C   0  0  0  0  0  0  0  0  0  0  0  0
  146.8879  141.8156  153.7856 C   0  0  0  0  0  0  0  0  0  0  0  0
  147.0457  141.4930  155.2820 C   0  0  2  0  0  0  0  0  0  0  0  0
  148.4505  141.2605  155.6188 N   0  0  0  0  0  0  0  0  0  0  0  0
  149.0337  141.6254  156.7701 C   0  0  0  0  0  0  0  0  0  0  0  0
  148.4375  142.1892  157.6875 O   0  0  0  0  0  0  0  0  0  0  0  0
  150.3310  141.2779  156.8003 N   0  0  0  0  0  0  0  0  0  0  0  0
  151.2512  141.4979  157.8635 C   0  0  0  0  0  0  0  0  0  0  0  0
  151.1623  142.6655  158.6639 C   0  0  0  0  0  0  0  0  0  0  0  0
  152.1225  142.9074  159.6639 C   0  0  0  0  0  0  0  0  0  0  0  0
  153.1685  141.9854  159.8381 C   0  0  0  0  0  0  0  0  0  0  0  0
  153.2319  140.8897  159.0534 N   0  3  0  0  0  0  0  0  0  0  0  0
  152.3297  140.5927  158.0846 C   0  0  0  0  0  0  0  0  0  0  0  0
  152.5156  139.3968  157.3536 N   0  0  0  0  0  0  0  0  0  0  0  0
  151.8659  138.1626  157.7817 C   0  0  0  0  0  0  0  0  0  0  0  0
  151.9695  137.2221  156.5840 C   0  0  0  0  0  0  0  0  0  0  0  0
  151.8408  138.1794  155.4033 C   0  0  0  0  0  0  0  0  0  0  0  0
  152.5330  139.4545  155.8949 C   0  0  0  0  0  0  0  0  0  0  0  0
  146.1621  140.2876  155.6600 C   0  0  0  0  0  0  0  0  0  0  0  0
  146.3837  139.0880  154.7216 C   0  0  0  0  0  0  0  0  0  0  0  0
  143.0716  137.0957  152.6696 H   0  0  0  0  0  0  0  0  0  0  0  0
  143.6597  138.6857  152.2371 H   0  0  0  0  0  0  0  0  0  0  0  0
  147.1540  137.7736  152.5092 H   0  0  0  0  0  0  0  0  0  0  0  0
  146.1819  138.6498  151.3462 H   0  0  0  0  0  0  0  0  0  0  0  0
  148.1202  140.2295  152.9543 H   0  0  0  0  0  0  0  0  0  0  0  0
  146.9056  140.8493  151.8588 H   0  0  0  0  0  0  0  0  0  0  0  0
  147.5823  142.6037  153.4916 H   0  0  0  0  0  0  0  0  0  0  0  0
  145.8879  142.2155  153.6118 H   0  0  0  0  0  0  0  0  0  0  0  0
  146.7049  142.3643  155.8445 H   0  0  0  0  0  0  0  0  0  0  0  0
  149.0197  140.8062  154.9197 H   0  0  0  0  0  0  0  0  0  0  0  0
  150.6696  140.7175  156.0318 H   0  0  0  0  0  0  0  0  0  0  0  0
  150.3786  143.3924  158.5088 H   0  0  0  0  0  0  0  0  0  0  0  0
  152.0635  143.7938  160.2786 H   0  0  0  0  0  0  0  0  0  0  0  0
  153.9534  142.0907  160.5731 H   0  0  0  0  0  0  0  0  0  0  0  0
  152.3466  137.7448  158.6669 H   0  0  0  0  0  0  0  0  0  0  0  0
  150.8152  138.3432  158.0122 H   0  0  0  0  0  0  0  0  0  0  0  0
  152.9488  136.7414  156.5689 H   0  0  0  0  0  0  0  0  0  0  0  0
  151.2073  136.4425  156.5885 H   0  0  0  0  0  0  0  0  0  0  0  0
  152.2774  137.7862  154.4849 H   0  0  0  0  0  0  0  0  0  0  0  0
  150.7863  138.3844  155.2131 H   0  0  0  0  0  0  0  0  0  0  0  0
  152.0373  140.3468  155.5099 H   0  0  0  0  0  0  0  0  0  0  0  0
  153.5702  139.4690  155.5591 H   0  0  0  0  0  0  0  0  0  0  0  0
  146.3373  139.9915  156.6949 H   0  0  0  0  0  0  0  0  0  0  0  0
  145.1143  140.5862  155.6081 H   0  0  0  0  0  0  0  0  0  0  0  0
  145.6900  138.2920  154.9950 H   0  0  0  0  0  0  0  0  0  0  0  0
  147.3906  138.6863  154.8455 H   0  0  0  0  0  0  0  0  0  0  0  0
  145.2302  139.8382  153.2471 H   0  0  0  0  0  0  0  0  0  0  0  0
  154.0031  140.2396  159.2055 H   0  0  0  0  0  0  0  0  0  0  0  0
  1  2  1  0  0  0  0
  1 26  1  0  0  0  0
  1 27  1  0  0  0  0
  2  3  2  0  0  0  0
  2  4  1  0  0  0  0
  4  5  1  0  0  0  0
  4 28  1  0  0  0  0
  4 29  1  0  0  0  0
  5 25  1  0  0  0  0
  5  6  1  0  0  0  0
  5 52  1  0  0  0  0
  6  7  1  0  0  0  0
  6 30  1  0  0  0  0
  6 31  1  0  0  0  0
  7  8  1  0  0  0  0
  7 32  1  0  0  0  0
  7 33  1  0  0  0  0
  8  9  1  0  0  0  0
  8 24  1  0  0  0  0
  8 34  1  0  0  0  0
  9 10  1  0  0  0  0
  9 35  1  0  0  0  0
 10 11  2  0  0  0  0
 10 12  1  0  0  0  0
 12 13  1  0  0  0  0
 12 36  1  0  0  0  0
 13 18  1  0  0  0  0
 13 14  2  0  0  0  0
 14 15  1  0  0  0  0
 14 37  1  0  0  0  0
 15 16  2  0  0  0  0
 15 38  1  0  0  0  0
 16 17  1  0  0  0  0
 16 39  1  0  0  0  0
 17 18  2  0  0  0  0
 17 53  1  0  0  0  0
 18 19  1  0  0  0  0
 19 23  1  0  0  0  0
 19 20  1  0  0  0  0
 20 21  1  0  0  0  0
 20 40  1  0  0  0  0
 20 41  1  0  0  0  0
 21 22  1  0  0  0  0
 21 42  1  0  0  0  0
 21 43  1  0  0  0  0
 22 23  1  0  0  0  0
 22 44  1  0  0  0  0
 22 45  1  0  0  0  0
 23 46  1  0  0  0  0
 23 47  1  0  0  0  0
 24 25  1  0  0  0  0
 24 48  1  0  0  0  0
 24 49  1  0  0  0  0
 25 50  1  0  0  0  0
 25 51  1  0  0  0  0
M  CHG  1   5   1
M  CHG  1  17   1
M  END
> <s_m_source_file>
AV-unprocessed.smi

> <i_m_source_file_index>
1740

> <i_lp_mmshare_version>
43012

> <i_f3d_flags>
0

> <s_epik_input>
W05IMl1DKD1PKVtDSDJdTjFbQ0gyXVtDSDJdW0NIXShbQ0gyXVtDSDJdMSlbTkhdQyg9TylbTkhdYzJbY0hdW2NIXVtjSF1uYzJOM1tDSDJdW0NIMl1bQ0gyXVtDSDJdMw==

> <s_epik_cmdline>
J2VwaWtfcHl0aG9uJywgJy1waCcsICc3LjAnLCAnLXRuJywgJzgnLCAnLW1hJywgJzIwMCcsICctbWV0YWxfYmluZGluZycsICctaW1hZScsICc8aW5maWxlLm1hZT4nLCAnLW9tYWUnLCAnPG91dGZpbGUubWFlPic=

> <r_lp_tautomer_probability>
0.999994

> <r_epik_Ionization_Penalty>
2.11361

> <r_epik_Ionization_Penalty_Charging>
2.11355

> <r_epik_Ionization_Penalty_Neutral>
5.98217e-05

> <r_epik_State_Penalty>
2.13444

> <r_epik_Charging_Adjusted_Penalty>
4.24799

> <i_epik_Tot_Q>
2

> <i_epik_Tot_abs_Q>
2

> <r_epik_Metal_State_Penalty>
2.23528

> <b_epik_Metal_Only>
0

> <s_lp_Force_Field>
OPLS_2005

> <r_lp_Energy>
48.4513

> <b_lp_Chiralities_Consistent>
1

> <s_lp_Variant>
AV-unprocessed.smi:1740-6

> <Gold.Version>
5.8.1

> <Gold.Id.Protein>
6NUR|6NUR_protein|mol2

> <Gold.PLP.Fitness>
42.8840

> <Gold.PLP.PLP>
-35.4113

> <Gold.PLP.part.hbond>
-4.0000

> <Gold.PLP.part.metal>
0.0000

> <Gold.PLP.part.buried>
-2.6748

> <Gold.PLP.part.nonpolar>
-29.2202

> <Gold.PLP.part.repulsive>
0.5018

> <Gold.PLP.ligand.clash>
0.0362

> <Gold.PLP.ligand.torsion>
1.0247

> <Gold.PLP.Chemscore.Hbond>
3.0515

> <Gold.PLP.Chemscore.CHOScore>
0.0000

> <Gold.PLP.Chemscore.Metal>
0.0000

> <Gold.Chemscore.Hbonds>
donor molecule, donor type, donor heavy atom, donor atom, acceptor molecule, acceptor atom, score
      L1  H     1    27       P1 10175  1.00
      L1  H     5    52       P1 10175  2.00
      P1  H  7997  8010       L1    19  0.01

> <Gold.PLP.Chemscore.Internal.Correction>
0.4039

> <Gold.Rescore>
     Score         DG    S(hbond)    S(metal)    S(lipo)     H(rot)  DE(clash)    DE(int)     intcor
     14.31     -17.39       2.00        0.00      93.44       2.22       1.10       1.98       ----

> <Gold.Chemscore.Fitness>
14.3102

> <Gold.Chemscore.DG>
-17.3933

> <Gold.Chemscore.ZeroCoef>
-5.4800

> <Gold.Chemscore.Hbond>
1.9956

> <Gold.Chemscore.Metal>
0.0000

> <Gold.Chemscore.Lipo>
93.4429

> <Gold.Chemscore.Internal_Hbond>
0.0000

> <Gold.Chemscore.DEClash>
1.1017

> <Gold.Chemscore.DEInternal>
1.9814

> <Gold.Chemscore.Rot>
2.2207

> <Gold.Chemscore.Internal.Correction>
   9.000000E+99

> <Gold.Chemscore.Hbonds>
donor molecule, donor type, donor heavy atom, donor atom, acceptor molecule, acceptor atom, score
      L1  H     1    27       P1 10175  0.99
      L1  H     5    52       P1 10175  0.99

> <Gold.Chemscore.Hbond.Weighted>
-6.6654

> <Gold.Chemscore.Metal.Weighted>
-0.0000

> <Gold.Chemscore.Lipo.Weighted>
-10.9328

> <Gold.Chemscore.Internal_Hbond.Weighted>
0.0000

> <Gold.Chemscore.DEClash.Weighted>
1.1017

> <Gold.Chemscore.DEInternal.Weighted>
1.9814

> <Gold.Chemscore.Rot.Weighted>
5.6849

> <Gold.Chemscore.Internal.Correction.Weighted>
   9.000000E+99

> <Gold.Protein.RotatedTorsions>
[ 6907 6896 6895 6894 ] final -175.03 input  -60.11 | X-H torsion
[ 7974 7965 7964 7962 ] final   24.89 input  175.53 | X-H torsion
[ 8008 7997 7996 7995 ] final   28.46 input   59.86 | X-H torsion
[ 10167 10162 10161 10158 ] final   77.48 input  -65.29 | X-H torsion
[ 10718 10713 10712 10709 ] final  177.01 input   66.30 | X-H torsion
[ 10763 10752 10751 10750 ] final -116.35 input  -60.55 | X-H torsion
[ 11005 11000 10999 10996 ] final -166.77 input  -57.11 | X-H torsion

> <Gold.Protein.ActiveResidues>
 VAL166  LYS551  ARG553  GLY616  TRP617  ASP618  TYR619  PRO620  LYS621  CYS622 
 ASP623  PHE694  ASN695  SER759  ASP760  ASP761  ALA762  ILE779  LEU786  VAL792 
 PHE793  MET794  SER795  GLU796  ALA797  LYS798  CYS799  TRP800  GLU811  SER814 

> <Gold.Protein.RotatedAtoms>
  151.5820  133.3376  159.3010 H   0  0  0  0  0  0  0  0  0  0  0  0  # atno 6907 bound_to 6896
  150.8308  134.7563  159.6863 H   0  0  0  0  0  0  0  0  0  0  0  0  # atno 6908 bound_to 6896
  152.4392  134.5632  159.9951 H   0  0  0  0  0  0  0  0  0  0  0  0  # atno 6909 bound_to 6896
  146.1915  139.7541  142.8828 H   0  0  0  0  0  0  0  0  0  0  0  0  # atno 7974 bound_to 7965
  155.0591  140.3188  155.4666 H   0  0  0  0  0  0  0  0  0  0  0  0  # atno 8008 bound_to 7997
  156.2817  140.2132  156.5662 H   0  0  0  0  0  0  0  0  0  0  0  0  # atno 8009 bound_to 7997
  154.7147  140.0495  157.0571 H   0  0  0  0  0  0  0  0  0  0  0  0  # atno 8010 bound_to 7997
  139.9811  144.5826  150.7900 H   0  0  0  0  0  0  0  0  0  0  0  0  # atno 10167 bound_to 10162
  156.9117  130.9912  151.3019 H   0  0  0  0  0  0  0  0  0  0  0  0  # atno 10718 bound_to 10713
  154.8516  135.4349  154.1806 H   0  0  0  0  0  0  0  0  0  0  0  0  # atno 10763 bound_to 10752
  153.2898  135.6960  153.7310 H   0  0  0  0  0  0  0  0  0  0  0  0  # atno 10764 bound_to 10752
  153.6482  135.3456  155.3066 H   0  0  0  0  0  0  0  0  0  0  0  0  # atno 10765 bound_to 10752
  140.5608  134.5335  157.5142 H   0  0  0  0  0  0  0  0  0  0  0  0  # atno 11005 bound_to 11000
  145.3777  141.0353  143.3195 LP  0  0  0  0  0  0  0  0  0  0  0  0  # atno 17320 bound_to 7965
  144.8496  139.5342  143.6862 LP  0  0  0  0  0  0  0  0  0  0  0  0  # atno 17321 bound_to 7965
  140.7489  143.2929  151.3282 LP  0  0  0  0  0  0  0  0  0  0  0  0  # atno 17342 bound_to 10162
  139.6409  144.0541  152.2553 LP  0  0  0  0  0  0  0  0  0  0  0  0  # atno 17343 bound_to 10162
  157.5963  130.8480  149.8734 LP  0  0  0  0  0  0  0  0  0  0  0  0  # atno 17370 bound_to 10713
  156.0532  130.3713  150.1151 LP  0  0  0  0  0  0  0  0  0  0  0  0  # atno 17371 bound_to 10713
  139.9409  134.7789  156.0682 LP  0  0  0  0  0  0  0  0  0  0  0  0  # atno 17394 bound_to 11000
  141.1116  133.6641  156.2992 LP  0  0  0  0  0  0  0  0  0  0  0  0  # atno 17395 bound_to 11000

$$$$
