#       Name:                AV-unprocessed.smi:1446
#       Creating user name   scv26
#       Creation time:       Fri Mar 27 05:57:19 2020


#       File generated by GOLD software.
#

@<TRIPOS>MOLECULE
AV-unprocessed.smi:1446
    55    56     1
SMALL
NO_CHARGES


@<TRIPOS>ATOM
      1 ****        -4.9659  -1.7806   3.5073 C.3            1 S1                 0.0000
      2 ****        -4.2913  -0.9008   2.4608 C.2            1 S1                 0.0000
      3 ****        -3.9566   0.2497   2.7418 O.2            1 S1                 0.0000
      4 ****        -4.0995  -1.4559   1.2539 N.am           1 S1                 0.0000
      5 ****        -3.4663  -0.8004   0.1072 C.3            1 S1                 0.0000
      6 ****        -1.9357  -0.9174   0.2471 C.2            1 S1                 0.0000
      7 ****        -1.4243  -2.0038   0.5249 O.2            1 S1                 0.0000
      8 ****        -1.2453   0.2177   0.0283 N.am           1 S1                 0.0000
      9 ****         0.1613   0.4098   0.0400 C.ar           1 S1                 0.0000
     10 ****         0.5878   1.7251  -0.2393 C.ar           1 S1                 0.0000
     11 ****         1.9647   2.0160  -0.2659 C.ar           1 S1                 0.0000
     12 ****         2.9022   0.9886  -0.0159 C.ar           1 S1                 0.0000
     13 ****         4.2879   1.2583  -0.0444 N.3            1 S1                 0.0000
     14 ****         5.1987   0.2419   0.4741 C.3            1 S1                 0.0000
     15 ****         6.6128   0.8239   0.6406 C.3            1 S1                 0.0000
     16 ****         7.0527   1.3752  -0.5960 O.3            1 S1                 0.0000
     17 ****         6.2129   2.4407  -1.0279 C.3            1 S1                 0.0000
     18 ****         4.7815   1.9209  -1.2495 C.3            1 S1                 0.0000
     19 ****         2.3747  -0.2956   0.2642 C.ar           1 S1                 0.0000
     20 ****         1.0550  -0.5769   0.2888 N.ar           1 S1                 0.0000
     21 ****        -3.9378  -1.5071  -1.1987 C.3            1 S1                 0.0000
     22 ****        -3.2985  -0.9168  -2.4731 C.3            1 S1                 0.0000
     23 ****        -5.4720  -1.4751  -1.3457 C.3            1 S1                 0.0000
     24 ****        -4.3913  -2.6937   3.6652 H              1 S1                 0.0000
     25 ****        -5.9702  -2.0550   3.1836 H              1 S1                 0.0000
     26 ****        -5.0451  -1.2580   4.4610 H              1 S1                 0.0000
     27 ****        -4.4014  -2.4099   1.1187 H              1 S1                 0.0000
     28 ****        -3.7602   0.2511   0.0765 H              1 S1                 0.0000
     29 ****        -1.7942   1.0383  -0.1825 H              1 S1                 0.0000
     30 ****        -0.1298   2.5092  -0.4323 H              1 S1                 0.0000
     31 ****         2.2848   3.0275  -0.4668 H              1 S1                 0.0000
     32 ****         4.8452  -0.1261   1.4376 H              1 S1                 0.0000
     33 ****         5.2254  -0.6044  -0.2135 H              1 S1                 0.0000
     34 ****         6.6299   1.5883   1.4194 H              1 S1                 0.0000
     35 ****         7.3070   0.0415   0.9474 H              1 S1                 0.0000
     36 ****         6.2236   3.2474  -0.2931 H              1 S1                 0.0000
     37 ****         6.6103   2.8516  -1.9560 H              1 S1                 0.0000
     38 ****         4.7690   1.2061  -2.0735 H              1 S1                 0.0000
     39 ****         4.1445   2.7540  -1.5434 H              1 S1                 0.0000
     40 ****         3.0145  -1.1418   0.4632 H              1 S1                 0.0000
     41 ****        -3.6442  -2.5573  -1.1487 H              1 S1                 0.0000
     42 ****        -3.5083   0.1495  -2.5621 H              1 S1                 0.0000
     43 ****        -3.6861  -1.4052  -3.3675 H              1 S1                 0.0000
     44 ****        -2.2164  -1.0473  -2.4911 H              1 S1                 0.0000
     45 ****        -5.8445  -0.4504  -1.3654 H              1 S1                 0.0000
     46 ****        -5.9722  -1.9954  -0.5289 H              1 S1                 0.0000
     47 ****        -5.7889  -1.9597  -2.2697 H              1 S1                 0.0000
     48 ****        -4.1269   0.6102   3.6589 LP             1 S1                 0.0000
     49 ****        -3.5143   0.8242   2.0530 LP             1 S1                 0.0000
     50 ****        -2.0023  -2.8087   0.6594 LP             1 S1                 0.0000
     51 ****        -0.4314  -2.0803   0.6158 LP             1 S1                 0.0000
     52 ****         4.3194   1.9524   0.6748 LP             1 S1                 0.0000
     53 ****         7.0471   0.6564  -1.2912 LP             1 S1                 0.0000
     54 ****         7.9837   1.7223  -0.4828 LP             1 S1                 0.0000
     55 ****         0.7401  -1.5047   0.4887 LP             1 S1                 0.0000
@<TRIPOS>BOND
    1    1    2 1     
    2    1   24 1     
    3    1   25 1     
    4    1   26 1     
    5    2    3 2     
    6    2    4 am    
    7    4    5 1     
    8    4   27 1     
    9    5    6 1     
   10    5   21 1     
   11    5   28 1     
   12    6    7 2     
   13    6    8 am    
   14    8    9 1     
   15    8   29 1     
   16    9   20 ar    
   17    9   10 ar    
   18   10   11 ar    
   19   10   30 1     
   20   11   12 ar    
   21   11   31 1     
   22   12   13 1     
   23   12   19 ar    
   24   13   18 1     
   25   13   14 1     
   26   14   15 1     
   27   14   32 1     
   28   14   33 1     
   29   15   16 1     
   30   15   34 1     
   31   15   35 1     
   32   16   17 1     
   33   17   18 1     
   34   17   36 1     
   35   17   37 1     
   36   18   38 1     
   37   18   39 1     
   38   19   20 ar    
   39   19   40 1     
   40   21   22 1     
   41   21   23 1     
   42   21   41 1     
   43   22   42 1     
   44   22   43 1     
   45   22   44 1     
   46   23   45 1     
   47   23   46 1     
   48   23   47 1     
   49    3   48 1     
   50    3   49 1     
   51    7   50 1     
   52    7   51 1     
   53   13   52 1     
   54   16   53 1     
   55   16   54 1     
   56   20   55 1     
@<TRIPOS>SUBSTRUCTURE
      1 S1             1
@<TRIPOS>SET
LONE_PAIRS      STATIC     ATOMS    <user>   **** ""
8 48 49 50 51 52 53 54 55
DONOR_HYDROGENS      STATIC     ATOMS    <user>   **** ""
2 27 29
ATOM$BLUE        STATIC     ATOMS    COLORGROUP SYSTEM
8 48 49 50 51 52 53 54 55
ATOM$RED        STATIC     ATOMS    COLORGROUP SYSTEM
2 27 29
