AV-unprocessed.smi:3142|AV-procd|sdf|11972|dock4
  -GOLD-   2272017373D 1   1.00000     0.00000
 Structure written by MMmdl.
 37 39  0  0  0  0  0  0  0  0  2 V2000
  152.5775  138.9728  156.0928 C   0  0  0  0  0  0  0  0  0  0  0  0
  151.6879  140.1929  155.7853 C   0  0  2  0  0  0  0  0  0  0  0  0
  151.1899  140.8931  157.0584 C   0  0  0  0  0  0  0  0  0  0  0  0
  149.9974  140.8544  157.3629 O   0  0  0  0  0  0  0  0  0  0  0  0
  152.1161  141.5447  157.7794 N   0  0  0  0  0  0  0  0  0  0  0  0
  151.8661  142.3087  158.9968 C   0  0  0  0  0  0  0  0  0  0  0  0
  151.3382  143.6959  158.6807 C   0  0  0  0  0  0  0  0  0  0  0  0
  152.2170  144.7509  158.0521 C   0  0  0  0  0  0  0  0  0  0  0  0
  151.7696  144.8955  159.4894 C   0  0  0  0  0  0  0  0  0  0  0  0
  153.0916  142.4009  159.8909 C   0  0  0  0  0  0  0  0  0  0  0  0
  153.5891  141.2094  160.6744 C   0  0  0  0  0  0  0  0  0  0  0  0
  152.9665  142.3825  161.3964 C   0  0  0  0  0  0  0  0  0  0  0  0
  150.5525  139.8416  154.9160 N   0  0  0  0  0  0  0  0  0  0  0  0
  149.4413  140.6069  154.6648 C   0  0  0  0  0  0  0  0  0  0  0  0
  148.6427  139.8775  153.8221 C   0  0  0  0  0  0  0  0  0  0  0  0
  149.2934  138.6944  153.5982 N   0  3  0  0  0  0  0  0  0  0  0  0
  150.4512  138.6718  154.2657 C   0  0  0  0  0  0  0  0  0  0  0  0
  153.4396  139.2593  156.6962 H   0  0  0  0  0  0  0  0  0  0  0  0
  152.9581  138.5279  155.1730 H   0  0  0  0  0  0  0  0  0  0  0  0
  152.0391  138.1956  156.6369 H   0  0  0  0  0  0  0  0  0  0  0  0
  152.2977  140.9063  155.2281 H   0  0  0  0  0  0  0  0  0  0  0  0
  153.0716  141.5190  157.4539 H   0  0  0  0  0  0  0  0  0  0  0  0
  151.0850  141.7983  159.5644 H   0  0  0  0  0  0  0  0  0  0  0  0
  150.2994  143.6986  158.3550 H   0  0  0  0  0  0  0  0  0  0  0  0
  153.2630  144.5078  157.8778 H   0  0  0  0  0  0  0  0  0  0  0  0
  151.7622  145.4085  157.3144 H   0  0  0  0  0  0  0  0  0  0  0  0
  151.0170  145.6498  159.7092 H   0  0  0  0  0  0  0  0  0  0  0  0
  152.5168  144.7421  160.2653 H   0  0  0  0  0  0  0  0  0  0  0  0
  153.8645  143.0579  159.4955 H   0  0  0  0  0  0  0  0  0  0  0  0
  153.0111  140.2889  160.6258 H   0  0  0  0  0  0  0  0  0  0  0  0
  154.6661  141.0798  160.7585 H   0  0  0  0  0  0  0  0  0  0  0  0
  153.6283  143.0334  161.9639 H   0  0  0  0  0  0  0  0  0  0  0  0
  151.9780  142.2334  161.8262 H   0  0  0  0  0  0  0  0  0  0  0  0
  149.3034  141.5891  155.0932 H   0  0  0  0  0  0  0  0  0  0  0  0
  147.6834  140.1045  153.3797 H   0  0  0  0  0  0  0  0  0  0  0  0
  151.1624  137.8647  154.2806 H   0  0  0  0  0  0  0  0  0  0  0  0
  148.9488  137.9416  153.0158 H   0  0  0  0  0  0  0  0  0  0  0  0
  1  2  1  0  0  0  0
  1 18  1  0  0  0  0
  1 19  1  0  0  0  0
  1 20  1  0  0  0  0
  2  3  1  0  0  0  0
  2 13  1  0  0  0  0
  2 21  1  0  0  0  0
  3  4  2  0  0  0  0
  3  5  1  0  0  0  0
  5  6  1  0  0  0  0
  5 22  1  0  0  0  0
  6  7  1  0  0  0  0
  6 10  1  0  0  0  0
  6 23  1  0  0  0  0
  7  9  1  0  0  0  0
  7  8  1  0  0  0  0
  7 24  1  0  0  0  0
  8  9  1  0  0  0  0
  8 25  1  0  0  0  0
  8 26  1  0  0  0  0
  9 27  1  0  0  0  0
  9 28  1  0  0  0  0
 10 12  1  0  0  0  0
 10 11  1  0  0  0  0
 10 29  1  0  0  0  0
 11 12  1  0  0  0  0
 11 30  1  0  0  0  0
 11 31  1  0  0  0  0
 12 32  1  0  0  0  0
 12 33  1  0  0  0  0
 13 17  1  0  0  0  0
 13 14  1  0  0  0  0
 14 15  2  0  0  0  0
 14 34  1  0  0  0  0
 15 16  1  0  0  0  0
 15 35  1  0  0  0  0
 16 17  2  0  0  0  0
 16 37  1  0  0  0  0
 17 36  1  0  0  0  0
M  CHG  1  16   1
M  END
> <s_m_source_file>
AV-unprocessed.smi

> <i_m_source_file_index>
3142

> <i_lp_mmshare_version>
43012

> <i_f3d_flags>
0

> <s_epik_input>
W2NIXTFuW2NIXVtjSF1uMVtDQEhdKFtDSDNdKUMoPU8pW05IXVtDSF0oW0NIXTJbQ0gyXVtDSDJdMilbQ0hdM1tDSDJdW0NIMl0z

> <s_epik_cmdline>
J2VwaWtfcHl0aG9uJywgJy1waCcsICc3LjAnLCAnLXRuJywgJzgnLCAnLW1hJywgJzIwMCcsICctbWV0YWxfYmluZGluZycsICctaW1hZScsICc8aW5maWxlLm1hZT4nLCAnLW9tYWUnLCAnPG91dGZpbGUubWFlPic=

> <r_lp_tautomer_probability>
1

> <r_epik_Ionization_Penalty>
0.513834

> <r_epik_Ionization_Penalty_Charging>
0

> <r_epik_Ionization_Penalty_Neutral>
0.513834

> <r_epik_State_Penalty>
0.521297

> <r_epik_Charging_Adjusted_Penalty>
0.521297

> <i_epik_Tot_Q>
1

> <i_epik_Tot_abs_Q>
1

> <r_epik_Metal_State_Penalty>
0.730424

> <b_epik_Metal_Only>
0

> <s_lp_Force_Field>
OPLS_2005

> <r_lp_Energy>
30.7563

> <b_lp_Chiralities_Consistent>
1

> <s_lp_Variant>
AV-unprocessed.smi:3142-3

> <Gold.Version>
5.8.1

> <Gold.Id.Protein>
6NUR|6NUR_protein|mol2

> <Gold.PLP.Fitness>
47.4752

> <Gold.PLP.PLP>
-43.5706

> <Gold.PLP.part.hbond>
-2.0000

> <Gold.PLP.part.metal>
0.0000

> <Gold.PLP.part.buried>
0.2289

> <Gold.PLP.part.nonpolar>
-41.8168

> <Gold.PLP.part.repulsive>
0.1710

> <Gold.PLP.ligand.clash>
0.0000

> <Gold.PLP.ligand.torsion>
2.1588

> <Gold.PLP.Chemscore.Hbond>
2.0000

> <Gold.PLP.Chemscore.CHOScore>
0.0000

> <Gold.PLP.Chemscore.Metal>
0.0000

> <Gold.Chemscore.Hbonds>
donor molecule, donor type, donor heavy atom, donor atom, acceptor molecule, acceptor atom, score
      L1  H    16    37       P1  7948  1.98

> <Gold.PLP.Chemscore.Internal.Correction>
2.2221

> <Gold.Rescore>
     Score         DG    S(hbond)    S(metal)    S(lipo)     H(rot)  DE(clash)    DE(int)     intcor
     12.68     -15.98       0.92        0.00     105.59       1.92       0.04       3.26       ----

> <Gold.Chemscore.Fitness>
12.6828

> <Gold.Chemscore.DG>
-15.9809

> <Gold.Chemscore.ZeroCoef>
-5.4800

> <Gold.Chemscore.Hbond>
0.9191

> <Gold.Chemscore.Metal>
0.0000

> <Gold.Chemscore.Lipo>
105.5933

> <Gold.Chemscore.Internal_Hbond>
0.0000

> <Gold.Chemscore.DEClash>
0.0425

> <Gold.Chemscore.DEInternal>
3.2556

> <Gold.Chemscore.Rot>
1.9232

> <Gold.Chemscore.Internal.Correction>
   9.000000E+99

> <Gold.Chemscore.Hbonds>
donor molecule, donor type, donor heavy atom, donor atom, acceptor molecule, acceptor atom, score
      L1  H    16    37       P1  7948  0.92

> <Gold.Chemscore.Hbond.Weighted>
-3.0698

> <Gold.Chemscore.Metal.Weighted>
-0.0000

> <Gold.Chemscore.Lipo.Weighted>
-12.3544

> <Gold.Chemscore.Internal_Hbond.Weighted>
0.0000

> <Gold.Chemscore.DEClash.Weighted>
0.0425

> <Gold.Chemscore.DEInternal.Weighted>
3.2556

> <Gold.Chemscore.Rot.Weighted>
4.9233

> <Gold.Chemscore.Internal.Correction.Weighted>
   9.000000E+99

> <Gold.Protein.RotatedTorsions>
[ 6907 6896 6895 6894 ] final -168.38 input  -60.11 | X-H torsion
[ 7974 7965 7964 7962 ] final -178.40 input  175.53 | X-H torsion
[ 8008 7997 7996 7995 ] final   10.50 input   59.86 | X-H torsion
[ 10167 10162 10161 10158 ] final -161.28 input  -65.29 | X-H torsion
[ 10718 10713 10712 10709 ] final  147.22 input   66.30 | X-H torsion
[ 10763 10752 10751 10750 ] final   28.31 input  -60.55 | X-H torsion
[ 11005 11000 10999 10996 ] final  -49.22 input  -57.11 | X-H torsion

> <Gold.Protein.ActiveResidues>
 VAL166  LYS551  ARG553  GLY616  TRP617  ASP618  TYR619  PRO620  LYS621  CYS622 
 ASP623  PHE694  ASN695  SER759  ASP760  ASP761  ALA762  ILE779  LEU786  VAL792 
 PHE793  MET794  SER795  GLU796  ALA797  LYS798  CYS799  TRP800  GLU811  SER814 

> <Gold.Protein.RotatedAtoms>
  151.4746  133.3561  159.2828 H   0  0  0  0  0  0  0  0  0  0  0  0  # atno 6907 bound_to 6896
  150.8938  134.8346  159.7323 H   0  0  0  0  0  0  0  0  0  0  0  0  # atno 6908 bound_to 6896
  152.4839  134.4659  159.9672 H   0  0  0  0  0  0  0  0  0  0  0  0  # atno 6909 bound_to 6896
  144.7131  140.0874  143.6423 H   0  0  0  0  0  0  0  0  0  0  0  0  # atno 7974 bound_to 7965
  154.7942  140.2841  155.5969 H   0  0  0  0  0  0  0  0  0  0  0  0  # atno 8008 bound_to 7997
  156.2968  140.2599  156.2725 H   0  0  0  0  0  0  0  0  0  0  0  0  # atno 8009 bound_to 7997
  154.9634  140.0377  157.2190 H   0  0  0  0  0  0  0  0  0  0  0  0  # atno 8010 bound_to 7997
  139.6477  144.0142  152.2139 H   0  0  0  0  0  0  0  0  0  0  0  0  # atno 10167 bound_to 10162
  157.3237  131.0908  151.1220 H   0  0  0  0  0  0  0  0  0  0  0  0  # atno 10718 bound_to 10713
  153.0500  135.6516  154.0719 H   0  0  0  0  0  0  0  0  0  0  0  0  # atno 10763 bound_to 10752
  154.0409  135.2903  155.3356 H   0  0  0  0  0  0  0  0  0  0  0  0  # atno 10764 bound_to 10752
  154.6782  135.5330  153.8294 H   0  0  0  0  0  0  0  0  0  0  0  0  # atno 10765 bound_to 10752
  141.0747  133.6669  156.3554 H   0  0  0  0  0  0  0  0  0  0  0  0  # atno 11005 bound_to 11000
  145.9650  139.2828  143.1133 LP  0  0  0  0  0  0  0  0  0  0  0  0  # atno 17320 bound_to 7965
  145.9179  140.9135  143.0420 LP  0  0  0  0  0  0  0  0  0  0  0  0  # atno 17321 bound_to 7965
  139.9848  144.6403  150.7868 LP  0  0  0  0  0  0  0  0  0  0  0  0  # atno 17342 bound_to 10162
  140.7522  143.2987  151.3137 LP  0  0  0  0  0  0  0  0  0  0  0  0  # atno 17343 bound_to 10162
  157.2495  130.6607  149.5925 LP  0  0  0  0  0  0  0  0  0  0  0  0  # atno 17370 bound_to 10713
  155.9688  130.4543  150.5844 LP  0  0  0  0  0  0  0  0  0  0  0  0  # atno 17371 bound_to 10713
  140.5600  134.5944  157.5431 LP  0  0  0  0  0  0  0  0  0  0  0  0  # atno 17394 bound_to 11000
  139.9559  134.7536  156.0343 LP  0  0  0  0  0  0  0  0  0  0  0  0  # atno 17395 bound_to 11000

$$$$
