#       Name:                AV-unprocessed.smi:1809
#       Creating user name   scv26
#       Creation time:       Fri Mar 27 08:58:29 2020


#       File generated by GOLD software.
#

@<TRIPOS>MOLECULE
AV-unprocessed.smi:1809
    46    48     1
SMALL
NO_CHARGES


@<TRIPOS>ATOM
      1 ****        -7.5585   2.7776  -1.5616 C.3            1 S1                 0.0000
      2 ****        -6.1630   2.6464  -1.0558 C.2            1 S1                 0.0000
      3 ****        -5.8707   2.5571   0.2441 N.2            1 S1                 0.0000
      4 ****        -4.5059   2.4427   0.4662 N.2            1 S1                 0.0000
      5 ****        -3.7878   2.4363  -0.6660 C.2            1 S1                 0.0000
      6 ****        -2.4480   2.3389  -0.6689 N.pl3          1 S1                -1.0000
      7 ****        -1.8584   1.1393  -0.8683 C.2            1 S1                 0.0000
      8 ****        -2.4301   0.0633  -1.0582 O.2            1 S1                 0.0000
      9 ****        -0.5210   1.1872  -0.8455 N.am           1 S1                 0.0000
     10 ****         0.3573   0.0385  -1.0130 C.3            1 S1                 0.0000
     11 ****         1.8296   0.4398  -0.8009 C.3            1 S1                 0.0000
     12 ****         2.8037  -0.7490  -0.9839 C.3            1 S1                 0.0000
     13 ****         2.7066  -1.6321   0.1936 N.4            1 S1                 1.0000
     14 ****         3.5445  -2.8428   0.2261 C.3            1 S1                 0.0000
     15 ****         3.6884  -3.1846   1.7226 C.3            1 S1                 0.0000
     16 ****         3.0443  -2.0113   2.4831 C.3            1 S1                 0.0000
     17 ****         2.9897  -0.9057   1.4333 C.3            1 S1                 0.0000
     18 ****         1.9492   0.2063   1.6118 C.3            1 S1                 0.0000
     19 ****         2.0328   1.0693   0.4745 O.3            1 S1                 0.0000
     20 ****        -4.7699   2.5918  -2.1225 S.3            1 S1                 0.0000
     21 ****        -8.0345   1.7977  -1.5979 H              1 S1                 0.0000
     22 ****        -7.5580   3.2049  -2.5645 H              1 S1                 0.0000
     23 ****        -8.1392   3.4275  -0.9066 H              1 S1                 0.0000
     24 ****        -0.0864   2.0849  -0.6870 H              1 S1                 0.0000
     25 ****         0.0616  -0.7523  -0.3227 H              1 S1                 0.0000
     26 ****         0.2249  -0.3603  -2.0199 H              1 S1                 0.0000
     27 ****         2.0729   1.1874  -1.5570 H              1 S1                 0.0000
     28 ****         2.5717  -1.3069  -1.8918 H              1 S1                 0.0000
     29 ****         3.8270  -0.3842  -1.0829 H              1 S1                 0.0000
     30 ****         3.0877  -3.6500  -0.3469 H              1 S1                 0.0000
     31 ****         4.5239  -2.6304  -0.2055 H              1 S1                 0.0000
     32 ****         3.1953  -4.1251   1.9703 H              1 S1                 0.0000
     33 ****         4.7420  -3.2868   1.9854 H              1 S1                 0.0000
     34 ****         2.0354  -2.2826   2.7977 H              1 S1                 0.0000
     35 ****         3.6070  -1.7212   3.3709 H              1 S1                 0.0000
     36 ****         3.9823  -0.4563   1.3559 H              1 S1                 0.0000
     37 ****         0.9427  -0.1978   1.7231 H              1 S1                 0.0000
     38 ****         2.1613   0.7845   2.5113 H              1 S1                 0.0000
     39 ****         1.7478  -1.9438   0.2581 H              1 S1                 0.0000
     40 ****        -6.5556   2.5711   0.9726 LP             1 S1                 0.0000
     41 ****        -4.0995   2.3723   1.3772 LP             1 S1                 0.0000
     42 ****        -1.8870   3.1539  -0.5236 LP             1 S1                 0.0000
     43 ****        -3.4291   0.0241  -1.0750 LP             1 S1                 0.0000
     44 ****        -1.8946  -0.7700  -1.1955 LP             1 S1                 0.0000
     45 ****         1.3403   1.7831   0.5787 LP             1 S1                 0.0000
     46 ****         2.9422   1.4853   0.4705 LP             1 S1                 0.0000
@<TRIPOS>BOND
    1    1    2 1     
    2    1   21 1     
    3    1   22 1     
    4    1   23 1     
    5    2   20 1     
    6    2    3 2     
    7    3    4 1     
    8    4    5 2     
    9    5    6 1     
   10    5   20 1     
   11    6    7 1     
   12    7    8 2     
   13    7    9 am    
   14    9   10 1     
   15    9   24 1     
   16   10   11 1     
   17   10   25 1     
   18   10   26 1     
   19   11   19 1     
   20   11   12 1     
   21   11   27 1     
   22   12   13 1     
   23   12   28 1     
   24   12   29 1     
   25   13   17 1     
   26   13   14 1     
   27   13   39 1     
   28   14   15 1     
   29   14   30 1     
   30   14   31 1     
   31   15   16 1     
   32   15   32 1     
   33   15   33 1     
   34   16   17 1     
   35   16   34 1     
   36   16   35 1     
   37   17   18 1     
   38   17   36 1     
   39   18   19 1     
   40   18   37 1     
   41   18   38 1     
   42    3   40 1     
   43    4   41 1     
   44    6   42 1     
   45    8   43 1     
   46    8   44 1     
   47   19   45 1     
   48   19   46 1     
@<TRIPOS>SUBSTRUCTURE
      1 S1             1
@<TRIPOS>SET
LONE_PAIRS      STATIC     ATOMS    <user>   **** ""
7 40 41 42 43 44 45 46
DONOR_HYDROGENS      STATIC     ATOMS    <user>   **** ""
2 24 39
ATOM$BLUE        STATIC     ATOMS    COLORGROUP SYSTEM
7 40 41 42 43 44 45 46
ATOM$RED        STATIC     ATOMS    COLORGROUP SYSTEM
2 24 39
