AV-unprocessed.smi:1794|AV-procd|sdf|7234|dock10
  -GOLD-   22720 8483D 1   1.00000     0.00000
 Structure written by MMmdl.
 55 57  0  0  0  0  0  0  0  0  2 V2000
  146.3159  134.9868  158.3148 C   0  0  0  0  0  0  0  0  0  0  0  0
  147.4346  134.8365  159.3732 C   0  0  0  0  0  0  0  0  0  0  0  0
  147.6500  133.3172  159.5980 C   0  0  0  0  0  0  0  0  0  0  0  0
  148.7511  135.3757  158.7387 C   0  0  0  0  0  0  0  0  0  0  0  0
  148.5966  136.7325  158.2150 N   0  0  0  0  0  0  0  0  0  0  0  0
  149.3945  137.7747  158.4849 C   0  0  0  0  0  0  0  0  0  0  0  0
  150.3214  137.7411  159.2939 O   0  0  0  0  0  0  0  0  0  0  0  0
  149.0654  138.8394  157.7362 N   0  0  0  0  0  0  0  0  0  0  0  0
  149.7528  140.0816  157.6452 C   0  0  0  0  0  0  0  0  0  0  0  0
  150.9841  140.3065  158.3112 C   0  0  0  0  0  0  0  0  0  0  0  0
  151.6235  141.5557  158.1949 C   0  0  0  0  0  0  0  0  0  0  0  0
  151.0175  142.5632  157.4230 C   0  0  0  0  0  0  0  0  0  0  0  0
  149.8374  142.3222  156.8147 N   0  3  0  0  0  0  0  0  0  0  0  0
  149.1786  141.1393  156.8894 C   0  0  0  0  0  0  0  0  0  0  0  0
  147.9386  141.0041  156.2310 N   0  0  0  0  0  0  0  0  0  0  0  0
  146.9067  141.9171  156.7153 C   0  0  0  0  0  0  0  0  0  0  0  0
  146.0888  142.3355  155.4914 C   0  0  0  0  0  0  0  0  0  0  0  0
  147.0828  142.1909  154.3454 C   0  0  0  0  0  0  0  0  0  0  0  0
  147.8969  140.9705  154.7700 C   0  0  0  0  0  0  0  0  0  0  0  0
  147.1198  135.5316  160.6530 N   0  0  0  0  0  0  0  0  0  0  0  0
  146.3079  136.7465  160.5210 C   0  0  0  0  0  0  0  0  0  0  0  0
  145.9188  137.3312  161.8904 C   0  0  0  0  0  0  0  0  0  0  0  0
  147.0885  137.5861  162.6594 O   0  0  0  0  0  0  0  0  0  0  0  0
  147.8786  136.4192  162.8524 C   0  0  0  0  0  0  0  0  0  0  0  0
  148.2866  135.8450  161.4863 C   0  0  0  0  0  0  0  0  0  0  0  0
  146.5640  134.4413  157.4035 H   0  0  0  0  0  0  0  0  0  0  0  0
  146.1617  136.0259  158.0244 H   0  0  0  0  0  0  0  0  0  0  0  0
  145.3612  134.5956  158.6659 H   0  0  0  0  0  0  0  0  0  0  0  0
  148.0512  132.8331  158.7069 H   0  0  0  0  0  0  0  0  0  0  0  0
  146.7187  132.7995  159.8284 H   0  0  0  0  0  0  0  0  0  0  0  0
  148.3449  133.1222  160.4157 H   0  0  0  0  0  0  0  0  0  0  0  0
  149.5390  135.4130  159.4921 H   0  0  0  0  0  0  0  0  0  0  0  0
  149.1352  134.6953  157.9781 H   0  0  0  0  0  0  0  0  0  0  0  0
  147.8600  136.8657  157.5379 H   0  0  0  0  0  0  0  0  0  0  0  0
  148.3369  138.6921  157.0534 H   0  0  0  0  0  0  0  0  0  0  0  0
  151.4432  139.5411  158.9188 H   0  0  0  0  0  0  0  0  0  0  0  0
  152.5633  141.7383  158.6951 H   0  0  0  0  0  0  0  0  0  0  0  0
  151.4333  143.5501  157.2809 H   0  0  0  0  0  0  0  0  0  0  0  0
  146.2769  141.4381  157.4657 H   0  0  0  0  0  0  0  0  0  0  0  0
  147.3656  142.7949  157.1740 H   0  0  0  0  0  0  0  0  0  0  0  0
  145.2581  141.6432  155.3470 H   0  0  0  0  0  0  0  0  0  0  0  0
  145.6789  143.3422  155.5784 H   0  0  0  0  0  0  0  0  0  0  0  0
  146.6025  142.0652  153.3747 H   0  0  0  0  0  0  0  0  0  0  0  0
  147.7260  143.0708  154.2968 H   0  0  0  0  0  0  0  0  0  0  0  0
  148.8737  140.9457  154.2870 H   0  0  0  0  0  0  0  0  0  0  0  0
  147.3764  140.0582  154.4761 H   0  0  0  0  0  0  0  0  0  0  0  0
  146.8498  137.5033  159.9535 H   0  0  0  0  0  0  0  0  0  0  0  0
  145.3865  136.5423  159.9787 H   0  0  0  0  0  0  0  0  0  0  0  0
  145.3684  138.2631  161.7612 H   0  0  0  0  0  0  0  0  0  0  0  0
  145.2642  136.6452  162.4302 H   0  0  0  0  0  0  0  0  0  0  0  0
  148.7629  136.6805  163.4333 H   0  0  0  0  0  0  0  0  0  0  0  0
  147.3208  135.6808  163.4307 H   0  0  0  0  0  0  0  0  0  0  0  0
  148.8954  134.9619  161.6621 H   0  0  0  0  0  0  0  0  0  0  0  0
  148.9261  136.5691  160.9810 H   0  0  0  0  0  0  0  0  0  0  0  0
  149.4153  143.0748  156.2704 H   0  0  0  0  0  0  0  0  0  0  0  0
  1  2  1  0  0  0  0
  1 26  1  0  0  0  0
  1 27  1  0  0  0  0
  1 28  1  0  0  0  0
  2  3  1  0  0  0  0
  2  4  1  0  0  0  0
  2 20  1  0  0  0  0
  3 29  1  0  0  0  0
  3 30  1  0  0  0  0
  3 31  1  0  0  0  0
  4  5  1  0  0  0  0
  4 32  1  0  0  0  0
  4 33  1  0  0  0  0
  5  6  1  0  0  0  0
  5 34  1  0  0  0  0
  6  7  2  0  0  0  0
  6  8  1  0  0  0  0
  8  9  1  0  0  0  0
  8 35  1  0  0  0  0
  9 14  1  0  0  0  0
  9 10  2  0  0  0  0
 10 11  1  0  0  0  0
 10 36  1  0  0  0  0
 11 12  2  0  0  0  0
 11 37  1  0  0  0  0
 12 13  1  0  0  0  0
 12 38  1  0  0  0  0
 13 14  2  0  0  0  0
 13 55  1  0  0  0  0
 14 15  1  0  0  0  0
 15 19  1  0  0  0  0
 15 16  1  0  0  0  0
 16 17  1  0  0  0  0
 16 39  1  0  0  0  0
 16 40  1  0  0  0  0
 17 18  1  0  0  0  0
 17 41  1  0  0  0  0
 17 42  1  0  0  0  0
 18 19  1  0  0  0  0
 18 43  1  0  0  0  0
 18 44  1  0  0  0  0
 19 45  1  0  0  0  0
 19 46  1  0  0  0  0
 20 25  1  0  0  0  0
 20 21  1  0  0  0  0
 21 22  1  0  0  0  0
 21 47  1  0  0  0  0
 21 48  1  0  0  0  0
 22 23  1  0  0  0  0
 22 49  1  0  0  0  0
 22 50  1  0  0  0  0
 23 24  1  0  0  0  0
 24 25  1  0  0  0  0
 24 51  1  0  0  0  0
 24 52  1  0  0  0  0
 25 53  1  0  0  0  0
 25 54  1  0  0  0  0
M  CHG  1  13   1
M  END
> <s_m_source_file>
AV-unprocessed.smi

> <i_m_source_file_index>
1794

> <i_lp_mmshare_version>
43012

> <i_f3d_flags>
0

> <s_epik_input>
W0NIMl0xW0NIMl1PW0NIMl1bQ0gyXU4xQyhbQ0gzXSkoW0NIM10pW0NIMl1bTkhdQyg9TylbTkhdYzJbY0hdW2NIXVtjSF1uYzJOM1tDSDJdW0NIMl1bQ0gyXVtDSDJdMw==

> <s_epik_cmdline>
J2VwaWtfcHl0aG9uJywgJy1waCcsICc3LjAnLCAnLXRuJywgJzgnLCAnLW1hJywgJzIwMCcsICctbWV0YWxfYmluZGluZycsICctaW1hZScsICc8aW5maWxlLm1hZT4nLCAnLW9tYWUnLCAnPG91dGZpbGUubWFlPic=

> <r_epik_Ionization_Penalty>
1.36967

> <r_epik_Ionization_Penalty_Charging>
1.10366

> <r_epik_Ionization_Penalty_Neutral>
0.266011

> <r_epik_State_Penalty>
1.45237

> <r_epik_Charging_Adjusted_Penalty>
2.55603

> <i_epik_Tot_Q>
1

> <i_epik_Tot_abs_Q>
1

> <r_epik_Metal_State_Penalty>
1.53539

> <b_epik_Metal_Only>
0

> <s_lp_Force_Field>
OPLS_2005

> <r_lp_Energy>
75.8074

> <b_lp_Chiralities_Consistent>
1

> <s_lp_Variant>
AV-unprocessed.smi:1794-3

> <Gold.Version>
5.8.1

> <Gold.Id.Protein>
6NUR|6NUR_protein|mol2

> <Gold.PLP.Fitness>
39.7020

> <Gold.PLP.PLP>
-35.3570

> <Gold.PLP.part.hbond>
-3.7187

> <Gold.PLP.part.metal>
0.0000

> <Gold.PLP.part.buried>
-6.3773

> <Gold.PLP.part.nonpolar>
-25.8908

> <Gold.PLP.part.repulsive>
0.2877

> <Gold.PLP.ligand.clash>
0.0000

> <Gold.PLP.ligand.torsion>
1.0359

> <Gold.PLP.Chemscore.Hbond>
2.0714

> <Gold.PLP.Chemscore.CHOScore>
0.0000

> <Gold.PLP.Chemscore.Metal>
0.0000

> <Gold.Chemscore.Hbonds>
donor molecule, donor type, donor heavy atom, donor atom, acceptor molecule, acceptor atom, score
      L1  H    13    55       P1  8028  2.00

> <Gold.PLP.Chemscore.Internal.Correction>
0.2028

> <Gold.Rescore>
     Score         DG    S(hbond)    S(metal)    S(lipo)     H(rot)  DE(clash)    DE(int)     intcor
     12.06     -14.43       1.00        0.00      82.54       1.58       0.03       2.34       ----

> <Gold.Chemscore.Fitness>
12.0629

> <Gold.Chemscore.DG>
-14.4333

> <Gold.Chemscore.ZeroCoef>
-5.4800

> <Gold.Chemscore.Hbond>
1.0002

> <Gold.Chemscore.Metal>
0.0000

> <Gold.Chemscore.Lipo>
82.5426

> <Gold.Chemscore.Internal_Hbond>
0.0000

> <Gold.Chemscore.DEClash>
0.0308

> <Gold.Chemscore.DEInternal>
2.3395

> <Gold.Chemscore.Rot>
1.5800

> <Gold.Chemscore.Internal.Correction>
   9.000000E+99

> <Gold.Chemscore.Hbonds>
donor molecule, donor type, donor heavy atom, donor atom, acceptor molecule, acceptor atom, score
      L1  H    13    55       P1  8028  1.00

> <Gold.Chemscore.Hbond.Weighted>
-3.3407

> <Gold.Chemscore.Metal.Weighted>
-0.0000

> <Gold.Chemscore.Lipo.Weighted>
-9.6575

> <Gold.Chemscore.Internal_Hbond.Weighted>
0.0000

> <Gold.Chemscore.DEClash.Weighted>
0.0308

> <Gold.Chemscore.DEInternal.Weighted>
2.3395

> <Gold.Chemscore.Rot.Weighted>
4.0449

> <Gold.Chemscore.Internal.Correction.Weighted>
   9.000000E+99

> <Gold.Protein.RotatedTorsions>
[ 6907 6896 6895 6894 ] final  -57.28 input  -60.11 | X-H torsion
[ 7974 7965 7964 7962 ] final   16.06 input  175.53 | X-H torsion
[ 8008 7997 7996 7995 ] final  100.85 input   59.86 | X-H torsion
[ 10167 10162 10161 10158 ] final  -35.12 input  -65.29 | X-H torsion
[ 10718 10713 10712 10709 ] final   90.40 input   66.30 | X-H torsion
[ 10763 10752 10751 10750 ] final  106.95 input  -60.55 | X-H torsion
[ 11005 11000 10999 10996 ] final  166.19 input  -57.11 | X-H torsion

> <Gold.Protein.ActiveResidues>
 VAL166  LYS551  ARG553  GLY616  TRP617  ASP618  TYR619  PRO620  LYS621  CYS622 
 ASP623  PHE694  ASN695  SER759  ASP760  ASP761  ALA762  ILE779  LEU786  VAL792 
 PHE793  MET794  SER795  GLU796  ALA797  LYS798  CYS799  TRP800  GLU811  SER814 

> <Gold.Protein.RotatedAtoms>
  150.8098  134.7246  159.6677 H   0  0  0  0  0  0  0  0  0  0  0  0  # atno 6907 bound_to 6896
  152.4218  134.5937  159.9991 H   0  0  0  0  0  0  0  0  0  0  0  0  # atno 6908 bound_to 6896
  151.6150  133.3306  159.3112 H   0  0  0  0  0  0  0  0  0  0  0  0  # atno 6909 bound_to 6896
  146.2260  139.8803  142.8572 H   0  0  0  0  0  0  0  0  0  0  0  0  # atno 7974 bound_to 7965
  156.1243  140.3207  155.8254 H   0  0  0  0  0  0  0  0  0  0  0  0  # atno 8008 bound_to 7997
  155.4449  140.0528  157.3024 H   0  0  0  0  0  0  0  0  0  0  0  0  # atno 8009 bound_to 7997
  154.4850  140.2069  155.9689 H   0  0  0  0  0  0  0  0  0  0  0  0  # atno 8010 bound_to 7997
  140.7171  143.3499  151.2177 H   0  0  0  0  0  0  0  0  0  0  0  0  # atno 10167 bound_to 10162
  157.6959  131.0369  150.3572 H   0  0  0  0  0  0  0  0  0  0  0  0  # atno 10718 bound_to 10713
  153.4000  135.3860  155.1981 H   0  0  0  0  0  0  0  0  0  0  0  0  # atno 10763 bound_to 10752
  154.8728  135.3769  154.4631 H   0  0  0  0  0  0  0  0  0  0  0  0  # atno 10764 bound_to 10752
  153.5127  135.7087  153.5834 H   0  0  0  0  0  0  0  0  0  0  0  0  # atno 10765 bound_to 10752
  140.2639  134.7880  157.3615 H   0  0  0  0  0  0  0  0  0  0  0  0  # atno 11005 bound_to 11000
  145.2520  141.0047  143.3876 LP  0  0  0  0  0  0  0  0  0  0  0  0  # atno 17320 bound_to 7965
  144.9367  139.4235  143.6469 LP  0  0  0  0  0  0  0  0  0  0  0  0  # atno 17321 bound_to 7965
  139.7028  143.9505  152.2913 LP  0  0  0  0  0  0  0  0  0  0  0  0  # atno 17342 bound_to 10162
  139.9204  144.6803  150.8468 LP  0  0  0  0  0  0  0  0  0  0  0  0  # atno 17343 bound_to 10162
  156.4012  130.3916  149.6958 LP  0  0  0  0  0  0  0  0  0  0  0  0  # atno 17370 bound_to 10713
  156.4274  130.7798  151.2817 LP  0  0  0  0  0  0  0  0  0  0  0  0  # atno 17371 bound_to 10713
  140.1438  134.4938  155.8011 LP  0  0  0  0  0  0  0  0  0  0  0  0  # atno 17394 bound_to 11000
  141.2187  133.6835  156.7257 LP  0  0  0  0  0  0  0  0  0  0  0  0  # atno 17395 bound_to 11000

$$$$
