AV-unprocessed.smi:100|AV-procd|sdf|900|dock6
  -GOLD-   2262017393D 1   1.00000     0.00000
 Structure written by MMmdl.
 31 33  0  0  0  0  0  0  0  0  1 V2000
  152.2912  138.1005  154.2888 N   0  0  0  0  0  0  0  0  0  0  0  0
  151.5086  139.0380  154.8406 C   0  0  0  0  0  0  0  0  0  0  0  0
  150.4166  139.4483  154.1547 N   0  0  0  0  0  0  0  0  0  0  0  0
  149.6208  140.3825  154.6844 C   0  0  0  0  0  0  0  0  0  0  0  0
  149.7404  141.0154  155.8542 N   0  0  0  0  0  0  0  0  0  0  0  0
  150.8424  140.6030  156.5460 C   0  0  0  0  0  0  0  0  0  0  0  0
  151.7716  139.6183  156.1073 C   0  0  0  0  0  0  0  0  0  0  0  0
  152.7644  139.4445  157.0613 N   0  0  0  0  0  0  0  0  0  0  0  0
  152.4380  140.2823  158.0081 C   0  0  0  0  0  0  0  0  0  0  0  0
  151.2972  141.0220  157.7827 N   0  0  0  0  0  0  0  0  0  0  0  0
  150.6991  142.0536  158.6948 C   0  0  1  0  0  0  0  0  0  0  0  0
  151.5364  142.2586  159.7955 O   0  0  0  0  0  0  0  0  0  0  0  0
  152.0224  143.5998  159.8025 C   0  0  2  0  0  0  0  0  0  0  0  0
  152.3155  144.0720  161.2349 C   0  0  0  0  0  0  0  0  0  0  0  0
  151.6254  143.2633  162.1636 O   0  0  0  0  0  0  0  0  0  0  0  0
  150.9138  144.3816  159.0956 C   0  0  2  0  0  0  0  0  0  0  0  0
  149.8921  144.6070  159.9252 F   0  0  0  0  0  0  0  0  0  0  0  0
  150.4759  143.4167  158.0095 C   0  0  1  0  0  0  0  0  0  0  0  0
  151.2271  143.6112  156.8241 O   0  0  0  0  0  0  0  0  0  0  0  0
  153.1118  137.7779  154.7812 H   0  0  0  0  0  0  0  0  0  0  0  0
  152.0615  137.7236  153.3807 H   0  0  0  0  0  0  0  0  0  0  0  0
  148.7658  140.6629  154.0871 H   0  0  0  0  0  0  0  0  0  0  0  0
  153.0274  140.3853  158.9076 H   0  0  0  0  0  0  0  0  0  0  0  0
  149.7704  141.6027  159.0472 H   0  0  0  0  0  0  0  0  0  0  0  0
  152.9242  143.6685  159.1929 H   0  0  0  0  0  0  0  0  0  0  0  0
  153.3806  143.9789  161.4497 H   0  0  0  0  0  0  0  0  0  0  0  0
  152.0463  145.1198  161.3709 H   0  0  0  0  0  0  0  0  0  0  0  0
  151.3819  143.7968  162.9046 H   0  0  0  0  0  0  0  0  0  0  0  0
  151.2422  145.3501  158.7170 H   0  0  0  0  0  0  0  0  0  0  0  0
  149.4200  143.5331  157.7617 H   0  0  0  0  0  0  0  0  0  0  0  0
  150.6623  143.9973  156.1720 H   0  0  0  0  0  0  0  0  0  0  0  0
  1  2  1  0  0  0  0
  1 20  1  0  0  0  0
  1 21  1  0  0  0  0
  2  7  1  0  0  0  0
  2  3  2  0  0  0  0
  3  4  1  0  0  0  0
  4  5  2  0  0  0  0
  4 22  1  0  0  0  0
  5  6  1  0  0  0  0
  6 10  1  0  0  0  0
  6  7  2  0  0  0  0
  7  8  1  0  0  0  0
  8  9  2  0  0  0  0
  9 10  1  0  0  0  0
  9 23  1  0  0  0  0
 10 11  1  0  0  0  0
 11 18  1  0  0  0  0
 11 12  1  0  0  0  0
 11 24  1  0  0  0  0
 12 13  1  0  0  0  0
 13 14  1  0  0  0  0
 13 16  1  0  0  0  0
 13 25  1  0  0  0  0
 14 15  1  0  0  0  0
 14 26  1  0  0  0  0
 14 27  1  0  0  0  0
 15 28  1  0  0  0  0
 16 17  1  0  0  0  0
 16 18  1  0  0  0  0
 16 29  1  0  0  0  0
 18 19  1  0  0  0  0
 18 30  1  0  0  0  0
 19 31  1  0  0  0  0
M  END
> <s_m_source_file>
AV-unprocessed.smi

> <i_m_source_file_index>
100

> <i_lp_mmshare_version>
43012

> <i_f3d_flags>
0

> <s_epik_input>
bjFbY0hdbmMoW05IMl0pYyhjMTIpbltjSF1uMltDQEBIXTNPW0NAQEhdKFtDSDJdW09IXSlbQ0BIXShGKVtDQEhdM1tPSF0=

> <s_epik_cmdline>
J2VwaWtfcHl0aG9uJywgJy1waCcsICc3LjAnLCAnLXRuJywgJzgnLCAnLW1hJywgJzIwMCcsICctbWV0YWxfYmluZGluZycsICctaW1hZScsICc8aW5maWxlLm1hZT4nLCAnLW9tYWUnLCAnPG91dGZpbGUubWFlPic=

> <r_lp_tautomer_probability>
1

> <r_epik_Ionization_Penalty>
0.000750324

> <r_epik_Ionization_Penalty_Charging>
0

> <r_epik_Ionization_Penalty_Neutral>
0.000750324

> <r_epik_State_Penalty>
-0

> <r_epik_Charging_Adjusted_Penalty>
0

> <i_epik_Tot_Q>
0

> <i_epik_Tot_abs_Q>
0

> <r_epik_Metal_State_Penalty>
-0

> <b_epik_Metal_Only>
0

> <s_epik_Chemistry_Notes>
This compound contains an acetal/aminal-like group ( X-CH(R)-Y where X, Y are N, S, or O) that may be acid/base labile, releasing an aldehyde.

> <s_lp_Force_Field>
OPLS_2005

> <r_lp_Energy>
36.2821

> <b_lp_Chiralities_Consistent>
1

> <s_lp_Variant>
AV-unprocessed.smi:100-4

> <Gold.Version>
5.8.1

> <Gold.Id.Protein>
6NUR|6NUR_protein|mol2

> <Gold.PLP.Fitness>
44.0848

> <Gold.PLP.PLP>
-36.5896

> <Gold.PLP.part.hbond>
-5.8432

> <Gold.PLP.part.metal>
0.0000

> <Gold.PLP.part.buried>
-3.4366

> <Gold.PLP.part.nonpolar>
-27.3162

> <Gold.PLP.part.repulsive>
0.5712

> <Gold.PLP.ligand.clash>
0.0000

> <Gold.PLP.ligand.torsion>
0.5956

> <Gold.PLP.Chemscore.Hbond>
2.8940

> <Gold.PLP.Chemscore.CHOScore>
0.0000

> <Gold.PLP.Chemscore.Metal>
0.0000

> <Gold.Chemscore.Hbonds>
donor molecule, donor type, donor heavy atom, donor atom, acceptor molecule, acceptor atom, score
      L1  H    19    31       P1  8028  1.00
      P1  H  6933  6945       L1    15  0.48
      P1  H  7989  7998       L1     3  0.10
      P1  H  7997  8009       L1     8  1.00

> <Gold.PLP.Chemscore.Internal.Correction>
0.0044

> <Gold.Rescore>
     Score         DG    S(hbond)    S(metal)    S(lipo)     H(rot)  DE(clash)    DE(int)     intcor
      7.35      -9.81       2.18        0.00      44.68       3.19       1.94       0.52       ----

> <Gold.Chemscore.Fitness>
7.3530

> <Gold.Chemscore.DG>
-9.8141

> <Gold.Chemscore.ZeroCoef>
-5.4800

> <Gold.Chemscore.Hbond>
2.1776

> <Gold.Chemscore.Metal>
0.0000

> <Gold.Chemscore.Lipo>
44.6793

> <Gold.Chemscore.Internal_Hbond>
0.0000

> <Gold.Chemscore.DEClash>
1.9397

> <Gold.Chemscore.DEInternal>
0.5214

> <Gold.Chemscore.Rot>
3.1901

> <Gold.Chemscore.Internal.Correction>
   9.000000E+99

> <Gold.Chemscore.Hbonds>
donor molecule, donor type, donor heavy atom, donor atom, acceptor molecule, acceptor atom, score
      L1  H    19    31       P1  8028  0.93
      P1  H  6933  6945       L1    15  0.11
      P1  H  7997  8009       L1     8  0.31

> <Gold.Chemscore.Hbond.Weighted>
-7.2732

> <Gold.Chemscore.Metal.Weighted>
-0.0000

> <Gold.Chemscore.Lipo.Weighted>
-5.2275

> <Gold.Chemscore.Internal_Hbond.Weighted>
0.0000

> <Gold.Chemscore.DEClash.Weighted>
1.9397

> <Gold.Chemscore.DEInternal.Weighted>
0.5214

> <Gold.Chemscore.Rot.Weighted>
8.1667

> <Gold.Chemscore.Internal.Correction.Weighted>
   9.000000E+99

> <Gold.Protein.RotatedTorsions>
[ 6907 6896 6895 6894 ] final -103.14 input  -60.11 | X-H torsion
[ 7974 7965 7964 7962 ] final  -62.48 input  175.53 | X-H torsion
[ 8008 7997 7996 7995 ] final -169.17 input   59.86 | X-H torsion
[ 10167 10162 10161 10158 ] final  145.87 input  -65.29 | X-H torsion
[ 10718 10713 10712 10709 ] final  -76.84 input   66.30 | X-H torsion
[ 10763 10752 10751 10750 ] final -163.50 input  -60.55 | X-H torsion
[ 11005 11000 10999 10996 ] final  -12.17 input  -57.11 | X-H torsion

> <Gold.Protein.ActiveResidues>
 VAL166  LYS551  ARG553  GLY616  TRP617  ASP618  TYR619  PRO620  LYS621  CYS622 
 ASP623  PHE694  ASN695  SER759  ASP760  ASP761  ALA762  ILE779  LEU786  VAL792 
 PHE793  MET794  SER795  GLU796  ALA797  LYS798  CYS799  TRP800  GLU811  SER814 

> <Gold.Protein.RotatedAtoms>
  150.7227  134.0475  159.3786 H   0  0  0  0  0  0  0  0  0  0  0  0  # atno 6907 bound_to 6896
  151.8451  135.0575  160.0462 H   0  0  0  0  0  0  0  0  0  0  0  0  # atno 6908 bound_to 6896
  152.2833  133.5455  159.5548 H   0  0  0  0  0  0  0  0  0  0  0  0  # atno 6909 bound_to 6896
  145.7908  140.8711  143.0282 H   0  0  0  0  0  0  0  0  0  0  0  0  # atno 7974 bound_to 7965
  155.9014  140.1041  157.1347 H   0  0  0  0  0  0  0  0  0  0  0  0  # atno 8008 bound_to 7997
  154.4027  140.1292  156.4505 H   0  0  0  0  0  0  0  0  0  0  0  0  # atno 8009 bound_to 7997
  155.7419  140.3466  155.5110 H   0  0  0  0  0  0  0  0  0  0  0  0  # atno 8010 bound_to 7997
  139.4918  144.5870  151.6758 H   0  0  0  0  0  0  0  0  0  0  0  0  # atno 10167 bound_to 10162
  156.0162  130.4476  150.3255 H   0  0  0  0  0  0  0  0  0  0  0  0  # atno 10718 bound_to 10713
  154.7117  135.3007  154.9187 H   0  0  0  0  0  0  0  0  0  0  0  0  # atno 10763 bound_to 10752
  154.0086  135.6697  153.4768 H   0  0  0  0  0  0  0  0  0  0  0  0  # atno 10764 bound_to 10752
  153.0760  135.5034  154.8319 H   0  0  0  0  0  0  0  0  0  0  0  0  # atno 10765 bound_to 10752
  140.7629  133.8500  155.9140 H   0  0  0  0  0  0  0  0  0  0  0  0  # atno 11005 bound_to 11000
  144.6782  140.0120  143.7484 LP  0  0  0  0  0  0  0  0  0  0  0  0  # atno 17320 bound_to 7965
  145.9979  139.3067  143.0945 LP  0  0  0  0  0  0  0  0  0  0  0  0  # atno 17321 bound_to 7965
  140.5489  144.0458  150.6118 LP  0  0  0  0  0  0  0  0  0  0  0  0  # atno 17342 bound_to 10162
  140.3506  143.2965  152.0491 LP  0  0  0  0  0  0  0  0  0  0  0  0  # atno 17343 bound_to 10162
  157.1354  131.0283  151.2951 LP  0  0  0  0  0  0  0  0  0  0  0  0  # atno 17370 bound_to 10713
  157.4516  130.7601  149.7156 LP  0  0  0  0  0  0  0  0  0  0  0  0  # atno 17371 bound_to 10713
  140.9646  134.1610  157.4626 LP  0  0  0  0  0  0  0  0  0  0  0  0  # atno 17394 bound_to 11000
  139.8768  134.9957  156.5757 LP  0  0  0  0  0  0  0  0  0  0  0  0  # atno 17395 bound_to 11000

$$$$
