AV-unprocessed.smi:1667|AV-procd|sdf|6674|dock4
  -GOLD-   22720 7383D 1   1.00000     0.00000
 Structure written by MMmdl.
 45 47  0  0  0  0  0  0  0  0  1 V2000
  147.7965  136.2845  160.7480 C   0  0  0  0  0  0  0  0  0  0  0  0
  148.6905  136.0434  159.5367 C   0  0  0  0  0  0  0  0  0  0  0  0
  148.8545  134.8992  159.1161 O   0  0  0  0  0  0  0  0  0  0  0  0
  149.2562  137.1383  158.9993 N   0  0  0  0  0  0  0  0  0  0  0  0
  150.1545  137.2412  157.8421 C   0  0  2  0  0  0  0  0  0  0  0  0
  151.6096  137.5961  158.1991 C   0  0  0  0  0  0  0  0  0  0  0  0
  149.5657  138.1567  156.7924 C   0  0  0  0  0  0  0  0  0  0  0  0
  148.9266  137.6960  155.7132 N   0  0  0  0  0  0  0  0  0  0  0  0
  148.5564  138.8478  155.0509 C   0  0  0  0  0  0  0  0  0  0  0  0
  147.8596  139.0251  153.8344 C   0  0  0  0  0  0  0  0  0  0  0  0
  147.5916  140.3215  153.3481 C   0  0  0  0  0  0  0  0  0  0  0  0
  148.0149  141.4560  154.0707 C   0  0  0  0  0  0  0  0  0  0  0  0
  148.7097  141.3003  155.2855 C   0  0  0  0  0  0  0  0  0  0  0  0
  148.9750  140.0035  155.7656 C   0  0  0  0  0  0  0  0  0  0  0  0
  149.6172  139.5124  156.8979 N   0  0  0  0  0  0  0  0  0  0  0  0
  150.2067  140.3317  157.9500 C   0  0  0  0  0  0  0  0  0  0  0  0
  151.4278  141.1374  157.4616 C   0  0  2  0  0  0  0  0  0  0  0  0
  152.5136  140.2729  157.1843 O   0  0  0  0  0  0  0  0  0  0  0  0
  151.7989  142.2284  158.4538 C   0  0  0  0  0  0  0  0  0  0  0  0
  151.7160  143.5852  158.0735 C   0  0  0  0  0  0  0  0  0  0  0  0
  152.0502  144.6013  158.9902 C   0  0  0  0  0  0  0  0  0  0  0  0
  152.4675  144.2665  160.2927 C   0  0  0  0  0  0  0  0  0  0  0  0
  152.5482  142.9152  160.6794 C   0  0  0  0  0  0  0  0  0  0  0  0
  152.9463  142.5924  161.9326 F   0  0  0  0  0  0  0  0  0  0  0  0
  152.2129  141.8990  159.7637 C   0  0  0  0  0  0  0  0  0  0  0  0
  150.1669  136.2244  157.4562 H   0  0  0  0  0  0  0  0  0  0  0  0
  146.9237  136.8735  160.4643 H   0  0  0  0  0  0  0  0  0  0  0  0
  148.3416  136.8234  161.5234 H   0  0  0  0  0  0  0  0  0  0  0  0
  147.4499  135.3404  161.1691 H   0  0  0  0  0  0  0  0  0  0  0  0
  149.0425  138.0157  159.4508 H   0  0  0  0  0  0  0  0  0  0  0  0
  152.2540  137.4921  157.3258 H   0  0  0  0  0  0  0  0  0  0  0  0
  151.9980  136.9357  158.9747 H   0  0  0  0  0  0  0  0  0  0  0  0
  151.7084  138.6237  158.5486 H   0  0  0  0  0  0  0  0  0  0  0  0
  147.5312  138.1617  153.2749 H   0  0  0  0  0  0  0  0  0  0  0  0
  147.0589  140.4458  152.4167 H   0  0  0  0  0  0  0  0  0  0  0  0
  147.8054  142.4457  153.6919 H   0  0  0  0  0  0  0  0  0  0  0  0
  149.0349  142.1672  155.8411 H   0  0  0  0  0  0  0  0  0  0  0  0
  149.4388  141.0182  158.3090 H   0  0  0  0  0  0  0  0  0  0  0  0
  150.4586  139.7093  158.8077 H   0  0  0  0  0  0  0  0  0  0  0  0
  151.1705  141.6148  156.5150 H   0  0  0  0  0  0  0  0  0  0  0  0
  152.1727  139.4045  157.0331 H   0  0  0  0  0  0  0  0  0  0  0  0
  151.3941  143.8520  157.0775 H   0  0  0  0  0  0  0  0  0  0  0  0
  151.9860  145.6381  158.6947 H   0  0  0  0  0  0  0  0  0  0  0  0
  152.7236  145.0458  160.9953 H   0  0  0  0  0  0  0  0  0  0  0  0
  152.2728  140.8654  160.0715 H   0  0  0  0  0  0  0  0  0  0  0  0
  1  2  1  0  0  0  0
  1 27  1  0  0  0  0
  1 28  1  0  0  0  0
  1 29  1  0  0  0  0
  2  3  2  0  0  0  0
  2  4  1  0  0  0  0
  4  5  1  0  0  0  0
  4 30  1  0  0  0  0
  5 26  1  0  0  0  0
  5  6  1  0  0  0  0
  5  7  1  0  0  0  0
  6 31  1  0  0  0  0
  6 32  1  0  0  0  0
  6 33  1  0  0  0  0
  7 15  1  0  0  0  0
  7  8  2  0  0  0  0
  8  9  1  0  0  0  0
  9 14  2  0  0  0  0
  9 10  1  0  0  0  0
 10 11  2  0  0  0  0
 10 34  1  0  0  0  0
 11 12  1  0  0  0  0
 11 35  1  0  0  0  0
 12 13  2  0  0  0  0
 12 36  1  0  0  0  0
 13 14  1  0  0  0  0
 13 37  1  0  0  0  0
 14 15  1  0  0  0  0
 15 16  1  0  0  0  0
 16 17  1  0  0  0  0
 16 38  1  0  0  0  0
 16 39  1  0  0  0  0
 17 18  1  0  0  0  0
 17 19  1  0  0  0  0
 17 40  1  0  0  0  0
 18 41  1  0  0  0  0
 19 25  1  0  0  0  0
 19 20  2  0  0  0  0
 20 21  1  0  0  0  0
 20 42  1  0  0  0  0
 21 22  2  0  0  0  0
 21 43  1  0  0  0  0
 22 23  1  0  0  0  0
 22 44  1  0  0  0  0
 23 24  1  0  0  0  0
 23 25  2  0  0  0  0
 25 45  1  0  0  0  0
M  END
> <s_m_source_file>
AV-unprocessed.smi

> <i_m_source_file_index>
1667

> <i_lp_mmshare_version>
43012

> <i_f3d_flags>
0

> <s_epik_input>
W0NIM11DKD1PKVtOSF1bQ0BASF0oW0NIM10pYyhuMSluKGMoYzEyKVtjSF1bY0hdW2NIXVtjSF0yKVtDSDJdW0NASF0oW09IXSljM1tjSF1bY0hdW2NIXWMoRilbY0hdMw==

> <s_epik_cmdline>
J2VwaWtfcHl0aG9uJywgJy1waCcsICc3LjAnLCAnLXRuJywgJzgnLCAnLW1hJywgJzIwMCcsICctbWV0YWxfYmluZGluZycsICctaW1hZScsICc8aW5maWxlLm1hZT4nLCAnLW9tYWUnLCAnPG91dGZpbGUubWFlPic=

> <r_epik_Ionization_Penalty>
0.133011

> <r_epik_Ionization_Penalty_Charging>
0

> <r_epik_Ionization_Penalty_Neutral>
0.133011

> <r_epik_State_Penalty>
0.122384

> <r_epik_Charging_Adjusted_Penalty>
0.122384

> <i_epik_Tot_Q>
0

> <i_epik_Tot_abs_Q>
0

> <r_epik_Metal_State_Penalty>
0.0997374

> <b_epik_Metal_Only>
0

> <s_lp_Force_Field>
OPLS_2005

> <r_lp_Energy>
10.1709

> <b_lp_Chiralities_Consistent>
1

> <s_lp_Variant>
AV-unprocessed.smi:1667-2

> <Gold.Version>
5.8.1

> <Gold.Id.Protein>
6NUR|6NUR_protein|mol2

> <Gold.PLP.Fitness>
50.8017

> <Gold.PLP.PLP>
-45.8133

> <Gold.PLP.part.hbond>
-2.0000

> <Gold.PLP.part.metal>
0.0000

> <Gold.PLP.part.buried>
-3.8029

> <Gold.PLP.part.nonpolar>
-39.0696

> <Gold.PLP.part.repulsive>
0.2520

> <Gold.PLP.ligand.clash>
0.0000

> <Gold.PLP.ligand.torsion>
0.5534

> <Gold.PLP.Chemscore.Hbond>
1.9600

> <Gold.PLP.Chemscore.CHOScore>
0.0000

> <Gold.PLP.Chemscore.Metal>
0.0000

> <Gold.Chemscore.Hbonds>
donor molecule, donor type, donor heavy atom, donor atom, acceptor molecule, acceptor atom, score
      P1  H  6896  6909       L1     3  1.00
      P1  H  7997  8008       L1    18  1.00

> <Gold.PLP.Chemscore.Internal.Correction>
0.2151

> <Gold.Rescore>
     Score         DG    S(hbond)    S(metal)    S(lipo)     H(rot)  DE(clash)    DE(int)     intcor
     16.74     -19.22       1.70        0.00     123.09       2.48       0.26       2.22       ----

> <Gold.Chemscore.Fitness>
16.7374

> <Gold.Chemscore.DG>
-19.2152

> <Gold.Chemscore.ZeroCoef>
-5.4800

> <Gold.Chemscore.Hbond>
1.6981

> <Gold.Chemscore.Metal>
0.0000

> <Gold.Chemscore.Lipo>
123.0949

> <Gold.Chemscore.Internal_Hbond>
0.0000

> <Gold.Chemscore.DEClash>
0.2557

> <Gold.Chemscore.DEInternal>
2.2221

> <Gold.Chemscore.Rot>
2.4760

> <Gold.Chemscore.Internal.Correction>
   9.000000E+99

> <Gold.Chemscore.Hbonds>
donor molecule, donor type, donor heavy atom, donor atom, acceptor molecule, acceptor atom, score
      P1  H  6896  6909       L1     3  0.55
      P1  H  7997  8008       L1    18  0.37

> <Gold.Chemscore.Hbond.Weighted>
-5.6716

> <Gold.Chemscore.Metal.Weighted>
-0.0000

> <Gold.Chemscore.Lipo.Weighted>
-14.4021

> <Gold.Chemscore.Internal_Hbond.Weighted>
0.0000

> <Gold.Chemscore.DEClash.Weighted>
0.2557

> <Gold.Chemscore.DEInternal.Weighted>
2.2221

> <Gold.Chemscore.Rot.Weighted>
6.3385

> <Gold.Chemscore.Internal.Correction.Weighted>
   9.000000E+99

> <Gold.Protein.RotatedTorsions>
[ 6907 6896 6895 6894 ] final   42.10 input  -60.11 | X-H torsion
[ 7974 7965 7964 7962 ] final -105.79 input  175.53 | X-H torsion
[ 8008 7997 7996 7995 ] final  -58.02 input   59.86 | X-H torsion
[ 10167 10162 10161 10158 ] final  -11.44 input  -65.29 | X-H torsion
[ 10718 10713 10712 10709 ] final -121.95 input   66.30 | X-H torsion
[ 10763 10752 10751 10750 ] final -126.66 input  -60.55 | X-H torsion
[ 11005 11000 10999 10996 ] final   66.20 input  -57.11 | X-H torsion

> <Gold.Protein.ActiveResidues>
 VAL166  LYS551  ARG553  GLY616  TRP617  ASP618  TYR619  PRO620  LYS621  CYS622 
 ASP623  PHE694  ASN695  SER759  ASP760  ASP761  ALA762  ILE779  LEU786  VAL792 
 PHE793  MET794  SER795  GLU796  ALA797  LYS798  CYS799  TRP800  GLU811  SER814 

> <Gold.Protein.RotatedAtoms>
  152.2036  134.8565  160.0504 H   0  0  0  0  0  0  0  0  0  0  0  0  # atno 6907 bound_to 6896
  151.9410  133.3633  159.3973 H   0  0  0  0  0  0  0  0  0  0  0  0  # atno 6908 bound_to 6896
  150.6960  134.4364  159.5316 H   0  0  0  0  0  0  0  0  0  0  0  0  # atno 6909 bound_to 6896
  145.2260  140.9152  143.3232 H   0  0  0  0  0  0  0  0  0  0  0  0  # atno 7974 bound_to 7965
  154.4291  140.1093  156.5890 H   0  0  0  0  0  0  0  0  0  0  0  0  # atno 8008 bound_to 7997
  155.6032  140.3493  155.4581 H   0  0  0  0  0  0  0  0  0  0  0  0  # atno 8009 bound_to 7997
  156.0157  140.1229  157.0398 H   0  0  0  0  0  0  0  0  0  0  0  0  # atno 8010 bound_to 7997
  140.7138  143.5639  150.9165 H   0  0  0  0  0  0  0  0  0  0  0  0  # atno 10167 bound_to 10162
  156.1379  130.6444  150.9725 H   0  0  0  0  0  0  0  0  0  0  0  0  # atno 10718 bound_to 10713
  154.8747  135.3988  154.3468 H   0  0  0  0  0  0  0  0  0  0  0  0  # atno 10763 bound_to 10752
  153.4259  135.7024  153.6268 H   0  0  0  0  0  0  0  0  0  0  0  0  # atno 10764 bound_to 10752
  153.4910  135.3748  155.2462 H   0  0  0  0  0  0  0  0  0  0  0  0  # atno 10765 bound_to 10752
  139.9847  134.6688  156.0198 H   0  0  0  0  0  0  0  0  0  0  0  0  # atno 11005 bound_to 11000
  144.9721  139.3870  143.6304 LP  0  0  0  0  0  0  0  0  0  0  0  0  # atno 17320 bound_to 7965
  146.3364  139.8823  142.8822 LP  0  0  0  0  0  0  0  0  0  0  0  0  # atno 17321 bound_to 7965
  139.9365  143.6432  152.3064 LP  0  0  0  0  0  0  0  0  0  0  0  0  # atno 17342 bound_to 10162
  139.6901  144.7647  151.1453 LP  0  0  0  0  0  0  0  0  0  0  0  0  # atno 17343 bound_to 10162
  157.6549  131.0891  150.7970 LP  0  0  0  0  0  0  0  0  0  0  0  0  # atno 17370 bound_to 10713
  156.8048  130.4933  149.5364 LP  0  0  0  0  0  0  0  0  0  0  0  0  # atno 17371 bound_to 10713
  141.1514  133.6548  156.4024 LP  0  0  0  0  0  0  0  0  0  0  0  0  # atno 17394 bound_to 11000
  140.5027  134.6470  157.5254 LP  0  0  0  0  0  0  0  0  0  0  0  0  # atno 17395 bound_to 11000

$$$$
