AV-unprocessed.smi:3052|AV-procd|sdf|11636|dock2
  -GOLD-   2272017 23D 1   1.00000     0.00000
 Structure written by MMmdl.
 41 43  0  0  0  0  0  0  0  0  1 V2000
  151.8003  138.0803  154.4175 C   0  0  0  0  0  0  0  0  0  0  0  0
  150.7694  139.1490  154.6527 C   0  0  0  0  0  0  0  0  0  0  0  0
  151.1556  140.3233  155.1293 N   0  0  0  0  0  0  0  0  0  0  0  0
  150.0106  141.1331  155.1815 O   0  0  0  0  0  0  0  0  0  0  0  0
  148.9435  140.4187  154.7376 C   0  0  0  0  0  0  0  0  0  0  0  0
  147.6291  141.1276  154.7027 C   0  0  0  0  0  0  0  0  0  0  0  0
  146.8286  141.2145  153.4275 C   0  0  0  0  0  0  0  0  0  0  0  0
  147.4566  142.4603  154.0131 C   0  0  0  0  0  0  0  0  0  0  0  0
  149.3643  139.1623  154.4121 C   0  0  0  0  0  0  0  0  0  0  0  0
  148.5370  138.1469  153.8720 N   0  0  0  0  0  0  0  0  0  0  0  0
  147.2868  137.8445  154.2519 C   0  0  0  0  0  0  0  0  0  0  0  0
  146.6793  138.4032  155.1643 O   0  0  0  0  0  0  0  0  0  0  0  0
  146.7755  136.8652  153.4878 N   0  0  0  0  0  0  0  0  0  0  0  0
  145.4469  136.2450  153.5627 C   0  0  2  0  0  0  0  0  0  0  0  0
  145.4120  135.2589  152.3693 C   0  0  0  0  0  0  0  0  0  0  0  0
  144.3729  137.3444  153.3396 C   0  0  0  0  0  0  0  0  0  0  0  0
  144.5710  138.0482  152.1293 O   0  0  0  0  0  0  0  0  0  0  0  0
  145.2066  135.5523  154.9157 C   0  0  0  0  0  0  0  0  0  0  0  0
  143.8392  135.1658  155.4288 C   0  0  0  0  0  0  0  0  0  0  0  0
  144.6397  136.2424  156.1360 C   0  0  0  0  0  0  0  0  0  0  0  0
  151.5356  137.4565  153.5638 H   0  0  0  0  0  0  0  0  0  0  0  0
  151.8986  137.4334  155.2892 H   0  0  0  0  0  0  0  0  0  0  0  0
  152.7815  138.5098  154.2126 H   0  0  0  0  0  0  0  0  0  0  0  0
  147.0777  140.9712  155.6276 H   0  0  0  0  0  0  0  0  0  0  0  0
  147.2742  140.8077  152.5217 H   0  0  0  0  0  0  0  0  0  0  0  0
  145.7484  141.1101  153.5043 H   0  0  0  0  0  0  0  0  0  0  0  0
  146.7936  143.1851  154.4807 H   0  0  0  0  0  0  0  0  0  0  0  0
  148.3059  142.8820  153.4795 H   0  0  0  0  0  0  0  0  0  0  0  0
  148.8785  137.6947  153.0367 H   0  0  0  0  0  0  0  0  0  0  0  0
  147.3785  136.4980  152.7665 H   0  0  0  0  0  0  0  0  0  0  0  0
  144.4608  134.7347  152.2832 H   0  0  0  0  0  0  0  0  0  0  0  0
  146.1979  134.5068  152.4362 H   0  0  0  0  0  0  0  0  0  0  0  0
  145.5616  135.7852  151.4256 H   0  0  0  0  0  0  0  0  0  0  0  0
  143.3695  136.9185  153.3158 H   0  0  0  0  0  0  0  0  0  0  0  0
  144.3877  138.0671  154.1565 H   0  0  0  0  0  0  0  0  0  0  0  0
  144.4912  138.9735  152.3032 H   0  0  0  0  0  0  0  0  0  0  0  0
  145.9917  134.8378  155.1544 H   0  0  0  0  0  0  0  0  0  0  0  0
  142.9600  135.4805  154.8721 H   0  0  0  0  0  0  0  0  0  0  0  0
  143.7496  134.2009  155.9235 H   0  0  0  0  0  0  0  0  0  0  0  0
  145.0780  135.9881  157.0989 H   0  0  0  0  0  0  0  0  0  0  0  0
  144.2827  137.2654  156.0513 H   0  0  0  0  0  0  0  0  0  0  0  0
  1  2  1  0  0  0  0
  1 21  1  0  0  0  0
  1 22  1  0  0  0  0
  1 23  1  0  0  0  0
  2  9  1  0  0  0  0
  2  3  2  0  0  0  0
  3  4  1  0  0  0  0
  4  5  1  0  0  0  0
  5  6  1  0  0  0  0
  5  9  2  0  0  0  0
  6  8  1  0  0  0  0
  6  7  1  0  0  0  0
  6 24  1  0  0  0  0
  7  8  1  0  0  0  0
  7 25  1  0  0  0  0
  7 26  1  0  0  0  0
  8 27  1  0  0  0  0
  8 28  1  0  0  0  0
  9 10  1  0  0  0  0
 10 11  1  0  0  0  0
 10 29  1  0  0  0  0
 11 12  2  0  0  0  0
 11 13  1  0  0  0  0
 13 14  1  0  0  0  0
 13 30  1  0  0  0  0
 14 15  1  0  0  0  0
 14 16  1  0  0  0  0
 14 18  1  0  0  0  0
 15 31  1  0  0  0  0
 15 32  1  0  0  0  0
 15 33  1  0  0  0  0
 16 17  1  0  0  0  0
 16 34  1  0  0  0  0
 16 35  1  0  0  0  0
 17 36  1  0  0  0  0
 18 20  1  0  0  0  0
 18 19  1  0  0  0  0
 18 37  1  0  0  0  0
 19 20  1  0  0  0  0
 19 38  1  0  0  0  0
 19 39  1  0  0  0  0
 20 40  1  0  0  0  0
 20 41  1  0  0  0  0
M  END
> <s_m_source_file>
AV-unprocessed.smi

> <i_m_source_file_index>
3052

> <i_lp_mmshare_version>
43012

> <i_f3d_flags>
0

> <s_epik_input>
W0NIM11jMW5vYyhbQ0hdMltDSDJdW0NIMl0yKWMxW05IXUMoPU8pW05IXVtDQEBdKFtDSDNdKShbQ0gyXVtPSF0pW0NIXTNbQ0gyXVtDSDJdMw==

> <s_epik_cmdline>
J2VwaWtfcHl0aG9uJywgJy1waCcsICc3LjAnLCAnLXRuJywgJzgnLCAnLW1hJywgJzIwMCcsICctbWV0YWxfYmluZGluZycsICctaW1hZScsICc8aW5maWxlLm1hZT4nLCAnLW9tYWUnLCAnPG91dGZpbGUubWFlPic=

> <r_lp_tautomer_probability>
1

> <r_epik_Ionization_Penalty>
3.5887e-05

> <r_epik_Ionization_Penalty_Charging>
0

> <r_epik_Ionization_Penalty_Neutral>
3.5887e-05

> <r_epik_State_Penalty>
-0

> <r_epik_Charging_Adjusted_Penalty>
0

> <i_epik_Tot_Q>
0

> <i_epik_Tot_abs_Q>
0

> <r_epik_Metal_State_Penalty>
-0

> <b_epik_Metal_Only>
0

> <s_lp_Force_Field>
OPLS_2005

> <r_lp_Energy>
28.1978

> <b_lp_Chiralities_Consistent>
1

> <s_lp_Variant>
AV-unprocessed.smi:3052-2

> <Gold.Version>
5.8.1

> <Gold.Id.Protein>
6NUR|6NUR_protein|mol2

> <Gold.PLP.Fitness>
38.5145

> <Gold.PLP.PLP>
-28.2779

> <Gold.PLP.part.hbond>
-5.7057

> <Gold.PLP.part.metal>
0.0000

> <Gold.PLP.part.buried>
-5.1162

> <Gold.PLP.part.nonpolar>
-18.9049

> <Gold.PLP.part.repulsive>
0.1915

> <Gold.PLP.ligand.clash>
0.0000

> <Gold.PLP.ligand.torsion>
1.1208

> <Gold.PLP.Chemscore.Hbond>
3.4800

> <Gold.PLP.Chemscore.CHOScore>
0.0000

> <Gold.PLP.Chemscore.Metal>
0.0000

> <Gold.Chemscore.Hbonds>
donor molecule, donor type, donor heavy atom, donor atom, acceptor molecule, acceptor atom, score
      L1  H    10    29       P1  7948  1.00
      L1  H    13    30       P1  7948  1.00
      L1  H    17    36       P1 10175  1.00
      P1  H  7989  7998       L1     3  0.42

> <Gold.PLP.Chemscore.Internal.Correction>
2.0383

> <Gold.Rescore>
     Score         DG    S(hbond)    S(metal)    S(lipo)     H(rot)  DE(clash)    DE(int)     intcor
     13.84     -16.92       2.94        0.00      60.95       2.16       0.10       2.98       ----

> <Gold.Chemscore.Fitness>
13.8445

> <Gold.Chemscore.DG>
-16.9235

> <Gold.Chemscore.ZeroCoef>
-5.4800

> <Gold.Chemscore.Hbond>
2.9444

> <Gold.Chemscore.Metal>
0.0000

> <Gold.Chemscore.Lipo>
60.9493

> <Gold.Chemscore.Internal_Hbond>
0.0000

> <Gold.Chemscore.DEClash>
0.1024

> <Gold.Chemscore.DEInternal>
2.9766

> <Gold.Chemscore.Rot>
2.1569

> <Gold.Chemscore.Internal.Correction>
   9.000000E+99

> <Gold.Chemscore.Hbonds>
donor molecule, donor type, donor heavy atom, donor atom, acceptor molecule, acceptor atom, score
      L1  H    10    29       P1  7948  0.97
      L1  H    13    30       P1  7948  0.99
      L1  H    17    36       P1 10175  0.98

> <Gold.Chemscore.Hbond.Weighted>
-9.8342

> <Gold.Chemscore.Metal.Weighted>
-0.0000

> <Gold.Chemscore.Lipo.Weighted>
-7.1311

> <Gold.Chemscore.Internal_Hbond.Weighted>
0.0000

> <Gold.Chemscore.DEClash.Weighted>
0.1024

> <Gold.Chemscore.DEInternal.Weighted>
2.9766

> <Gold.Chemscore.Rot.Weighted>
5.5218

> <Gold.Chemscore.Internal.Correction.Weighted>
   9.000000E+99

> <Gold.Protein.RotatedTorsions>
[ 6907 6896 6895 6894 ] final  -21.42 input  -60.11 | X-H torsion
[ 7974 7965 7964 7962 ] final -160.91 input  175.53 | X-H torsion
[ 8008 7997 7996 7995 ] final  175.39 input   59.86 | X-H torsion
[ 10167 10162 10161 10158 ] final   88.49 input  -65.29 | X-H torsion
[ 10718 10713 10712 10709 ] final  104.11 input   66.30 | X-H torsion
[ 10763 10752 10751 10750 ] final  -40.88 input  -60.55 | X-H torsion
[ 11005 11000 10999 10996 ] final   31.37 input  -57.11 | X-H torsion

> <Gold.Protein.ActiveResidues>
 VAL166  LYS551  ARG553  GLY616  TRP617  ASP618  TYR619  PRO620  LYS621  CYS622 
 ASP623  PHE694  ASN695  SER759  ASP760  ASP761  ALA762  ILE779  LEU786  VAL792 
 PHE793  MET794  SER795  GLU796  ALA797  LYS798  CYS799  TRP800  GLU811  SER814 

> <Gold.Protein.RotatedAtoms>
  151.2336  135.0563  159.8996 H   0  0  0  0  0  0  0  0  0  0  0  0  # atno 6907 bound_to 6896
  152.5402  134.0510  159.8120 H   0  0  0  0  0  0  0  0  0  0  0  0  # atno 6908 bound_to 6896
  151.0694  133.5430  159.2660 H   0  0  0  0  0  0  0  0  0  0  0  0  # atno 6909 bound_to 6896
  144.7410  140.3473  143.6123 H   0  0  0  0  0  0  0  0  0  0  0  0  # atno 7974 bound_to 7965
  156.0876  140.1410  156.9634 H   0  0  0  0  0  0  0  0  0  0  0  0  # atno 8008 bound_to 7997
  154.4622  140.0939  156.6971 H   0  0  0  0  0  0  0  0  0  0  0  0  # atno 8009 bound_to 7997
  155.4973  140.3450  155.4367 H   0  0  0  0  0  0  0  0  0  0  0  0  # atno 8010 bound_to 7997
  139.8667  144.6515  150.8995 H   0  0  0  0  0  0  0  0  0  0  0  0  # atno 10167 bound_to 10162
  157.6751  131.0796  150.5657 H   0  0  0  0  0  0  0  0  0  0  0  0  # atno 10718 bound_to 10713
  153.9532  135.6748  153.4744 H   0  0  0  0  0  0  0  0  0  0  0  0  # atno 10763 bound_to 10752
  153.0874  135.4892  154.8620 H   0  0  0  0  0  0  0  0  0  0  0  0  # atno 10764 bound_to 10752
  154.7314  135.3139  154.8845 H   0  0  0  0  0  0  0  0  0  0  0  0  # atno 10765 bound_to 10752
  140.2846  134.2934  155.7791 H   0  0  0  0  0  0  0  0  0  0  0  0  # atno 11005 bound_to 11000
  145.7313  139.1737  143.2429 LP  0  0  0  0  0  0  0  0  0  0  0  0  # atno 17320 bound_to 7965
  146.1204  140.7316  142.9460 LP  0  0  0  0  0  0  0  0  0  0  0  0  # atno 17321 bound_to 7965
  140.7767  143.3698  151.1671 LP  0  0  0  0  0  0  0  0  0  0  0  0  # atno 17342 bound_to 10162
  139.7322  143.9055  152.3023 LP  0  0  0  0  0  0  0  0  0  0  0  0  # atno 17343 bound_to 10162
  156.5959  130.4341  149.5917 LP  0  0  0  0  0  0  0  0  0  0  0  0  # atno 17370 bound_to 10713
  156.2545  130.6927  151.1675 LP  0  0  0  0  0  0  0  0  0  0  0  0  # atno 17371 bound_to 10713
  141.2157  133.7547  156.9532 LP  0  0  0  0  0  0  0  0  0  0  0  0  # atno 17394 bound_to 11000
  140.1252  134.9392  157.2259 LP  0  0  0  0  0  0  0  0  0  0  0  0  # atno 17395 bound_to 11000

$$$$
