AV-unprocessed.smi:3303|AV-procd|sdf|12678|dock7
  -GOLD-   2272019 13D 1   1.00000     0.00000
 Structure written by MMmdl.
 44 45  0  0  0  0  0  0  0  0  2 V2000
  148.4902  141.7040  154.1397 C   0  0  0  0  0  0  0  0  0  0  0  0
  148.8726  140.6046  155.1449 C   0  0  1  0  0  0  0  0  0  0  0  0
  149.6116  139.4625  154.4169 C   0  0  0  0  0  0  0  0  0  0  0  0
  149.9875  138.4054  155.3555 N   0  0  0  0  0  0  0  0  0  0  0  0
  150.5076  137.2481  154.6379 C   0  0  0  0  0  0  0  0  0  0  0  0
  150.8930  138.8726  156.4156 C   0  0  1  0  0  0  0  0  0  0  0  0
  152.2973  139.2936  155.9248 C   0  0  0  0  0  0  0  0  0  0  0  0
  150.1841  139.9892  157.2087 C   0  0  0  0  0  0  0  0  0  0  0  0
  149.7238  141.1523  156.3111 C   0  0  2  0  0  0  0  0  0  0  0  0
  148.9469  142.1210  157.1162 N   0  3  0  0  0  0  0  0  0  0  0  0
  149.5885  142.5336  158.3800 C   0  0  0  0  0  0  0  0  0  0  0  0
  151.0802  142.8258  158.1694 C   0  0  0  0  0  0  0  0  0  0  0  0
  151.8799  142.6769  159.4497 C   0  0  0  0  0  0  0  0  0  0  0  0
  152.9483  141.7584  159.5296 C   0  0  0  0  0  0  0  0  0  0  0  0
  153.6531  141.6538  160.7445 C   0  0  0  0  0  0  0  0  0  0  0  0
  153.2644  142.4676  161.8260 C   0  0  0  0  0  0  0  0  0  0  0  0
  152.1821  143.3518  161.6452 C   0  0  0  0  0  0  0  0  0  0  0  0
  151.4980  143.4582  160.4850 N   0  0  0  0  0  0  0  0  0  0  0  0
  149.3762  142.1679  153.7049 H   0  0  0  0  0  0  0  0  0  0  0  0
  147.8978  142.4903  154.6077 H   0  0  0  0  0  0  0  0  0  0  0  0
  147.8962  141.2951  153.3217 H   0  0  0  0  0  0  0  0  0  0  0  0
  147.9496  140.1925  155.5566 H   0  0  0  0  0  0  0  0  0  0  0  0
  148.9523  139.0414  153.6566 H   0  0  0  0  0  0  0  0  0  0  0  0
  150.4893  139.8392  153.8912 H   0  0  0  0  0  0  0  0  0  0  0  0
  150.7872  136.4564  155.3335 H   0  0  0  0  0  0  0  0  0  0  0  0
  151.3788  137.5030  154.0341 H   0  0  0  0  0  0  0  0  0  0  0  0
  149.7458  136.8459  153.9693 H   0  0  0  0  0  0  0  0  0  0  0  0
  151.0351  138.0355  157.1005 H   0  0  0  0  0  0  0  0  0  0  0  0
  152.9070  139.6320  156.7628 H   0  0  0  0  0  0  0  0  0  0  0  0
  152.2671  140.1080  155.2018 H   0  0  0  0  0  0  0  0  0  0  0  0
  152.8334  138.4625  155.4676 H   0  0  0  0  0  0  0  0  0  0  0  0
  149.3187  139.5610  157.7174 H   0  0  0  0  0  0  0  0  0  0  0  0
  150.8418  140.3608  157.9958 H   0  0  0  0  0  0  0  0  0  0  0  0
  150.6051  141.6455  155.8980 H   0  0  0  0  0  0  0  0  0  0  0  0
  148.8006  142.9470  156.5536 H   0  0  0  0  0  0  0  0  0  0  0  0
  149.0799  143.4177  158.7674 H   0  0  0  0  0  0  0  0  0  0  0  0
  149.4693  141.7399  159.1188 H   0  0  0  0  0  0  0  0  0  0  0  0
  151.4889  142.1546  157.4127 H   0  0  0  0  0  0  0  0  0  0  0  0
  151.2136  143.8384  157.7851 H   0  0  0  0  0  0  0  0  0  0  0  0
  153.2233  141.1467  158.6827 H   0  0  0  0  0  0  0  0  0  0  0  0
  154.4761  140.9615  160.8454 H   0  0  0  0  0  0  0  0  0  0  0  0
  153.7832  142.4150  162.7718 H   0  0  0  0  0  0  0  0  0  0  0  0
  151.8563  143.9892  162.4540 H   0  0  0  0  0  0  0  0  0  0  0  0
  148.0464  141.7147  157.3269 H   0  0  0  0  0  0  0  0  0  0  0  0
  1  2  1  0  0  0  0
  1 19  1  0  0  0  0
  1 20  1  0  0  0  0
  1 21  1  0  0  0  0
  2  9  1  0  0  0  0
  2  3  1  0  0  0  0
  2 22  1  0  0  0  0
  3  4  1  0  0  0  0
  3 23  1  0  0  0  0
  3 24  1  0  0  0  0
  4  5  1  0  0  0  0
  4  6  1  0  0  0  0
  5 25  1  0  0  0  0
  5 26  1  0  0  0  0
  5 27  1  0  0  0  0
  6  7  1  0  0  0  0
  6  8  1  0  0  0  0
  6 28  1  0  0  0  0
  7 29  1  0  0  0  0
  7 30  1  0  0  0  0
  7 31  1  0  0  0  0
  8  9  1  0  0  0  0
  8 32  1  0  0  0  0
  8 33  1  0  0  0  0
  9 10  1  0  0  0  0
  9 34  1  0  0  0  0
 10 11  1  0  0  0  0
 10 35  1  0  0  0  0
 10 44  1  0  0  0  0
 11 12  1  0  0  0  0
 11 36  1  0  0  0  0
 11 37  1  0  0  0  0
 12 13  1  0  0  0  0
 12 38  1  0  0  0  0
 12 39  1  0  0  0  0
 13 18  1  0  0  0  0
 13 14  2  0  0  0  0
 14 15  1  0  0  0  0
 14 40  1  0  0  0  0
 15 16  2  0  0  0  0
 15 41  1  0  0  0  0
 16 17  1  0  0  0  0
 16 42  1  0  0  0  0
 17 18  2  0  0  0  0
 17 43  1  0  0  0  0
M  CHG  1  10   1
M  END
> <s_m_source_file>
AV-unprocessed.smi

> <i_m_source_file_index>
3303

> <i_lp_mmshare_version>
43012

> <i_f3d_flags>
0

> <s_epik_input>
W0NIM11bQ0BASF0xW0NIMl1OKFtDSDNdKVtDQEBIXShbQ0gzXSlbQ0gyXVtDQEhdMVtOSF1bQ0gyXVtDSDJdYzJbY0hdW2NIXVtjSF1bY0hdbjI=

> <s_epik_cmdline>
J2VwaWtfcHl0aG9uJywgJy1waCcsICc3LjAnLCAnLXRuJywgJzgnLCAnLW1hJywgJzIwMCcsICctbWV0YWxfYmluZGluZycsICctaW1hZScsICc8aW5maWxlLm1hZT4nLCAnLW9tYWUnLCAnPG91dGZpbGUubWFlPic=

> <r_epik_Ionization_Penalty>
1.37325

> <r_epik_Ionization_Penalty_Charging>
0.000251572

> <r_epik_Ionization_Penalty_Neutral>
1.373

> <r_epik_State_Penalty>
1.46343

> <r_epik_Charging_Adjusted_Penalty>
1.46368

> <i_epik_Tot_Q>
1

> <i_epik_Tot_abs_Q>
1

> <r_epik_Metal_State_Penalty>
1.46331

> <b_epik_Metal_Only>
0

> <s_lp_Force_Field>
OPLS_2005

> <r_lp_Energy>
23.1884

> <b_lp_Chiralities_Consistent>
1

> <s_lp_Variant>
AV-unprocessed.smi:3303-22

> <Gold.Version>
5.8.1

> <Gold.Id.Protein>
6NUR|6NUR_protein|mol2

> <Gold.PLP.Fitness>
42.7466

> <Gold.PLP.PLP>
-37.2292

> <Gold.PLP.part.hbond>
-1.0227

> <Gold.PLP.part.metal>
0.0000

> <Gold.PLP.part.buried>
-3.5299

> <Gold.PLP.part.nonpolar>
-33.5677

> <Gold.PLP.part.repulsive>
0.1882

> <Gold.PLP.ligand.clash>
0.0000

> <Gold.PLP.ligand.torsion>
0.2480

> <Gold.PLP.Chemscore.Hbond>
2.0000

> <Gold.PLP.Chemscore.CHOScore>
0.0000

> <Gold.PLP.Chemscore.Metal>
0.0000

> <Gold.Chemscore.Hbonds>
donor molecule, donor type, donor heavy atom, donor atom, acceptor molecule, acceptor atom, score
      L1  H    10    35       P1  8028  2.00

> <Gold.PLP.Chemscore.Internal.Correction>
0.0135

> <Gold.Rescore>
     Score         DG    S(hbond)    S(metal)    S(lipo)     H(rot)  DE(clash)    DE(int)     intcor
     18.62     -18.89       0.98        0.00     115.65       1.33       0.03       0.24       ----

> <Gold.Chemscore.Fitness>
18.6162

> <Gold.Chemscore.DG>
-18.8923

> <Gold.Chemscore.ZeroCoef>
-5.4800

> <Gold.Chemscore.Hbond>
0.9835

> <Gold.Chemscore.Metal>
0.0000

> <Gold.Chemscore.Lipo>
115.6549

> <Gold.Chemscore.Internal_Hbond>
0.0000

> <Gold.Chemscore.DEClash>
0.0341

> <Gold.Chemscore.DEInternal>
0.2421

> <Gold.Chemscore.Rot>
1.3298

> <Gold.Chemscore.Internal.Correction>
   9.000000E+99

> <Gold.Chemscore.Hbonds>
donor molecule, donor type, donor heavy atom, donor atom, acceptor molecule, acceptor atom, score
      L1  H    10    35       P1  8028  0.93

> <Gold.Chemscore.Hbond.Weighted>
-3.2850

> <Gold.Chemscore.Metal.Weighted>
-0.0000

> <Gold.Chemscore.Lipo.Weighted>
-13.5316

> <Gold.Chemscore.Internal_Hbond.Weighted>
0.0000

> <Gold.Chemscore.DEClash.Weighted>
0.0341

> <Gold.Chemscore.DEInternal.Weighted>
0.2421

> <Gold.Chemscore.Rot.Weighted>
3.4043

> <Gold.Chemscore.Internal.Correction.Weighted>
   9.000000E+99

> <Gold.Protein.RotatedTorsions>
[ 6907 6896 6895 6894 ] final -174.28 input  -60.11 | X-H torsion
[ 7974 7965 7964 7962 ] final    8.59 input  175.53 | X-H torsion
[ 8008 7997 7996 7995 ] final  141.23 input   59.86 | X-H torsion
[ 10167 10162 10161 10158 ] final -145.91 input  -65.29 | X-H torsion
[ 10718 10713 10712 10709 ] final  -65.86 input   66.30 | X-H torsion
[ 10763 10752 10751 10750 ] final  -55.71 input  -60.55 | X-H torsion
[ 11005 11000 10999 10996 ] final  -83.84 input  -57.11 | X-H torsion

> <Gold.Protein.ActiveResidues>
 VAL166  LYS551  ARG553  GLY616  TRP617  ASP618  TYR619  PRO620  LYS621  CYS622 
 ASP623  PHE694  ASN695  SER759  ASP760  ASP761  ALA762  ILE779  LEU786  VAL792 
 PHE793  MET794  SER795  GLU796  ALA797  LYS798  CYS799  TRP800  GLU811  SER814 

> <Gold.Protein.RotatedAtoms>
  151.5698  133.3391  159.2987 H   0  0  0  0  0  0  0  0  0  0  0  0  # atno 6907 bound_to 6896
  150.8374  134.7655  159.6915 H   0  0  0  0  0  0  0  0  0  0  0  0  # atno 6908 bound_to 6896
  152.4448  134.5525  159.9922 H   0  0  0  0  0  0  0  0  0  0  0  0  # atno 6909 bound_to 6896
  146.2414  139.9910  142.8426 H   0  0  0  0  0  0  0  0  0  0  0  0  # atno 7974 bound_to 7965
  156.2968  140.2320  156.4531 H   0  0  0  0  0  0  0  0  0  0  0  0  # atno 8008 bound_to 7997
  154.8084  140.0444  157.1345 H   0  0  0  0  0  0  0  0  0  0  0  0  # atno 8009 bound_to 7997
  154.9452  140.3034  155.5105 H   0  0  0  0  0  0  0  0  0  0  0  0  # atno 8010 bound_to 7997
  139.7762  143.8167  152.2632 H   0  0  0  0  0  0  0  0  0  0  0  0  # atno 10167 bound_to 10162
  156.0645  130.4253  150.1624 H   0  0  0  0  0  0  0  0  0  0  0  0  # atno 10718 bound_to 10713
  154.1951  135.6420  153.5071 H   0  0  0  0  0  0  0  0  0  0  0  0  # atno 10763 bound_to 10752
  153.0025  135.5438  154.6374 H   0  0  0  0  0  0  0  0  0  0  0  0  # atno 10764 bound_to 10752
  154.5773  135.2922  155.0741 H   0  0  0  0  0  0  0  0  0  0  0  0  # atno 10765 bound_to 10752
  141.1655  133.7315  156.8779 H   0  0  0  0  0  0  0  0  0  0  0  0  # atno 11005 bound_to 11000
  145.1503  140.9619  143.4436 LP  0  0  0  0  0  0  0  0  0  0  0  0  # atno 17320 bound_to 7965
  145.0211  139.3423  143.6072 LP  0  0  0  0  0  0  0  0  0  0  0  0  # atno 17321 bound_to 7965
  139.8216  144.7293  150.9565 LP  0  0  0  0  0  0  0  0  0  0  0  0  # atno 17342 bound_to 10162
  140.7816  143.4154  151.0926 LP  0  0  0  0  0  0  0  0  0  0  0  0  # atno 17343 bound_to 10162
  156.9687  130.9828  151.3463 LP  0  0  0  0  0  0  0  0  0  0  0  0  # atno 17370 bound_to 10713
  157.5678  130.8289  149.8350 LP  0  0  0  0  0  0  0  0  0  0  0  0  # atno 17371 bound_to 10713
  140.1736  134.9083  157.2863 LP  0  0  0  0  0  0  0  0  0  0  0  0  # atno 17394 bound_to 11000
  140.2475  134.3723  155.7455 LP  0  0  0  0  0  0  0  0  0  0  0  0  # atno 17395 bound_to 11000

$$$$
