AV-unprocessed.smi:746|AV-procd|sdf|3578|dock10
  -GOLD-   22720 0573D 1   1.00000     0.00000
 Structure written by MMmdl.
 48 50  0  0  0  0  0  0  0  0  1 V2000
  153.5379  133.2587  165.4527 C   0  0  0  0  0  0  0  0  0  0  0  0
  154.3444  133.4351  164.3013 O   0  0  0  0  0  0  0  0  0  0  0  0
  154.9810  134.7017  164.2742 C   0  0  0  0  0  0  0  0  0  0  0  0
  155.9815  134.7403  163.1156 C   0  0  0  0  0  0  0  0  0  0  0  0
  155.2707  134.6062  161.8881 O   0  0  0  0  0  0  0  0  0  0  0  0
  154.7051  135.7334  161.3285 C   0  0  0  0  0  0  0  0  0  0  0  0
  154.7244  136.9338  162.0659 C   0  0  0  0  0  0  0  0  0  0  0  0
  154.1613  138.0900  161.4940 C   0  0  0  0  0  0  0  0  0  0  0  0
  153.6055  138.0162  160.2012 C   0  0  0  0  0  0  0  0  0  0  0  0
  153.0341  139.1943  159.6504 N   0  0  0  0  0  0  0  0  0  0  0  0
  153.4798  140.4648  159.7349 C   0  0  0  0  0  0  0  0  0  0  0  0
  154.4792  140.7765  160.3847 O   0  0  0  0  0  0  0  0  0  0  0  0
  152.6919  141.3849  159.1102 N   0  0  0  0  0  0  0  0  0  0  0  0
  151.5903  141.0136  158.1883 C   0  0  0  0  0  0  0  0  0  0  0  0
  151.3099  142.0490  157.0925 C   0  0  0  0  0  0  0  0  0  0  0  0
  151.1024  143.4310  157.6944 C   0  0  0  0  0  0  0  0  0  0  0  0
  152.3801  143.8587  158.4195 C   0  0  1  0  0  0  0  0  0  0  0  0
  152.1786  145.1498  159.2357 C   0  0  0  0  0  0  0  0  0  0  0  0
  152.1627  144.7453  160.7192 C   0  0  0  0  0  0  0  0  0  0  0  0
  152.1524  143.2158  160.7441 C   0  0  0  0  0  0  0  0  0  0  0  0
  152.8653  142.8201  159.4485 C   0  0  1  0  0  0  0  0  0  0  0  0
  153.6156  136.7594  159.5493 C   0  0  0  0  0  0  0  0  0  0  0  0
  154.1528  135.6466  160.0931 N   0  0  0  0  0  0  0  0  0  0  0  0
  153.0739  132.2728  165.4275 H   0  0  0  0  0  0  0  0  0  0  0  0
  152.7422  134.0036  165.4939 H   0  0  0  0  0  0  0  0  0  0  0  0
  154.1310  133.3287  166.3654 H   0  0  0  0  0  0  0  0  0  0  0  0
  154.2503  135.5060  164.1739 H   0  0  0  0  0  0  0  0  0  0  0  0
  155.5104  134.8560  165.2156 H   0  0  0  0  0  0  0  0  0  0  0  0
  156.5034  135.6985  163.1311 H   0  0  0  0  0  0  0  0  0  0  0  0
  156.7257  133.9502  163.2304 H   0  0  0  0  0  0  0  0  0  0  0  0
  155.1658  136.9675  163.0511 H   0  0  0  0  0  0  0  0  0  0  0  0
  154.1657  139.0220  162.0402 H   0  0  0  0  0  0  0  0  0  0  0  0
  152.1439  139.0714  159.1902 H   0  0  0  0  0  0  0  0  0  0  0  0
  151.7827  140.0706  157.6746 H   0  0  0  0  0  0  0  0  0  0  0  0
  150.6904  140.8627  158.7861 H   0  0  0  0  0  0  0  0  0  0  0  0
  152.1383  142.0736  156.3833 H   0  0  0  0  0  0  0  0  0  0  0  0
  150.4257  141.7548  156.5262 H   0  0  0  0  0  0  0  0  0  0  0  0
  150.8556  144.1492  156.9120 H   0  0  0  0  0  0  0  0  0  0  0  0
  150.2568  143.4105  158.3828 H   0  0  0  0  0  0  0  0  0  0  0  0
  153.1578  144.0136  157.6700 H   0  0  0  0  0  0  0  0  0  0  0  0
  152.9939  145.8505  159.0512 H   0  0  0  0  0  0  0  0  0  0  0  0
  151.2555  145.6605  158.9580 H   0  0  0  0  0  0  0  0  0  0  0  0
  153.0668  145.1129  161.2064 H   0  0  0  0  0  0  0  0  0  0  0  0
  151.3104  145.1658  161.2535 H   0  0  0  0  0  0  0  0  0  0  0  0
  152.6389  142.8140  161.6336 H   0  0  0  0  0  0  0  0  0  0  0  0
  151.1239  142.8520  160.7341 H   0  0  0  0  0  0  0  0  0  0  0  0
  153.9291  143.0297  159.5827 H   0  0  0  0  0  0  0  0  0  0  0  0
  153.1712  136.6177  158.5765 H   0  0  0  0  0  0  0  0  0  0  0  0
  1  2  1  0  0  0  0
  1 24  1  0  0  0  0
  1 25  1  0  0  0  0
  1 26  1  0  0  0  0
  2  3  1  0  0  0  0
  3  4  1  0  0  0  0
  3 27  1  0  0  0  0
  3 28  1  0  0  0  0
  4  5  1  0  0  0  0
  4 29  1  0  0  0  0
  4 30  1  0  0  0  0
  5  6  1  0  0  0  0
  6 23  1  0  0  0  0
  6  7  2  0  0  0  0
  7  8  1  0  0  0  0
  7 31  1  0  0  0  0
  8  9  2  0  0  0  0
  8 32  1  0  0  0  0
  9 10  1  0  0  0  0
  9 22  1  0  0  0  0
 10 11  1  0  0  0  0
 10 33  1  0  0  0  0
 11 12  2  0  0  0  0
 11 13  1  0  0  0  0
 13 21  1  0  0  0  0
 13 14  1  0  0  0  0
 14 15  1  0  0  0  0
 14 34  1  0  0  0  0
 14 35  1  0  0  0  0
 15 16  1  0  0  0  0
 15 36  1  0  0  0  0
 15 37  1  0  0  0  0
 16 17  1  0  0  0  0
 16 38  1  0  0  0  0
 16 39  1  0  0  0  0
 17 21  1  0  0  0  0
 17 18  1  0  0  0  0
 17 40  1  0  0  0  0
 18 19  1  0  0  0  0
 18 41  1  0  0  0  0
 18 42  1  0  0  0  0
 19 20  1  0  0  0  0
 19 43  1  0  0  0  0
 19 44  1  0  0  0  0
 20 21  1  0  0  0  0
 20 45  1  0  0  0  0
 20 46  1  0  0  0  0
 21 47  1  0  0  0  0
 22 23  2  0  0  0  0
 22 48  1  0  0  0  0
M  END
> <s_m_source_file>
AV-unprocessed.smi

> <i_m_source_file_index>
746

> <i_lp_mmshare_version>
43012

> <i_f3d_flags>
0

> <s_epik_input>
W0NIM11PW0NIMl1bQ0gyXU9jMVtjSF1bY0hdYyhbY0hdbjEpW05IXUMoPU8pTihbQ0gyXVtDSDJdW0NIMl0yKVtDQEhdKFtDQEBIXTIzKVtDSDJdW0NIMl1bQ0gyXTM=

> <s_epik_cmdline>
J2VwaWtfcHl0aG9uJywgJy1waCcsICc3LjAnLCAnLXRuJywgJzgnLCAnLW1hJywgJzIwMCcsICctbWV0YWxfYmluZGluZycsICctaW1hZScsICc8aW5maWxlLm1hZT4nLCAnLW9tYWUnLCAnPG91dGZpbGUubWFlPic=

> <r_lp_tautomer_probability>
1

> <r_epik_Ionization_Penalty>
8.29966e-05

> <r_epik_Ionization_Penalty_Charging>
0

> <r_epik_Ionization_Penalty_Neutral>
8.29966e-05

> <r_epik_State_Penalty>
-0

> <r_epik_Charging_Adjusted_Penalty>
0

> <i_epik_Tot_Q>
0

> <i_epik_Tot_abs_Q>
0

> <r_epik_Metal_State_Penalty>
-0

> <b_epik_Metal_Only>
0

> <s_lp_Force_Field>
OPLS_2005

> <r_lp_Energy>
59.487

> <b_lp_Chiralities_Consistent>
1

> <s_lp_Variant>
AV-unprocessed.smi:746-3

> <Gold.Version>
5.8.1

> <Gold.Id.Protein>
6NUR|6NUR_protein|mol2

> <Gold.PLP.Fitness>
48.4213

> <Gold.PLP.PLP>
-46.9903

> <Gold.PLP.part.hbond>
-1.0000

> <Gold.PLP.part.metal>
0.0000

> <Gold.PLP.part.buried>
-6.2038

> <Gold.PLP.part.nonpolar>
-39.3457

> <Gold.PLP.part.repulsive>
0.1341

> <Gold.PLP.ligand.clash>
0.6566

> <Gold.PLP.ligand.torsion>
0.5588

> <Gold.PLP.Chemscore.Hbond>
1.0000

> <Gold.PLP.Chemscore.CHOScore>
0.0000

> <Gold.PLP.Chemscore.Metal>
0.0000

> <Gold.Chemscore.Hbonds>
donor molecule, donor type, donor heavy atom, donor atom, acceptor molecule, acceptor atom, score
      P1  H  6896  6907       L1    23  0.98

> <Gold.PLP.Chemscore.Internal.Correction>
0.2052

> <Gold.Rescore>
     Score         DG    S(hbond)    S(metal)    S(lipo)     H(rot)  DE(clash)    DE(int)     intcor
     16.36     -18.19       0.43        0.00     129.65       1.52       0.08       1.75       ----

> <Gold.Chemscore.Fitness>
16.3630

> <Gold.Chemscore.DG>
-18.1943

> <Gold.Chemscore.ZeroCoef>
-5.4800

> <Gold.Chemscore.Hbond>
0.4281

> <Gold.Chemscore.Metal>
0.0000

> <Gold.Chemscore.Lipo>
129.6462

> <Gold.Chemscore.Internal_Hbond>
0.0000

> <Gold.Chemscore.DEClash>
0.0819

> <Gold.Chemscore.DEInternal>
1.7494

> <Gold.Chemscore.Rot>
1.5172

> <Gold.Chemscore.Internal.Correction>
   9.000000E+99

> <Gold.Chemscore.Hbonds>
donor molecule, donor type, donor heavy atom, donor atom, acceptor molecule, acceptor atom, score
      P1  H  6896  6907       L1    23  0.21

> <Gold.Chemscore.Hbond.Weighted>
-1.4298

> <Gold.Chemscore.Metal.Weighted>
-0.0000

> <Gold.Chemscore.Lipo.Weighted>
-15.1686

> <Gold.Chemscore.Internal_Hbond.Weighted>
0.0000

> <Gold.Chemscore.DEClash.Weighted>
0.0819

> <Gold.Chemscore.DEInternal.Weighted>
1.7494

> <Gold.Chemscore.Rot.Weighted>
3.8841

> <Gold.Chemscore.Internal.Correction.Weighted>
   9.000000E+99

> <Gold.Protein.RotatedTorsions>
[ 6907 6896 6895 6894 ] final   82.19 input  -60.11 | X-H torsion
[ 7974 7965 7964 7962 ] final -160.67 input  175.53 | X-H torsion
[ 8008 7997 7996 7995 ] final   16.21 input   59.86 | X-H torsion
[ 10167 10162 10161 10158 ] final   27.29 input  -65.29 | X-H torsion
[ 10718 10713 10712 10709 ] final  123.63 input   66.30 | X-H torsion
[ 10763 10752 10751 10750 ] final  -45.01 input  -60.55 | X-H torsion
[ 11005 11000 10999 10996 ] final   68.03 input  -57.11 | X-H torsion

> <Gold.Protein.ActiveResidues>
 VAL166  LYS551  ARG553  GLY616  TRP617  ASP618  TYR619  PRO620  LYS621  CYS622 
 ASP623  PHE694  ASN695  SER759  ASP760  ASP761  ALA762  ILE779  LEU786  VAL792 
 PHE793  MET794  SER795  GLU796  ALA797  LYS798  CYS799  TRP800  GLU811  SER814 

> <Gold.Protein.RotatedAtoms>
  152.5291  134.3088  159.9105 H   0  0  0  0  0  0  0  0  0  0  0  0  # atno 6907 bound_to 6896
  151.3038  133.4104  159.2649 H   0  0  0  0  0  0  0  0  0  0  0  0  # atno 6908 bound_to 6896
  151.0096  134.9403  159.8057 H   0  0  0  0  0  0  0  0  0  0  0  0  # atno 6909 bound_to 6896
  144.7418  140.3507  143.6116 H   0  0  0  0  0  0  0  0  0  0  0  0  # atno 7974 bound_to 7965
  154.8737  140.2962  155.5466 H   0  0  0  0  0  0  0  0  0  0  0  0  # atno 8008 bound_to 7997
  156.3022  140.2455  156.3663 H   0  0  0  0  0  0  0  0  0  0  0  0  # atno 8009 bound_to 7997
  154.8790  140.0398  157.1760 H   0  0  0  0  0  0  0  0  0  0  0  0  # atno 8010 bound_to 7997
  140.4951  144.0405  150.6311 H   0  0  0  0  0  0  0  0  0  0  0  0  # atno 10167 bound_to 10162
  157.5650  131.1087  150.8471 H   0  0  0  0  0  0  0  0  0  0  0  0  # atno 10718 bound_to 10713
  154.0215  135.6668  153.4773 H   0  0  0  0  0  0  0  0  0  0  0  0  # atno 10763 bound_to 10752
  153.0578  135.5045  154.8019 H   0  0  0  0  0  0  0  0  0  0  0  0  # atno 10764 bound_to 10752
  154.6934  135.3065  154.9411 H   0  0  0  0  0  0  0  0  0  0  0  0  # atno 10765 bound_to 10752
  139.9736  134.6860  156.0398 H   0  0  0  0  0  0  0  0  0  0  0  0  # atno 11005 bound_to 11000
  145.7279  139.1728  143.2447 LP  0  0  0  0  0  0  0  0  0  0  0  0  # atno 17320 bound_to 7965
  146.1228  140.7286  142.9449 LP  0  0  0  0  0  0  0  0  0  0  0  0  # atno 17321 bound_to 7965
  140.3685  143.2868  152.0305 LP  0  0  0  0  0  0  0  0  0  0  0  0  # atno 17342 bound_to 10162
  139.4859  144.6248  151.7185 LP  0  0  0  0  0  0  0  0  0  0  0  0  # atno 17343 bound_to 10162
  156.8958  130.5229  149.5284 LP  0  0  0  0  0  0  0  0  0  0  0  0  # atno 17370 bound_to 10713
  156.0699  130.5734  150.9362 LP  0  0  0  0  0  0  0  0  0  0  0  0  # atno 17371 bound_to 10713
  141.1414  133.6564  156.3741 LP  0  0  0  0  0  0  0  0  0  0  0  0  # atno 17394 bound_to 11000
  140.5242  134.6275  157.5328 LP  0  0  0  0  0  0  0  0  0  0  0  0  # atno 17395 bound_to 11000

$$$$
