AV-unprocessed.smi:1586|AV-procd|sdf|6373|dock7
  -GOLD-   22720 7 03D 1   1.00000     0.00000
 Structure written by MMmdl.
 47 48  0  0  0  0  0  0  0  0  2 V2000
  148.6226  134.4203  155.1455 C   0  0  0  0  0  0  0  0  0  0  0  0
  147.9640  135.7987  155.3009 C   0  0  0  0  0  0  0  0  0  0  0  0
  148.6843  136.8656  154.5618 N   0  3  0  0  0  0  0  0  0  0  0  0
  150.0606  137.1118  155.0618 C   0  0  0  0  0  0  0  0  0  0  0  0
  150.7439  138.2166  154.2285 C   0  0  0  0  0  0  0  0  0  0  0  0
  150.0081  139.4875  154.2961 N   0  0  0  0  0  0  0  0  0  0  0  0
  149.9803  140.1449  155.6221 C   0  0  2  0  0  0  0  0  0  0  0  0
  148.9828  141.3273  155.6147 C   0  0  0  0  0  0  0  0  0  0  0  0
  151.3887  140.6365  156.0574 C   0  0  0  0  0  0  0  0  0  0  0  0
  151.3844  141.2536  157.3806 N   0  0  0  0  0  0  0  0  0  0  0  0
  152.1243  140.8342  158.4178 C   0  0  0  0  0  0  0  0  0  0  0  0
  152.8824  139.8647  158.3599 O   0  0  0  0  0  0  0  0  0  0  0  0
  151.9289  141.6005  159.5042 N   0  0  0  0  0  0  0  0  0  0  0  0
  152.5424  141.4657  160.7758 C   0  0  0  0  0  0  0  0  0  0  0  0
  152.4502  142.5006  161.7440 C   0  0  0  0  0  0  0  0  0  0  0  0
  153.1549  141.9969  162.8010 C   0  0  0  0  0  0  0  0  0  0  0  0
  153.4777  142.5347  164.1530 C   0  0  0  0  0  0  0  0  0  0  0  0
  153.6357  140.7594  162.5034 O   0  0  0  0  0  0  0  0  0  0  0  0
  153.2386  140.4236  161.2038 N   0  0  0  0  0  0  0  0  0  0  0  0
  148.6837  139.2131  153.7176 C   0  0  0  0  0  0  0  0  0  0  0  0
  147.9149  138.1335  154.5123 C   0  0  0  0  0  0  0  0  0  0  0  0
  148.0126  133.6504  155.6184 H   0  0  0  0  0  0  0  0  0  0  0  0
  149.6062  134.3819  155.6128 H   0  0  0  0  0  0  0  0  0  0  0  0
  148.7357  134.1519  154.0948 H   0  0  0  0  0  0  0  0  0  0  0  0
  146.9456  135.7283  154.9161 H   0  0  0  0  0  0  0  0  0  0  0  0
  147.8785  136.0661  156.3552 H   0  0  0  0  0  0  0  0  0  0  0  0
  150.0409  137.3699  156.1213 H   0  0  0  0  0  0  0  0  0  0  0  0
  150.6517  136.2007  154.9771 H   0  0  0  0  0  0  0  0  0  0  0  0
  151.7839  138.3387  154.5236 H   0  0  0  0  0  0  0  0  0  0  0  0
  150.7930  137.8985  153.1861 H   0  0  0  0  0  0  0  0  0  0  0  0
  149.6379  139.4293  156.3675 H   0  0  0  0  0  0  0  0  0  0  0  0
  149.0202  141.8957  156.5436 H   0  0  0  0  0  0  0  0  0  0  0  0
  147.9495  140.9968  155.5185 H   0  0  0  0  0  0  0  0  0  0  0  0
  149.1954  142.0208  154.8003 H   0  0  0  0  0  0  0  0  0  0  0  0
  152.1147  139.8258  156.1014 H   0  0  0  0  0  0  0  0  0  0  0  0
  151.7746  141.3608  155.3392 H   0  0  0  0  0  0  0  0  0  0  0  0
  150.7857  142.0566  157.5094 H   0  0  0  0  0  0  0  0  0  0  0  0
  151.2791  142.3670  159.4101 H   0  0  0  0  0  0  0  0  0  0  0  0
  151.9520  143.4562  161.6767 H   0  0  0  0  0  0  0  0  0  0  0  0
  152.7572  143.2968  164.4505 H   0  0  0  0  0  0  0  0  0  0  0  0
  154.4704  142.9848  164.1615 H   0  0  0  0  0  0  0  0  0  0  0  0
  153.4585  141.7424  164.9018 H   0  0  0  0  0  0  0  0  0  0  0  0
  148.0902  140.1216  153.6345 H   0  0  0  0  0  0  0  0  0  0  0  0
  148.8177  138.8735  152.6895 H   0  0  0  0  0  0  0  0  0  0  0  0
  146.9576  137.9495  154.0235 H   0  0  0  0  0  0  0  0  0  0  0  0
  147.6829  138.4739  155.5219 H   0  0  0  0  0  0  0  0  0  0  0  0
  148.7722  136.5523  153.6057 H   0  0  0  0  0  0  0  0  0  0  0  0
  1  2  1  0  0  0  0
  1 22  1  0  0  0  0
  1 23  1  0  0  0  0
  1 24  1  0  0  0  0
  2  3  1  0  0  0  0
  2 25  1  0  0  0  0
  2 26  1  0  0  0  0
  3 21  1  0  0  0  0
  3  4  1  0  0  0  0
  3 47  1  0  0  0  0
  4  5  1  0  0  0  0
  4 27  1  0  0  0  0
  4 28  1  0  0  0  0
  5  6  1  0  0  0  0
  5 29  1  0  0  0  0
  5 30  1  0  0  0  0
  6  7  1  0  0  0  0
  6 20  1  0  0  0  0
  7  8  1  0  0  0  0
  7  9  1  0  0  0  0
  7 31  1  0  0  0  0
  8 32  1  0  0  0  0
  8 33  1  0  0  0  0
  8 34  1  0  0  0  0
  9 10  1  0  0  0  0
  9 35  1  0  0  0  0
  9 36  1  0  0  0  0
 10 11  1  0  0  0  0
 10 37  1  0  0  0  0
 11 12  2  0  0  0  0
 11 13  1  0  0  0  0
 13 14  1  0  0  0  0
 13 38  1  0  0  0  0
 14 19  2  0  0  0  0
 14 15  1  0  0  0  0
 15 16  2  0  0  0  0
 15 39  1  0  0  0  0
 16 17  1  0  0  0  0
 16 18  1  0  0  0  0
 17 40  1  0  0  0  0
 17 41  1  0  0  0  0
 17 42  1  0  0  0  0
 18 19  1  0  0  0  0
 20 21  1  0  0  0  0
 20 43  1  0  0  0  0
 20 44  1  0  0  0  0
 21 45  1  0  0  0  0
 21 46  1  0  0  0  0
M  CHG  1   3   1
M  END
> <s_m_source_file>
AV-unprocessed.smi

> <i_m_source_file_index>
1586

> <i_lp_mmshare_version>
43012

> <i_f3d_flags>
0

> <s_epik_input>
W0NIM11bQ0gyXU4xW0NIMl1bQ0gyXU4oW0NIMl1bQ0gyXTEpW0NASF0oW0NIM10pW0NIMl1bTkhdQyg9TylbTkhdYzJbY0hdYyhbQ0gzXSlvbjI=

> <s_epik_cmdline>
J2VwaWtfcHl0aG9uJywgJy1waCcsICc3LjAnLCAnLXRuJywgJzgnLCAnLW1hJywgJzIwMCcsICctbWV0YWxfYmluZGluZycsICctaW1hZScsICc8aW5maWxlLm1hZT4nLCAnLW9tYWUnLCAnPG91dGZpbGUubWFlPic=

> <r_epik_Ionization_Penalty>
0.0459786

> <r_epik_Ionization_Penalty_Charging>
0.0453654

> <r_epik_Ionization_Penalty_Neutral>
0.000613264

> <r_epik_State_Penalty>
0.163057

> <r_epik_Charging_Adjusted_Penalty>
0.208422

> <i_epik_Tot_Q>
1

> <i_epik_Tot_abs_Q>
1

> <r_epik_Metal_State_Penalty>
0.17399

> <b_epik_Metal_Only>
0

> <s_lp_Force_Field>
OPLS_2005

> <r_lp_Energy>
17.9393

> <b_lp_Chiralities_Consistent>
1

> <s_lp_Variant>
AV-unprocessed.smi:1586-1

> <Gold.Version>
5.8.1

> <Gold.Id.Protein>
6NUR|6NUR_protein|mol2

> <Gold.PLP.Fitness>
45.1292

> <Gold.PLP.PLP>
-36.5470

> <Gold.PLP.part.hbond>
-2.8516

> <Gold.PLP.part.metal>
0.0000

> <Gold.PLP.part.buried>
-3.7050

> <Gold.PLP.part.nonpolar>
-28.6560

> <Gold.PLP.part.repulsive>
0.3350

> <Gold.PLP.ligand.clash>
0.0000

> <Gold.PLP.ligand.torsion>
0.1790

> <Gold.PLP.Chemscore.Hbond>
2.9600

> <Gold.PLP.Chemscore.CHOScore>
0.0000

> <Gold.PLP.Chemscore.Metal>
0.0000

> <Gold.Chemscore.Hbonds>
donor molecule, donor type, donor heavy atom, donor atom, acceptor molecule, acceptor atom, score
      L1  H     3    47       P1  7948  2.00
      P1  H  7989  7998       L1     6  0.27
      P1  H  7997  8008       L1    12  0.63

> <Gold.PLP.Chemscore.Internal.Correction>
0.0603

> <Gold.Rescore>
     Score         DG    S(hbond)    S(metal)    S(lipo)     H(rot)  DE(clash)    DE(int)     intcor
     15.48     -16.96       1.88        0.00      82.98       1.76       0.12       1.36       ----

> <Gold.Chemscore.Fitness>
15.4806

> <Gold.Chemscore.DG>
-16.9624

> <Gold.Chemscore.ZeroCoef>
-5.4800

> <Gold.Chemscore.Hbond>
1.8829

> <Gold.Chemscore.Metal>
0.0000

> <Gold.Chemscore.Lipo>
82.9773

> <Gold.Chemscore.Internal_Hbond>
0.0000

> <Gold.Chemscore.DEClash>
0.1219

> <Gold.Chemscore.DEInternal>
1.3598

> <Gold.Chemscore.Rot>
1.7637

> <Gold.Chemscore.Internal.Correction>
   9.000000E+99

> <Gold.Chemscore.Hbonds>
donor molecule, donor type, donor heavy atom, donor atom, acceptor molecule, acceptor atom, score
      L1  H     3    47       P1  7948  1.00
      P1  H  7989  7998       L1     6  0.01
      P1  H  7997  8008       L1    12  0.60

> <Gold.Chemscore.Hbond.Weighted>
-6.2890

> <Gold.Chemscore.Metal.Weighted>
-0.0000

> <Gold.Chemscore.Lipo.Weighted>
-9.7083

> <Gold.Chemscore.Internal_Hbond.Weighted>
0.0000

> <Gold.Chemscore.DEClash.Weighted>
0.1219

> <Gold.Chemscore.DEInternal.Weighted>
1.3598

> <Gold.Chemscore.Rot.Weighted>
4.5150

> <Gold.Chemscore.Internal.Correction.Weighted>
   9.000000E+99

> <Gold.Protein.RotatedTorsions>
[ 6907 6896 6895 6894 ] final  -81.90 input  -60.11 | X-H torsion
[ 7974 7965 7964 7962 ] final  138.16 input  175.53 | X-H torsion
[ 8008 7997 7996 7995 ] final  -87.63 input   59.86 | X-H torsion
[ 10167 10162 10161 10158 ] final -125.94 input  -65.29 | X-H torsion
[ 10718 10713 10712 10709 ] final -162.24 input   66.30 | X-H torsion
[ 10763 10752 10751 10750 ] final   68.45 input  -60.55 | X-H torsion
[ 11005 11000 10999 10996 ] final -149.29 input  -57.11 | X-H torsion

> <Gold.Protein.ActiveResidues>
 VAL166  LYS551  ARG553  GLY616  TRP617  ASP618  TYR619  PRO620  LYS621  CYS622 
 ASP623  PHE694  ASN695  SER759  ASP760  ASP761  ALA762  ILE779  LEU786  VAL792 
 PHE793  MET794  SER795  GLU796  ALA797  LYS798  CYS799  TRP800  GLU811  SER814 

> <Gold.Protein.RotatedAtoms>
  150.6905  134.3747  159.5007 H   0  0  0  0  0  0  0  0  0  0  0  0  # atno 6907 bound_to 6896
  152.1558  134.8949  160.0554 H   0  0  0  0  0  0  0  0  0  0  0  0  # atno 6908 bound_to 6896
  152.0030  133.3798  159.4226 H   0  0  0  0  0  0  0  0  0  0  0  0  # atno 6909 bound_to 6896
  144.9399  139.4944  143.5577 H   0  0  0  0  0  0  0  0  0  0  0  0  # atno 7974 bound_to 7965
  154.6654  140.0563  157.0108 H   0  0  0  0  0  0  0  0  0  0  0  0  # atno 8008 bound_to 7997
  155.1166  140.3243  155.4489 H   0  0  0  0  0  0  0  0  0  0  0  0  # atno 8009 bound_to 7997
  156.2636  140.2005  156.6289 H   0  0  0  0  0  0  0  0  0  0  0  0  # atno 8010 bound_to 7997
  139.9767  143.5786  152.2393 H   0  0  0  0  0  0  0  0  0  0  0  0  # atno 10167 bound_to 10162
  156.6076  130.8837  151.2929 H   0  0  0  0  0  0  0  0  0  0  0  0  # atno 10718 bound_to 10713
  153.0236  135.5247  154.7137 H   0  0  0  0  0  0  0  0  0  0  0  0  # atno 10763 bound_to 10752
  154.6212  135.2889  155.0326 H   0  0  0  0  0  0  0  0  0  0  0  0  # atno 10764 bound_to 10752
  154.1312  135.6592  153.4975 H   0  0  0  0  0  0  0  0  0  0  0  0  # atno 10765 bound_to 10752
  140.7523  134.3392  157.5123 H   0  0  0  0  0  0  0  0  0  0  0  0  # atno 11005 bound_to 11000
  146.3281  139.8410  142.8890 LP  0  0  0  0  0  0  0  0  0  0  0  0  # atno 17320 bound_to 7965
  145.3008  141.0193  143.3610 LP  0  0  0  0  0  0  0  0  0  0  0  0  # atno 17321 bound_to 7965
  139.6440  144.7657  151.2281 LP  0  0  0  0  0  0  0  0  0  0  0  0  # atno 17342 bound_to 10162
  140.7503  143.6269  150.8459 LP  0  0  0  0  0  0  0  0  0  0  0  0  # atno 17343 bound_to 10162
  157.7263  130.9627  150.1650 LP  0  0  0  0  0  0  0  0  0  0  0  0  # atno 17370 bound_to 10713
  156.2417  130.3691  149.8330 LP  0  0  0  0  0  0  0  0  0  0  0  0  # atno 17371 bound_to 10713
  139.8785  134.9150  156.3120 LP  0  0  0  0  0  0  0  0  0  0  0  0  # atno 17394 bound_to 11000
  140.9739  133.7310  156.0574 LP  0  0  0  0  0  0  0  0  0  0  0  0  # atno 17395 bound_to 11000

$$$$
