#       Name:                AV-unprocessed.smi:2962
#       Creating user name   scv26
#       Creation time:       Fri Mar 27 16:22:12 2020


#       File generated by GOLD software.
#

@<TRIPOS>MOLECULE
AV-unprocessed.smi:2962
    41    42     1
SMALL
NO_CHARGES


@<TRIPOS>ATOM
      1 ****        -2.7891   3.3073  -0.0464 C.3            1 S1                 0.0000
      2 ****        -2.0767   2.0943   0.1183 O.3            1 S1                 0.0000
      3 ****        -2.2532   1.2066  -0.9737 C.3            1 S1                 0.0000
      4 ****        -1.4703  -0.0879  -0.7128 C.3            1 S1                 0.0000
      5 ****        -0.0463   0.1662  -0.4516 N.pl3          1 S1                 0.0000
      6 ****         0.6380   0.2824   0.7215 C.2            1 S1                 0.0000
      7 ****        -0.0121   0.1232   2.3528 S.3            1 S1                 0.0000
      8 ****        -0.3366  -1.6510   2.5810 C.3            1 S1                 0.0000
      9 ****        -0.8178  -1.9247   4.0139 C.3            1 S1                 0.0000
     10 ****         0.8907  -2.5034   2.2362 C.2            1 S1                 0.0000
     11 ****         0.8232  -3.2507   1.1312 N.am           1 S1                 0.0000
     12 ****         1.8953  -2.4742   2.9444 O.2            1 S1                 0.0000
     13 ****         1.9386   0.5446   0.4193 N.pl3          1 S1                 1.0000
     14 ****         2.0931   0.5954  -0.9667 C.ar           1 S1                 0.0000
     15 ****         3.2192   0.8294  -1.7499 C.ar           1 S1                 0.0000
     16 ****         3.0313   0.8178  -3.1477 C.ar           1 S1                 0.0000
     17 ****         1.7631   0.5800  -3.7165 C.ar           1 S1                 0.0000
     18 ****         0.6284   0.3432  -2.9127 C.ar           1 S1                 0.0000
     19 ****         0.8226   0.3551  -1.5320 C.ar           1 S1                 0.0000
     20 ****        -2.6096   3.9565   0.8106 H              1 S1                 0.0000
     21 ****        -3.8628   3.1274  -0.1132 H              1 S1                 0.0000
     22 ****        -2.4658   3.8366  -0.9438 H              1 S1                 0.0000
     23 ****        -3.3116   0.9771  -1.1048 H              1 S1                 0.0000
     24 ****        -1.9053   1.6776  -1.8944 H              1 S1                 0.0000
     25 ****        -1.8862  -0.5990   0.1542 H              1 S1                 0.0000
     26 ****        -1.5592  -0.7789  -1.5515 H              1 S1                 0.0000
     27 ****        -1.1442  -1.9225   1.9006 H              1 S1                 0.0000
     28 ****        -1.0081  -2.9869   4.1732 H              1 S1                 0.0000
     29 ****        -1.7470  -1.3922   4.2189 H              1 S1                 0.0000
     30 ****        -0.0831  -1.6021   4.7532 H              1 S1                 0.0000
     31 ****         1.6131  -3.8144   0.8526 H              1 S1                 0.0000
     32 ****        -0.0141  -3.2343   0.5666 H              1 S1                 0.0000
     33 ****         4.1914   1.0138  -1.3169 H              1 S1                 0.0000
     34 ****         3.8766   0.9965  -3.7966 H              1 S1                 0.0000
     35 ****         1.6579   0.5804  -4.7919 H              1 S1                 0.0000
     36 ****        -0.3391   0.1646  -3.3582 H              1 S1                 0.0000
     37 ****         2.6638   0.6757   1.1129 H              1 S1                 0.0000
     38 ****        -2.3978   1.6448   0.9518 LP             1 S1                 0.0000
     39 ****        -1.1030   2.3041   0.2066 LP             1 S1                 0.0000
     40 ****         1.9183  -1.8900   3.7556 LP             1 S1                 0.0000
     41 ****         2.6893  -3.0346   2.7091 LP             1 S1                 0.0000
@<TRIPOS>BOND
    1    1    2 1     
    2    1   20 1     
    3    1   21 1     
    4    1   22 1     
    5    2    3 1     
    6    3    4 1     
    7    3   23 1     
    8    3   24 1     
    9    4    5 1     
   10    4   25 1     
   11    4   26 1     
   12    5   19 1     
   13    5    6 1     
   14    6    7 1     
   15    6   13 2     
   16    7    8 1     
   17    8    9 1     
   18    8   10 1     
   19    8   27 1     
   20    9   28 1     
   21    9   29 1     
   22    9   30 1     
   23   10   11 am    
   24   10   12 2     
   25   11   31 1     
   26   11   32 1     
   27   13   14 1     
   28   13   37 1     
   29   14   19 ar    
   30   14   15 ar    
   31   15   16 ar    
   32   15   33 1     
   33   16   17 ar    
   34   16   34 1     
   35   17   18 ar    
   36   17   35 1     
   37   18   19 ar    
   38   18   36 1     
   39    2   38 1     
   40    2   39 1     
   41   12   40 1     
   42   12   41 1     
@<TRIPOS>SUBSTRUCTURE
      1 S1             1
@<TRIPOS>SET
LONE_PAIRS      STATIC     ATOMS    <user>   **** ""
4 38 39 40 41
DONOR_HYDROGENS      STATIC     ATOMS    <user>   **** ""
3 31 32 37
ATOM$BLUE        STATIC     ATOMS    COLORGROUP SYSTEM
4 38 39 40 41
ATOM$RED        STATIC     ATOMS    COLORGROUP SYSTEM
3 31 32 37
