AV-unprocessed.smi:2714|AV-procd|sdf|10480|dock6
  -GOLD-   2272014523D 1   1.00000     0.00000
 Structure written by MMmdl.
 46 47  0  0  0  0  0  0  0  0  1 V2000
  147.1785  134.3149  162.4077 C   0  0  0  0  0  0  0  0  0  0  0  0
  147.0093  135.8026  162.0811 C   0  0  0  0  0  0  0  0  0  0  0  0
  148.1995  136.3693  161.2859 C   0  0  0  0  0  0  0  0  0  0  0  0
  148.0473  136.2615  159.7527 C   0  0  2  0  0  0  0  0  0  0  0  0
  147.4577  134.8977  159.3534 C   0  0  0  0  0  0  0  0  0  0  0  0
  149.3804  136.4934  159.0258 C   0  0  0  0  0  0  0  0  0  0  0  0
  149.8627  135.6121  158.3136 O   0  0  0  0  0  0  0  0  0  0  0  0
  149.9578  137.6902  159.2072 N   0  0  0  0  0  0  0  0  0  0  0  0
  151.1771  138.1438  158.5473 C   0  0  0  0  0  0  0  0  0  0  0  0
  150.9675  138.5459  157.0909 C   0  0  0  0  0  0  0  0  0  0  0  0
  150.7287  137.5477  156.1224 C   0  0  0  0  0  0  0  0  0  0  0  0
  150.5326  137.9247  154.7814 C   0  0  0  0  0  0  0  0  0  0  0  0
  150.5839  139.2931  154.4583 C   0  0  0  0  0  0  0  0  0  0  0  0
  150.8144  140.2599  155.3707 N   0  0  0  0  0  0  0  0  0  0  0  0
  151.0030  139.8991  156.6633 C   0  0  0  0  0  0  0  0  0  0  0  0
  151.2402  140.9267  157.5894 N   0  0  0  0  0  0  0  0  0  0  0  0
  152.5114  140.8207  158.2915 C   0  0  0  0  0  0  0  0  0  0  0  0
  152.5831  141.8879  159.3977 C   0  0  0  0  0  0  0  0  0  0  0  0
  152.3723  143.1801  158.8334 O   0  0  0  0  0  0  0  0  0  0  0  0
  151.0974  143.2927  158.2061 C   0  0  0  0  0  0  0  0  0  0  0  0
  150.9927  142.2643  157.0677 C   0  0  0  0  0  0  0  0  0  0  0  0
  146.3242  133.9416  162.9724 H   0  0  0  0  0  0  0  0  0  0  0  0
  148.0739  134.1428  163.0054 H   0  0  0  0  0  0  0  0  0  0  0  0
  147.2621  133.7185  161.4987 H   0  0  0  0  0  0  0  0  0  0  0  0
  146.0896  135.9412  161.5119 H   0  0  0  0  0  0  0  0  0  0  0  0
  146.8820  136.3543  163.0129 H   0  0  0  0  0  0  0  0  0  0  0  0
  148.3652  137.4097  161.5703 H   0  0  0  0  0  0  0  0  0  0  0  0
  149.1011  135.8333  161.5852 H   0  0  0  0  0  0  0  0  0  0  0  0
  147.3406  137.0272  159.4268 H   0  0  0  0  0  0  0  0  0  0  0  0
  147.3623  134.8052  158.2709 H   0  0  0  0  0  0  0  0  0  0  0  0
  146.4629  134.7638  159.7789 H   0  0  0  0  0  0  0  0  0  0  0  0
  148.0797  134.0731  159.7042 H   0  0  0  0  0  0  0  0  0  0  0  0
  149.4965  138.3522  159.8142 H   0  0  0  0  0  0  0  0  0  0  0  0
  151.5601  139.0071  159.0921 H   0  0  0  0  0  0  0  0  0  0  0  0
  151.9443  137.3714  158.6231 H   0  0  0  0  0  0  0  0  0  0  0  0
  150.6918  136.5048  156.4015 H   0  0  0  0  0  0  0  0  0  0  0  0
  150.3456  137.1828  154.0193 H   0  0  0  0  0  0  0  0  0  0  0  0
  150.4364  139.6205  153.4398 H   0  0  0  0  0  0  0  0  0  0  0  0
  152.6144  139.8240  158.7225 H   0  0  0  0  0  0  0  0  0  0  0  0
  153.3334  140.9580  157.5879 H   0  0  0  0  0  0  0  0  0  0  0  0
  151.8393  141.6940  160.1722 H   0  0  0  0  0  0  0  0  0  0  0  0
  153.5603  141.8649  159.8804 H   0  0  0  0  0  0  0  0  0  0  0  0
  150.3035  143.1424  158.9398 H   0  0  0  0  0  0  0  0  0  0  0  0
  150.9811  144.3027  157.8132 H   0  0  0  0  0  0  0  0  0  0  0  0
  151.7191  142.4974  156.2879 H   0  0  0  0  0  0  0  0  0  0  0  0
  150.0033  142.3070  156.6116 H   0  0  0  0  0  0  0  0  0  0  0  0
  1  2  1  0  0  0  0
  1 22  1  0  0  0  0
  1 23  1  0  0  0  0
  1 24  1  0  0  0  0
  2  3  1  0  0  0  0
  2 25  1  0  0  0  0
  2 26  1  0  0  0  0
  3  4  1  0  0  0  0
  3 27  1  0  0  0  0
  3 28  1  0  0  0  0
  4  5  1  0  0  0  0
  4  6  1  0  0  0  0
  4 29  1  0  0  0  0
  5 30  1  0  0  0  0
  5 31  1  0  0  0  0
  5 32  1  0  0  0  0
  6  7  2  0  0  0  0
  6  8  1  0  0  0  0
  8  9  1  0  0  0  0
  8 33  1  0  0  0  0
  9 10  1  0  0  0  0
  9 34  1  0  0  0  0
  9 35  1  0  0  0  0
 10 15  1  0  0  0  0
 10 11  2  0  0  0  0
 11 12  1  0  0  0  0
 11 36  1  0  0  0  0
 12 13  2  0  0  0  0
 12 37  1  0  0  0  0
 13 14  1  0  0  0  0
 13 38  1  0  0  0  0
 14 15  2  0  0  0  0
 15 16  1  0  0  0  0
 16 21  1  0  0  0  0
 16 17  1  0  0  0  0
 17 18  1  0  0  0  0
 17 39  1  0  0  0  0
 17 40  1  0  0  0  0
 18 19  1  0  0  0  0
 18 41  1  0  0  0  0
 18 42  1  0  0  0  0
 19 20  1  0  0  0  0
 20 21  1  0  0  0  0
 20 43  1  0  0  0  0
 20 44  1  0  0  0  0
 21 45  1  0  0  0  0
 21 46  1  0  0  0  0
M  END
> <s_m_source_file>
AV-unprocessed.smi

> <i_m_source_file_index>
2714

> <i_lp_mmshare_version>
43012

> <i_f3d_flags>
0

> <s_epik_input>
W0NIM11bQ0gyXVtDSDJdW0NASF0oW0NIM10pQyg9TylbTkhdW0NIMl1jMVtjSF1bY0hdW2NIXW5jMU4yW0NIMl1bQ0gyXU9bQ0gyXVtDSDJdMg==

> <s_epik_cmdline>
J2VwaWtfcHl0aG9uJywgJy1waCcsICc3LjAnLCAnLXRuJywgJzgnLCAnLW1hJywgJzIwMCcsICctbWV0YWxfYmluZGluZycsICctaW1hZScsICc8aW5maWxlLm1hZT4nLCAnLW9tYWUnLCAnPG91dGZpbGUubWFlPic=

> <r_lp_tautomer_probability>
1

> <r_epik_Ionization_Penalty>
0.00517355

> <r_epik_Ionization_Penalty_Charging>
0

> <r_epik_Ionization_Penalty_Neutral>
0.00517355

> <r_epik_State_Penalty>
0.00376978

> <r_epik_Charging_Adjusted_Penalty>
0.00376978

> <i_epik_Tot_Q>
0

> <i_epik_Tot_abs_Q>
0

> <r_epik_Metal_State_Penalty>
-0

> <b_epik_Metal_Only>
0

> <s_lp_Force_Field>
OPLS_2005

> <r_lp_Energy>
18.1949

> <b_lp_Chiralities_Consistent>
1

> <s_lp_Variant>
AV-unprocessed.smi:2714-1

> <Gold.Version>
5.8.1

> <Gold.Id.Protein>
6NUR|6NUR_protein|mol2

> <Gold.PLP.Fitness>
39.6416

> <Gold.PLP.PLP>
-34.8034

> <Gold.PLP.part.hbond>
-1.8541

> <Gold.PLP.part.metal>
0.0000

> <Gold.PLP.part.buried>
-4.8363

> <Gold.PLP.part.nonpolar>
-28.5247

> <Gold.PLP.part.repulsive>
0.2716

> <Gold.PLP.ligand.clash>
0.0000

> <Gold.PLP.ligand.torsion>
0.6865

> <Gold.PLP.Chemscore.Hbond>
1.0000

> <Gold.PLP.Chemscore.CHOScore>
1.0000

> <Gold.PLP.Chemscore.Metal>
0.0000

> <Gold.Chemscore.Hbonds>
donor molecule, donor type, donor heavy atom, donor atom, acceptor molecule, acceptor atom, score
      P1  H  6896  6909       L1     7  1.00
      L1  C    13    38       P1  7957  1.00

> <Gold.PLP.Chemscore.Internal.Correction>
0.2112

> <Gold.Rescore>
     Score         DG    S(hbond)    S(metal)    S(lipo)     H(rot)  DE(clash)    DE(int)     intcor
     13.37     -14.75       0.98        0.00      88.79       1.72       0.05       1.32       ----

> <Gold.Chemscore.Fitness>
13.3744

> <Gold.Chemscore.DG>
-14.7508

> <Gold.Chemscore.ZeroCoef>
-5.4800

> <Gold.Chemscore.Hbond>
0.9829

> <Gold.Chemscore.Metal>
0.0000

> <Gold.Chemscore.Lipo>
88.7940

> <Gold.Chemscore.Internal_Hbond>
0.0000

> <Gold.Chemscore.DEClash>
0.0515

> <Gold.Chemscore.DEInternal>
1.3249

> <Gold.Chemscore.Rot>
1.7192

> <Gold.Chemscore.Internal.Correction>
   9.000000E+99

> <Gold.Chemscore.Hbonds>
donor molecule, donor type, donor heavy atom, donor atom, acceptor molecule, acceptor atom, score
      P1  H  6896  6909       L1     7  0.33

> <Gold.Chemscore.Hbond.Weighted>
-3.2830

> <Gold.Chemscore.Metal.Weighted>
-0.0000

> <Gold.Chemscore.Lipo.Weighted>
-10.3889

> <Gold.Chemscore.Internal_Hbond.Weighted>
0.0000

> <Gold.Chemscore.DEClash.Weighted>
0.0515

> <Gold.Chemscore.DEInternal.Weighted>
1.3249

> <Gold.Chemscore.Rot.Weighted>
4.4011

> <Gold.Chemscore.Internal.Correction.Weighted>
   9.000000E+99

> <Gold.Protein.RotatedTorsions>
[ 6907 6896 6895 6894 ] final   48.00 input  -60.11 | X-H torsion
[ 7974 7965 7964 7962 ] final  -26.02 input  175.53 | X-H torsion
[ 8008 7997 7996 7995 ] final  -68.53 input   59.86 | X-H torsion
[ 10167 10162 10161 10158 ] final  -86.88 input  -65.29 | X-H torsion
[ 10718 10713 10712 10709 ] final  -27.30 input   66.30 | X-H torsion
[ 10763 10752 10751 10750 ] final   61.41 input  -60.55 | X-H torsion
[ 11005 11000 10999 10996 ] final -157.35 input  -57.11 | X-H torsion

> <Gold.Protein.ActiveResidues>
 VAL166  LYS551  ARG553  GLY616  TRP617  ASP618  TYR619  PRO620  LYS621  CYS622 
 ASP623  PHE694  ASN695  SER759  ASP760  ASP761  ALA762  ILE779  LEU786  VAL792 
 PHE793  MET794  SER795  GLU796  ALA797  LYS798  CYS799  TRP800  GLU811  SER814 

> <Gold.Protein.RotatedAtoms>
  152.2745  134.7897  160.0407 H   0  0  0  0  0  0  0  0  0  0  0  0  # atno 6907 bound_to 6896
  151.8498  133.3432  159.3677 H   0  0  0  0  0  0  0  0  0  0  0  0  # atno 6908 bound_to 6896
  150.7165  134.5238  159.5711 H   0  0  0  0  0  0  0  0  0  0  0  0  # atno 6909 bound_to 6896
  146.1453  140.4964  142.8634 H   0  0  0  0  0  0  0  0  0  0  0  0  # atno 7974 bound_to 7965
  154.4875  140.0871  156.7519 H   0  0  0  0  0  0  0  0  0  0  0  0  # atno 8008 bound_to 7997
  155.4314  140.3450  155.4262 H   0  0  0  0  0  0  0  0  0  0  0  0  # atno 8009 bound_to 7997
  156.1282  140.1493  156.9093 H   0  0  0  0  0  0  0  0  0  0  0  0  # atno 8010 bound_to 7997
  140.3899  143.2709  151.9278 H   0  0  0  0  0  0  0  0  0  0  0  0  # atno 10167 bound_to 10162
  156.4399  130.4462  149.7060 H   0  0  0  0  0  0  0  0  0  0  0  0  # atno 10718 bound_to 10713
  152.9949  135.5502  154.6029 H   0  0  0  0  0  0  0  0  0  0  0  0  # atno 10763 bound_to 10752
  154.5366  135.2817  155.1135 H   0  0  0  0  0  0  0  0  0  0  0  0  # atno 10764 bound_to 10752
  154.2429  135.6413  153.5266 H   0  0  0  0  0  0  0  0  0  0  0  0  # atno 10765 bound_to 10752
  140.6655  134.4303  157.5233 H   0  0  0  0  0  0  0  0  0  0  0  0  # atno 11005 bound_to 11000
  144.7839  140.5897  143.6587 LP  0  0  0  0  0  0  0  0  0  0  0  0  # atno 17320 bound_to 7965
  145.4952  139.1486  143.3688 LP  0  0  0  0  0  0  0  0  0  0  0  0  # atno 17321 bound_to 7965
  139.4789  144.5737  151.8046 LP  0  0  0  0  0  0  0  0  0  0  0  0  # atno 17342 bound_to 10162
  140.4851  144.1393  150.5939 LP  0  0  0  0  0  0  0  0  0  0  0  0  # atno 17343 bound_to 10162
  156.3929  130.7636  151.2638 LP  0  0  0  0  0  0  0  0  0  0  0  0  # atno 17370 bound_to 10713
  157.7506  131.0262  150.3954 LP  0  0  0  0  0  0  0  0  0  0  0  0  # atno 17371 bound_to 10713
  139.8998  134.8582  156.1943 LP  0  0  0  0  0  0  0  0  0  0  0  0  # atno 17394 bound_to 11000
  141.0432  133.6927  156.1636 LP  0  0  0  0  0  0  0  0  0  0  0  0  # atno 17395 bound_to 11000

$$$$
