AV-unprocessed.smi:2999|AV-procd|sdf|11417|dock1
  -GOLD-   2272016343D 1   1.00000     0.00000
 Structure written by MMmdl.
 37 39  0  0  0  0  0  0  0  0  1 V2000
  144.6837  136.7336  152.1832 O   0  0  0  0  0  0  0  0  0  0  0  0
  145.8971  136.5779  152.0454 C   0  0  0  0  0  0  0  0  0  0  0  0
  146.8071  137.4746  152.4507 N   0  0  0  0  0  0  0  0  0  0  0  0
  146.4989  138.7439  153.1001 C   0  0  0  0  0  0  0  0  0  0  0  0
  147.7561  139.6098  153.2859 C   0  0  2  0  0  0  0  0  0  0  0  0
  148.8352  138.8824  154.1117 C   0  0  0  0  0  0  0  0  0  0  0  0
  150.0012  139.7253  154.3465 N   0  0  0  0  0  0  0  0  0  0  0  0
  150.9985  139.0253  155.1423 C   0  0  0  0  0  0  0  0  0  0  0  0
  152.4521  139.3975  155.0038 C   0  0  0  0  0  0  0  0  0  0  0  0
  151.9482  138.0710  154.4654 C   0  0  0  0  0  0  0  0  0  0  0  0
  149.5682  140.9497  155.0078 C   0  0  0  0  0  0  0  0  0  0  0  0
  148.4866  141.6827  154.1963 C   0  0  0  0  0  0  0  0  0  0  0  0
  147.3870  140.8061  153.9702 O   0  0  0  0  0  0  0  0  0  0  0  0
  146.4840  135.5101  151.4809 N   0  0  0  0  0  0  0  0  0  0  0  0
  145.8557  134.3782  150.9049 C   0  0  0  0  0  0  0  0  0  0  0  0
  144.5758  134.4681  150.5383 N   0  0  0  0  0  0  0  0  0  0  0  0
  144.0998  133.2710  149.9954 C   0  0  0  0  0  0  0  0  0  0  0  0
  145.0394  132.2710  149.9548 C   0  0  0  0  0  0  0  0  0  0  0  0
  146.5720  132.7932  150.6006 S   0  0  0  0  0  0  0  0  0  0  0  0
  147.7839  137.2645  152.3046 H   0  0  0  0  0  0  0  0  0  0  0  0
  145.7664  139.2738  152.4907 H   0  0  0  0  0  0  0  0  0  0  0  0
  146.0209  138.5578  154.0635 H   0  0  0  0  0  0  0  0  0  0  0  0
  148.1686  139.8689  152.3090 H   0  0  0  0  0  0  0  0  0  0  0  0
  148.4101  138.5646  155.0652 H   0  0  0  0  0  0  0  0  0  0  0  0
  149.1399  137.9744  153.5897 H   0  0  0  0  0  0  0  0  0  0  0  0
  150.6294  138.7624  156.1325 H   0  0  0  0  0  0  0  0  0  0  0  0
  152.7150  140.1651  154.2783 H   0  0  0  0  0  0  0  0  0  0  0  0
  153.0628  139.3764  155.9040 H   0  0  0  0  0  0  0  0  0  0  0  0
  152.2255  137.1695  155.0081 H   0  0  0  0  0  0  0  0  0  0  0  0
  151.8764  137.9626  153.3848 H   0  0  0  0  0  0  0  0  0  0  0  0
  149.1782  140.7184  156.0001 H   0  0  0  0  0  0  0  0  0  0  0  0
  150.4225  141.6114  155.1552 H   0  0  0  0  0  0  0  0  0  0  0  0
  148.1370  142.5623  154.7367 H   0  0  0  0  0  0  0  0  0  0  0  0
  148.8862  142.0293  153.2421 H   0  0  0  0  0  0  0  0  0  0  0  0
  147.4926  135.5133  151.4445 H   0  0  0  0  0  0  0  0  0  0  0  0
  143.0737  133.2180  149.6628 H   0  0  0  0  0  0  0  0  0  0  0  0
  144.9231  131.2626  149.5865 H   0  0  0  0  0  0  0  0  0  0  0  0
  1  2  2  0  0  0  0
  2  3  1  0  0  0  0
  2 14  1  0  0  0  0
  3  4  1  0  0  0  0
  3 20  1  0  0  0  0
  4  5  1  0  0  0  0
  4 21  1  0  0  0  0
  4 22  1  0  0  0  0
  5 13  1  0  0  0  0
  5  6  1  0  0  0  0
  5 23  1  0  0  0  0
  6  7  1  0  0  0  0
  6 24  1  0  0  0  0
  6 25  1  0  0  0  0
  7  8  1  0  0  0  0
  7 11  1  0  0  0  0
  8 10  1  0  0  0  0
  8  9  1  0  0  0  0
  8 26  1  0  0  0  0
  9 10  1  0  0  0  0
  9 27  1  0  0  0  0
  9 28  1  0  0  0  0
 10 29  1  0  0  0  0
 10 30  1  0  0  0  0
 11 12  1  0  0  0  0
 11 31  1  0  0  0  0
 11 32  1  0  0  0  0
 12 13  1  0  0  0  0
 12 33  1  0  0  0  0
 12 34  1  0  0  0  0
 14 15  1  0  0  0  0
 14 35  1  0  0  0  0
 15 19  1  0  0  0  0
 15 16  2  0  0  0  0
 16 17  1  0  0  0  0
 17 18  2  0  0  0  0
 17 36  1  0  0  0  0
 18 19  1  0  0  0  0
 18 37  1  0  0  0  0
M  END
> <s_m_source_file>
AV-unprocessed.smi

> <i_m_source_file_index>
2999

> <i_lp_mmshare_version>
43012

> <i_f3d_flags>
0

> <s_epik_input>
czFbY0hdW2NIXW5jMVtOSF1DKD1PKVtOSF1bQ0gyXVtDQEBIXTJbQ0gyXU4oW0NIMl1bQ0gyXU8yKVtDSF0zW0NIMl1bQ0gyXTM=

> <s_epik_cmdline>
J2VwaWtfcHl0aG9uJywgJy1waCcsICc3LjAnLCAnLXRuJywgJzgnLCAnLW1hJywgJzIwMCcsICctbWV0YWxfYmluZGluZycsICctaW1hZScsICc8aW5maWxlLm1hZT4nLCAnLW9tYWUnLCAnPG91dGZpbGUubWFlPic=

> <r_lp_tautomer_probability>
0.999

> <r_epik_Ionization_Penalty>
0.0449352

> <r_epik_Ionization_Penalty_Charging>
0

> <r_epik_Ionization_Penalty_Neutral>
0.0449352

> <r_epik_State_Penalty>
0.0379856

> <r_epik_Charging_Adjusted_Penalty>
0.0379856

> <i_epik_Tot_Q>
0

> <i_epik_Tot_abs_Q>
0

> <r_epik_Metal_State_Penalty>
0.0775629

> <b_epik_Metal_Only>
0

> <s_lp_Force_Field>
OPLS_2005

> <r_lp_Energy>
28.3978

> <b_lp_Chiralities_Consistent>
1

> <s_lp_Variant>
AV-unprocessed.smi:2999-1

> <Gold.Version>
5.8.1

> <Gold.Id.Protein>
6NUR|6NUR_protein|mol2

> <Gold.PLP.Fitness>
43.0611

> <Gold.PLP.PLP>
-33.9305

> <Gold.PLP.part.hbond>
-2.7759

> <Gold.PLP.part.metal>
0.0000

> <Gold.PLP.part.buried>
1.3527

> <Gold.PLP.part.nonpolar>
-32.8276

> <Gold.PLP.part.repulsive>
0.8306

> <Gold.PLP.ligand.clash>
0.0000

> <Gold.PLP.ligand.torsion>
0.6532

> <Gold.PLP.Chemscore.Hbond>
2.1118

> <Gold.PLP.Chemscore.CHOScore>
1.0000

> <Gold.PLP.Chemscore.Metal>
0.0000

> <Gold.Chemscore.Hbonds>
donor molecule, donor type, donor heavy atom, donor atom, acceptor molecule, acceptor atom, score
      L1  H     3    20       P1  7948  1.00
      L1  H    14    35       P1  7948  1.00
      P1  H  7989  7998       L1     7  0.11
      L1  C    17    36       P1 10186  1.00

> <Gold.PLP.Chemscore.Internal.Correction>
1.1016

> <Gold.Rescore>
     Score         DG    S(hbond)    S(metal)    S(lipo)     H(rot)  DE(clash)    DE(int)     intcor
     15.42     -17.66       1.94        0.00      82.58       1.55       0.20       2.04       ----

> <Gold.Chemscore.Fitness>
15.4248

> <Gold.Chemscore.DG>
-17.6634

> <Gold.Chemscore.ZeroCoef>
-5.4800

> <Gold.Chemscore.Hbond>
1.9401

> <Gold.Chemscore.Metal>
0.0000

> <Gold.Chemscore.Lipo>
82.5806

> <Gold.Chemscore.Internal_Hbond>
0.0000

> <Gold.Chemscore.DEClash>
0.1962

> <Gold.Chemscore.DEInternal>
2.0423

> <Gold.Chemscore.Rot>
1.5463

> <Gold.Chemscore.Internal.Correction>
   9.000000E+99

> <Gold.Chemscore.Hbonds>
donor molecule, donor type, donor heavy atom, donor atom, acceptor molecule, acceptor atom, score
      L1  H     3    20       P1  7948  0.94
      L1  H    14    35       P1  7948  0.86

> <Gold.Chemscore.Hbond.Weighted>
-6.4799

> <Gold.Chemscore.Metal.Weighted>
-0.0000

> <Gold.Chemscore.Lipo.Weighted>
-9.6619

> <Gold.Chemscore.Internal_Hbond.Weighted>
0.0000

> <Gold.Chemscore.DEClash.Weighted>
0.1962

> <Gold.Chemscore.DEInternal.Weighted>
2.0423

> <Gold.Chemscore.Rot.Weighted>
3.9584

> <Gold.Chemscore.Internal.Correction.Weighted>
   9.000000E+99

> <Gold.Protein.RotatedTorsions>
[ 6907 6896 6895 6894 ] final  -92.23 input  -60.11 | X-H torsion
[ 7974 7965 7964 7962 ] final  -81.82 input  175.53 | X-H torsion
[ 8008 7997 7996 7995 ] final  121.92 input   59.86 | X-H torsion
[ 10167 10162 10161 10158 ] final    1.05 input  -65.29 | X-H torsion
[ 10718 10713 10712 10709 ] final  -64.38 input   66.30 | X-H torsion
[ 10763 10752 10751 10750 ] final   79.73 input  -60.55 | X-H torsion
[ 11005 11000 10999 10996 ] final -168.45 input  -57.11 | X-H torsion

> <Gold.Protein.ActiveResidues>
 VAL166  LYS551  ARG553  GLY616  TRP617  ASP618  TYR619  PRO620  LYS621  CYS622 
 ASP623  PHE694  ASN695  SER759  ASP760  ASP761  ALA762  ILE779  LEU786  VAL792 
 PHE793  MET794  SER795  GLU796  ALA797  LYS798  CYS799  TRP800  GLU811  SER814 

> <Gold.Protein.RotatedAtoms>
  150.6903  134.2155  159.4375 H   0  0  0  0  0  0  0  0  0  0  0  0  # atno 6907 bound_to 6896
  152.0114  134.9872  160.0577 H   0  0  0  0  0  0  0  0  0  0  0  0  # atno 6908 bound_to 6896
  152.1485  133.4472  159.4838 H   0  0  0  0  0  0  0  0  0  0  0  0  # atno 6909 bound_to 6896
  145.5415  140.9509  143.1548 H   0  0  0  0  0  0  0  0  0  0  0  0  # atno 7974 bound_to 7965
  156.2706  140.2797  156.1384 H   0  0  0  0  0  0  0  0  0  0  0  0  # atno 8008 bound_to 7997
  155.0979  140.0389  157.2706 H   0  0  0  0  0  0  0  0  0  0  0  0  # atno 8009 bound_to 7997
  154.6838  140.2614  155.6887 H   0  0  0  0  0  0  0  0  0  0  0  0  # atno 8010 bound_to 7997
  140.6701  143.7073  150.7905 H   0  0  0  0  0  0  0  0  0  0  0  0  # atno 10167 bound_to 10162
  156.0733  130.4233  150.1412 H   0  0  0  0  0  0  0  0  0  0  0  0  # atno 10718 bound_to 10713
  153.0976  135.4829  154.8807 H   0  0  0  0  0  0  0  0  0  0  0  0  # atno 10763 bound_to 10752
  154.7342  135.3067  154.8842 H   0  0  0  0  0  0  0  0  0  0  0  0  # atno 10764 bound_to 10752
  153.9469  135.6827  153.4797 H   0  0  0  0  0  0  0  0  0  0  0  0  # atno 10765 bound_to 10752
  140.5419  134.5514  157.5101 H   0  0  0  0  0  0  0  0  0  0  0  0  # atno 11005 bound_to 11000
  144.7574  139.7040  143.7248 LP  0  0  0  0  0  0  0  0  0  0  0  0  # atno 17320 bound_to 7965
  146.1977  139.5254  142.9763 LP  0  0  0  0  0  0  0  0  0  0  0  0  # atno 17321 bound_to 7965
  140.0757  143.5017  152.2556 LP  0  0  0  0  0  0  0  0  0  0  0  0  # atno 17342 bound_to 10162
  139.5965  144.7568  151.3274 LP  0  0  0  0  0  0  0  0  0  0  0  0  # atno 17343 bound_to 10162
  156.9458  130.9759  151.3507 LP  0  0  0  0  0  0  0  0  0  0  0  0  # atno 17370 bound_to 10713
  157.5815  130.8380  149.8529 LP  0  0  0  0  0  0  0  0  0  0  0  0  # atno 17371 bound_to 10713
  139.9500  134.7634  156.0472 LP  0  0  0  0  0  0  0  0  0  0  0  0  # atno 17394 bound_to 11000
  141.1222  133.6609  156.3244 LP  0  0  0  0  0  0  0  0  0  0  0  0  # atno 17395 bound_to 11000

$$$$
