AV-unprocessed.smi:987|AV-procd|sdf|4323|dock3
  -GOLD-   22720 2223D 1   1.00000     0.00000
 Structure written by MMmdl.
 50 52  0  0  0  0  0  0  0  0  1 V2000
  152.3261  144.5429  157.6684 C   0  0  0  0  0  0  0  0  0  0  0  0
  151.4329  143.7389  158.6304 C   0  0  1  0  0  0  0  0  0  0  0  0
  150.4415  142.8030  157.9111 C   0  0  0  0  0  0  0  0  0  0  0  0
  151.1237  141.6248  157.3801 N   0  0  0  0  0  0  0  0  0  0  0  0
  150.4202  140.8033  156.4740 C   0  0  0  0  0  0  0  0  0  0  0  0
  151.1184  139.8589  155.6860 C   0  0  0  0  0  0  0  0  0  0  0  0
  150.3981  139.0471  154.7899 C   0  0  0  0  0  0  0  0  0  0  0  0
  148.9994  139.1868  154.7053 C   0  0  0  0  0  0  0  0  0  0  0  0
  148.3010  138.3659  153.7792 N   0  0  0  0  0  0  0  0  0  0  0  0
  146.9743  138.2037  153.6396 C   0  0  0  0  0  0  0  0  0  0  0  0
  146.1152  138.7248  154.3497 O   0  0  0  0  0  0  0  0  0  0  0  0
  146.6948  137.3738  152.6254 N   0  0  0  0  0  0  0  0  0  0  0  0
  145.3532  136.9953  152.1919 C   0  0  0  0  0  0  0  0  0  0  0  0
  145.3713  135.9241  151.0862 C   0  0  0  0  0  0  0  0  0  0  0  0
  145.7540  136.6088  149.9094 O   0  0  0  0  0  0  0  0  0  0  0  0
  146.1225  134.6001  151.3320 C   0  0  0  0  0  0  0  0  0  0  0  0
  144.9753  133.8481  150.6561 C   0  0  0  0  0  0  0  0  0  0  0  0
  144.0981  135.0768  150.9026 C   0  0  0  0  0  0  0  0  0  0  0  0
  148.3884  140.1690  155.5203 C   0  0  0  0  0  0  0  0  0  0  0  0
  149.0765  140.9528  156.3773 N   0  0  0  0  0  0  0  0  0  0  0  0
  151.9151  140.9196  158.3826 C   0  0  0  0  0  0  0  0  0  0  0  0
  152.9053  141.8844  159.0592 C   0  0  2  0  0  0  0  0  0  0  0  0
  153.6604  141.2128  160.2111 C   0  0  0  0  0  0  0  0  0  0  0  0
  152.1973  143.0046  159.5896 O   0  0  0  0  0  0  0  0  0  0  0  0
  151.7232  145.1980  157.0394 H   0  0  0  0  0  0  0  0  0  0  0  0
  152.9028  143.9000  157.0038 H   0  0  0  0  0  0  0  0  0  0  0  0
  153.0269  145.1695  158.2203 H   0  0  0  0  0  0  0  0  0  0  0  0
  150.8502  144.4647  159.1981 H   0  0  0  0  0  0  0  0  0  0  0  0
  149.6729  142.4757  158.6126 H   0  0  0  0  0  0  0  0  0  0  0  0
  149.9364  143.3468  157.1116 H   0  0  0  0  0  0  0  0  0  0  0  0
  152.1919  139.7599  155.7484 H   0  0  0  0  0  0  0  0  0  0  0  0
  150.9177  138.3250  154.1771 H   0  0  0  0  0  0  0  0  0  0  0  0
  148.8825  137.8018  153.1772 H   0  0  0  0  0  0  0  0  0  0  0  0
  147.4660  136.9860  152.1024 H   0  0  0  0  0  0  0  0  0  0  0  0
  144.8494  136.6078  153.0776 H   0  0  0  0  0  0  0  0  0  0  0  0
  144.7795  137.8784  151.9024 H   0  0  0  0  0  0  0  0  0  0  0  0
  145.0596  137.2153  149.7035 H   0  0  0  0  0  0  0  0  0  0  0  0
  147.0806  134.5151  150.8178 H   0  0  0  0  0  0  0  0  0  0  0  0
  146.2157  134.3478  152.3895 H   0  0  0  0  0  0  0  0  0  0  0  0
  145.1573  133.6651  149.5962 H   0  0  0  0  0  0  0  0  0  0  0  0
  144.6531  132.9453  151.1754 H   0  0  0  0  0  0  0  0  0  0  0  0
  143.5044  134.9873  151.8136 H   0  0  0  0  0  0  0  0  0  0  0  0
  143.4760  135.3598  150.0527 H   0  0  0  0  0  0  0  0  0  0  0  0
  147.3282  140.3642  155.4848 H   0  0  0  0  0  0  0  0  0  0  0  0
  151.2379  140.4949  159.1248 H   0  0  0  0  0  0  0  0  0  0  0  0
  152.4666  140.0872  157.9471 H   0  0  0  0  0  0  0  0  0  0  0  0
  153.6398  142.2253  158.3294 H   0  0  0  0  0  0  0  0  0  0  0  0
  154.2333  140.3552  159.8577 H   0  0  0  0  0  0  0  0  0  0  0  0
  152.9735  140.8625  160.9821 H   0  0  0  0  0  0  0  0  0  0  0  0
  154.3580  141.9089  160.6772 H   0  0  0  0  0  0  0  0  0  0  0  0
  1  2  1  0  0  0  0
  1 25  1  0  0  0  0
  1 26  1  0  0  0  0
  1 27  1  0  0  0  0
  2 24  1  0  0  0  0
  2  3  1  0  0  0  0
  2 28  1  0  0  0  0
  3  4  1  0  0  0  0
  3 29  1  0  0  0  0
  3 30  1  0  0  0  0
  4  5  1  0  0  0  0
  4 21  1  0  0  0  0
  5 20  1  0  0  0  0
  5  6  2  0  0  0  0
  6  7  1  0  0  0  0
  6 31  1  0  0  0  0
  7  8  2  0  0  0  0
  7 32  1  0  0  0  0
  8  9  1  0  0  0  0
  8 19  1  0  0  0  0
  9 10  1  0  0  0  0
  9 33  1  0  0  0  0
 10 11  2  0  0  0  0
 10 12  1  0  0  0  0
 12 13  1  0  0  0  0
 12 34  1  0  0  0  0
 13 14  1  0  0  0  0
 13 35  1  0  0  0  0
 13 36  1  0  0  0  0
 14 18  1  0  0  0  0
 14 15  1  0  0  0  0
 14 16  1  0  0  0  0
 15 37  1  0  0  0  0
 16 17  1  0  0  0  0
 16 38  1  0  0  0  0
 16 39  1  0  0  0  0
 17 18  1  0  0  0  0
 17 40  1  0  0  0  0
 17 41  1  0  0  0  0
 18 42  1  0  0  0  0
 18 43  1  0  0  0  0
 19 20  2  0  0  0  0
 19 44  1  0  0  0  0
 21 22  1  0  0  0  0
 21 45  1  0  0  0  0
 21 46  1  0  0  0  0
 22 23  1  0  0  0  0
 22 24  1  0  0  0  0
 22 47  1  0  0  0  0
 23 48  1  0  0  0  0
 23 49  1  0  0  0  0
 23 50  1  0  0  0  0
M  END
> <s_m_source_file>
AV-unprocessed.smi

> <i_m_source_file_index>
987

> <i_lp_mmshare_version>
43012

> <i_f3d_flags>
0

> <s_epik_input>
W0NIM11bQ0BASF0xW0NIMl1OKFtDSDJdW0NASF0oTzEpW0NIM10pYzJbY0hdW2NIXWMoW2NIXW4yKVtOSF1DKD1PKVtOSF1bQ0gyXUMzKFtPSF0pW0NIMl1bQ0gyXVtDSDJdMw==

> <s_epik_cmdline>
J2VwaWtfcHl0aG9uJywgJy1waCcsICc3LjAnLCAnLXRuJywgJzgnLCAnLW1hJywgJzIwMCcsICctbWV0YWxfYmluZGluZycsICctaW1hZScsICc8aW5maWxlLm1hZT4nLCAnLW9tYWUnLCAnPG91dGZpbGUubWFlPic=

> <r_lp_tautomer_probability>
1

> <r_epik_Ionization_Penalty>
0.00275455

> <r_epik_Ionization_Penalty_Charging>
0

> <r_epik_Ionization_Penalty_Neutral>
0.00275455

> <r_epik_State_Penalty>
0.00189097

> <r_epik_Charging_Adjusted_Penalty>
0.00189097

> <i_epik_Tot_Q>
0

> <i_epik_Tot_abs_Q>
0

> <r_epik_Metal_State_Penalty>
-0

> <b_epik_Metal_Only>
0

> <s_lp_Force_Field>
OPLS_2005

> <r_lp_Energy>
31.4947

> <b_lp_Chiralities_Consistent>
1

> <s_lp_Variant>
AV-unprocessed.smi:987-3

> <Gold.Version>
5.8.1

> <Gold.Id.Protein>
6NUR|6NUR_protein|mol2

> <Gold.PLP.Fitness>
52.1741

> <Gold.PLP.PLP>
-43.7861

> <Gold.PLP.part.hbond>
-4.0000

> <Gold.PLP.part.metal>
0.0000

> <Gold.PLP.part.buried>
-7.3229

> <Gold.PLP.part.nonpolar>
-33.9157

> <Gold.PLP.part.repulsive>
0.2549

> <Gold.PLP.ligand.clash>
0.0000

> <Gold.PLP.ligand.torsion>
0.4138

> <Gold.PLP.Chemscore.Hbond>
2.9357

> <Gold.PLP.Chemscore.CHOScore>
0.0000

> <Gold.PLP.Chemscore.Metal>
0.0000

> <Gold.Chemscore.Hbonds>
donor molecule, donor type, donor heavy atom, donor atom, acceptor molecule, acceptor atom, score
      L1  H     9    33       P1  7948  0.94
      L1  H    12    34       P1  7948  1.00
      L1  H    15    37       P1 10171  1.00

> <Gold.PLP.Chemscore.Internal.Correction>
0.4083

> <Gold.Rescore>
     Score         DG    S(hbond)    S(metal)    S(lipo)     H(rot)  DE(clash)    DE(int)     intcor
     21.37     -23.07       2.91        0.00     109.65       1.93       0.12       1.58       ----

> <Gold.Chemscore.Fitness>
21.3691

> <Gold.Chemscore.DG>
-23.0703

> <Gold.Chemscore.ZeroCoef>
-5.4800

> <Gold.Chemscore.Hbond>
2.9078

> <Gold.Chemscore.Metal>
0.0000

> <Gold.Chemscore.Lipo>
109.6519

> <Gold.Chemscore.Internal_Hbond>
0.0000

> <Gold.Chemscore.DEClash>
0.1168

> <Gold.Chemscore.DEInternal>
1.5844

> <Gold.Chemscore.Rot>
1.9340

> <Gold.Chemscore.Internal.Correction>
   9.000000E+99

> <Gold.Chemscore.Hbonds>
donor molecule, donor type, donor heavy atom, donor atom, acceptor molecule, acceptor atom, score
      L1  H     9    33       P1  7948  0.85
      L1  H    12    34       P1  7948  0.99
      L1  H    15    37       P1 10171  1.00

> <Gold.Chemscore.Hbond.Weighted>
-9.7119

> <Gold.Chemscore.Metal.Weighted>
-0.0000

> <Gold.Chemscore.Lipo.Weighted>
-12.8293

> <Gold.Chemscore.Internal_Hbond.Weighted>
0.0000

> <Gold.Chemscore.DEClash.Weighted>
0.1168

> <Gold.Chemscore.DEInternal.Weighted>
1.5844

> <Gold.Chemscore.Rot.Weighted>
4.9509

> <Gold.Chemscore.Internal.Correction.Weighted>
   9.000000E+99

> <Gold.Protein.RotatedTorsions>
[ 6907 6896 6895 6894 ] final   62.22 input  -60.11 | X-H torsion
[ 7974 7965 7964 7962 ] final -121.16 input  175.53 | X-H torsion
[ 8008 7997 7996 7995 ] final   19.44 input   59.86 | X-H torsion
[ 10167 10162 10161 10158 ] final -116.71 input  -65.29 | X-H torsion
[ 10718 10713 10712 10709 ] final  -63.39 input   66.30 | X-H torsion
[ 10763 10752 10751 10750 ] final  -39.10 input  -60.55 | X-H torsion
[ 11005 11000 10999 10996 ] final  -84.11 input  -57.11 | X-H torsion

> <Gold.Protein.ActiveResidues>
 VAL166  LYS551  ARG553  GLY616  TRP617  ASP618  TYR619  PRO620  LYS621  CYS622 
 ASP623  PHE694  ASN695  SER759  ASP760  ASP761  ALA762  ILE779  LEU786  VAL792 
 PHE793  MET794  SER795  GLU796  ALA797  LYS798  CYS799  TRP800  GLU811  SER814 

> <Gold.Protein.RotatedAtoms>
  152.4154  134.6050  160.0010 H   0  0  0  0  0  0  0  0  0  0  0  0  # atno 6907 bound_to 6896
  151.6215  133.3333  159.3097 H   0  0  0  0  0  0  0  0  0  0  0  0  # atno 6908 bound_to 6896
  150.8043  134.7197  159.6696 H   0  0  0  0  0  0  0  0  0  0  0  0  # atno 6909 bound_to 6896
  145.0434  140.8162  143.4252 H   0  0  0  0  0  0  0  0  0  0  0  0  # atno 7974 bound_to 7965
  154.9207  140.3027  155.5218 H   0  0  0  0  0  0  0  0  0  0  0  0  # atno 8008 bound_to 7997
  156.3010  140.2372  156.4193 H   0  0  0  0  0  0  0  0  0  0  0  0  # atno 8009 bound_to 7997
  154.8333  140.0417  157.1481 H   0  0  0  0  0  0  0  0  0  0  0  0  # atno 8010 bound_to 7997
  140.0763  143.4830  152.1951 H   0  0  0  0  0  0  0  0  0  0  0  0  # atno 10167 bound_to 10162
  156.0794  130.4220  150.1270 H   0  0  0  0  0  0  0  0  0  0  0  0  # atno 10718 bound_to 10713
  153.9238  135.6779  153.4747 H   0  0  0  0  0  0  0  0  0  0  0  0  # atno 10763 bound_to 10752
  153.1015  135.4826  154.8872 H   0  0  0  0  0  0  0  0  0  0  0  0  # atno 10764 bound_to 10752
  154.7464  135.3173  154.8593 H   0  0  0  0  0  0  0  0  0  0  0  0  # atno 10765 bound_to 10752
  141.1653  133.7329  156.8819 H   0  0  0  0  0  0  0  0  0  0  0  0  # atno 11005 bound_to 11000
  145.1619  139.2454  143.5387 LP  0  0  0  0  0  0  0  0  0  0  0  0  # atno 17320 bound_to 7965
  146.3511  140.1348  142.8596 LP  0  0  0  0  0  0  0  0  0  0  0  0  # atno 17321 bound_to 7965
  139.5806  144.7508  151.3650 LP  0  0  0  0  0  0  0  0  0  0  0  0  # atno 17342 bound_to 10162
  140.7100  143.7414  150.7551 LP  0  0  0  0  0  0  0  0  0  0  0  0  # atno 17343 bound_to 10162
  156.9304  130.9712  151.3534 LP  0  0  0  0  0  0  0  0  0  0  0  0  # atno 17370 bound_to 10713
  157.5904  130.8440  149.8651 LP  0  0  0  0  0  0  0  0  0  0  0  0  # atno 17371 bound_to 10713
  140.1709  134.9100  157.2832 LP  0  0  0  0  0  0  0  0  0  0  0  0  # atno 17394 bound_to 11000
  140.2503  134.3691  155.7445 LP  0  0  0  0  0  0  0  0  0  0  0  0  # atno 17395 bound_to 11000

$$$$
