AV-unprocessed.smi:877|AV-procd|sdf|4029|dock1
  -GOLD-   22720 1523D 1   1.00000     0.00000
 Structure written by MMmdl.
 44 46  0  0  0  0  0  0  0  0  2 V2000
  143.8125  142.9306  155.9953 C   0  0  0  0  0  0  0  0  0  0  0  0
  144.5755  142.6044  154.8428 O   0  0  0  0  0  0  0  0  0  0  0  0
  145.8957  142.2492  155.0181 C   0  0  0  0  0  0  0  0  0  0  0  0
  146.6644  142.0467  153.8535 C   0  0  0  0  0  0  0  0  0  0  0  0
  148.0196  141.6751  153.9383 C   0  0  0  0  0  0  0  0  0  0  0  0
  148.6274  141.5020  155.1976 C   0  0  0  0  0  0  0  0  0  0  0  0
  150.0840  141.0869  155.2970 C   0  0  0  0  0  0  0  0  0  0  0  0
  150.7630  141.6368  156.5136 C   0  0  0  0  0  0  0  0  0  0  0  0
  150.6348  142.9062  156.9974 N   0  3  0  0  0  0  0  0  0  0  0  0
  151.4242  143.0624  158.1365 C   0  0  0  0  0  0  0  0  0  0  0  0
  151.6265  144.1646  158.9612 C   0  0  0  0  0  0  0  0  0  0  0  0
  152.5056  143.9871  160.0497 C   0  0  0  0  0  0  0  0  0  0  0  0
  153.1429  142.7515  160.2849 C   0  0  0  0  0  0  0  0  0  0  0  0
  152.9294  141.6411  159.4412 C   0  0  0  0  0  0  0  0  0  0  0  0
  152.0597  141.8257  158.3668 C   0  0  0  0  0  0  0  0  0  0  0  0
  151.6209  140.9760  157.3451 N   0  0  0  0  0  0  0  0  0  0  0  0
  152.1164  139.5905  157.3077 C   0  0  0  0  0  0  0  0  0  0  0  0
  150.9912  138.5474  157.4608 C   0  0  2  0  0  0  0  0  0  0  0  0
  150.4086  138.6812  158.7434 O   0  0  0  0  0  0  0  0  0  0  0  0
  151.5187  137.1113  157.3000 C   0  0  0  0  0  0  0  0  0  0  0  0
  152.0891  136.9380  156.0202 O   0  0  0  0  0  0  0  0  0  0  0  0
  147.8704  141.7082  156.3686 C   0  0  0  0  0  0  0  0  0  0  0  0
  146.5140  142.0777  156.2824 C   0  0  0  0  0  0  0  0  0  0  0  0
  142.7936  143.1739  155.6947 H   0  0  0  0  0  0  0  0  0  0  0  0
  144.2209  143.8004  156.5114 H   0  0  0  0  0  0  0  0  0  0  0  0
  143.7593  142.0903  156.6889 H   0  0  0  0  0  0  0  0  0  0  0  0
  146.2080  142.1752  152.8829 H   0  0  0  0  0  0  0  0  0  0  0  0
  148.5878  141.5211  153.0326 H   0  0  0  0  0  0  0  0  0  0  0  0
  150.1658  139.9997  155.3096 H   0  0  0  0  0  0  0  0  0  0  0  0
  150.6001  141.4280  154.3997 H   0  0  0  0  0  0  0  0  0  0  0  0
  151.1401  145.1123  158.7821 H   0  0  0  0  0  0  0  0  0  0  0  0
  152.6955  144.8153  160.7172 H   0  0  0  0  0  0  0  0  0  0  0  0
  153.8103  142.6530  161.1288 H   0  0  0  0  0  0  0  0  0  0  0  0
  153.4252  140.7001  159.6280 H   0  0  0  0  0  0  0  0  0  0  0  0
  152.6560  139.4449  156.3713 H   0  0  0  0  0  0  0  0  0  0  0  0
  152.8553  139.4762  158.1014 H   0  0  0  0  0  0  0  0  0  0  0  0
  150.2235  138.7418  156.7104 H   0  0  0  0  0  0  0  0  0  0  0  0
  149.5231  138.3531  158.7071 H   0  0  0  0  0  0  0  0  0  0  0  0
  152.3018  136.9140  158.0330 H   0  0  0  0  0  0  0  0  0  0  0  0
  150.7316  136.3745  157.4649 H   0  0  0  0  0  0  0  0  0  0  0  0
  151.4497  137.1846  155.3694 H   0  0  0  0  0  0  0  0  0  0  0  0
  148.3274  141.5769  157.3387 H   0  0  0  0  0  0  0  0  0  0  0  0
  145.9684  142.2226  157.2025 H   0  0  0  0  0  0  0  0  0  0  0  0
  150.0545  143.6153  156.5677 H   0  0  0  0  0  0  0  0  0  0  0  0
  1  2  1  0  0  0  0
  1 24  1  0  0  0  0
  1 25  1  0  0  0  0
  1 26  1  0  0  0  0
  2  3  1  0  0  0  0
  3 23  1  0  0  0  0
  3  4  2  0  0  0  0
  4  5  1  0  0  0  0
  4 27  1  0  0  0  0
  5  6  2  0  0  0  0
  5 28  1  0  0  0  0
  6  7  1  0  0  0  0
  6 22  1  0  0  0  0
  7  8  1  0  0  0  0
  7 29  1  0  0  0  0
  7 30  1  0  0  0  0
  8 16  1  0  0  0  0
  8  9  2  0  0  0  0
  9 10  1  0  0  0  0
  9 44  1  0  0  0  0
 10 15  2  0  0  0  0
 10 11  1  0  0  0  0
 11 12  2  0  0  0  0
 11 31  1  0  0  0  0
 12 13  1  0  0  0  0
 12 32  1  0  0  0  0
 13 14  2  0  0  0  0
 13 33  1  0  0  0  0
 14 15  1  0  0  0  0
 14 34  1  0  0  0  0
 15 16  1  0  0  0  0
 16 17  1  0  0  0  0
 17 18  1  0  0  0  0
 17 35  1  0  0  0  0
 17 36  1  0  0  0  0
 18 19  1  0  0  0  0
 18 20  1  0  0  0  0
 18 37  1  0  0  0  0
 19 38  1  0  0  0  0
 20 21  1  0  0  0  0
 20 39  1  0  0  0  0
 20 40  1  0  0  0  0
 21 41  1  0  0  0  0
 22 23  2  0  0  0  0
 22 42  1  0  0  0  0
 23 43  1  0  0  0  0
M  CHG  1   9   1
M  END
> <s_m_source_file>
AV-unprocessed.smi

> <i_m_source_file_index>
877

> <i_lp_mmshare_version>
43012

> <i_f3d_flags>
0

> <s_epik_input>
W0NIM11PYzFbY0hdW2NIXWMoW2NIXVtjSF0xKVtDSDJdYyhuMiluKFtDSDJdW0NASF0oW09IXSlbQ0gyXVtPSF0pYyhjMjMpW2NIXVtjSF1bY0hdW2NIXTM=

> <s_epik_cmdline>
J2VwaWtfcHl0aG9uJywgJy1waCcsICc3LjAnLCAnLXRuJywgJzgnLCAnLW1hJywgJzIwMCcsICctbWV0YWxfYmluZGluZycsICctaW1hZScsICc8aW5maWxlLm1hZT4nLCAnLW9tYWUnLCAnPG91dGZpbGUubWFlPic=

> <r_lp_tautomer_probability>
1

> <r_epik_Ionization_Penalty>
1.37112

> <r_epik_Ionization_Penalty_Charging>
1.37111

> <r_epik_Ionization_Penalty_Neutral>
4.48252e-07

> <r_epik_State_Penalty>
1.45083

> <r_epik_Charging_Adjusted_Penalty>
2.82194

> <i_epik_Tot_Q>
1

> <i_epik_Tot_abs_Q>
1

> <r_epik_Metal_State_Penalty>
5.49009

> <b_epik_Metal_Only>
0

> <s_lp_Force_Field>
OPLS_2005

> <r_lp_Energy>
22.2712

> <b_lp_Chiralities_Consistent>
1

> <s_lp_Variant>
AV-unprocessed.smi:877-3

> <Gold.Version>
5.8.1

> <Gold.Id.Protein>
6NUR|6NUR_protein|mol2

> <Gold.PLP.Fitness>
52.7901

> <Gold.PLP.PLP>
-45.0166

> <Gold.PLP.part.hbond>
-2.0000

> <Gold.PLP.part.metal>
0.0000

> <Gold.PLP.part.buried>
-5.0399

> <Gold.PLP.part.nonpolar>
-37.3735

> <Gold.PLP.part.repulsive>
0.2105

> <Gold.PLP.ligand.clash>
0.0000

> <Gold.PLP.ligand.torsion>
0.6552

> <Gold.PLP.Chemscore.Hbond>
2.9913

> <Gold.PLP.Chemscore.CHOScore>
0.0000

> <Gold.PLP.Chemscore.Metal>
0.0000

> <Gold.Chemscore.Hbonds>
donor molecule, donor type, donor heavy atom, donor atom, acceptor molecule, acceptor atom, score
      L1  H     9    44       P1  8028  2.00
      P1  H 10752 10764       L1    21  0.99

> <Gold.PLP.Chemscore.Internal.Correction>
0.1102

> <Gold.Rescore>
     Score         DG    S(hbond)    S(metal)    S(lipo)     H(rot)  DE(clash)    DE(int)     intcor
     16.75     -17.43       1.93        0.00     117.84       3.23       0.14       0.54       ----

> <Gold.Chemscore.Fitness>
16.7459

> <Gold.Chemscore.DG>
-17.4335

> <Gold.Chemscore.ZeroCoef>
-5.4800

> <Gold.Chemscore.Hbond>
1.9277

> <Gold.Chemscore.Metal>
0.0000

> <Gold.Chemscore.Lipo>
117.8428

> <Gold.Chemscore.Internal_Hbond>
0.0000

> <Gold.Chemscore.DEClash>
0.1431

> <Gold.Chemscore.DEInternal>
0.5445

> <Gold.Chemscore.Rot>
3.2315

> <Gold.Chemscore.Internal.Correction>
   9.000000E+99

> <Gold.Chemscore.Hbonds>
donor molecule, donor type, donor heavy atom, donor atom, acceptor molecule, acceptor atom, score
      L1  H     9    44       P1  8028  1.00
      P1  H 10752 10764       L1    21  0.23

> <Gold.Chemscore.Hbond.Weighted>
-6.4385

> <Gold.Chemscore.Metal.Weighted>
-0.0000

> <Gold.Chemscore.Lipo.Weighted>
-13.7876

> <Gold.Chemscore.Internal_Hbond.Weighted>
0.0000

> <Gold.Chemscore.DEClash.Weighted>
0.1431

> <Gold.Chemscore.DEInternal.Weighted>
0.5445

> <Gold.Chemscore.Rot.Weighted>
8.2727

> <Gold.Chemscore.Internal.Correction.Weighted>
   9.000000E+99

> <Gold.Protein.RotatedTorsions>
[ 6907 6896 6895 6894 ] final   56.55 input  -60.11 | X-H torsion
[ 7974 7965 7964 7962 ] final   29.04 input  175.53 | X-H torsion
[ 8008 7997 7996 7995 ] final  115.09 input   59.86 | X-H torsion
[ 10167 10162 10161 10158 ] final  -96.59 input  -65.29 | X-H torsion
[ 10718 10713 10712 10709 ] final  -39.99 input   66.30 | X-H torsion
[ 10763 10752 10751 10750 ] final  -34.97 input  -60.55 | X-H torsion
[ 11005 11000 10999 10996 ] final -157.53 input  -57.11 | X-H torsion

> <Gold.Protein.ActiveResidues>
 VAL166  LYS551  ARG553  GLY616  TRP617  ASP618  TYR619  PRO620  LYS621  CYS622 
 ASP623  PHE694  ASN695  SER759  ASP760  ASP761  ALA762  ILE779  LEU786  VAL792 
 PHE793  MET794  SER795  GLU796  ALA797  LYS798  CYS799  TRP800  GLU811  SER814 

> <Gold.Protein.RotatedAtoms>
  152.3647  134.6821  160.0195 H   0  0  0  0  0  0  0  0  0  0  0  0  # atno 6907 bound_to 6896
  151.7133  133.3307  159.3304 H   0  0  0  0  0  0  0  0  0  0  0  0  # atno 6908 bound_to 6896
  150.7630  134.6447  159.6300 H   0  0  0  0  0  0  0  0  0  0  0  0  # atno 6909 bound_to 6896
  146.1694  139.6974  142.8978 H   0  0  0  0  0  0  0  0  0  0  0  0  # atno 7974 bound_to 7965
  156.2360  140.2946  156.0315 H   0  0  0  0  0  0  0  0  0  0  0  0  # atno 8008 bound_to 7997
  155.2089  140.0412  157.2947 H   0  0  0  0  0  0  0  0  0  0  0  0  # atno 8009 bound_to 7997
  154.6080  140.2444  155.7712 H   0  0  0  0  0  0  0  0  0  0  0  0  # atno 8010 bound_to 7997
  140.2922  143.3214  152.0334 H   0  0  0  0  0  0  0  0  0  0  0  0  # atno 10167 bound_to 10162
  156.2863  130.4223  149.8285 H   0  0  0  0  0  0  0  0  0  0  0  0  # atno 10718 bound_to 10713
  153.8555  135.6845  153.4788 H   0  0  0  0  0  0  0  0  0  0  0  0  # atno 10763 bound_to 10752
  153.1372  135.4673  154.9438 H   0  0  0  0  0  0  0  0  0  0  0  0  # atno 10764 bound_to 10752
  154.7782  135.3260  154.7994 H   0  0  0  0  0  0  0  0  0  0  0  0  # atno 10765 bound_to 10752
  140.6636  134.4323  157.5234 H   0  0  0  0  0  0  0  0  0  0  0  0  # atno 11005 bound_to 11000
  145.4380  141.0420  143.2873 LP  0  0  0  0  0  0  0  0  0  0  0  0  # atno 17320 bound_to 7965
  144.8140  139.5909  143.7016 LP  0  0  0  0  0  0  0  0  0  0  0  0  # atno 17321 bound_to 7965
  139.4935  144.6517  151.6662 LP  0  0  0  0  0  0  0  0  0  0  0  0  # atno 17342 bound_to 10162
  140.5722  144.0089  150.6223 LP  0  0  0  0  0  0  0  0  0  0  0  0  # atno 17343 bound_to 10162
  156.5714  130.8426  151.3357 LP  0  0  0  0  0  0  0  0  0  0  0  0  # atno 17370 bound_to 10713
  157.7329  130.9723  150.1953 LP  0  0  0  0  0  0  0  0  0  0  0  0  # atno 17371 bound_to 10713
  139.9005  134.8568  156.1918 LP  0  0  0  0  0  0  0  0  0  0  0  0  # atno 17394 bound_to 11000
  141.0446  133.6920  156.1661 LP  0  0  0  0  0  0  0  0  0  0  0  0  # atno 17395 bound_to 11000

$$$$
