AV-unprocessed.smi:370|AV-procd|sdf|2440|dock5
  -GOLD-   2262022383D 1   1.00000     0.00000
 Structure written by MMmdl.
 42 43  0  0  0  0  0  0  0  0  3 V2000
  151.4589  144.8988  160.0908 C   0  0  0  0  0  0  0  0  0  0  0  0
  151.2153  143.6597  159.3003 C   0  0  0  0  0  0  0  0  0  0  0  0
  151.1351  143.4129  157.9588 C   0  0  0  0  0  0  0  0  0  0  0  0
  150.8817  142.0164  157.9036 C   0  0  0  0  0  0  0  0  0  0  0  0
  150.7313  141.3584  156.6544 N   0  0  0  0  0  0  0  0  0  0  0  0
  151.4500  140.3416  156.1446 C   0  0  0  0  0  0  0  0  0  0  0  0
  152.3769  139.8435  156.7940 O   0  0  0  0  0  0  0  0  0  0  0  0
  151.0194  139.9815  154.9052 N   0  5  0  0  0  0  0  0  0  0  0  0
  149.6553  139.5416  154.5944 C   0  0  0  0  0  0  0  0  0  0  0  0
  149.4264  138.0576  155.0518 C   0  0  0  0  0  0  0  0  0  0  0  0
  150.7317  137.2491  154.7694 C   0  0  0  0  0  0  0  0  0  0  0  0
  149.2157  137.9945  156.5906 C   0  0  0  0  0  0  0  0  0  0  0  0
  148.2271  137.4908  154.3172 N   0  3  0  0  0  0  0  0  0  0  0  0
  147.6253  136.2434  154.8686 C   0  0  0  0  0  0  0  0  0  0  0  0
  146.5631  135.6805  153.9074 C   0  0  0  0  0  0  0  0  0  0  0  0
  145.5680  136.6585  153.6418 O   0  0  0  0  0  0  0  0  0  0  0  0
  146.1217  137.8123  153.0259 C   0  0  0  0  0  0  0  0  0  0  0  0
  147.1339  138.4554  153.9845 C   0  0  0  0  0  0  0  0  0  0  0  0
  150.8145  141.4614  159.1045 N   0  0  0  0  0  0  0  0  0  0  0  0
  151.0284  142.5112  160.0054 O   0  0  0  0  0  0  0  0  0  0  0  0
  151.5143  145.7716  159.4399 H   0  0  0  0  0  0  0  0  0  0  0  0
  152.3970  144.8274  160.6410 H   0  0  0  0  0  0  0  0  0  0  0  0
  150.6556  145.0630  160.8090 H   0  0  0  0  0  0  0  0  0  0  0  0
  151.2404  144.1194  157.1488 H   0  0  0  0  0  0  0  0  0  0  0  0
  149.9861  141.7041  156.0687 H   0  0  0  0  0  0  0  0  0  0  0  0
  148.9064  140.1808  155.0638 H   0  0  0  0  0  0  0  0  0  0  0  0
  149.4615  139.6129  153.5237 H   0  0  0  0  0  0  0  0  0  0  0  0
  151.6088  137.6863  155.2527 H   0  0  0  0  0  0  0  0  0  0  0  0
  150.9621  137.1681  153.7049 H   0  0  0  0  0  0  0  0  0  0  0  0
  150.6657  136.2340  155.1621 H   0  0  0  0  0  0  0  0  0  0  0  0
  150.1042  138.3150  157.1385 H   0  0  0  0  0  0  0  0  0  0  0  0
  149.0072  136.9730  156.9107 H   0  0  0  0  0  0  0  0  0  0  0  0
  148.3898  138.6142  156.9454 H   0  0  0  0  0  0  0  0  0  0  0  0
  148.3703  135.4607  155.0009 H   0  0  0  0  0  0  0  0  0  0  0  0
  147.1854  136.4472  155.8457 H   0  0  0  0  0  0  0  0  0  0  0  0
  147.0231  135.3530  152.9734 H   0  0  0  0  0  0  0  0  0  0  0  0
  146.0863  134.8052  154.3487 H   0  0  0  0  0  0  0  0  0  0  0  0
  146.5905  137.5522  152.0752 H   0  0  0  0  0  0  0  0  0  0  0  0
  145.3164  138.5129  152.8042 H   0  0  0  0  0  0  0  0  0  0  0  0
  146.6162  138.7640  154.8936 H   0  0  0  0  0  0  0  0  0  0  0  0
  147.5255  139.3595  153.5191 H   0  0  0  0  0  0  0  0  0  0  0  0
  148.6215  137.2119  153.4285 H   0  0  0  0  0  0  0  0  0  0  0  0
  1  2  1  0  0  0  0
  1 21  1  0  0  0  0
  1 22  1  0  0  0  0
  1 23  1  0  0  0  0
  2 20  1  0  0  0  0
  2  3  2  0  0  0  0
  3  4  1  0  0  0  0
  3 24  1  0  0  0  0
  4  5  1  0  0  0  0
  4 19  2  0  0  0  0
  5  6  1  0  0  0  0
  5 25  1  0  0  0  0
  6  7  2  0  0  0  0
  6  8  1  0  0  0  0
  8  9  1  0  0  0  0
  9 10  1  0  0  0  0
  9 26  1  0  0  0  0
  9 27  1  0  0  0  0
 10 11  1  0  0  0  0
 10 12  1  0  0  0  0
 10 13  1  0  0  0  0
 11 28  1  0  0  0  0
 11 29  1  0  0  0  0
 11 30  1  0  0  0  0
 12 31  1  0  0  0  0
 12 32  1  0  0  0  0
 12 33  1  0  0  0  0
 13 18  1  0  0  0  0
 13 14  1  0  0  0  0
 13 42  1  0  0  0  0
 14 15  1  0  0  0  0
 14 34  1  0  0  0  0
 14 35  1  0  0  0  0
 15 16  1  0  0  0  0
 15 36  1  0  0  0  0
 15 37  1  0  0  0  0
 16 17  1  0  0  0  0
 17 18  1  0  0  0  0
 17 38  1  0  0  0  0
 17 39  1  0  0  0  0
 18 40  1  0  0  0  0
 18 41  1  0  0  0  0
 19 20  1  0  0  0  0
M  CHG  1   8  -1
M  CHG  1  13   1
M  END
> <s_m_source_file>
AV-unprocessed.smi

> <i_m_source_file_index>
370

> <i_lp_mmshare_version>
43012

> <i_f3d_flags>
0

> <s_epik_input>
W0NIM11jMVtjSF1jKG5vMSlbTkhdQyg9TylbTkhdW0NIMl1DKFtDSDNdKShbQ0gzXSlOMltDSDJdW0NIMl1PW0NIMl1bQ0gyXTI=

> <s_epik_cmdline>
J2VwaWtfcHl0aG9uJywgJy1waCcsICc3LjAnLCAnLXRuJywgJzgnLCAnLW1hJywgJzIwMCcsICctbWV0YWxfYmluZGluZycsICctaW1hZScsICc8aW5maWxlLm1hZT4nLCAnLW9tYWUnLCAnPG91dGZpbGUubWFlPic=

> <r_epik_Ionization_Penalty>
6.79272

> <r_epik_Ionization_Penalty_Charging>
6.79272

> <r_epik_Ionization_Penalty_Neutral>
5.6208e-06

> <r_epik_State_Penalty>
7.45901

> <r_epik_Charging_Adjusted_Penalty>
14.2517

> <i_epik_Tot_Q>
0

> <i_epik_Tot_abs_Q>
2

> <r_epik_Metal_State_Penalty>
3.38639

> <b_epik_Metal_Only>
1

> <s_lp_Force_Field>
OPLS_2005

> <r_lp_Energy>
23.8333

> <b_lp_Chiralities_Consistent>
1

> <s_lp_Variant>
AV-unprocessed.smi:370-5

> <Gold.Version>
5.8.1

> <Gold.Id.Protein>
6NUR|6NUR_protein|mol2

> <Gold.PLP.Fitness>
40.2811

> <Gold.PLP.PLP>
-32.5198

> <Gold.PLP.part.hbond>
-3.1270

> <Gold.PLP.part.metal>
0.0000

> <Gold.PLP.part.buried>
-4.0115

> <Gold.PLP.part.nonpolar>
-25.9073

> <Gold.PLP.part.repulsive>
0.3868

> <Gold.PLP.ligand.clash>
0.0000

> <Gold.PLP.ligand.torsion>
2.1743

> <Gold.PLP.Chemscore.Hbond>
4.0000

> <Gold.PLP.Chemscore.CHOScore>
0.0000

> <Gold.PLP.Chemscore.Metal>
0.0000

> <Gold.Chemscore.Hbonds>
donor molecule, donor type, donor heavy atom, donor atom, acceptor molecule, acceptor atom, score
      L1  H    13    42       P1  7948  2.00
      P1  H  7989  7998       L1     8  1.00
      P1  H  7997  8009       L1     7  1.00

> <Gold.PLP.Chemscore.Internal.Correction>
0.1099

> <Gold.Rescore>
     Score         DG    S(hbond)    S(metal)    S(lipo)     H(rot)  DE(clash)    DE(int)     intcor
     15.99     -18.06       2.74        0.00      63.57       1.57       0.00       2.07       ----

> <Gold.Chemscore.Fitness>
15.9917

> <Gold.Chemscore.DG>
-18.0629

> <Gold.Chemscore.ZeroCoef>
-5.4800

> <Gold.Chemscore.Hbond>
2.7439

> <Gold.Chemscore.Metal>
0.0000

> <Gold.Chemscore.Lipo>
63.5686

> <Gold.Chemscore.Internal_Hbond>
0.0000

> <Gold.Chemscore.DEClash>
0.0000

> <Gold.Chemscore.DEInternal>
2.0711

> <Gold.Chemscore.Rot>
1.5701

> <Gold.Chemscore.Internal.Correction>
   9.000000E+99

> <Gold.Chemscore.Hbonds>
donor molecule, donor type, donor heavy atom, donor atom, acceptor molecule, acceptor atom, score
      L1  H    13    42       P1  7948  1.00
      P1  H  7989  7998       L1     8  0.63
      P1  H  7997  8009       L1     7  0.96

> <Gold.Chemscore.Hbond.Weighted>
-9.1647

> <Gold.Chemscore.Metal.Weighted>
-0.0000

> <Gold.Chemscore.Lipo.Weighted>
-7.4375

> <Gold.Chemscore.Internal_Hbond.Weighted>
0.0000

> <Gold.Chemscore.DEClash.Weighted>
0.0000

> <Gold.Chemscore.DEInternal.Weighted>
2.0711

> <Gold.Chemscore.Rot.Weighted>
4.0194

> <Gold.Chemscore.Internal.Correction.Weighted>
   9.000000E+99

> <Gold.Protein.RotatedTorsions>
[ 6907 6896 6895 6894 ] final  136.53 input  -60.11 | X-H torsion
[ 7974 7965 7964 7962 ] final -163.93 input  175.53 | X-H torsion
[ 8008 7997 7996 7995 ] final -170.13 input   59.86 | X-H torsion
[ 10167 10162 10161 10158 ] final  131.53 input  -65.29 | X-H torsion
[ 10718 10713 10712 10709 ] final -166.84 input   66.30 | X-H torsion
[ 10763 10752 10751 10750 ] final   49.80 input  -60.55 | X-H torsion
[ 11005 11000 10999 10996 ] final  176.69 input  -57.11 | X-H torsion

> <Gold.Protein.ActiveResidues>
 VAL166  LYS551  ARG553  GLY616  TRP617  ASP618  TYR619  PRO620  LYS621  CYS622 
 ASP623  PHE694  ASN695  SER759  ASP760  ASP761  ALA762  ILE779  LEU786  VAL792 
 PHE793  MET794  SER795  GLU796  ALA797  LYS798  CYS799  TRP800  GLU811  SER814 

> <Gold.Protein.RotatedAtoms>
  152.2883  133.5536  159.5540 H   0  0  0  0  0  0  0  0  0  0  0  0  # atno 6907 bound_to 6896
  150.7224  134.0466  159.3793 H   0  0  0  0  0  0  0  0  0  0  0  0  # atno 6908 bound_to 6896
  151.8373  135.0602  160.0495 H   0  0  0  0  0  0  0  0  0  0  0  0  # atno 6909 bound_to 6896
  144.7311  140.3035  143.6200 H   0  0  0  0  0  0  0  0  0  0  0  0  # atno 7974 bound_to 7965
  155.9143  140.1063  157.1256 H   0  0  0  0  0  0  0  0  0  0  0  0  # atno 8008 bound_to 7997
  154.4044  140.1268  156.4662 H   0  0  0  0  0  0  0  0  0  0  0  0  # atno 8009 bound_to 7997
  155.7273  140.3469  155.5045 H   0  0  0  0  0  0  0  0  0  0  0  0  # atno 8010 bound_to 7997
  139.5379  144.6702  151.4721 H   0  0  0  0  0  0  0  0  0  0  0  0  # atno 10167 bound_to 10162
  156.6738  130.9094  151.3047 H   0  0  0  0  0  0  0  0  0  0  0  0  # atno 10718 bound_to 10713
  152.9786  135.5900  154.4148 H   0  0  0  0  0  0  0  0  0  0  0  0  # atno 10763 bound_to 10752
  154.3779  135.2767  155.2230 H   0  0  0  0  0  0  0  0  0  0  0  0  # atno 10764 bound_to 10752
  154.4157  135.6071  153.6034 H   0  0  0  0  0  0  0  0  0  0  0  0  # atno 10765 bound_to 10752
  140.3758  134.6989  157.4421 H   0  0  0  0  0  0  0  0  0  0  0  0  # atno 11005 bound_to 11000
  145.7737  139.1866  143.2198 LP  0  0  0  0  0  0  0  0  0  0  0  0  # atno 17320 bound_to 7965
  146.0890  140.7677  142.9604 LP  0  0  0  0  0  0  0  0  0  0  0  0  # atno 17321 bound_to 7965
  140.6596  143.8527  150.6873 LP  0  0  0  0  0  0  0  0  0  0  0  0  # atno 17342 bound_to 10162
  140.1917  143.4031  152.1858 LP  0  0  0  0  0  0  0  0  0  0  0  0  # atno 17343 bound_to 10162
  157.7068  130.9394  150.0957 LP  0  0  0  0  0  0  0  0  0  0  0  0  # atno 17370 bound_to 10713
  156.1919  130.3655  149.8899 LP  0  0  0  0  0  0  0  0  0  0  0  0  # atno 17371 bound_to 10713
  140.0516  134.6122  155.8855 LP  0  0  0  0  0  0  0  0  0  0  0  0  # atno 17394 bound_to 11000
  141.1939  133.6581  156.5572 LP  0  0  0  0  0  0  0  0  0  0  0  0  # atno 17395 bound_to 11000

$$$$
