AV-unprocessed.smi:1978|AV-procd|sdf|8001|dock7
  -GOLD-   2272010183D 1   1.00000     0.00000
 Structure written by MMmdl.
 44 45  0  0  0  0  0  0  0  0  3 V2000
  153.6121  141.5306  160.8604 C   0  0  0  0  0  0  0  0  0  0  0  0
  152.7480  141.5165  159.6458 C   0  0  0  0  0  0  0  0  0  0  0  0
  152.0049  142.4805  159.0256 C   0  0  0  0  0  0  0  0  0  0  0  0
  151.4264  141.7878  157.9270 C   0  0  0  0  0  0  0  0  0  0  0  0
  150.6127  142.3177  157.0008 N   0  5  0  0  0  0  0  0  0  0  0  0
  150.2358  141.5870  155.9275 C   0  0  0  0  0  0  0  0  0  0  0  0
  150.7798  140.5615  155.5110 O   0  0  0  0  0  0  0  0  0  0  0  0
  149.1538  142.0703  155.3004 N   0  0  0  0  0  0  0  0  0  0  0  0
  148.5078  141.4743  154.1343 C   0  0  0  0  0  0  0  0  0  0  0  0
  146.9657  141.3348  154.2935 C   0  0  1  0  0  0  0  0  0  0  0  0
  146.2897  142.6748  153.9023 C   0  0  0  0  0  0  0  0  0  0  0  0
  146.4312  140.1647  153.5129 N   0  3  1  0  0  0  0  0  0  0  0  0
  147.1154  139.9467  152.2011 C   0  0  0  0  0  0  0  0  0  0  0  0
  146.3794  138.9065  151.3406 C   0  0  0  0  0  0  0  0  0  0  0  0
  146.2248  137.5758  152.0796 C   0  0  0  0  0  0  0  0  0  0  0  0
  145.5505  137.8175  153.4345 C   0  0  0  0  0  0  0  0  0  0  0  0
  146.2925  138.8780  154.2753 C   0  0  1  0  0  0  0  0  0  0  0  0
  147.6334  138.3412  154.8276 C   0  0  0  0  0  0  0  0  0  0  0  0
  151.7993  140.5202  157.8752 N   0  0  0  0  0  0  0  0  0  0  0  0
  152.6426  140.3364  158.9776 O   0  0  0  0  0  0  0  0  0  0  0  0
  154.5271  142.0934  160.6756 H   0  0  0  0  0  0  0  0  0  0  0  0
  153.8910  140.5190  161.1565 H   0  0  0  0  0  0  0  0  0  0  0  0
  153.0917  141.9954  161.6976 H   0  0  0  0  0  0  0  0  0  0  0  0
  151.8903  143.5147  159.3130 H   0  0  0  0  0  0  0  0  0  0  0  0
  148.7439  142.9158  155.6702 H   0  0  0  0  0  0  0  0  0  0  0  0
  148.7357  142.0981  153.2696 H   0  0  0  0  0  0  0  0  0  0  0  0
  149.0040  140.5216  153.9624 H   0  0  0  0  0  0  0  0  0  0  0  0
  146.7452  141.1492  155.3453 H   0  0  0  0  0  0  0  0  0  0  0  0
  146.7159  143.5206  154.4410 H   0  0  0  0  0  0  0  0  0  0  0  0
  145.2275  142.6971  154.1404 H   0  0  0  0  0  0  0  0  0  0  0  0
  146.4027  142.8784  152.8370 H   0  0  0  0  0  0  0  0  0  0  0  0
  147.1550  140.8566  151.6095 H   0  0  0  0  0  0  0  0  0  0  0  0
  148.1510  139.6471  152.3631 H   0  0  0  0  0  0  0  0  0  0  0  0
  145.3948  139.2904  151.0697 H   0  0  0  0  0  0  0  0  0  0  0  0
  146.9168  138.7505  150.4048 H   0  0  0  0  0  0  0  0  0  0  0  0
  145.6323  136.8815  151.4830 H   0  0  0  0  0  0  0  0  0  0  0  0
  147.2005  137.1094  152.2183 H   0  0  0  0  0  0  0  0  0  0  0  0
  144.5246  138.1481  153.2666 H   0  0  0  0  0  0  0  0  0  0  0  0
  145.4774  136.8795  153.9864 H   0  0  0  0  0  0  0  0  0  0  0  0
  145.6359  139.0507  155.1264 H   0  0  0  0  0  0  0  0  0  0  0  0
  147.4727  137.4293  155.4031 H   0  0  0  0  0  0  0  0  0  0  0  0
  148.1189  139.0531  155.4941 H   0  0  0  0  0  0  0  0  0  0  0  0
  148.3433  138.1000  154.0374 H   0  0  0  0  0  0  0  0  0  0  0  0
  145.4846  140.4270  153.2785 H   0  0  0  0  0  0  0  0  0  0  0  0
  1  2  1  0  0  0  0
  1 21  1  0  0  0  0
  1 22  1  0  0  0  0
  1 23  1  0  0  0  0
  2 20  1  0  0  0  0
  2  3  2  0  0  0  0
  3  4  1  0  0  0  0
  3 24  1  0  0  0  0
  4  5  1  0  0  0  0
  4 19  2  0  0  0  0
  5  6  1  0  0  0  0
  6  7  2  0  0  0  0
  6  8  1  0  0  0  0
  8  9  1  0  0  0  0
  8 25  1  0  0  0  0
  9 10  1  0  0  0  0
  9 26  1  0  0  0  0
  9 27  1  0  0  0  0
 10 11  1  0  0  0  0
 10 12  1  0  0  0  0
 10 28  1  0  0  0  0
 11 29  1  0  0  0  0
 11 30  1  0  0  0  0
 11 31  1  0  0  0  0
 12 17  1  0  0  0  0
 12 13  1  0  0  0  0
 12 44  1  0  0  0  0
 13 14  1  0  0  0  0
 13 32  1  0  0  0  0
 13 33  1  0  0  0  0
 14 15  1  0  0  0  0
 14 34  1  0  0  0  0
 14 35  1  0  0  0  0
 15 16  1  0  0  0  0
 15 36  1  0  0  0  0
 15 37  1  0  0  0  0
 16 17  1  0  0  0  0
 16 38  1  0  0  0  0
 16 39  1  0  0  0  0
 17 18  1  0  0  0  0
 17 40  1  0  0  0  0
 18 41  1  0  0  0  0
 18 42  1  0  0  0  0
 18 43  1  0  0  0  0
 19 20  1  0  0  0  0
M  CHG  1   5  -1
M  CHG  1  12   1
M  END
> <s_m_source_file>
AV-unprocessed.smi

> <i_m_source_file_index>
1978

> <i_lp_mmshare_version>
43012

> <i_f3d_flags>
0

> <s_epik_input>
W0NIM11jMVtjSF1jKG5vMSlbTkhdQyg9TylbTkhdW0NIMl1bQ0BIXShbQ0gzXSlOMltDSDJdW0NIMl1bQ0gyXVtDSDJdW0NASF0yW0NIM10=

> <s_epik_cmdline>
J2VwaWtfcHl0aG9uJywgJy1waCcsICc3LjAnLCAnLXRuJywgJzgnLCAnLW1hJywgJzIwMCcsICctbWV0YWxfYmluZGluZycsICctaW1hZScsICc8aW5maWxlLm1hZT4nLCAnLW9tYWUnLCAnPG91dGZpbGUubWFlPic=

> <r_epik_Ionization_Penalty>
6.22372

> <r_epik_Ionization_Penalty_Charging>
6.22362

> <r_epik_Ionization_Penalty_Neutral>
9.65074e-05

> <r_epik_State_Penalty>
6.22363

> <r_epik_Charging_Adjusted_Penalty>
12.4472

> <i_epik_Tot_Q>
0

> <i_epik_Tot_abs_Q>
2

> <r_epik_Metal_State_Penalty>
2.16675

> <b_epik_Metal_Only>
1

> <s_lp_Force_Field>
OPLS_2005

> <r_lp_Energy>
13.574

> <b_lp_Chiralities_Consistent>
1

> <s_lp_Variant>
AV-unprocessed.smi:1978-10

> <Gold.Version>
5.8.1

> <Gold.Id.Protein>
6NUR|6NUR_protein|mol2

> <Gold.PLP.Fitness>
44.4301

> <Gold.PLP.PLP>
-35.0184

> <Gold.PLP.part.hbond>
-3.0000

> <Gold.PLP.part.metal>
0.0000

> <Gold.PLP.part.buried>
1.7629

> <Gold.PLP.part.nonpolar>
-34.5140

> <Gold.PLP.part.repulsive>
0.3678

> <Gold.PLP.ligand.clash>
0.0000

> <Gold.PLP.ligand.torsion>
1.2066

> <Gold.PLP.Chemscore.Hbond>
3.9040

> <Gold.PLP.Chemscore.CHOScore>
0.0000

> <Gold.PLP.Chemscore.Metal>
0.0000

> <Gold.Chemscore.Hbonds>
donor molecule, donor type, donor heavy atom, donor atom, acceptor molecule, acceptor atom, score
      L1  H     8    25       P1  8028  0.86
      L1  H    12    44       P1 10175  2.00
      P1  H  7989  7998       L1     7  0.53

> <Gold.PLP.Chemscore.Internal.Correction>
0.1128

> <Gold.Rescore>
     Score         DG    S(hbond)    S(metal)    S(lipo)     H(rot)  DE(clash)    DE(int)     intcor
     15.65     -19.33       2.46        0.00      81.49       1.52       0.72       2.96       ----

> <Gold.Chemscore.Fitness>
15.6547

> <Gold.Chemscore.DG>
-19.3307

> <Gold.Chemscore.ZeroCoef>
-5.4800

> <Gold.Chemscore.Hbond>
2.4565

> <Gold.Chemscore.Metal>
0.0000

> <Gold.Chemscore.Lipo>
81.4935

> <Gold.Chemscore.Internal_Hbond>
0.0000

> <Gold.Chemscore.DEClash>
0.7166

> <Gold.Chemscore.DEInternal>
2.9595

> <Gold.Chemscore.Rot>
1.5190

> <Gold.Chemscore.Internal.Correction>
   9.000000E+99

> <Gold.Chemscore.Hbonds>
donor molecule, donor type, donor heavy atom, donor atom, acceptor molecule, acceptor atom, score
      L1  H     8    25       P1  8028  0.87
      L1  H    12    44       P1 10175  0.95
      P1  H  7989  7998       L1     7  0.40

> <Gold.Chemscore.Hbond.Weighted>
-8.2046

> <Gold.Chemscore.Metal.Weighted>
-0.0000

> <Gold.Chemscore.Lipo.Weighted>
-9.5347

> <Gold.Chemscore.Internal_Hbond.Weighted>
0.0000

> <Gold.Chemscore.DEClash.Weighted>
0.7166

> <Gold.Chemscore.DEInternal.Weighted>
2.9595

> <Gold.Chemscore.Rot.Weighted>
3.8886

> <Gold.Chemscore.Internal.Correction.Weighted>
   9.000000E+99

> <Gold.Protein.RotatedTorsions>
[ 6907 6896 6895 6894 ] final -165.68 input  -60.11 | X-H torsion
[ 7974 7965 7964 7962 ] final   46.47 input  175.53 | X-H torsion
[ 8008 7997 7996 7995 ] final   74.55 input   59.86 | X-H torsion
[ 10167 10162 10161 10158 ] final   86.16 input  -65.29 | X-H torsion
[ 10718 10713 10712 10709 ] final   42.73 input   66.30 | X-H torsion
[ 10763 10752 10751 10750 ] final   44.11 input  -60.55 | X-H torsion
[ 11005 11000 10999 10996 ] final  142.39 input  -57.11 | X-H torsion

> <Gold.Protein.ActiveResidues>
 VAL166  LYS551  ARG553  GLY616  TRP617  ASP618  TYR619  PRO620  LYS621  CYS622 
 ASP623  PHE694  ASN695  SER759  ASP760  ASP761  ALA762  ILE779  LEU786  VAL792 
 PHE793  MET794  SER795  GLU796  ALA797  LYS798  CYS799  TRP800  GLU811  SER814 

> <Gold.Protein.RotatedAtoms>
  151.4315  133.3669  159.2769 H   0  0  0  0  0  0  0  0  0  0  0  0  # atno 6907 bound_to 6896
  150.9221  134.8640  159.7507 H   0  0  0  0  0  0  0  0  0  0  0  0  # atno 6908 bound_to 6896
  152.4987  134.4254  159.9546 H   0  0  0  0  0  0  0  0  0  0  0  0  # atno 6909 bound_to 6896
  146.0386  139.4852  142.9792 H   0  0  0  0  0  0  0  0  0  0  0  0  # atno 7974 bound_to 7965
  155.7999  140.3476  155.5397 H   0  0  0  0  0  0  0  0  0  0  0  0  # atno 8008 bound_to 7997
  155.8548  140.0962  157.1672 H   0  0  0  0  0  0  0  0  0  0  0  0  # atno 8009 bound_to 7997
  154.4009  140.1369  156.3876 H   0  0  0  0  0  0  0  0  0  0  0  0  # atno 8010 bound_to 7997
  139.8903  144.6389  150.8746 H   0  0  0  0  0  0  0  0  0  0  0  0  # atno 10167 bound_to 10162
  157.4081  130.7898  149.7406 H   0  0  0  0  0  0  0  0  0  0  0  0  # atno 10718 bound_to 10713
  152.9847  135.6080  154.3221 H   0  0  0  0  0  0  0  0  0  0  0  0  # atno 10763 bound_to 10752
  154.2930  135.2774  155.2648 H   0  0  0  0  0  0  0  0  0  0  0  0  # atno 10764 bound_to 10752
  154.4935  135.5886  153.6533 H   0  0  0  0  0  0  0  0  0  0  0  0  # atno 10765 bound_to 10752
  140.0473  134.9274  157.0953 H   0  0  0  0  0  0  0  0  0  0  0  0  # atno 11005 bound_to 11000
  145.6922  141.0161  143.1549 LP  0  0  0  0  0  0  0  0  0  0  0  0  # atno 17320 bound_to 7965
  144.7064  139.8545  143.7428 LP  0  0  0  0  0  0  0  0  0  0  0  0  # atno 17321 bound_to 7965
  140.7728  143.3515  151.2005 LP  0  0  0  0  0  0  0  0  0  0  0  0  # atno 17342 bound_to 10162
  139.7115  143.9368  152.2949 LP  0  0  0  0  0  0  0  0  0  0  0  0  # atno 17343 bound_to 10162
  155.9842  130.3993  150.3322 LP  0  0  0  0  0  0  0  0  0  0  0  0  # atno 17370 bound_to 10713
  157.1457  131.0308  151.2908 LP  0  0  0  0  0  0  0  0  0  0  0  0  # atno 17371 bound_to 10713
  140.3973  134.2120  155.7164 LP  0  0  0  0  0  0  0  0  0  0  0  0  # atno 17394 bound_to 11000
  141.1913  133.8197  157.0884 LP  0  0  0  0  0  0  0  0  0  0  0  0  # atno 17395 bound_to 11000

$$$$
