#       Name:                AV-unprocessed.smi:556
#       Creating user name   scv26
#       Creation time:       Thu Mar 26 23:40:27 2020


#       File generated by GOLD software.
#

@<TRIPOS>MOLECULE
AV-unprocessed.smi:556
    43    44     1
SMALL
NO_CHARGES


@<TRIPOS>ATOM
      1 ****        -3.1796   0.3039  -1.8050 C.3            1 S1                 0.0000
      2 ****        -3.0185  -0.1751  -0.3523 C.3            1 S1                 0.0000
      3 ****        -4.3219  -0.7353   0.2561 C.3            1 S1                 0.0000
      4 ****        -5.2324   0.3060   0.5753 O.3            1 S1                 0.0000
      5 ****        -4.6879   1.2028   1.5306 C.3            1 S1                 0.0000
      6 ****        -3.4549   1.8893   0.9278 C.3            1 S1                 0.0000
      7 ****        -2.4550   0.8955   0.5022 N.am           1 S1                 0.0000
      8 ****        -1.1530   1.0059   0.8763 C.2            1 S1                 0.0000
      9 ****        -0.7481   1.8414   1.6862 O.2            1 S1                 0.0000
     10 ****        -0.3134   0.1611   0.2552 N.am           1 S1                 0.0000
     11 ****         1.1254   0.1104   0.4728 C.3            1 S1                 0.0000
     12 ****         1.7746  -0.9205  -0.4596 C.3            1 S1                 0.0000
     13 ****         3.2600  -1.0010  -0.2445 C.2            1 S1                 0.0000
     14 ****         3.9575  -1.7134   0.7725 C.2            1 S1                 0.0000
     15 ****         5.2710  -1.5800   0.6866 N.2            1 S1                 0.0000
     16 ****         5.4577  -0.7818  -0.3845 N.pl3          1 S1                 0.0000
     17 ****         6.8025  -0.4215  -0.7789 C.3            1 S1                 0.0000
     18 ****         4.2625  -0.4159  -0.9656 C.2            1 S1                 0.0000
     19 ****        -3.5285  -0.5062  -2.4459 H              1 S1                 0.0000
     20 ****        -2.2314   0.6579  -2.2104 H              1 S1                 0.0000
     21 ****        -3.9013   1.1173  -1.8839 H              1 S1                 0.0000
     22 ****        -2.3493  -1.0352  -0.3886 H              1 S1                 0.0000
     23 ****        -4.8009  -1.4249  -0.4393 H              1 S1                 0.0000
     24 ****        -4.1020  -1.3100   1.1574 H              1 S1                 0.0000
     25 ****        -5.4432   1.9461   1.7862 H              1 S1                 0.0000
     26 ****        -4.4343   0.6755   2.4519 H              1 S1                 0.0000
     27 ****        -3.7491   2.4842   0.0627 H              1 S1                 0.0000
     28 ****        -3.0654   2.6012   1.6565 H              1 S1                 0.0000
     29 ****        -0.7002  -0.4886  -0.4137 H              1 S1                 0.0000
     30 ****         1.5556   1.0977   0.2968 H              1 S1                 0.0000
     31 ****         1.3209  -0.1481   1.5148 H              1 S1                 0.0000
     32 ****         1.3148  -1.8958  -0.2948 H              1 S1                 0.0000
     33 ****         1.5519  -0.6594  -1.4951 H              1 S1                 0.0000
     34 ****         3.5487  -2.3199   1.5672 H              1 S1                 0.0000
     35 ****         6.7789   0.1626  -1.6993 H              1 S1                 0.0000
     36 ****         7.3928  -1.3230  -0.9471 H              1 S1                 0.0000
     37 ****         7.2705   0.1723   0.0068 H              1 S1                 0.0000
     38 ****         4.2239   0.2238  -1.8351 H              1 S1                 0.0000
     39 ****        -6.0682  -0.0969   0.9483 LP             1 S1                 0.0000
     40 ****        -5.4502   0.8133  -0.2585 LP             1 S1                 0.0000
     41 ****        -1.3899   2.4838   2.1050 LP             1 S1                 0.0000
     42 ****         0.2224   1.8772   1.9248 LP             1 S1                 0.0000
     43 ****         5.9680  -1.9805   1.2815 LP             1 S1                 0.0000
@<TRIPOS>BOND
    1    1    2 1     
    2    1   19 1     
    3    1   20 1     
    4    1   21 1     
    5    2    7 1     
    6    2    3 1     
    7    2   22 1     
    8    3    4 1     
    9    3   23 1     
   10    3   24 1     
   11    4    5 1     
   12    5    6 1     
   13    5   25 1     
   14    5   26 1     
   15    6    7 1     
   16    6   27 1     
   17    6   28 1     
   18    7    8 am    
   19    8    9 2     
   20    8   10 am    
   21   10   11 1     
   22   10   29 1     
   23   11   12 1     
   24   11   30 1     
   25   11   31 1     
   26   12   13 1     
   27   12   32 1     
   28   12   33 1     
   29   13   18 2     
   30   13   14 1     
   31   14   15 2     
   32   14   34 1     
   33   15   16 1     
   34   16   17 1     
   35   16   18 1     
   36   17   35 1     
   37   17   36 1     
   38   17   37 1     
   39   18   38 1     
   40    4   39 1     
   41    4   40 1     
   42    9   41 1     
   43    9   42 1     
   44   15   43 1     
@<TRIPOS>SUBSTRUCTURE
      1 S1             1
@<TRIPOS>SET
LONE_PAIRS      STATIC     ATOMS    <user>   **** ""
5 39 40 41 42 43
DONOR_HYDROGENS      STATIC     ATOMS    <user>   **** ""
1 29
ATOM$BLUE        STATIC     ATOMS    COLORGROUP SYSTEM
5 39 40 41 42 43
ATOM$RED        STATIC     ATOMS    COLORGROUP SYSTEM
1 29
