#       Name:                AV-unprocessed.smi:3237
#       Creating user name   scv26
#       Creation time:       Fri Mar 27 18:22:52 2020


#       File generated by GOLD software.
#

@<TRIPOS>MOLECULE
AV-unprocessed.smi:3237
    42    44     1
SMALL
NO_CHARGES


@<TRIPOS>ATOM
      1 ****        -6.9612  -2.2568  -0.2924 C.3            1 S1                 0.0000
      2 ****        -5.6624  -1.8933   0.3424 C.2            1 S1                 0.0000
      3 ****        -4.3636  -2.0371  -0.0553 C.2            1 S1                 0.0000
      4 ****        -3.6293  -1.4709   1.0222 C.2            1 S1                 0.0000
      5 ****        -2.2925  -1.3857   1.1048 N.pl3          1 S1                -1.0000
      6 ****        -1.6448  -0.3291   0.5641 C.2            1 S1                 0.0000
      7 ****        -2.1608   0.6257  -0.0213 O.2            1 S1                 0.0000
      8 ****        -0.3132  -0.3827   0.7067 N.am           1 S1                 0.0000
      9 ****         0.6296   0.6161   0.2160 C.3            1 S1                 0.0000
     10 ****         0.8182   0.6163  -1.3033 C.3            1 S1                 0.0000
     11 ****         2.2601   1.1071  -1.5113 C.3            1 S1                 0.0000
     12 ****         2.8960   1.1511  -0.1737 N.4            1 S1                 1.0000
     13 ****         4.3203   0.7567  -0.1639 C.3            1 S1                 0.0000
     14 ****         5.1303   1.4431   0.9098 C.3            1 S1                 0.0000
     15 ****         5.2593   1.8799  -0.5336 C.3            1 S1                 0.0000
     16 ****         2.0427   0.3566   0.7266 C.3            1 S1                 0.0000
     17 ****        -4.4126  -1.0367   1.9954 N.2            1 S1                 0.0000
     18 ****        -5.7188  -1.2966   1.5636 O.3            1 S1                 0.0000
     19 ****        -6.9246  -3.2703  -0.6919 H              1 S1                 0.0000
     20 ****        -7.1916  -1.5779  -1.1134 H              1 S1                 0.0000
     21 ****        -7.7783  -2.2077   0.4274 H              1 S1                 0.0000
     22 ****        -3.9963  -2.4739  -0.9718 H              1 S1                 0.0000
     23 ****         0.0687  -1.1806   1.1934 H              1 S1                 0.0000
     24 ****         0.3153   1.6092   0.5434 H              1 S1                 0.0000
     25 ****         0.7168  -0.3955  -1.6992 H              1 S1                 0.0000
     26 ****         0.0851   1.2444  -1.8105 H              1 S1                 0.0000
     27 ****         2.7925   0.4326  -2.1837 H              1 S1                 0.0000
     28 ****         2.2845   2.1036  -1.9531 H              1 S1                 0.0000
     29 ****         4.5436  -0.2676  -0.4575 H              1 S1                 0.0000
     30 ****         4.6144   2.1142   1.5943 H              1 S1                 0.0000
     31 ****         5.9638   0.8913   1.3397 H              1 S1                 0.0000
     32 ****         6.1771   1.6153  -1.0549 H              1 S1                 0.0000
     33 ****         4.8296   2.8416  -0.8087 H              1 S1                 0.0000
     34 ****         2.1732   0.6517   1.7683 H              1 S1                 0.0000
     35 ****         2.2950  -0.7020   0.6367 H              1 S1                 0.0000
     36 ****         2.8337   2.1079   0.1436 H              1 S1                 0.0000
     37 ****        -1.7743  -2.1052   1.5673 LP             1 S1                 0.0000
     38 ****        -3.1538   0.6670  -0.1319 LP             1 S1                 0.0000
     39 ****        -1.5862   1.3587  -0.3854 LP             1 S1                 0.0000
     40 ****        -4.1316  -0.6129   2.8565 LP             1 S1                 0.0000
     41 ****        -6.1740  -1.9041   2.2146 LP             1 S1                 0.0000
     42 ****        -6.2281  -0.4387   1.4960 LP             1 S1                 0.0000
@<TRIPOS>BOND
    1    1    2 1     
    2    1   19 1     
    3    1   20 1     
    4    1   21 1     
    5    2   18 1     
    6    2    3 2     
    7    3    4 1     
    8    3   22 1     
    9    4    5 1     
   10    4   17 2     
   11    5    6 1     
   12    6    7 2     
   13    6    8 am    
   14    8    9 1     
   15    8   23 1     
   16    9   16 1     
   17    9   10 1     
   18    9   24 1     
   19   10   11 1     
   20   10   25 1     
   21   10   26 1     
   22   11   12 1     
   23   11   27 1     
   24   11   28 1     
   25   12   13 1     
   26   12   16 1     
   27   12   36 1     
   28   13   15 1     
   29   13   14 1     
   30   13   29 1     
   31   14   15 1     
   32   14   30 1     
   33   14   31 1     
   34   15   32 1     
   35   15   33 1     
   36   16   34 1     
   37   16   35 1     
   38   17   18 1     
   39    5   37 1     
   40    7   38 1     
   41    7   39 1     
   42   17   40 1     
   43   18   41 1     
   44   18   42 1     
@<TRIPOS>SUBSTRUCTURE
      1 S1             1
@<TRIPOS>SET
LONE_PAIRS      STATIC     ATOMS    <user>   **** ""
6 37 38 39 40 41 42
DONOR_HYDROGENS      STATIC     ATOMS    <user>   **** ""
2 23 36
ATOM$BLUE        STATIC     ATOMS    COLORGROUP SYSTEM
6 37 38 39 40 41 42
ATOM$RED        STATIC     ATOMS    COLORGROUP SYSTEM
2 23 36
