AV-unprocessed.smi:65|AV-procd|sdf|615|dock7
  -GOLD-   2262016503D 1   1.00000     0.00000
 Structure written by MMmdl.
 26 27  0  0  0  0  0  0  0  0  2 V2000
  146.8612  138.1667  151.3163 N   0  0  0  0  0  0  0  0  0  0  0  0
  147.3056  138.9893  152.3224 C   0  0  0  0  0  0  0  0  0  0  0  0
  146.6290  140.1147  152.5684 N   0  0  0  0  0  0  0  0  0  0  0  0
  147.0606  140.9272  153.5517 C   0  0  0  0  0  0  0  0  0  0  0  0
  148.1962  140.6156  154.3175 C   0  0  0  0  0  0  0  0  0  0  0  0
  148.8684  139.4096  154.0158 C   0  0  0  0  0  0  0  0  0  0  0  0
  150.0198  138.9916  154.7097 N   0  0  0  0  0  0  0  0  0  0  0  0
  151.1057  138.2989  154.0277 C   0  0  0  0  0  0  0  0  0  0  0  0
  152.3752  138.6419  154.8175 C   0  0  0  0  0  0  0  0  0  0  0  0
  151.8467  139.0490  156.1941 C   0  0  1  0  0  0  0  0  0  0  0  0
  152.7268  139.9135  156.8800 O   0  0  0  0  0  0  0  0  0  0  0  0
  150.5182  139.7261  155.8619 C   0  0  0  0  0  0  0  0  0  0  0  0
  148.3970  138.6246  153.0098 N   0  3  0  0  0  0  0  0  0  0  0  0
  147.3501  137.3087  151.1046 H   0  0  0  0  0  0  0  0  0  0  0  0
  146.0507  138.4147  150.7675 H   0  0  0  0  0  0  0  0  0  0  0  0
  146.4970  141.8317  153.7268 H   0  0  0  0  0  0  0  0  0  0  0  0
  148.5305  141.2857  155.0956 H   0  0  0  0  0  0  0  0  0  0  0  0
  150.9106  137.2265  154.0552 H   0  0  0  0  0  0  0  0  0  0  0  0
  151.2028  138.6040  152.9852 H   0  0  0  0  0  0  0  0  0  0  0  0
  153.0862  137.8163  154.8592 H   0  0  0  0  0  0  0  0  0  0  0  0
  152.8736  139.4896  154.3439 H   0  0  0  0  0  0  0  0  0  0  0  0
  151.6662  138.1578  156.7971 H   0  0  0  0  0  0  0  0  0  0  0  0
  152.2868  140.7365  157.0303 H   0  0  0  0  0  0  0  0  0  0  0  0
  150.6702  140.7705  155.5842 H   0  0  0  0  0  0  0  0  0  0  0  0
  149.8232  139.6872  156.7016 H   0  0  0  0  0  0  0  0  0  0  0  0
  148.8804  137.7553  152.7847 H   0  0  0  0  0  0  0  0  0  0  0  0
  1  2  1  0  0  0  0
  1 14  1  0  0  0  0
  1 15  1  0  0  0  0
  2 13  1  0  0  0  0
  2  3  2  0  0  0  0
  3  4  1  0  0  0  0
  4  5  2  0  0  0  0
  4 16  1  0  0  0  0
  5  6  1  0  0  0  0
  5 17  1  0  0  0  0
  6  7  1  0  0  0  0
  6 13  2  0  0  0  0
  7 12  1  0  0  0  0
  7  8  1  0  0  0  0
  8  9  1  0  0  0  0
  8 18  1  0  0  0  0
  8 19  1  0  0  0  0
  9 10  1  0  0  0  0
  9 20  1  0  0  0  0
  9 21  1  0  0  0  0
 10 11  1  0  0  0  0
 10 12  1  0  0  0  0
 10 22  1  0  0  0  0
 11 23  1  0  0  0  0
 12 24  1  0  0  0  0
 12 25  1  0  0  0  0
 13 26  1  0  0  0  0
M  CHG  1  13   1
M  END
> <s_m_source_file>
AV-unprocessed.smi

> <i_m_source_file_index>
65

> <i_lp_mmshare_version>
43012

> <i_f3d_flags>
0

> <s_epik_input>
W05IMl1jMW5bY0hdW2NIXWMobjEpTjJbQ0gyXVtDSDJdW0NAQEhdKFtPSF0pW0NIMl0y

> <s_epik_cmdline>
J2VwaWtfcHl0aG9uJywgJy1waCcsICc3LjAnLCAnLXRuJywgJzgnLCAnLW1hJywgJzIwMCcsICctbWV0YWxfYmluZGluZycsICctaW1hZScsICc8aW5maWxlLm1hZT4nLCAnLW9tYWUnLCAnPG91dGZpbGUubWFlPic=

> <r_lp_tautomer_probability>
0.424989

> <r_epik_Ionization_Penalty>
0.57487

> <r_epik_Ionization_Penalty_Charging>
0.574865

> <r_epik_Ionization_Penalty_Neutral>
4.40886e-06

> <r_epik_State_Penalty>
0.845539

> <r_epik_Charging_Adjusted_Penalty>
1.4204

> <i_epik_Tot_Q>
1

> <i_epik_Tot_abs_Q>
1

> <r_epik_Metal_State_Penalty>
1.14248

> <b_epik_Metal_Only>
0

> <s_lp_Force_Field>
OPLS_2005

> <r_lp_Energy>
20.8145

> <b_lp_Chiralities_Consistent>
1

> <s_lp_Variant>
AV-unprocessed.smi:65-5

> <Gold.Version>
5.8.1

> <Gold.Id.Protein>
6NUR|6NUR_protein|mol2

> <Gold.PLP.Fitness>
37.9438

> <Gold.PLP.PLP>
-24.0600

> <Gold.PLP.part.hbond>
-4.0000

> <Gold.PLP.part.metal>
0.0000

> <Gold.PLP.part.buried>
0.0942

> <Gold.PLP.part.nonpolar>
-21.2517

> <Gold.PLP.part.repulsive>
1.7965

> <Gold.PLP.ligand.clash>
0.0000

> <Gold.PLP.ligand.torsion>
0.2653

> <Gold.PLP.Chemscore.Hbond>
4.7341

> <Gold.PLP.Chemscore.CHOScore>
0.0000

> <Gold.PLP.Chemscore.Metal>
0.0000

> <Gold.Chemscore.Hbonds>
donor molecule, donor type, donor heavy atom, donor atom, acceptor molecule, acceptor atom, score
      L1  H     1    14       P1  7948  1.54
      L1  H     1    15       P1 10171  0.15
      L1  H    13    26       P1  7948  2.00
      P1  H  7997  8010       L1    11  1.00

> <Gold.PLP.Chemscore.Internal.Correction>
0.2122

> <Gold.Rescore>
     Score         DG    S(hbond)    S(metal)    S(lipo)     H(rot)  DE(clash)    DE(int)     intcor
     15.97     -17.54       2.95        0.00      40.90       1.00       1.35       0.22       ----

> <Gold.Chemscore.Fitness>
15.9745

> <Gold.Chemscore.DG>
-17.5428

> <Gold.Chemscore.ZeroCoef>
-5.4800

> <Gold.Chemscore.Hbond>
2.9452

> <Gold.Chemscore.Metal>
0.0000

> <Gold.Chemscore.Lipo>
40.9042

> <Gold.Chemscore.Internal_Hbond>
0.0000

> <Gold.Chemscore.DEClash>
1.3459

> <Gold.Chemscore.DEInternal>
0.2224

> <Gold.Chemscore.Rot>
1.0000

> <Gold.Chemscore.Internal.Correction>
   9.000000E+99

> <Gold.Chemscore.Hbonds>
donor molecule, donor type, donor heavy atom, donor atom, acceptor molecule, acceptor atom, score
      L1  H     1    14       P1  7948  0.73
      L1  H     1    15       P1 10171  0.18
      L1  H    13    26       P1  7948  0.94
      P1  H  7997  8010       L1    11  0.84

> <Gold.Chemscore.Hbond.Weighted>
-9.8370

> <Gold.Chemscore.Metal.Weighted>
-0.0000

> <Gold.Chemscore.Lipo.Weighted>
-4.7858

> <Gold.Chemscore.Internal_Hbond.Weighted>
0.0000

> <Gold.Chemscore.DEClash.Weighted>
1.3459

> <Gold.Chemscore.DEInternal.Weighted>
0.2224

> <Gold.Chemscore.Rot.Weighted>
2.5600

> <Gold.Chemscore.Internal.Correction.Weighted>
   9.000000E+99

> <Gold.Protein.RotatedTorsions>
[ 6907 6896 6895 6894 ] final   53.70 input  -60.11 | X-H torsion
[ 7974 7965 7964 7962 ] final  155.18 input  175.53 | X-H torsion
[ 8008 7997 7996 7995 ] final   53.56 input   59.86 | X-H torsion
[ 10167 10162 10161 10158 ] final -178.22 input  -65.29 | X-H torsion
[ 10718 10713 10712 10709 ] final  148.96 input   66.30 | X-H torsion
[ 10763 10752 10751 10750 ] final   31.27 input  -60.55 | X-H torsion
[ 11005 11000 10999 10996 ] final  156.16 input  -57.11 | X-H torsion

> <Gold.Protein.ActiveResidues>
 VAL166  LYS551  ARG553  GLY616  TRP617  ASP618  TYR619  PRO620  LYS621  CYS622 
 ASP623  PHE694  ASN695  SER759  ASP760  ASP761  ALA762  ILE779  LEU786  VAL792 
 PHE793  MET794  SER795  GLU796  ALA797  LYS798  CYS799  TRP800  GLU811  SER814 

> <Gold.Protein.RotatedAtoms>
  152.3364  134.7192  160.0275 H   0  0  0  0  0  0  0  0  0  0  0  0  # atno 6907 bound_to 6896
  151.7592  133.3327  159.3421 H   0  0  0  0  0  0  0  0  0  0  0  0  # atno 6908 bound_to 6896
  150.7453  134.6054  159.6102 H   0  0  0  0  0  0  0  0  0  0  0  0  # atno 6909 bound_to 6896
  144.8041  139.7033  143.6169 H   0  0  0  0  0  0  0  0  0  0  0  0  # atno 7974 bound_to 7965
  155.4703  140.3465  155.4325 H   0  0  0  0  0  0  0  0  0  0  0  0  # atno 8008 bound_to 7997
  156.1105  140.1459  156.9374 H   0  0  0  0  0  0  0  0  0  0  0  0  # atno 8009 bound_to 7997
  154.4753  140.0887  156.7225 H   0  0  0  0  0  0  0  0  0  0  0  0  # atno 8010 bound_to 7997
  139.5443  144.2279  152.0956 H   0  0  0  0  0  0  0  0  0  0  0  0  # atno 10167 bound_to 10162
  157.3021  131.0872  151.1382 H   0  0  0  0  0  0  0  0  0  0  0  0  # atno 10718 bound_to 10713
  153.0325  135.6443  154.1173 H   0  0  0  0  0  0  0  0  0  0  0  0  # atno 10763 bound_to 10752
  154.0893  135.2867  155.3276 H   0  0  0  0  0  0  0  0  0  0  0  0  # atno 10764 bound_to 10752
  154.6476  135.5437  153.7927 H   0  0  0  0  0  0  0  0  0  0  0  0  # atno 10765 bound_to 10752
  140.1649  134.8583  157.2620 H   0  0  0  0  0  0  0  0  0  0  0  0  # atno 11005 bound_to 11000
  146.2329  139.5848  142.9543 LP  0  0  0  0  0  0  0  0  0  0  0  0  # atno 17320 bound_to 7965
  145.5481  141.0415  143.2293 LP  0  0  0  0  0  0  0  0  0  0  0  0  # atno 17321 bound_to 7965
  140.1763  144.4888  150.6552 LP  0  0  0  0  0  0  0  0  0  0  0  0  # atno 17342 bound_to 10162
  140.6685  143.2276  151.5684 LP  0  0  0  0  0  0  0  0  0  0  0  0  # atno 17343 bound_to 10162
  157.2737  130.6717  149.6032 LP  0  0  0  0  0  0  0  0  0  0  0  0  # atno 17370 bound_to 10713
  155.9672  130.4471  150.5567 LP  0  0  0  0  0  0  0  0  0  0  0  0  # atno 17371 bound_to 10713
  140.2445  134.3755  155.7467 LP  0  0  0  0  0  0  0  0  0  0  0  0  # atno 17394 bound_to 11000
  141.2213  133.7283  156.8841 LP  0  0  0  0  0  0  0  0  0  0  0  0  # atno 17395 bound_to 11000

$$$$
