AV-unprocessed.smi:3355|AV-procd|sdf|12963|dock4
  -GOLD-   2272019403D 1   1.00000     0.00000
 Structure written by MMmdl.
 45 46  0  0  0  0  0  0  0  0  1 V2000
  145.3334  147.8153  158.9262 C   0  0  0  0  0  0  0  0  0  0  0  0
  145.1922  146.5417  159.7672 C   0  0  0  0  0  0  0  0  0  0  0  0
  146.4644  146.1586  160.4611 C   0  0  0  0  0  0  0  0  0  0  0  0
  147.2936  147.0610  161.0009 N   0  0  0  0  0  0  0  0  0  0  0  0
  148.3286  146.3359  161.5543 N   0  0  0  0  0  0  0  0  0  0  0  0
  148.0197  145.0660  161.2995 C   0  0  0  0  0  0  0  0  0  0  0  0
  146.8736  144.8808  160.6265 N   0  0  0  0  0  0  0  0  0  0  0  0
  146.2814  143.6184  160.2185 C   0  0  0  0  0  0  0  0  0  0  0  0
  146.7503  143.1987  158.8189 C   0  0  0  0  0  0  0  0  0  0  0  0
  148.1653  143.4933  158.6468 N   0  0  0  0  0  0  0  0  0  0  0  0
  149.1064  142.5798  158.3549 C   0  0  0  0  0  0  0  0  0  0  0  0
  148.8261  141.3924  158.1800 O   0  0  0  0  0  0  0  0  0  0  0  0
  150.3635  143.0781  158.2113 N   0  0  0  0  0  0  0  0  0  0  0  0
  150.7575  144.4540  158.5821 C   0  0  0  0  0  0  0  0  0  0  0  0
  152.1794  144.5898  159.1661 C   0  0  0  0  0  0  0  0  0  0  0  0
  152.5484  143.5294  160.2212 C   0  0  0  0  0  0  0  0  0  0  0  0
  153.1372  142.2358  159.6196 C   0  0  1  0  0  0  0  0  0  0  0  0
  153.7555  141.3580  160.7188 C   0  0  0  0  0  0  0  0  0  0  0  0
  152.1234  141.4201  158.7923 C   0  0  0  0  0  0  0  0  0  0  0  0
  151.4314  142.2212  157.6746 C   0  0  0  0  0  0  0  0  0  0  0  0
  144.3963  148.0531  158.4229 H   0  0  0  0  0  0  0  0  0  0  0  0
  146.1017  147.6979  158.1613 H   0  0  0  0  0  0  0  0  0  0  0  0
  145.6047  148.6713  159.5434 H   0  0  0  0  0  0  0  0  0  0  0  0
  144.3858  146.6555  160.4897 H   0  0  0  0  0  0  0  0  0  0  0  0
  144.8950  145.7157  159.1201 H   0  0  0  0  0  0  0  0  0  0  0  0
  148.6464  144.2454  161.6173 H   0  0  0  0  0  0  0  0  0  0  0  0
  146.5138  142.8476  160.9522 H   0  0  0  0  0  0  0  0  0  0  0  0
  145.1967  143.7346  160.2291 H   0  0  0  0  0  0  0  0  0  0  0  0
  146.5856  142.1300  158.6716 H   0  0  0  0  0  0  0  0  0  0  0  0
  146.1774  143.7218  158.0531 H   0  0  0  0  0  0  0  0  0  0  0  0
  148.4532  144.4546  158.7571 H   0  0  0  0  0  0  0  0  0  0  0  0
  150.6534  145.0985  157.7084 H   0  0  0  0  0  0  0  0  0  0  0  0
  150.0866  144.8597  159.3406 H   0  0  0  0  0  0  0  0  0  0  0  0
  152.9221  144.5960  158.3677 H   0  0  0  0  0  0  0  0  0  0  0  0
  152.2537  145.5765  159.6246 H   0  0  0  0  0  0  0  0  0  0  0  0
  153.3002  143.9687  160.8781 H   0  0  0  0  0  0  0  0  0  0  0  0
  151.6915  143.3071  160.8589 H   0  0  0  0  0  0  0  0  0  0  0  0
  153.9510  142.5237  158.9523 H   0  0  0  0  0  0  0  0  0  0  0  0
  153.0029  141.0376  161.4400 H   0  0  0  0  0  0  0  0  0  0  0  0
  154.5312  141.8960  161.2645 H   0  0  0  0  0  0  0  0  0  0  0  0
  154.2147  140.4632  160.2969 H   0  0  0  0  0  0  0  0  0  0  0  0
  152.6510  140.5821  158.3350 H   0  0  0  0  0  0  0  0  0  0  0  0
  151.3757  140.9728  159.4487 H   0  0  0  0  0  0  0  0  0  0  0  0
  151.0192  141.5277  156.9393 H   0  0  0  0  0  0  0  0  0  0  0  0
  152.1577  142.8084  157.1116 H   0  0  0  0  0  0  0  0  0  0  0  0
  1  2  1  0  0  0  0
  1 21  1  0  0  0  0
  1 22  1  0  0  0  0
  1 23  1  0  0  0  0
  2  3  1  0  0  0  0
  2 24  1  0  0  0  0
  2 25  1  0  0  0  0
  3  7  1  0  0  0  0
  3  4  2  0  0  0  0
  4  5  1  0  0  0  0
  5  6  2  0  0  0  0
  6  7  1  0  0  0  0
  6 26  1  0  0  0  0
  7  8  1  0  0  0  0
  8  9  1  0  0  0  0
  8 27  1  0  0  0  0
  8 28  1  0  0  0  0
  9 10  1  0  0  0  0
  9 29  1  0  0  0  0
  9 30  1  0  0  0  0
 10 11  1  0  0  0  0
 10 31  1  0  0  0  0
 11 12  2  0  0  0  0
 11 13  1  0  0  0  0
 13 20  1  0  0  0  0
 13 14  1  0  0  0  0
 14 15  1  0  0  0  0
 14 32  1  0  0  0  0
 14 33  1  0  0  0  0
 15 16  1  0  0  0  0
 15 34  1  0  0  0  0
 15 35  1  0  0  0  0
 16 17  1  0  0  0  0
 16 36  1  0  0  0  0
 16 37  1  0  0  0  0
 17 18  1  0  0  0  0
 17 19  1  0  0  0  0
 17 38  1  0  0  0  0
 18 39  1  0  0  0  0
 18 40  1  0  0  0  0
 18 41  1  0  0  0  0
 19 20  1  0  0  0  0
 19 42  1  0  0  0  0
 19 43  1  0  0  0  0
 20 44  1  0  0  0  0
 20 45  1  0  0  0  0
M  END
> <s_m_source_file>
AV-unprocessed.smi

> <i_m_source_file_index>
3355

> <i_lp_mmshare_version>
43012

> <i_f3d_flags>
0

> <s_epik_input>
W0NIM11bQ0gyXWMxbm5bY0hdbjFbQ0gyXVtDSDJdW05IXUMoPU8pTjJbQ0gyXVtDSDJdW0NIMl1bQ0BASF0oW0NIM10pW0NIMl1bQ0gyXTI=

> <s_epik_cmdline>
J2VwaWtfcHl0aG9uJywgJy1waCcsICc3LjAnLCAnLXRuJywgJzgnLCAnLW1hJywgJzIwMCcsICctbWV0YWxfYmluZGluZycsICctaW1hZScsICc8aW5maWxlLm1hZT4nLCAnLW9tYWUnLCAnPG91dGZpbGUubWFlPic=

> <r_lp_tautomer_probability>
1

> <r_epik_Ionization_Penalty>
0.000387734

> <r_epik_Ionization_Penalty_Charging>
0

> <r_epik_Ionization_Penalty_Neutral>
0.000387734

> <r_epik_State_Penalty>
-0

> <r_epik_Charging_Adjusted_Penalty>
0

> <i_epik_Tot_Q>
0

> <i_epik_Tot_abs_Q>
0

> <r_epik_Metal_State_Penalty>
-0

> <b_epik_Metal_Only>
0

> <s_lp_Force_Field>
OPLS_2005

> <r_lp_Energy>
33.7292

> <b_lp_Chiralities_Consistent>
1

> <s_lp_Variant>
AV-unprocessed.smi:3355-1

> <Gold.Version>
5.8.1

> <Gold.Id.Protein>
6NUR|6NUR_protein|mol2

> <Gold.PLP.Fitness>
47.0129

> <Gold.PLP.PLP>
-47.3042

> <Gold.PLP.part.hbond>
-5.3651

> <Gold.PLP.part.metal>
0.0000

> <Gold.PLP.part.buried>
-8.2185

> <Gold.PLP.part.nonpolar>
-35.4169

> <Gold.PLP.part.repulsive>
1.1316

> <Gold.PLP.ligand.clash>
0.0000

> <Gold.PLP.ligand.torsion>
0.8188

> <Gold.PLP.Chemscore.Hbond>
0.4433

> <Gold.PLP.Chemscore.CHOScore>
0.0000

> <Gold.PLP.Chemscore.Metal>
0.0000

> <Gold.Chemscore.Hbonds>
donor molecule, donor type, donor heavy atom, donor atom, acceptor molecule, acceptor atom, score
      L1  H    10    31       P1  8029  0.25

> <Gold.PLP.Chemscore.Internal.Correction>
0.0163

> <Gold.Rescore>
     Score         DG    S(hbond)    S(metal)    S(lipo)     H(rot)  DE(clash)    DE(int)     intcor
     11.06     -13.25       0.50        0.00      89.98       1.74       1.38       0.81       ----

> <Gold.Chemscore.Fitness>
11.0636

> <Gold.Chemscore.DG>
-13.2502

> <Gold.Chemscore.ZeroCoef>
-5.4800

> <Gold.Chemscore.Hbond>
0.5049

> <Gold.Chemscore.Metal>
0.0000

> <Gold.Chemscore.Lipo>
89.9832

> <Gold.Chemscore.Internal_Hbond>
0.0000

> <Gold.Chemscore.DEClash>
1.3798

> <Gold.Chemscore.DEInternal>
0.8067

> <Gold.Chemscore.Rot>
1.7360

> <Gold.Chemscore.Internal.Correction>
   9.000000E+99

> <Gold.Chemscore.Hbonds>
donor molecule, donor type, donor heavy atom, donor atom, acceptor molecule, acceptor atom, score
      L1  H    10    31       P1  8029  0.24

> <Gold.Chemscore.Hbond.Weighted>
-1.6864

> <Gold.Chemscore.Metal.Weighted>
-0.0000

> <Gold.Chemscore.Lipo.Weighted>
-10.5280

> <Gold.Chemscore.Internal_Hbond.Weighted>
0.0000

> <Gold.Chemscore.DEClash.Weighted>
1.3798

> <Gold.Chemscore.DEInternal.Weighted>
0.8067

> <Gold.Chemscore.Rot.Weighted>
4.4443

> <Gold.Chemscore.Internal.Correction.Weighted>
   9.000000E+99

> <Gold.Protein.RotatedTorsions>
[ 6907 6896 6895 6894 ] final  178.17 input  -60.11 | X-H torsion
[ 7974 7965 7964 7962 ] final  149.08 input  175.53 | X-H torsion
[ 8008 7997 7996 7995 ] final   -2.43 input   59.86 | X-H torsion
[ 10167 10162 10161 10158 ] final  125.30 input  -65.29 | X-H torsion
[ 10718 10713 10712 10709 ] final  -17.43 input   66.30 | X-H torsion
[ 10763 10752 10751 10750 ] final  -21.38 input  -60.55 | X-H torsion
[ 11005 11000 10999 10996 ] final -151.29 input  -57.11 | X-H torsion

> <Gold.Protein.ActiveResidues>
 VAL166  LYS551  ARG553  GLY616  TRP617  ASP618  TYR619  PRO620  LYS621  CYS622 
 ASP623  PHE694  ASN695  SER759  ASP760  ASP761  ALA762  ILE779  LEU786  VAL792 
 PHE793  MET794  SER795  GLU796  ALA797  LYS798  CYS799  TRP800  GLU811  SER814 

> <Gold.Protein.RotatedAtoms>
  151.6922  133.3311  159.3245 H   0  0  0  0  0  0  0  0  0  0  0  0  # atno 6907 bound_to 6896
  150.7774  134.6689  159.6390 H   0  0  0  0  0  0  0  0  0  0  0  0  # atno 6908 bound_to 6896
  152.3820  134.6578  160.0191 H   0  0  0  0  0  0  0  0  0  0  0  0  # atno 6909 bound_to 6896
  144.8465  139.6235  143.5993 H   0  0  0  0  0  0  0  0  0  0  0  0  # atno 7974 bound_to 7965
  154.6358  140.2534  155.7380 H   0  0  0  0  0  0  0  0  0  0  0  0  # atno 8008 bound_to 7997
  156.2503  140.2897  156.0650 H   0  0  0  0  0  0  0  0  0  0  0  0  # atno 8009 bound_to 7997
  155.1673  140.0385  157.2846 H   0  0  0  0  0  0  0  0  0  0  0  0  # atno 8010 bound_to 7997
  139.5693  144.6930  151.3823 H   0  0  0  0  0  0  0  0  0  0  0  0  # atno 10167 bound_to 10162
  156.5737  130.4756  149.6351 H   0  0  0  0  0  0  0  0  0  0  0  0  # atno 10718 bound_to 10713
  153.6352  135.6987  153.5261 H   0  0  0  0  0  0  0  0  0  0  0  0  # atno 10763 bound_to 10752
  153.2827  135.4181  155.1093 H   0  0  0  0  0  0  0  0  0  0  0  0  # atno 10764 bound_to 10752
  154.8513  135.3606  154.5895 H   0  0  0  0  0  0  0  0  0  0  0  0  # atno 10765 bound_to 10752
  140.7312  134.3619  157.5166 H   0  0  0  0  0  0  0  0  0  0  0  0  # atno 11005 bound_to 11000
  146.2748  139.6726  142.9270 LP  0  0  0  0  0  0  0  0  0  0  0  0  # atno 17320 bound_to 7965
  145.4586  141.0432  143.2764 LP  0  0  0  0  0  0  0  0  0  0  0  0  # atno 17321 bound_to 7965
  140.6977  143.7708  150.7353 LP  0  0  0  0  0  0  0  0  0  0  0  0  # atno 17342 bound_to 10162
  140.1209  143.4613  152.2313 LP  0  0  0  0  0  0  0  0  0  0  0  0  # atno 17343 bound_to 10162
  156.2692  130.7007  151.1799 LP  0  0  0  0  0  0  0  0  0  0  0  0  # atno 17370 bound_to 10713
  157.7342  131.0583  150.5535 LP  0  0  0  0  0  0  0  0  0  0  0  0  # atno 17371 bound_to 10713
  139.8826  134.9019  156.2821 LP  0  0  0  0  0  0  0  0  0  0  0  0  # atno 17394 bound_to 11000
  140.9919  133.7203  156.0828 LP  0  0  0  0  0  0  0  0  0  0  0  0  # atno 17395 bound_to 11000

$$$$
