AV-unprocessed.smi:1213|AV-procd|sdf|5090|dock2
  -GOLD-   22720 4143D 1   1.00000     0.00000
 Structure written by MMmdl.
 36 37  0  0  0  0  0  0  0  0  3 V2000
  144.9022  138.0762  153.5157 N   0  0  0  0  0  0  0  0  0  0  0  0
  146.0538  137.7111  152.9479 C   0  0  0  0  0  0  0  0  0  0  0  0
  146.5144  136.5777  153.0716 O   0  0  0  0  0  0  0  0  0  0  0  0
  146.7762  138.7704  152.1084 C   0  0  0  0  0  0  0  0  0  0  0  0
  147.5976  139.7016  152.9241 N   0  3  2  0  0  0  0  0  0  0  0  0
  148.4401  139.0066  153.9346 C   0  0  0  0  0  0  0  0  0  0  0  0
  149.3688  139.9966  154.6563 C   0  0  0  0  0  0  0  0  0  0  0  0
  148.5649  141.1294  155.3137 C   0  0  1  0  0  0  0  0  0  0  0  0
  149.4754  142.0945  155.9216 N   0  0  0  0  0  0  0  0  0  0  0  0
  150.3872  141.8277  156.8676 C   0  0  0  0  0  0  0  0  0  0  0  0
  150.5074  140.6788  157.2997 O   0  0  0  0  0  0  0  0  0  0  0  0
  151.0987  142.9097  157.2549 N   0  5  0  0  0  0  0  0  0  0  0  0
  151.6917  142.9271  158.4597 C   0  0  0  0  0  0  0  0  0  0  0  0
  152.2278  141.8392  159.0243 N   0  0  0  0  0  0  0  0  0  0  0  0
  152.7981  142.0863  160.2745 C   0  0  0  0  0  0  0  0  0  0  0  0
  152.7010  143.3949  160.6672 C   0  0  0  0  0  0  0  0  0  0  0  0
  151.8858  144.3616  159.4713 S   0  0  0  0  0  0  0  0  0  0  0  0
  147.6734  141.8073  154.2576 C   0  0  0  0  0  0  0  0  0  0  0  0
  146.7834  140.7798  153.5408 C   0  0  0  0  0  0  0  0  0  0  0  0
  144.3875  137.4108  154.0754 H   0  0  0  0  0  0  0  0  0  0  0  0
  144.5432  139.0111  153.3847 H   0  0  0  0  0  0  0  0  0  0  0  0
  147.4181  138.2293  151.4118 H   0  0  0  0  0  0  0  0  0  0  0  0
  146.0624  139.3326  151.5037 H   0  0  0  0  0  0  0  0  0  0  0  0
  147.8000  138.4993  154.6582 H   0  0  0  0  0  0  0  0  0  0  0  0
  149.0446  138.2359  153.4558 H   0  0  0  0  0  0  0  0  0  0  0  0
  149.9564  139.4693  155.4088 H   0  0  0  0  0  0  0  0  0  0  0  0
  150.0815  140.4113  153.9417 H   0  0  0  0  0  0  0  0  0  0  0  0
  147.9336  140.6947  156.0912 H   0  0  0  0  0  0  0  0  0  0  0  0
  149.4149  143.0491  155.5981 H   0  0  0  0  0  0  0  0  0  0  0  0
  153.2538  141.2702  160.8151 H   0  0  0  0  0  0  0  0  0  0  0  0
  153.0577  143.8472  161.5801 H   0  0  0  0  0  0  0  0  0  0  0  0
  147.0480  142.5701  154.7228 H   0  0  0  0  0  0  0  0  0  0  0  0
  148.2948  142.3240  153.5243 H   0  0  0  0  0  0  0  0  0  0  0  0
  146.2017  141.2891  152.7716 H   0  0  0  0  0  0  0  0  0  0  0  0
  146.0704  140.3438  154.2423 H   0  0  0  0  0  0  0  0  0  0  0  0
  148.2287  140.1576  152.2801 H   0  0  0  0  0  0  0  0  0  0  0  0
  1  2  1  0  0  0  0
  1 20  1  0  0  0  0
  1 21  1  0  0  0  0
  2  3  2  0  0  0  0
  2  4  1  0  0  0  0
  4  5  1  0  0  0  0
  4 22  1  0  0  0  0
  4 23  1  0  0  0  0
  5 19  1  0  0  0  0
  5  6  1  0  0  0  0
  5 36  1  0  0  0  0
  6  7  1  0  0  0  0
  6 24  1  0  0  0  0
  6 25  1  0  0  0  0
  7  8  1  0  0  0  0
  7 26  1  0  0  0  0
  7 27  1  0  0  0  0
  8  9  1  0  0  0  0
  8 18  1  0  0  0  0
  8 28  1  0  0  0  0
  9 10  1  0  0  0  0
  9 29  1  0  0  0  0
 10 11  2  0  0  0  0
 10 12  1  0  0  0  0
 12 13  1  0  0  0  0
 13 17  1  0  0  0  0
 13 14  2  0  0  0  0
 14 15  1  0  0  0  0
 15 16  2  0  0  0  0
 15 30  1  0  0  0  0
 16 17  1  0  0  0  0
 16 31  1  0  0  0  0
 18 19  1  0  0  0  0
 18 32  1  0  0  0  0
 18 33  1  0  0  0  0
 19 34  1  0  0  0  0
 19 35  1  0  0  0  0
M  CHG  1   5   1
M  CHG  1  12  -1
M  END
> <s_m_source_file>
AV-unprocessed.smi

> <i_m_source_file_index>
1213

> <i_lp_mmshare_version>
43012

> <i_f3d_flags>
0

> <s_epik_input>
W05IMl1DKD1PKVtDSDJdTjFbQ0gyXVtDSDJdW0NIXShbQ0gyXVtDSDJdMSlbTkhdQyg9TylbTkhdYzJuW2NIXVtjSF1zMg==

> <s_epik_cmdline>
J2VwaWtfcHl0aG9uJywgJy1waCcsICc3LjAnLCAnLXRuJywgJzgnLCAnLW1hJywgJzIwMCcsICctbWV0YWxfYmluZGluZycsICctaW1hZScsICc8aW5maWxlLm1hZT4nLCAnLW9tYWUnLCAnPG91dGZpbGUubWFlPic=

> <r_lp_tautomer_probability>
0.999

> <r_epik_Ionization_Penalty>
7.1168

> <r_epik_Ionization_Penalty_Charging>
6.25003

> <r_epik_Ionization_Penalty_Neutral>
0.866763

> <r_epik_State_Penalty>
6.33484

> <r_epik_Charging_Adjusted_Penalty>
12.5849

> <i_epik_Tot_Q>
0

> <i_epik_Tot_abs_Q>
2

> <r_epik_Metal_State_Penalty>
2.3501

> <b_epik_Metal_Only>
1

> <s_lp_Force_Field>
OPLS_2005

> <r_lp_Energy>
2.02951

> <b_lp_Chiralities_Consistent>
1

> <s_lp_Variant>
AV-unprocessed.smi:1213-7

> <Gold.Version>
5.8.1

> <Gold.Id.Protein>
6NUR|6NUR_protein|mol2

> <Gold.PLP.Fitness>
44.4049

> <Gold.PLP.PLP>
-37.7981

> <Gold.PLP.part.hbond>
-2.7910

> <Gold.PLP.part.metal>
0.0000

> <Gold.PLP.part.buried>
-4.7922

> <Gold.PLP.part.nonpolar>
-31.2983

> <Gold.PLP.part.repulsive>
0.7262

> <Gold.PLP.ligand.clash>
0.0000

> <Gold.PLP.ligand.torsion>
0.8239

> <Gold.PLP.Chemscore.Hbond>
2.7360

> <Gold.PLP.Chemscore.CHOScore>
0.0000

> <Gold.PLP.Chemscore.Metal>
0.0000

> <Gold.Chemscore.Hbonds>
donor molecule, donor type, donor heavy atom, donor atom, acceptor molecule, acceptor atom, score
      L1  H     1    21       P1 10175  1.00
      L1  H     5    36       P1  7957  0.98
      L1  H     9    29       P1  8028  1.00

> <Gold.PLP.Chemscore.Internal.Correction>
0.0466

> <Gold.Rescore>
     Score         DG    S(hbond)    S(metal)    S(lipo)     H(rot)  DE(clash)    DE(int)     intcor
     14.86     -18.70       2.78        0.00      78.20       2.04       0.24       3.60       ----

> <Gold.Chemscore.Fitness>
14.8560

> <Gold.Chemscore.DG>
-18.6961

> <Gold.Chemscore.ZeroCoef>
-5.4800

> <Gold.Chemscore.Hbond>
2.7792

> <Gold.Chemscore.Metal>
0.0000

> <Gold.Chemscore.Lipo>
78.1966

> <Gold.Chemscore.Internal_Hbond>
0.0000

> <Gold.Chemscore.DEClash>
0.2359

> <Gold.Chemscore.DEInternal>
3.6042

> <Gold.Chemscore.Rot>
2.0373

> <Gold.Chemscore.Internal.Correction>
   9.000000E+99

> <Gold.Chemscore.Hbonds>
donor molecule, donor type, donor heavy atom, donor atom, acceptor molecule, acceptor atom, score
      L1  H     1    21       P1 10175  0.99
      L1  H     5    36       P1  7957  0.93
      L1  H     9    29       P1  8028  0.99

> <Gold.Chemscore.Hbond.Weighted>
-9.2824

> <Gold.Chemscore.Metal.Weighted>
-0.0000

> <Gold.Chemscore.Lipo.Weighted>
-9.1490

> <Gold.Chemscore.Internal_Hbond.Weighted>
0.0000

> <Gold.Chemscore.DEClash.Weighted>
0.2359

> <Gold.Chemscore.DEInternal.Weighted>
3.6042

> <Gold.Chemscore.Rot.Weighted>
5.2154

> <Gold.Chemscore.Internal.Correction.Weighted>
   9.000000E+99

> <Gold.Protein.RotatedTorsions>
[ 6907 6896 6895 6894 ] final   34.10 input  -60.11 | X-H torsion
[ 7974 7965 7964 7962 ] final   54.35 input  175.53 | X-H torsion
[ 8008 7997 7996 7995 ] final  -80.14 input   59.86 | X-H torsion
[ 10167 10162 10161 10158 ] final -127.70 input  -65.29 | X-H torsion
[ 10718 10713 10712 10709 ] final   65.01 input   66.30 | X-H torsion
[ 10763 10752 10751 10750 ] final  155.26 input  -60.55 | X-H torsion
[ 11005 11000 10999 10996 ] final -162.76 input  -57.11 | X-H torsion

> <Gold.Protein.ActiveResidues>
 VAL166  LYS551  ARG553  GLY616  TRP617  ASP618  TYR619  PRO620  LYS621  CYS622 
 ASP623  PHE694  ASN695  SER759  ASP760  ASP761  ALA762  ILE779  LEU786  VAL792 
 PHE793  MET794  SER795  GLU796  ALA797  LYS798  CYS799  TRP800  GLU811  SER814 

> <Gold.Protein.RotatedAtoms>
  152.0977  134.9363  160.0570 H   0  0  0  0  0  0  0  0  0  0  0  0  # atno 6907 bound_to 6896
  152.0590  133.4048  159.4418 H   0  0  0  0  0  0  0  0  0  0  0  0  # atno 6908 bound_to 6896
  150.6838  134.3142  159.4803 H   0  0  0  0  0  0  0  0  0  0  0  0  # atno 6909 bound_to 6896
  145.9617  139.4066  143.0244 H   0  0  0  0  0  0  0  0  0  0  0  0  # atno 7974 bound_to 7965
  154.5854  140.0667  156.9163 H   0  0  0  0  0  0  0  0  0  0  0  0  # atno 8008 bound_to 7997
  155.2389  140.3343  155.4276 H   0  0  0  0  0  0  0  0  0  0  0  0  # atno 8009 bound_to 7997
  156.2219  140.1802  156.7441 H   0  0  0  0  0  0  0  0  0  0  0  0  # atno 8010 bound_to 7997
  139.9581  143.5981  152.2454 H   0  0  0  0  0  0  0  0  0  0  0  0  # atno 10167 bound_to 10162
  157.6077  130.9191  149.9920 H   0  0  0  0  0  0  0  0  0  0  0  0  # atno 10718 bound_to 10713
  154.1656  135.2807  155.3096 H   0  0  0  0  0  0  0  0  0  0  0  0  # atno 10763 bound_to 10752
  154.6114  135.5497  153.7481 H   0  0  0  0  0  0  0  0  0  0  0  0  # atno 10764 bound_to 10752
  153.0179  135.6416  154.1797 H   0  0  0  0  0  0  0  0  0  0  0  0  # atno 10765 bound_to 10752
  140.6057  134.4901  157.5210 H   0  0  0  0  0  0  0  0  0  0  0  0  # atno 11005 bound_to 11000
  145.8030  140.9762  143.0989 LP  0  0  0  0  0  0  0  0  0  0  0  0  # atno 17320 bound_to 7965
  144.6816  139.9825  143.7483 LP  0  0  0  0  0  0  0  0  0  0  0  0  # atno 17321 bound_to 7965
  139.6575  144.7662  151.2026 LP  0  0  0  0  0  0  0  0  0  0  0  0  # atno 17342 bound_to 10162
  140.7562  143.6062  150.8651 LP  0  0  0  0  0  0  0  0  0  0  0  0  # atno 17343 bound_to 10162
  156.1169  130.3647  149.9953 LP  0  0  0  0  0  0  0  0  0  0  0  0  # atno 17370 bound_to 10713
  156.8040  130.9301  151.3645 LP  0  0  0  0  0  0  0  0  0  0  0  0  # atno 17371 bound_to 10713
  139.9213  134.8143  156.1202 LP  0  0  0  0  0  0  0  0  0  0  0  0  # atno 17394 bound_to 11000
  141.0842  133.6741  156.2401 LP  0  0  0  0  0  0  0  0  0  0  0  0  # atno 17395 bound_to 11000

$$$$
