AV-unprocessed.smi:766|AV-procd|sdf|3655|dock7
  -GOLD-   22720 1 63D 1   1.00000     0.00000
 Structure written by MMmdl.
 46 48  0  0  0  0  0  0  0  0  1 V2000
  153.0588  143.7492  162.7496 C   0  0  0  0  0  0  0  0  0  0  0  0
  152.7960  142.9575  161.4807 C   0  0  0  0  0  0  0  0  0  0  0  0
  153.3940  141.6863  161.3278 C   0  0  0  0  0  0  0  0  0  0  0  0
  153.1745  140.9177  160.1637 C   0  0  0  0  0  0  0  0  0  0  0  0
  153.6518  139.6677  159.8086 N   0  0  0  0  0  0  0  0  0  0  0  0
  153.0940  139.4981  158.6132 C   0  0  0  0  0  0  0  0  0  0  0  0
  152.3099  140.4913  158.1514 N   0  0  0  0  0  0  0  0  0  0  0  0
  151.6051  140.5361  156.8822 C   0  0  0  0  0  0  0  0  0  0  0  0
  151.8005  139.2550  156.0479 C   0  0  2  0  0  0  0  0  0  0  0  0
  151.1235  139.3998  154.8142 O   0  0  0  0  0  0  0  0  0  0  0  0
  151.2430  138.0162  156.7690 C   0  0  0  0  0  0  0  0  0  0  0  0
  149.8945  138.2591  157.2697 N   0  0  0  0  0  0  0  0  0  0  0  0
  149.6493  137.6714  158.5841 C   0  0  0  0  0  0  0  0  0  0  0  0
  148.2040  137.1650  158.7185 C   0  0  0  0  0  0  0  0  0  0  0  0
  147.9794  136.4601  159.9679 N   0  0  0  0  0  0  0  0  0  0  0  0
  147.7259  135.1187  160.1618 C   0  0  0  0  0  0  0  0  0  0  0  0
  147.5866  134.9215  161.5058 C   0  0  0  0  0  0  0  0  0  0  0  0
  147.7714  136.2195  162.0584 C   0  0  0  0  0  0  0  0  0  0  0  0
  148.0033  137.1390  161.1355 N   0  0  0  0  0  0  0  0  0  0  0  0
  152.3345  141.4608  159.1480 C   0  0  0  0  0  0  0  0  0  0  0  0
  151.7353  142.7251  159.2875 C   0  0  0  0  0  0  0  0  0  0  0  0
  151.9626  143.4784  160.4582 C   0  0  0  0  0  0  0  0  0  0  0  0
  151.3059  144.8400  160.6019 C   0  0  0  0  0  0  0  0  0  0  0  0
  153.7549  143.2277  163.4072 H   0  0  0  0  0  0  0  0  0  0  0  0
  152.1310  143.9061  163.3002 H   0  0  0  0  0  0  0  0  0  0  0  0
  153.4899  144.7220  162.5122 H   0  0  0  0  0  0  0  0  0  0  0  0
  154.0276  141.2884  162.1068 H   0  0  0  0  0  0  0  0  0  0  0  0
  153.2647  138.5983  158.0404 H   0  0  0  0  0  0  0  0  0  0  0  0
  150.5459  140.6894  157.0918 H   0  0  0  0  0  0  0  0  0  0  0  0
  151.9424  141.4108  156.3239 H   0  0  0  0  0  0  0  0  0  0  0  0
  152.8652  139.1222  155.8494 H   0  0  0  0  0  0  0  0  0  0  0  0
  151.1200  138.5640  154.3735 H   0  0  0  0  0  0  0  0  0  0  0  0
  151.2082  137.1796  156.0700 H   0  0  0  0  0  0  0  0  0  0  0  0
  151.9105  137.7123  157.5767 H   0  0  0  0  0  0  0  0  0  0  0  0
  149.7173  139.2584  157.3001 H   0  0  0  0  0  0  0  0  0  0  0  0
  150.3469  136.8535  158.7688 H   0  0  0  0  0  0  0  0  0  0  0  0
  149.8360  138.4172  159.3575 H   0  0  0  0  0  0  0  0  0  0  0  0
  147.5111  138.0063  158.6730 H   0  0  0  0  0  0  0  0  0  0  0  0
  147.9478  136.5059  157.8880 H   0  0  0  0  0  0  0  0  0  0  0  0
  147.6693  134.4241  159.3370 H   0  0  0  0  0  0  0  0  0  0  0  0
  147.3838  133.9919  162.0164 H   0  0  0  0  0  0  0  0  0  0  0  0
  147.7437  136.5185  163.0958 H   0  0  0  0  0  0  0  0  0  0  0  0
  151.1032  143.1093  158.5004 H   0  0  0  0  0  0  0  0  0  0  0  0
  150.6751  145.0700  159.7428 H   0  0  0  0  0  0  0  0  0  0  0  0
  152.0620  145.6214  160.6812 H   0  0  0  0  0  0  0  0  0  0  0  0
  150.6798  144.8710  161.4938 H   0  0  0  0  0  0  0  0  0  0  0  0
  1  2  1  0  0  0  0
  1 24  1  0  0  0  0
  1 25  1  0  0  0  0
  1 26  1  0  0  0  0
  2 22  1  0  0  0  0
  2  3  2  0  0  0  0
  3  4  1  0  0  0  0
  3 27  1  0  0  0  0
  4 20  2  0  0  0  0
  4  5  1  0  0  0  0
  5  6  2  0  0  0  0
  6  7  1  0  0  0  0
  6 28  1  0  0  0  0
  7  8  1  0  0  0  0
  7 20  1  0  0  0  0
  8  9  1  0  0  0  0
  8 29  1  0  0  0  0
  8 30  1  0  0  0  0
  9 10  1  0  0  0  0
  9 11  1  0  0  0  0
  9 31  1  0  0  0  0
 10 32  1  0  0  0  0
 11 12  1  0  0  0  0
 11 33  1  0  0  0  0
 11 34  1  0  0  0  0
 12 13  1  0  0  0  0
 12 35  1  0  0  0  0
 13 14  1  0  0  0  0
 13 36  1  0  0  0  0
 13 37  1  0  0  0  0
 14 15  1  0  0  0  0
 14 38  1  0  0  0  0
 14 39  1  0  0  0  0
 15 19  1  0  0  0  0
 15 16  1  0  0  0  0
 16 17  2  0  0  0  0
 16 40  1  0  0  0  0
 17 18  1  0  0  0  0
 17 41  1  0  0  0  0
 18 19  2  0  0  0  0
 18 42  1  0  0  0  0
 20 21  1  0  0  0  0
 21 22  2  0  0  0  0
 21 43  1  0  0  0  0
 22 23  1  0  0  0  0
 23 44  1  0  0  0  0
 23 45  1  0  0  0  0
 23 46  1  0  0  0  0
M  END
> <s_m_source_file>
AV-unprocessed.smi

> <i_m_source_file_index>
766

> <i_lp_mmshare_version>
43012

> <i_f3d_flags>
0

> <s_epik_input>
W0NIM11jKFtjSF0xKWMoW0NIM10pW2NIXWMoYzEyKW4oW2NIXW4yKVtDSDJdW0NASF0oW09IXSlbQ0gyXVtOSF1bQ0gyXVtDSDJdbjNbY0hdW2NIXVtjSF1uMw==

> <s_epik_cmdline>
J2VwaWtfcHl0aG9uJywgJy1waCcsICc3LjAnLCAnLXRuJywgJzgnLCAnLW1hJywgJzIwMCcsICctbWV0YWxfYmluZGluZycsICctaW1hZScsICc8aW5maWxlLm1hZT4nLCAnLW9tYWUnLCAnPG91dGZpbGUubWFlPic=

> <r_lp_tautomer_probability>
1

> <r_epik_Ionization_Penalty>
1.68727

> <r_epik_Ionization_Penalty_Charging>
0

> <r_epik_Ionization_Penalty_Neutral>
1.68727

> <r_epik_State_Penalty>
1.78741

> <r_epik_Charging_Adjusted_Penalty>
1.78741

> <i_epik_Tot_Q>
0

> <i_epik_Tot_abs_Q>
0

> <r_epik_Metal_State_Penalty>
1.73664

> <b_epik_Metal_Only>
0

> <s_lp_Force_Field>
OPLS_2005

> <r_lp_Energy>
17.6974

> <b_lp_Chiralities_Consistent>
1

> <s_lp_Variant>
AV-unprocessed.smi:766-5

> <Gold.Version>
5.8.1

> <Gold.Id.Protein>
6NUR|6NUR_protein|mol2

> <Gold.PLP.Fitness>
53.9726

> <Gold.PLP.PLP>
-47.0435

> <Gold.PLP.part.hbond>
-2.9825

> <Gold.PLP.part.metal>
0.0000

> <Gold.PLP.part.buried>
-5.5963

> <Gold.PLP.part.nonpolar>
-38.0864

> <Gold.PLP.part.repulsive>
0.0000

> <Gold.PLP.ligand.clash>
0.0000

> <Gold.PLP.ligand.torsion>
0.6576

> <Gold.PLP.Chemscore.Hbond>
2.7033

> <Gold.PLP.Chemscore.CHOScore>
0.0000

> <Gold.PLP.Chemscore.Metal>
0.0000

> <Gold.Chemscore.Hbonds>
donor molecule, donor type, donor heavy atom, donor atom, acceptor molecule, acceptor atom, score
      P1  H  6931  6943       L1    19  1.00
      P1  H  6934  6947       L1    19  0.67
      P1  H  7989  7998       L1    10  0.99

> <Gold.PLP.Chemscore.Internal.Correction>
0.1346

> <Gold.Rescore>
     Score         DG    S(hbond)    S(metal)    S(lipo)     H(rot)  DE(clash)    DE(int)     intcor
     18.26     -20.12       2.22        0.00     123.63       2.83       0.12       1.73       ----

> <Gold.Chemscore.Fitness>
18.2584

> <Gold.Chemscore.DG>
-20.1151

> <Gold.Chemscore.ZeroCoef>
-5.4800

> <Gold.Chemscore.Hbond>
2.2237

> <Gold.Chemscore.Metal>
0.0000

> <Gold.Chemscore.Lipo>
123.6336

> <Gold.Chemscore.Internal_Hbond>
0.0000

> <Gold.Chemscore.DEClash>
0.1230

> <Gold.Chemscore.DEInternal>
1.7337

> <Gold.Chemscore.Rot>
2.8348

> <Gold.Chemscore.Internal.Correction>
   9.000000E+99

> <Gold.Chemscore.Hbonds>
donor molecule, donor type, donor heavy atom, donor atom, acceptor molecule, acceptor atom, score
      P1  H  6931  6943       L1    19  0.43
      P1  H  6934  6947       L1    19  0.52
      P1  H  7989  7998       L1    10  0.64

> <Gold.Chemscore.Hbond.Weighted>
-7.4272

> <Gold.Chemscore.Metal.Weighted>
-0.0000

> <Gold.Chemscore.Lipo.Weighted>
-14.4651

> <Gold.Chemscore.Internal_Hbond.Weighted>
0.0000

> <Gold.Chemscore.DEClash.Weighted>
0.1230

> <Gold.Chemscore.DEInternal.Weighted>
1.7337

> <Gold.Chemscore.Rot.Weighted>
7.2572

> <Gold.Chemscore.Internal.Correction.Weighted>
   9.000000E+99

> <Gold.Protein.RotatedTorsions>
[ 6907 6896 6895 6894 ] final  -72.12 input  -60.11 | X-H torsion
[ 7974 7965 7964 7962 ] final -159.34 input  175.53 | X-H torsion
[ 8008 7997 7996 7995 ] final  145.84 input   59.86 | X-H torsion
[ 10167 10162 10161 10158 ] final   28.35 input  -65.29 | X-H torsion
[ 10718 10713 10712 10709 ] final -179.46 input   66.30 | X-H torsion
[ 10763 10752 10751 10750 ] final   44.64 input  -60.55 | X-H torsion
[ 11005 11000 10999 10996 ] final   37.02 input  -57.11 | X-H torsion

> <Gold.Protein.ActiveResidues>
 VAL166  LYS551  ARG553  GLY616  TRP617  ASP618  TYR619  PRO620  LYS621  CYS622 
 ASP623  PHE694  ASN695  SER759  ASP760  ASP761  ALA762  ILE779  LEU786  VAL792 
 PHE793  MET794  SER795  GLU796  ALA797  LYS798  CYS799  TRP800  GLU811  SER814 

> <Gold.Protein.RotatedAtoms>
  150.7183  134.5209  159.5652 H   0  0  0  0  0  0  0  0  0  0  0  0  # atno 6907 bound_to 6896
  152.2764  134.7874  160.0414 H   0  0  0  0  0  0  0  0  0  0  0  0  # atno 6908 bound_to 6896
  151.8535  133.3409  159.3717 H   0  0  0  0  0  0  0  0  0  0  0  0  # atno 6909 bound_to 6896
  144.7469  140.3699  143.6078 H   0  0  0  0  0  0  0  0  0  0  0  0  # atno 7974 bound_to 7965
  156.2872  140.2198  156.5281 H   0  0  0  0  0  0  0  0  0  0  0  0  # atno 8008 bound_to 7997
  154.7472  140.0483  157.0884 H   0  0  0  0  0  0  0  0  0  0  0  0  # atno 8009 bound_to 7997
  155.0155  140.3118  155.4816 H   0  0  0  0  0  0  0  0  0  0  0  0  # atno 8010 bound_to 7997
  140.4860  144.0542  150.6281 H   0  0  0  0  0  0  0  0  0  0  0  0  # atno 10167 bound_to 10162
  156.8594  130.9746  151.3085 H   0  0  0  0  0  0  0  0  0  0  0  0  # atno 10718 bound_to 10713
  152.9837  135.6064  154.3308 H   0  0  0  0  0  0  0  0  0  0  0  0  # atno 10763 bound_to 10752
  154.3011  135.2773  155.2612 H   0  0  0  0  0  0  0  0  0  0  0  0  # atno 10764 bound_to 10752
  154.4864  135.5903  153.6483 H   0  0  0  0  0  0  0  0  0  0  0  0  # atno 10765 bound_to 10752
  140.2267  134.3576  155.7981 H   0  0  0  0  0  0  0  0  0  0  0  0  # atno 11005 bound_to 11000
  145.7089  139.1679  143.2550 LP  0  0  0  0  0  0  0  0  0  0  0  0  # atno 17320 bound_to 7965
  146.1361  140.7120  142.9389 LP  0  0  0  0  0  0  0  0  0  0  0  0  # atno 17321 bound_to 7965
  140.3797  143.2809  152.0184 LP  0  0  0  0  0  0  0  0  0  0  0  0  # atno 17342 bound_to 10162
  139.4842  144.6164  151.7337 LP  0  0  0  0  0  0  0  0  0  0  0  0  # atno 17343 bound_to 10162
  157.6258  130.8691  149.9188 LP  0  0  0  0  0  0  0  0  0  0  0  0  # atno 17370 bound_to 10713
  156.0785  130.3676  150.0629 LP  0  0  0  0  0  0  0  0  0  0  0  0  # atno 17371 bound_to 10713
  141.2220  133.7223  156.8664 LP  0  0  0  0  0  0  0  0  0  0  0  0  # atno 17394 bound_to 11000
  140.1793  134.9044  157.2929 LP  0  0  0  0  0  0  0  0  0  0  0  0  # atno 17395 bound_to 11000

$$$$
