AV-unprocessed.smi:1208|AV-procd|sdf|5063|dock3
  -GOLD-   22720 4103D 1   1.00000     0.00000
 Structure written by MMmdl.
 35 36  0  0  0  0  0  0  0  0  2 V2000
  152.3922  138.2912  159.0212 C   0  0  0  0  0  0  0  0  0  0  0  0
  151.4120  138.7400  157.9275 C   0  0  2  0  0  0  0  0  0  0  0  0
  150.0468  138.4567  158.3664 N   0  0  0  0  0  0  0  0  0  0  0  0
  149.5601  137.2552  158.7146 C   0  0  0  0  0  0  0  0  0  0  0  0
  150.2327  136.2232  158.7083 O   0  0  0  0  0  0  0  0  0  0  0  0
  148.0890  137.2387  159.1584 C   0  0  0  0  0  0  0  0  0  0  0  0
  147.8353  136.4308  160.3602 N   0  0  0  0  0  0  0  0  0  0  0  0
  147.9818  137.1696  161.6113 N   0  5  0  0  0  0  0  0  0  0  0  0
  147.7791  136.5234  162.7901 C   0  0  0  0  0  0  0  0  0  0  0  0
  147.9000  137.0745  163.8816 O   0  0  0  0  0  0  0  0  0  0  0  0
  147.3996  135.1209  162.7451 C   0  0  0  0  0  0  0  0  0  0  0  0
  147.2495  134.4700  161.5747 C   0  0  0  0  0  0  0  0  0  0  0  0
  147.4604  135.1216  160.2878 C   0  0  0  0  0  0  0  0  0  0  0  0
  147.3123  134.5362  159.2147 O   0  0  0  0  0  0  0  0  0  0  0  0
  151.6868  138.0425  156.5805 C   0  0  1  0  0  0  0  0  0  0  0  0
  150.6575  138.3394  155.4866 C   0  0  0  0  0  0  0  0  0  0  0  0
  151.4631  138.0983  154.2315 C   0  0  0  0  0  0  0  0  0  0  0  0
  152.8222  138.6656  154.6268 C   0  0  0  0  0  0  0  0  0  0  0  0
  152.9328  138.4735  156.0347 O   0  0  0  0  0  0  0  0  0  0  0  0
  153.4217  138.5211  158.7461 H   0  0  0  0  0  0  0  0  0  0  0  0
  152.3273  137.2170  159.1979 H   0  0  0  0  0  0  0  0  0  0  0  0
  152.1850  138.7977  159.9647 H   0  0  0  0  0  0  0  0  0  0  0  0
  151.5458  139.8136  157.7833 H   0  0  0  0  0  0  0  0  0  0  0  0
  149.4164  139.2438  158.4122 H   0  0  0  0  0  0  0  0  0  0  0  0
  147.7773  138.2722  159.3193 H   0  0  0  0  0  0  0  0  0  0  0  0
  147.4682  136.8700  158.3397 H   0  0  0  0  0  0  0  0  0  0  0  0
  147.2316  134.5901  163.6703 H   0  0  0  0  0  0  0  0  0  0  0  0
  146.9638  133.4289  161.5888 H   0  0  0  0  0  0  0  0  0  0  0  0
  151.7467  136.9621  156.7227 H   0  0  0  0  0  0  0  0  0  0  0  0
  149.7705  137.7084  155.5530 H   0  0  0  0  0  0  0  0  0  0  0  0
  150.3390  139.3822  155.5303 H   0  0  0  0  0  0  0  0  0  0  0  0
  151.5419  137.0279  154.0366 H   0  0  0  0  0  0  0  0  0  0  0  0
  151.0402  138.5791  153.3490 H   0  0  0  0  0  0  0  0  0  0  0  0
  153.6437  138.1878  154.0928 H   0  0  0  0  0  0  0  0  0  0  0  0
  152.8614  139.7360  154.4213 H   0  0  0  0  0  0  0  0  0  0  0  0
  1  2  1  0  0  0  0
  1 20  1  0  0  0  0
  1 21  1  0  0  0  0
  1 22  1  0  0  0  0
  2  3  1  0  0  0  0
  2 15  1  0  0  0  0
  2 23  1  0  0  0  0
  3  4  1  0  0  0  0
  3 24  1  0  0  0  0
  4  5  2  0  0  0  0
  4  6  1  0  0  0  0
  6 25  1  0  0  0  0
  6 26  1  0  0  0  0
  6  7  1  0  0  0  0
  7  8  1  0  0  0  0
  7 13  1  0  0  0  0
  8  9  1  0  0  0  0
  9 10  2  0  0  0  0
  9 11  1  0  0  0  0
 11 27  1  0  0  0  0
 11 12  2  0  0  0  0
 12 28  1  0  0  0  0
 12 13  1  0  0  0  0
 13 14  2  0  0  0  0
 15 19  1  0  0  0  0
 15 16  1  0  0  0  0
 15 29  1  0  0  0  0
 16 17  1  0  0  0  0
 16 30  1  0  0  0  0
 16 31  1  0  0  0  0
 17 18  1  0  0  0  0
 17 32  1  0  0  0  0
 17 33  1  0  0  0  0
 18 19  1  0  0  0  0
 18 34  1  0  0  0  0
 18 35  1  0  0  0  0
M  CHG  1   8  -1
M  END
> <s_m_source_file>
AV-unprocessed.smi

> <i_m_source_file_index>
1208

> <i_lp_mmshare_version>
43012

> <i_f3d_flags>
0

> <s_epik_input>
TzFbQ0gyXVtDSDJdW0NIMl1bQ0BIXTFbQ0BIXShbQ0gzXSlbTkhdQyg9TylbQ0gyXW4yW25IXWMoPU8pW2NIXVtjSF1jMj1P

> <s_epik_cmdline>
J2VwaWtfcHl0aG9uJywgJy1waCcsICc3LjAnLCAnLXRuJywgJzgnLCAnLW1hJywgJzIwMCcsICctbWV0YWxfYmluZGluZycsICctaW1hZScsICc8aW5maWxlLm1hZT4nLCAnLW9tYWUnLCAnPG91dGZpbGUubWFlPic=

> <r_lp_tautomer_probability>
1

> <r_epik_Ionization_Penalty>
0.0975494

> <r_epik_Ionization_Penalty_Charging>
0.0975494

> <r_epik_Ionization_Penalty_Neutral>
2.30132e-08

> <r_epik_State_Penalty>
0.034345

> <r_epik_Charging_Adjusted_Penalty>
0.131894

> <i_epik_Tot_Q>
-1

> <i_epik_Tot_abs_Q>
1

> <r_epik_Metal_State_Penalty>
0.034345

> <b_epik_Metal_Only>
0

> <s_lp_Force_Field>
OPLS_2005

> <r_lp_Energy>
33.2444

> <b_lp_Chiralities_Consistent>
1

> <s_lp_Variant>
AV-unprocessed.smi:1208-3

> <Gold.Version>
5.8.1

> <Gold.Id.Protein>
6NUR|6NUR_protein|mol2

> <Gold.PLP.Fitness>
48.6874

> <Gold.PLP.PLP>
-33.8798

> <Gold.PLP.part.hbond>
-4.6982

> <Gold.PLP.part.metal>
0.0000

> <Gold.PLP.part.buried>
-3.5897

> <Gold.PLP.part.nonpolar>
-25.4772

> <Gold.PLP.part.repulsive>
0.1917

> <Gold.PLP.ligand.clash>
0.0000

> <Gold.PLP.ligand.torsion>
0.6612

> <Gold.PLP.Chemscore.Hbond>
5.3640

> <Gold.PLP.Chemscore.CHOScore>
0.0000

> <Gold.PLP.Chemscore.Metal>
0.0000

> <Gold.Chemscore.Hbonds>
donor molecule, donor type, donor heavy atom, donor atom, acceptor molecule, acceptor atom, score
      P1  H  6896  6908       L1     5  1.00
      P1  H  6931  6943       L1     8  2.00
      P1  H  6934  6947       L1     8  0.88
      P1  H  7997  8008       L1    19  0.56

> <Gold.PLP.Chemscore.Internal.Correction>
0.0382

> <Gold.Rescore>
     Score         DG    S(hbond)    S(metal)    S(lipo)     H(rot)  DE(clash)    DE(int)     intcor
     13.62     -15.38       2.46        0.00      58.17       1.99       0.11       1.65       ----

> <Gold.Chemscore.Fitness>
13.6197

> <Gold.Chemscore.DG>
-15.3810

> <Gold.Chemscore.ZeroCoef>
-5.4800

> <Gold.Chemscore.Hbond>
2.4551

> <Gold.Chemscore.Metal>
0.0000

> <Gold.Chemscore.Lipo>
58.1689

> <Gold.Chemscore.Internal_Hbond>
0.0000

> <Gold.Chemscore.DEClash>
0.1084

> <Gold.Chemscore.DEInternal>
1.6529

> <Gold.Chemscore.Rot>
1.9940

> <Gold.Chemscore.Internal.Correction>
   9.000000E+99

> <Gold.Chemscore.Hbonds>
donor molecule, donor type, donor heavy atom, donor atom, acceptor molecule, acceptor atom, score
      P1  H  6896  6908       L1     5  0.97
      P1  H  6931  6943       L1     8  0.46
      P1  H  6934  6947       L1     8  0.09
      P1  H  7997  8008       L1    19  0.13

> <Gold.Chemscore.Hbond.Weighted>
-8.1999

> <Gold.Chemscore.Metal.Weighted>
-0.0000

> <Gold.Chemscore.Lipo.Weighted>
-6.8058

> <Gold.Chemscore.Internal_Hbond.Weighted>
0.0000

> <Gold.Chemscore.DEClash.Weighted>
0.1084

> <Gold.Chemscore.DEInternal.Weighted>
1.6529

> <Gold.Chemscore.Rot.Weighted>
5.1047

> <Gold.Chemscore.Internal.Correction.Weighted>
   9.000000E+99

> <Gold.Protein.RotatedTorsions>
[ 6907 6896 6895 6894 ] final -157.81 input  -60.11 | X-H torsion
[ 7974 7965 7964 7962 ] final -113.06 input  175.53 | X-H torsion
[ 8008 7997 7996 7995 ] final  -55.88 input   59.86 | X-H torsion
[ 10167 10162 10161 10158 ] final  123.68 input  -65.29 | X-H torsion
[ 10718 10713 10712 10709 ] final -167.72 input   66.30 | X-H torsion
[ 10763 10752 10751 10750 ] final  169.67 input  -60.55 | X-H torsion
[ 11005 11000 10999 10996 ] final -174.06 input  -57.11 | X-H torsion

> <Gold.Protein.ActiveResidues>
 VAL166  LYS551  ARG553  GLY616  TRP617  ASP618  TYR619  PRO620  LYS621  CYS622 
 ASP623  PHE694  ASN695  SER759  ASP760  ASP761  ALA762  ILE779  LEU786  VAL792 
 PHE793  MET794  SER795  GLU796  ALA797  LYS798  CYS799  TRP800  GLU811  SER814 

> <Gold.Protein.RotatedAtoms>
  151.3085  133.4091  159.2644 H   0  0  0  0  0  0  0  0  0  0  0  0  # atno 6907 bound_to 6896
  151.0134  134.9415  159.8030 H   0  0  0  0  0  0  0  0  0  0  0  0  # atno 6908 bound_to 6896
  152.5306  134.3049  159.9145 H   0  0  0  0  0  0  0  0  0  0  0  0  # atno 6909 bound_to 6896
  145.1365  140.8754  143.3727 H   0  0  0  0  0  0  0  0  0  0  0  0  # atno 7974 bound_to 7965
  154.4210  140.1142  156.5548 H   0  0  0  0  0  0  0  0  0  0  0  0  # atno 8008 bound_to 7997
  155.6372  140.3496  155.4683 H   0  0  0  0  0  0  0  0  0  0  0  0  # atno 8009 bound_to 7997
  155.9900  140.1177  157.0637 H   0  0  0  0  0  0  0  0  0  0  0  0  # atno 8010 bound_to 7997
  139.5785  144.6975  151.3589 H   0  0  0  0  0  0  0  0  0  0  0  0  # atno 10167 bound_to 10162
  156.6864  130.9142  151.3063 H   0  0  0  0  0  0  0  0  0  0  0  0  # atno 10718 bound_to 10713
  154.3865  135.2753  155.2180 H   0  0  0  0  0  0  0  0  0  0  0  0  # atno 10763 bound_to 10752
  154.4264  135.5987  153.6045 H   0  0  0  0  0  0  0  0  0  0  0  0  # atno 10764 bound_to 10752
  152.9833  135.5985  154.4114 H   0  0  0  0  0  0  0  0  0  0  0  0  # atno 10765 bound_to 10752
  140.4787  134.6096  157.4911 H   0  0  0  0  0  0  0  0  0  0  0  0  # atno 11005 bound_to 11000
  145.0578  139.3129  143.5896 LP  0  0  0  0  0  0  0  0  0  0  0  0  # atno 17320 bound_to 7965
  146.3509  140.0009  142.8676 LP  0  0  0  0  0  0  0  0  0  0  0  0  # atno 17321 bound_to 7965
  140.7066  143.7498  150.7492 LP  0  0  0  0  0  0  0  0  0  0  0  0  # atno 17342 bound_to 10162
  140.1025  143.4775  152.2417 LP  0  0  0  0  0  0  0  0  0  0  0  0  # atno 17343 bound_to 10162
  157.7025  130.9348  150.0828 LP  0  0  0  0  0  0  0  0  0  0  0  0  # atno 17370 bound_to 10713
  156.1829  130.3651  149.9011 LP  0  0  0  0  0  0  0  0  0  0  0  0  # atno 17371 bound_to 10713
  139.9840  134.7092  155.9808 LP  0  0  0  0  0  0  0  0  0  0  0  0  # atno 17394 bound_to 11000
  141.1542  133.6545  156.4107 LP  0  0  0  0  0  0  0  0  0  0  0  0  # atno 17395 bound_to 11000

$$$$
