AV-unprocessed.smi:211|AV-procd|sdf|1616|dock7
  -GOLD-   2262019543D 1   1.00000     0.00000
 Structure written by MMmdl.
 59 62  0  0  0  0  0  0  0  0  1 V2000
  154.5888  125.3583  154.2707 C   0  0  0  0  0  0  0  0  0  0  0  0
  154.3078  126.6804  154.9761 C   0  0  0  0  0  0  0  0  0  0  0  0
  154.9742  127.6786  154.7049 O   0  0  0  0  0  0  0  0  0  0  0  0
  153.3170  126.6687  155.8810 N   0  0  0  0  0  0  0  0  0  0  0  0
  152.8908  127.8071  156.6945 C   0  0  1  0  0  0  0  0  0  0  0  0
  154.0974  128.3125  157.5079 C   0  0  0  0  0  0  0  0  0  0  0  0
  152.2557  128.8980  155.7919 C   0  0  0  0  0  0  0  0  0  0  0  0
  151.7680  130.1255  156.5944 C   0  0  0  0  0  0  0  0  0  0  0  0
  151.1221  131.1828  155.6842 C   0  0  0  0  0  0  0  0  0  0  0  0
  150.0437  130.6021  154.8844 N   0  0  0  0  0  0  0  0  0  0  0  0
  149.2006  131.4586  154.2526 C   0  0  0  0  0  0  0  0  0  0  0  0
  149.3350  132.8004  154.4328 N   0  0  0  0  0  0  0  0  0  0  0  0
  148.5227  133.6522  153.8003 C   0  0  0  0  0  0  0  0  0  0  0  0
  147.5226  133.3825  152.9598 N   0  0  0  0  0  0  0  0  0  0  0  0
  147.3734  132.0384  152.7835 C   0  0  0  0  0  0  0  0  0  0  0  0
  148.1638  131.0168  153.3823 C   0  0  0  0  0  0  0  0  0  0  0  0
  147.7184  129.7689  152.9619 N   0  0  0  0  0  0  0  0  0  0  0  0
  146.7347  130.0384  152.1478 C   0  0  0  0  0  0  0  0  0  0  0  0
  146.4420  131.3757  152.0035 N   0  0  0  0  0  0  0  0  0  0  0  0
  145.4483  131.9522  151.1466 C   0  0  0  0  0  0  0  0  0  0  0  0
  145.7757  133.1447  150.2448 C   0  0  0  0  0  0  0  0  0  0  0  0
  144.3227  133.6465  150.3963 C   0  0  0  0  0  0  0  0  0  0  0  0
  144.1683  135.1666  150.5693 C   0  0  0  0  0  0  0  0  0  0  0  0
  144.6377  135.8632  149.4326 O   0  0  0  0  0  0  0  0  0  0  0  0
  143.3451  133.1585  149.3076 C   0  0  0  0  0  0  0  0  0  0  0  0
  143.3320  134.0320  148.1968 O   0  0  0  0  0  0  0  0  0  0  0  0
  144.3194  132.8224  151.7043 C   0  0  0  0  0  0  0  0  0  0  0  0
  150.4380  129.4463  154.0829 C   0  0  0  0  0  0  0  0  0  0  0  0
  151.0672  128.3551  154.9628 C   0  0  0  0  0  0  0  0  0  0  0  0
  153.6868  124.9830  153.7865 H   0  0  0  0  0  0  0  0  0  0  0  0
  154.9335  124.6121  154.9872 H   0  0  0  0  0  0  0  0  0  0  0  0
  155.3592  125.4810  153.5085 H   0  0  0  0  0  0  0  0  0  0  0  0
  152.8255  125.7989  156.0277 H   0  0  0  0  0  0  0  0  0  0  0  0
  152.1256  127.4705  157.3967 H   0  0  0  0  0  0  0  0  0  0  0  0
  153.8058  129.0657  158.2390 H   0  0  0  0  0  0  0  0  0  0  0  0
  154.8586  128.7493  156.8603 H   0  0  0  0  0  0  0  0  0  0  0  0
  154.5646  127.5003  158.0662 H   0  0  0  0  0  0  0  0  0  0  0  0
  153.0200  129.2401  155.0920 H   0  0  0  0  0  0  0  0  0  0  0  0
  151.0490  129.8091  157.3512 H   0  0  0  0  0  0  0  0  0  0  0  0
  152.5947  130.5935  157.1276 H   0  0  0  0  0  0  0  0  0  0  0  0
  150.7344  131.9980  156.2970 H   0  0  0  0  0  0  0  0  0  0  0  0
  151.8753  131.6087  155.0196 H   0  0  0  0  0  0  0  0  0  0  0  0
  148.7000  134.6997  153.9954 H   0  0  0  0  0  0  0  0  0  0  0  0
  146.1895  129.2616  151.6313 H   0  0  0  0  0  0  0  0  0  0  0  0
  145.0437  131.1252  150.5609 H   0  0  0  0  0  0  0  0  0  0  0  0
  146.5089  133.8178  150.6940 H   0  0  0  0  0  0  0  0  0  0  0  0
  146.0647  132.8767  149.2282 H   0  0  0  0  0  0  0  0  0  0  0  0
  143.1312  135.4471  150.7535 H   0  0  0  0  0  0  0  0  0  0  0  0
  144.7363  135.5173  151.4315 H   0  0  0  0  0  0  0  0  0  0  0  0
  144.1463  136.6660  149.3483 H   0  0  0  0  0  0  0  0  0  0  0  0
  143.5991  132.1558  148.9632 H   0  0  0  0  0  0  0  0  0  0  0  0
  142.3268  133.0945  149.6909 H   0  0  0  0  0  0  0  0  0  0  0  0
  144.2254  134.2331  147.9631 H   0  0  0  0  0  0  0  0  0  0  0  0
  143.3950  132.2819  151.9099 H   0  0  0  0  0  0  0  0  0  0  0  0
  144.6311  133.4041  152.5741 H   0  0  0  0  0  0  0  0  0  0  0  0
  149.5892  129.0254  153.5449 H   0  0  0  0  0  0  0  0  0  0  0  0
  151.1545  129.7720  153.3274 H   0  0  0  0  0  0  0  0  0  0  0  0
  151.3830  127.5334  154.3202 H   0  0  0  0  0  0  0  0  0  0  0  0
  150.3081  127.9476  155.6322 H   0  0  0  0  0  0  0  0  0  0  0  0
  1  2  1  0  0  0  0
  1 30  1  0  0  0  0
  1 31  1  0  0  0  0
  1 32  1  0  0  0  0
  2  3  2  0  0  0  0
  2  4  1  0  0  0  0
  4  5  1  0  0  0  0
  4 33  1  0  0  0  0
  5  6  1  0  0  0  0
  5  7  1  0  0  0  0
  5 34  1  0  0  0  0
  6 35  1  0  0  0  0
  6 36  1  0  0  0  0
  6 37  1  0  0  0  0
  7 29  1  0  0  0  0
  7  8  1  0  0  0  0
  7 38  1  0  0  0  0
  8  9  1  0  0  0  0
  8 39  1  0  0  0  0
  8 40  1  0  0  0  0
  9 10  1  0  0  0  0
  9 41  1  0  0  0  0
  9 42  1  0  0  0  0
 10 11  1  0  0  0  0
 10 28  1  0  0  0  0
 11 16  1  0  0  0  0
 11 12  2  0  0  0  0
 12 13  1  0  0  0  0
 13 14  2  0  0  0  0
 13 43  1  0  0  0  0
 14 15  1  0  0  0  0
 15 19  1  0  0  0  0
 15 16  2  0  0  0  0
 16 17  1  0  0  0  0
 17 18  2  0  0  0  0
 18 19  1  0  0  0  0
 18 44  1  0  0  0  0
 19 20  1  0  0  0  0
 20 27  1  0  0  0  0
 20 21  1  0  0  0  0
 20 45  1  0  0  0  0
 21 22  1  0  0  0  0
 21 46  1  0  0  0  0
 21 47  1  0  0  0  0
 22 23  1  0  0  0  0
 22 25  1  0  0  0  0
 22 27  1  0  0  0  0
 23 24  1  0  0  0  0
 23 48  1  0  0  0  0
 23 49  1  0  0  0  0
 24 50  1  0  0  0  0
 25 26  1  0  0  0  0
 25 51  1  0  0  0  0
 25 52  1  0  0  0  0
 26 53  1  0  0  0  0
 27 54  1  0  0  0  0
 27 55  1  0  0  0  0
 28 29  1  0  0  0  0
 28 56  1  0  0  0  0
 28 57  1  0  0  0  0
 29 58  1  0  0  0  0
 29 59  1  0  0  0  0
M  END
> <s_m_source_file>
AV-unprocessed.smi

> <i_m_source_file_index>
211

> <i_lp_mmshare_version>
43012

> <i_f3d_flags>
0

> <s_epik_input>
W0NIM11DKD1PKVtOSF1bQ0BIXShbQ0gzXSlbQ0hdMVtDSDJdW0NIMl1OKFtDSDJdW0NIMl0xKWMobltjSF1uMiljKGMyMyluW2NIXW4zW0NIXShbQ0gyXTQpW0NIMl1DNChbQ0gyXVtPSF0pW0NIMl1bT0hd

> <s_epik_cmdline>
J2VwaWtfcHl0aG9uJywgJy1waCcsICc3LjAnLCAnLXRuJywgJzgnLCAnLW1hJywgJzIwMCcsICctbWV0YWxfYmluZGluZycsICctaW1hZScsICc8aW5maWxlLm1hZT4nLCAnLW9tYWUnLCAnPG91dGZpbGUubWFlPic=

> <r_lp_tautomer_probability>
1

> <r_epik_Ionization_Penalty>
0.00335435

> <r_epik_Ionization_Penalty_Charging>
0

> <r_epik_Ionization_Penalty_Neutral>
0.00335435

> <r_epik_State_Penalty>
0.00231338

> <r_epik_Charging_Adjusted_Penalty>
0.00231338

> <i_epik_Tot_Q>
0

> <i_epik_Tot_abs_Q>
0

> <r_epik_Metal_State_Penalty>
-0

> <b_epik_Metal_Only>
0

> <s_lp_Force_Field>
OPLS_2005

> <r_lp_Energy>
40.8238

> <b_lp_Chiralities_Consistent>
1

> <s_lp_Variant>
AV-unprocessed.smi:211-2

> <Gold.Version>
5.8.1

> <Gold.Id.Protein>
6NUR|6NUR_protein|mol2

> <Gold.PLP.Fitness>
49.8812

> <Gold.PLP.PLP>
-39.6426

> <Gold.PLP.part.hbond>
-5.2196

> <Gold.PLP.part.metal>
0.0000

> <Gold.PLP.part.buried>
1.4723

> <Gold.PLP.part.nonpolar>
-34.5733

> <Gold.PLP.part.repulsive>
0.4317

> <Gold.PLP.ligand.clash>
0.0000

> <Gold.PLP.ligand.torsion>
0.9263

> <Gold.PLP.Chemscore.Hbond>
2.9750

> <Gold.PLP.Chemscore.CHOScore>
0.7570

> <Gold.PLP.Chemscore.Metal>
0.0000

> <Gold.Chemscore.Hbonds>
donor molecule, donor type, donor heavy atom, donor atom, acceptor molecule, acceptor atom, score
      L1  H    24    50       P1 10171  1.00
      L1  H    26    53       P1  7921  1.00
      P1  H 10192 10197       L1    26  1.00
      L1  C    13    43       P1  7948  0.56

> <Gold.PLP.Chemscore.Internal.Correction>
0.8951

> <Gold.Rescore>
     Score         DG    S(hbond)    S(metal)    S(lipo)     H(rot)  DE(clash)    DE(int)     intcor
     10.46     -14.58       2.96        0.00      79.01       3.92       1.69       2.43       ----

> <Gold.Chemscore.Fitness>
10.4580

> <Gold.Chemscore.DG>
-14.5803

> <Gold.Chemscore.ZeroCoef>
-5.4800

> <Gold.Chemscore.Hbond>
2.9580

> <Gold.Chemscore.Metal>
0.0000

> <Gold.Chemscore.Lipo>
79.0087

> <Gold.Chemscore.Internal_Hbond>
0.0000

> <Gold.Chemscore.DEClash>
1.6886

> <Gold.Chemscore.DEInternal>
2.4338

> <Gold.Chemscore.Rot>
3.9155

> <Gold.Chemscore.Internal.Correction>
   9.000000E+99

> <Gold.Chemscore.Hbonds>
donor molecule, donor type, donor heavy atom, donor atom, acceptor molecule, acceptor atom, score
      L1  H    24    50       P1 10171  0.94
      L1  H    26    53       P1  7921  0.96
      P1  H 10192 10197       L1    26  0.77

> <Gold.Chemscore.Hbond.Weighted>
-9.8798

> <Gold.Chemscore.Metal.Weighted>
-0.0000

> <Gold.Chemscore.Lipo.Weighted>
-9.2440

> <Gold.Chemscore.Internal_Hbond.Weighted>
0.0000

> <Gold.Chemscore.DEClash.Weighted>
1.6886

> <Gold.Chemscore.DEInternal.Weighted>
2.4338

> <Gold.Chemscore.Rot.Weighted>
10.0236

> <Gold.Chemscore.Internal.Correction.Weighted>
   9.000000E+99

> <Gold.Protein.RotatedTorsions>
[ 6907 6896 6895 6894 ] final   61.58 input  -60.11 | X-H torsion
[ 7974 7965 7964 7962 ] final   26.15 input  175.53 | X-H torsion
[ 8008 7997 7996 7995 ] final -175.72 input   59.86 | X-H torsion
[ 10167 10162 10161 10158 ] final  -53.34 input  -65.29 | X-H torsion
[ 10718 10713 10712 10709 ] final  -44.88 input   66.30 | X-H torsion
[ 10763 10752 10751 10750 ] final -142.22 input  -60.55 | X-H torsion
[ 11005 11000 10999 10996 ] final -160.06 input  -57.11 | X-H torsion

> <Gold.Protein.ActiveResidues>
 VAL166  LYS551  ARG553  GLY616  TRP617  ASP618  TYR619  PRO620  LYS621  CYS622 
 ASP623  PHE694  ASN695  SER759  ASP760  ASP761  ALA762  ILE779  LEU786  VAL792 
 PHE793  MET794  SER795  GLU796  ALA797  LYS798  CYS799  TRP800  GLU811  SER814 

> <Gold.Protein.RotatedAtoms>
  152.4101  134.6140  160.0032 H   0  0  0  0  0  0  0  0  0  0  0  0  # atno 6907 bound_to 6896
  151.6320  133.3326  159.3119 H   0  0  0  0  0  0  0  0  0  0  0  0  # atno 6908 bound_to 6896
  150.7992  134.7114  159.6651 H   0  0  0  0  0  0  0  0  0  0  0  0  # atno 6909 bound_to 6896
  146.1852  139.7367  142.8872 H   0  0  0  0  0  0  0  0  0  0  0  0  # atno 7974 bound_to 7965
  155.9860  140.1191  157.0682 H   0  0  0  0  0  0  0  0  0  0  0  0  # atno 8008 bound_to 7997
  154.4197  140.1135  156.5568 H   0  0  0  0  0  0  0  0  0  0  0  0  # atno 8009 bound_to 7997
  155.6407  140.3473  155.4716 H   0  0  0  0  0  0  0  0  0  0  0  0  # atno 8010 bound_to 7997
  140.6490  143.2553  151.4777 H   0  0  0  0  0  0  0  0  0  0  0  0  # atno 10167 bound_to 10162
  156.2340  130.4175  149.8840 H   0  0  0  0  0  0  0  0  0  0  0  0  # atno 10718 bound_to 10713
  154.8517  135.3502  154.5994 H   0  0  0  0  0  0  0  0  0  0  0  0  # atno 10763 bound_to 10752
  153.6603  135.6990  153.5184 H   0  0  0  0  0  0  0  0  0  0  0  0  # atno 10764 bound_to 10752
  153.2823  135.4260  155.1048 H   0  0  0  0  0  0  0  0  0  0  0  0  # atno 10765 bound_to 10752
  140.6356  134.4605  157.5231 H   0  0  0  0  0  0  0  0  0  0  0  0  # atno 11005 bound_to 11000
  145.3959  141.0379  143.3098 LP  0  0  0  0  0  0  0  0  0  0  0  0  # atno 17320 bound_to 7965
  144.8385  139.5511  143.6911 LP  0  0  0  0  0  0  0  0  0  0  0  0  # atno 17321 bound_to 7965
  139.5703  144.1944  152.1826 LP  0  0  0  0  0  0  0  0  0  0  0  0  # atno 17342 bound_to 10162
  140.1238  144.5349  150.6845 LP  0  0  0  0  0  0  0  0  0  0  0  0  # atno 17343 bound_to 10162
  156.6444  130.8718  151.3520 LP  0  0  0  0  0  0  0  0  0  0  0  0  # atno 17370 bound_to 10713
  157.7146  130.9481  150.1209 LP  0  0  0  0  0  0  0  0  0  0  0  0  # atno 17371 bound_to 10713
  139.9099  134.8367  156.1566 LP  0  0  0  0  0  0  0  0  0  0  0  0  # atno 17394 bound_to 11000
  141.0643  133.6826  156.2015 LP  0  0  0  0  0  0  0  0  0  0  0  0  # atno 17395 bound_to 11000

$$$$
