AV-unprocessed.smi:1228|AV-procd|sdf|5147|dock8
  -GOLD-   22720 4213D 1   1.00000     0.00000
 Structure written by MMmdl.
 44 46  0  0  0  0  0  0  0  0  2 V2000
  153.0139  137.6469  157.9806 C   0  0  0  0  0  0  0  0  0  0  0  0
  152.0832  137.3829  156.8340 C   0  0  0  0  0  0  0  0  0  0  0  0
  151.4858  136.1453  156.4558 C   0  0  0  0  0  0  0  0  0  0  0  0
  150.7455  136.4912  155.3584 C   0  0  0  0  0  0  0  0  0  0  0  0
  149.9534  135.7073  154.5793 N   0  0  0  0  0  0  0  0  0  0  0  0
  149.5223  134.4551  154.8122 C   0  0  0  0  0  0  0  0  0  0  0  0
  149.8015  133.7748  155.7994 O   0  0  0  0  0  0  0  0  0  0  0  0
  148.7359  134.0189  153.8169 N   0  0  0  0  0  0  0  0  0  0  0  0
  148.0946  132.7078  153.7695 C   0  0  2  0  0  0  0  0  0  0  0  0
  149.1434  131.5810  153.7120 C   0  0  0  0  0  0  0  0  0  0  0  0
  148.4694  130.2063  153.5692 C   0  0  0  0  0  0  0  0  0  0  0  0
  147.5893  130.1644  152.3749 N   0  3  1  0  0  0  0  0  0  0  0  0
  147.0144  128.8195  152.1539 C   0  0  0  0  0  0  0  0  0  0  0  0
  148.0455  127.7156  152.1156 C   0  0  0  0  0  0  0  0  0  0  0  0
  147.4069  128.2001  150.8328 C   0  0  0  0  0  0  0  0  0  0  0  0
  146.5447  131.2178  152.4236 C   0  0  0  0  0  0  0  0  0  0  0  0
  147.1739  132.6165  152.5415 C   0  0  0  0  0  0  0  0  0  0  0  0
  150.9041  137.8387  155.1215 N   0  0  0  0  0  0  0  0  0  0  0  0
  150.3247  138.6652  154.0805 C   0  0  0  0  0  0  0  0  0  0  0  0
  151.7348  138.3855  156.0352 N   0  0  0  0  0  0  0  0  0  0  0  0
  153.0689  136.7870  158.6485 H   0  0  0  0  0  0  0  0  0  0  0  0
  152.6819  138.5022  158.5698 H   0  0  0  0  0  0  0  0  0  0  0  0
  154.0229  137.8565  157.6252 H   0  0  0  0  0  0  0  0  0  0  0  0
  151.5949  135.1799  156.9265 H   0  0  0  0  0  0  0  0  0  0  0  0
  149.6497  136.1300  153.7146 H   0  0  0  0  0  0  0  0  0  0  0  0
  148.5588  134.6428  153.0431 H   0  0  0  0  0  0  0  0  0  0  0  0
  147.4826  132.5794  154.6648 H   0  0  0  0  0  0  0  0  0  0  0  0
  149.8184  131.7438  152.8703 H   0  0  0  0  0  0  0  0  0  0  0  0
  149.7616  131.5923  154.6106 H   0  0  0  0  0  0  0  0  0  0  0  0
  149.2338  129.4327  153.4874 H   0  0  0  0  0  0  0  0  0  0  0  0
  147.8845  129.9802  154.4624 H   0  0  0  0  0  0  0  0  0  0  0  0
  146.0278  128.6394  152.5779 H   0  0  0  0  0  0  0  0  0  0  0  0
  149.0885  127.9764  152.2860 H   0  0  0  0  0  0  0  0  0  0  0  0
  147.7458  126.7358  152.4818 H   0  0  0  0  0  0  0  0  0  0  0  0
  146.6866  127.5394  150.3544 H   0  0  0  0  0  0  0  0  0  0  0  0
  148.0259  128.7828  150.1529 H   0  0  0  0  0  0  0  0  0  0  0  0
  145.9336  131.1691  151.5217 H   0  0  0  0  0  0  0  0  0  0  0  0
  145.8781  131.0326  153.2675 H   0  0  0  0  0  0  0  0  0  0  0  0
  146.3875  133.3695  152.6060 H   0  0  0  0  0  0  0  0  0  0  0  0
  147.7394  132.8362  151.6345 H   0  0  0  0  0  0  0  0  0  0  0  0
  150.6867  138.3340  153.1071 H   0  0  0  0  0  0  0  0  0  0  0  0
  150.5986  139.7114  154.2230 H   0  0  0  0  0  0  0  0  0  0  0  0
  149.2383  138.5789  154.1063 H   0  0  0  0  0  0  0  0  0  0  0  0
  148.1720  130.3659  151.5750 H   0  0  0  0  0  0  0  0  0  0  0  0
  1  2  1  0  0  0  0
  1 21  1  0  0  0  0
  1 22  1  0  0  0  0
  1 23  1  0  0  0  0
  2 20  2  0  0  0  0
  2  3  1  0  0  0  0
  3  4  2  0  0  0  0
  3 24  1  0  0  0  0
  4  5  1  0  0  0  0
  4 18  1  0  0  0  0
  5  6  1  0  0  0  0
  5 25  1  0  0  0  0
  6  7  2  0  0  0  0
  6  8  1  0  0  0  0
  8  9  1  0  0  0  0
  8 26  1  0  0  0  0
  9 17  1  0  0  0  0
  9 10  1  0  0  0  0
  9 27  1  0  0  0  0
 10 11  1  0  0  0  0
 10 28  1  0  0  0  0
 10 29  1  0  0  0  0
 11 12  1  0  0  0  0
 11 30  1  0  0  0  0
 11 31  1  0  0  0  0
 12 13  1  0  0  0  0
 12 16  1  0  0  0  0
 12 44  1  0  0  0  0
 13 15  1  0  0  0  0
 13 14  1  0  0  0  0
 13 32  1  0  0  0  0
 14 15  1  0  0  0  0
 14 33  1  0  0  0  0
 14 34  1  0  0  0  0
 15 35  1  0  0  0  0
 15 36  1  0  0  0  0
 16 17  1  0  0  0  0
 16 37  1  0  0  0  0
 16 38  1  0  0  0  0
 17 39  1  0  0  0  0
 17 40  1  0  0  0  0
 18 19  1  0  0  0  0
 18 20  1  0  0  0  0
 19 41  1  0  0  0  0
 19 42  1  0  0  0  0
 19 43  1  0  0  0  0
M  CHG  1  12   1
M  END
> <s_m_source_file>
AV-unprocessed.smi

> <i_m_source_file_index>
1228

> <i_lp_mmshare_version>
43012

> <i_f3d_flags>
0

> <s_epik_input>
W0NIM11jMVtjSF1jKG4objEpW0NIM10pW05IXUMoPU8pW05IXVtDSF0yW0NIMl1bQ0gyXU4oW0NIMl1bQ0gyXTIpW0NIXTNbQ0gyXVtDSDJdMw==

> <s_epik_cmdline>
J2VwaWtfcHl0aG9uJywgJy1waCcsICc3LjAnLCAnLXRuJywgJzgnLCAnLW1hJywgJzIwMCcsICctbWV0YWxfYmluZGluZycsICctaW1hZScsICc8aW5maWxlLm1hZT4nLCAnLW9tYWUnLCAnPG91dGZpbGUubWFlPic=

> <r_lp_tautomer_probability>
1

> <r_epik_Ionization_Penalty>
0.11882

> <r_epik_Ionization_Penalty_Charging>
0.11874

> <r_epik_Ionization_Penalty_Neutral>
8.03064e-05

> <r_epik_State_Penalty>
0.108313

> <r_epik_Charging_Adjusted_Penalty>
0.227053

> <i_epik_Tot_Q>
1

> <i_epik_Tot_abs_Q>
1

> <r_epik_Metal_State_Penalty>
0.108316

> <b_epik_Metal_Only>
0

> <s_lp_Force_Field>
OPLS_2005

> <r_lp_Energy>
27.674

> <b_lp_Chiralities_Consistent>
1

> <s_lp_Variant>
AV-unprocessed.smi:1228-1

> <Gold.Version>
5.8.1

> <Gold.Id.Protein>
6NUR|6NUR_protein|mol2

> <Gold.PLP.Fitness>
42.6401

> <Gold.PLP.PLP>
-33.9995

> <Gold.PLP.part.hbond>
-3.0879

> <Gold.PLP.part.metal>
0.0000

> <Gold.PLP.part.buried>
-4.0658

> <Gold.PLP.part.nonpolar>
-27.2277

> <Gold.PLP.part.repulsive>
0.0932

> <Gold.PLP.ligand.clash>
0.0000

> <Gold.PLP.ligand.torsion>
0.8099

> <Gold.PLP.Chemscore.Hbond>
3.0000

> <Gold.PLP.Chemscore.CHOScore>
0.0000

> <Gold.PLP.Chemscore.Metal>
0.0000

> <Gold.Chemscore.Hbonds>
donor molecule, donor type, donor heavy atom, donor atom, acceptor molecule, acceptor atom, score
      L1  H     5    25       P1  7948  1.00
      L1  H     8    26       P1  7948  1.00
      L1  H    12    44       P1 10747  1.00

> <Gold.PLP.Chemscore.Internal.Correction>
1.2604

> <Gold.Rescore>
     Score         DG    S(hbond)    S(metal)    S(lipo)     H(rot)  DE(clash)    DE(int)     intcor
     17.69     -19.62       2.49        0.00      76.36       1.21       0.01       1.92       ----

> <Gold.Chemscore.Fitness>
17.6927

> <Gold.Chemscore.DG>
-19.6213

> <Gold.Chemscore.ZeroCoef>
-5.4800

> <Gold.Chemscore.Hbond>
2.4863

> <Gold.Chemscore.Metal>
0.0000

> <Gold.Chemscore.Lipo>
76.3586

> <Gold.Chemscore.Internal_Hbond>
0.0000

> <Gold.Chemscore.DEClash>
0.0106

> <Gold.Chemscore.DEInternal>
1.9180

> <Gold.Chemscore.Rot>
1.2097

> <Gold.Chemscore.Internal.Correction>
   9.000000E+99

> <Gold.Chemscore.Hbonds>
donor molecule, donor type, donor heavy atom, donor atom, acceptor molecule, acceptor atom, score
      L1  H     5    25       P1  7948  0.39
      L1  H     8    26       P1  7948  0.29
      L1  H    12    44       P1 10747  0.97

> <Gold.Chemscore.Hbond.Weighted>
-8.3042

> <Gold.Chemscore.Metal.Weighted>
-0.0000

> <Gold.Chemscore.Lipo.Weighted>
-8.9340

> <Gold.Chemscore.Internal_Hbond.Weighted>
0.0000

> <Gold.Chemscore.DEClash.Weighted>
0.0106

> <Gold.Chemscore.DEInternal.Weighted>
1.9180

> <Gold.Chemscore.Rot.Weighted>
3.0969

> <Gold.Chemscore.Internal.Correction.Weighted>
   9.000000E+99

> <Gold.Protein.RotatedTorsions>
[ 6907 6896 6895 6894 ] final  -51.23 input  -60.11 | X-H torsion
[ 7974 7965 7964 7962 ] final   92.05 input  175.53 | X-H torsion
[ 8008 7997 7996 7995 ] final  111.31 input   59.86 | X-H torsion
[ 10167 10162 10161 10158 ] final -166.74 input  -65.29 | X-H torsion
[ 10718 10713 10712 10709 ] final  168.06 input   66.30 | X-H torsion
[ 10763 10752 10751 10750 ] final   99.86 input  -60.55 | X-H torsion
[ 11005 11000 10999 10996 ] final -147.56 input  -57.11 | X-H torsion

> <Gold.Protein.ActiveResidues>
 VAL166  LYS551  ARG553  GLY616  TRP617  ASP618  TYR619  PRO620  LYS621  CYS622 
 ASP623  PHE694  ASN695  SER759  ASP760  ASP761  ALA762  ILE779  LEU786  VAL792 
 PHE793  MET794  SER795  GLU796  ALA797  LYS798  CYS799  TRP800  GLU811  SER814 

> <Gold.Protein.RotatedAtoms>
  150.8631  134.7987  159.7097 H   0  0  0  0  0  0  0  0  0  0  0  0  # atno 6907 bound_to 6896
  152.4661  134.5068  159.9751 H   0  0  0  0  0  0  0  0  0  0  0  0  # atno 6908 bound_to 6896
  151.5169  133.3436  159.2930 H   0  0  0  0  0  0  0  0  0  0  0  0  # atno 6909 bound_to 6896
  145.4975  139.2276  143.2796 H   0  0  0  0  0  0  0  0  0  0  0  0  # atno 7974 bound_to 7965
  156.2115  140.3022  155.9742 H   0  0  0  0  0  0  0  0  0  0  0  0  # atno 8008 bound_to 7997
  155.2713  140.0434  157.3024 H   0  0  0  0  0  0  0  0  0  0  0  0  # atno 8009 bound_to 7997
  154.5706  140.2347  155.8206 H   0  0  0  0  0  0  0  0  0  0  0  0  # atno 8010 bound_to 7997
  139.6095  144.0844  152.1827 H   0  0  0  0  0  0  0  0  0  0  0  0  # atno 10167 bound_to 10162
  157.0425  131.0291  151.2708 H   0  0  0  0  0  0  0  0  0  0  0  0  # atno 10718 bound_to 10713
  153.3067  135.4099  155.1300 H   0  0  0  0  0  0  0  0  0  0  0  0  # atno 10763 bound_to 10752
  154.8564  135.3554  154.5779 H   0  0  0  0  0  0  0  0  0  0  0  0  # atno 10764 bound_to 10752
  153.6206  135.7064  153.5370 H   0  0  0  0  0  0  0  0  0  0  0  0  # atno 10765 bound_to 10752
  140.7704  134.3196  157.5076 H   0  0  0  0  0  0  0  0  0  0  0  0  # atno 11005 bound_to 11000
  146.2247  140.5773  142.9002 LP  0  0  0  0  0  0  0  0  0  0  0  0  # atno 17320 bound_to 7965
  144.7799  140.5818  143.6613 LP  0  0  0  0  0  0  0  0  0  0  0  0  # atno 17321 bound_to 7965
  140.0460  144.5970  150.7374 LP  0  0  0  0  0  0  0  0  0  0  0  0  # atno 17342 bound_to 10162
  140.7309  143.2688  151.3956 LP  0  0  0  0  0  0  0  0  0  0  0  0  # atno 17343 bound_to 10162
  157.5093  130.7928  149.7688 LP  0  0  0  0  0  0  0  0  0  0  0  0  # atno 17370 bound_to 10713
  156.0033  130.3868  150.2523 LP  0  0  0  0  0  0  0  0  0  0  0  0  # atno 17371 bound_to 10713
  139.8757  134.9257  156.3382 LP  0  0  0  0  0  0  0  0  0  0  0  0  # atno 17394 bound_to 11000
  140.9579  133.7408  156.0361 LP  0  0  0  0  0  0  0  0  0  0  0  0  # atno 17395 bound_to 11000

$$$$
