AV-unprocessed.smi:197|AV-procd|sdf|1549|dock1
  -GOLD-   2262019413D 1   1.00000     0.00000
 Structure written by MMmdl.
 54 57  0  0  0  0  0  0  0  0  1 V2000
  152.9671  138.5232  154.6427 C   0  0  0  0  0  0  0  0  0  0  0  0
  152.8241  139.8942  154.9829 O   0  0  0  0  0  0  0  0  0  0  0  0
  151.8115  140.1513  155.9460 C   0  0  0  0  0  0  0  0  0  0  0  0
  151.9027  139.1832  157.1399 C   0  0  0  0  0  0  0  0  0  0  0  0
  150.9440  139.5427  158.3022 C   0  0  1  0  0  0  0  0  0  0  0  0
  151.0241  141.0289  158.7154 C   0  0  0  0  0  0  0  0  0  0  0  0
  150.4663  141.8546  157.6983 O   0  0  0  0  0  0  0  0  0  0  0  0
  149.0855  141.5791  157.4913 C   0  0  0  0  0  0  0  0  0  0  0  0
  148.9121  140.1218  157.0357 C   0  0  0  0  0  0  0  0  0  0  0  0
  149.5477  139.2139  157.9907 N   0  0  0  0  0  0  0  0  0  0  0  0
  149.2513  137.8888  157.9012 C   0  0  0  0  0  0  0  0  0  0  0  0
  149.4116  137.2434  156.7142 N   0  0  0  0  0  0  0  0  0  0  0  0
  149.1816  135.9313  156.6177 C   0  0  0  0  0  0  0  0  0  0  0  0
  148.7951  135.0810  157.5694 N   0  0  0  0  0  0  0  0  0  0  0  0
  148.6166  135.7211  158.7597 C   0  0  0  0  0  0  0  0  0  0  0  0
  148.8082  137.1099  159.0093 C   0  0  0  0  0  0  0  0  0  0  0  0
  148.5057  137.3930  160.3366 N   0  0  0  0  0  0  0  0  0  0  0  0
  148.1835  136.2368  160.8475 C   0  0  0  0  0  0  0  0  0  0  0  0
  148.2432  135.1746  159.9748 N   0  0  0  0  0  0  0  0  0  0  0  0
  147.9741  133.7793  160.2815 C   0  0  0  0  0  0  0  0  0  0  0  0
  146.5206  133.5293  160.7525 C   0  0  1  0  0  0  0  0  0  0  0  0
  145.6392  133.9050  159.7060 O   0  0  0  0  0  0  0  0  0  0  0  0
  146.2612  132.0687  161.0880 C   0  0  0  0  0  0  0  0  0  0  0  0
  145.0792  132.1538  162.0439 C   0  0  0  0  0  0  0  0  0  0  0  0
  145.3396  133.3139  162.8202 O   0  0  0  0  0  0  0  0  0  0  0  0
  146.1362  134.2361  162.0774 C   0  0  2  0  0  0  0  0  0  0  0  0
  145.4130  135.5905  161.9634 C   0  0  0  0  0  0  0  0  0  0  0  0
  153.7902  138.4107  153.9372 H   0  0  0  0  0  0  0  0  0  0  0  0
  152.0714  138.1217  154.1697 H   0  0  0  0  0  0  0  0  0  0  0  0
  153.1976  137.9196  155.5212 H   0  0  0  0  0  0  0  0  0  0  0  0
  151.8483  141.1909  156.2763 H   0  0  0  0  0  0  0  0  0  0  0  0
  150.8547  140.0207  155.4418 H   0  0  0  0  0  0  0  0  0  0  0  0
  151.7214  138.1636  156.7987 H   0  0  0  0  0  0  0  0  0  0  0  0
  152.9260  139.1947  157.5119 H   0  0  0  0  0  0  0  0  0  0  0  0
  151.2577  138.9656  159.1696 H   0  0  0  0  0  0  0  0  0  0  0  0
  150.4871  141.1909  159.6517 H   0  0  0  0  0  0  0  0  0  0  0  0
  152.0528  141.3350  158.8999 H   0  0  0  0  0  0  0  0  0  0  0  0
  148.5242  141.7683  158.4078 H   0  0  0  0  0  0  0  0  0  0  0  0
  148.6961  142.2591  156.7338 H   0  0  0  0  0  0  0  0  0  0  0  0
  147.8484  139.8953  156.9500 H   0  0  0  0  0  0  0  0  0  0  0  0
  149.3528  139.9842  156.0478 H   0  0  0  0  0  0  0  0  0  0  0  0
  149.3390  135.4994  155.6404 H   0  0  0  0  0  0  0  0  0  0  0  0
  147.9076  136.1230  161.8858 H   0  0  0  0  0  0  0  0  0  0  0  0
  148.1958  133.1827  159.3956 H   0  0  0  0  0  0  0  0  0  0  0  0
  148.6792  133.4578  161.0490 H   0  0  0  0  0  0  0  0  0  0  0  0
  144.8450  133.3995  159.7900 H   0  0  0  0  0  0  0  0  0  0  0  0
  146.0642  131.4447  160.2153 H   0  0  0  0  0  0  0  0  0  0  0  0
  147.1162  131.6430  161.6149 H   0  0  0  0  0  0  0  0  0  0  0  0
  144.1473  132.2938  161.4944 H   0  0  0  0  0  0  0  0  0  0  0  0
  144.9767  131.2668  162.6692 H   0  0  0  0  0  0  0  0  0  0  0  0
  147.0372  134.3783  162.6743 H   0  0  0  0  0  0  0  0  0  0  0  0
  145.9994  136.3111  161.3937 H   0  0  0  0  0  0  0  0  0  0  0  0
  145.2403  136.0179  162.9509 H   0  0  0  0  0  0  0  0  0  0  0  0
  144.4419  135.4890  161.4787 H   0  0  0  0  0  0  0  0  0  0  0  0
  1  2  1  0  0  0  0
  1 28  1  0  0  0  0
  1 29  1  0  0  0  0
  1 30  1  0  0  0  0
  2  3  1  0  0  0  0
  3  4  1  0  0  0  0
  3 31  1  0  0  0  0
  3 32  1  0  0  0  0
  4  5  1  0  0  0  0
  4 33  1  0  0  0  0
  4 34  1  0  0  0  0
  5 10  1  0  0  0  0
  5  6  1  0  0  0  0
  5 35  1  0  0  0  0
  6  7  1  0  0  0  0
  6 36  1  0  0  0  0
  6 37  1  0  0  0  0
  7  8  1  0  0  0  0
  8  9  1  0  0  0  0
  8 38  1  0  0  0  0
  8 39  1  0  0  0  0
  9 10  1  0  0  0  0
  9 40  1  0  0  0  0
  9 41  1  0  0  0  0
 10 11  1  0  0  0  0
 11 16  1  0  0  0  0
 11 12  2  0  0  0  0
 12 13  1  0  0  0  0
 13 14  2  0  0  0  0
 13 42  1  0  0  0  0
 14 15  1  0  0  0  0
 15 19  1  0  0  0  0
 15 16  2  0  0  0  0
 16 17  1  0  0  0  0
 17 18  2  0  0  0  0
 18 19  1  0  0  0  0
 18 43  1  0  0  0  0
 19 20  1  0  0  0  0
 20 21  1  0  0  0  0
 20 44  1  0  0  0  0
 20 45  1  0  0  0  0
 21 26  1  0  0  0  0
 21 22  1  0  0  0  0
 21 23  1  0  0  0  0
 22 46  1  0  0  0  0
 23 24  1  0  0  0  0
 23 47  1  0  0  0  0
 23 48  1  0  0  0  0
 24 25  1  0  0  0  0
 24 49  1  0  0  0  0
 24 50  1  0  0  0  0
 25 26  1  0  0  0  0
 26 27  1  0  0  0  0
 26 51  1  0  0  0  0
 27 52  1  0  0  0  0
 27 53  1  0  0  0  0
 27 54  1  0  0  0  0
M  END
> <s_m_source_file>
AV-unprocessed.smi

> <i_m_source_file_index>
197

> <i_lp_mmshare_version>
43012

> <i_f3d_flags>
0

> <s_epik_input>
W0NIM11PW0NIMl1bQ0gyXVtDQEBIXTFbQ0gyXU9bQ0gyXVtDSDJdTjFjKG5bY0hdbjIpYyhjMjMpbltjSF1uM1tDSDJdW0NAQF00KFtPSF0pW0NIMl1bQ0gyXU9bQ0BIXTRbQ0gzXQ==

> <s_epik_cmdline>
J2VwaWtfcHl0aG9uJywgJy1waCcsICc3LjAnLCAnLXRuJywgJzgnLCAnLW1hJywgJzIwMCcsICctbWV0YWxfYmluZGluZycsICctaW1hZScsICc8aW5maWxlLm1hZT4nLCAnLW9tYWUnLCAnPG91dGZpbGUubWFlPic=

> <r_lp_tautomer_probability>
1

> <r_epik_Ionization_Penalty>
0.000106218

> <r_epik_Ionization_Penalty_Charging>
0

> <r_epik_Ionization_Penalty_Neutral>
0.000106218

> <r_epik_State_Penalty>
-0

> <r_epik_Charging_Adjusted_Penalty>
0

> <i_epik_Tot_Q>
0

> <i_epik_Tot_abs_Q>
0

> <r_epik_Metal_State_Penalty>
-0

> <b_epik_Metal_Only>
0

> <s_lp_Force_Field>
OPLS_2005

> <r_lp_Energy>
41.5492

> <b_lp_Chiralities_Consistent>
1

> <s_lp_Variant>
AV-unprocessed.smi:197-6

> <Gold.Version>
5.8.1

> <Gold.Id.Protein>
6NUR|6NUR_protein|mol2

> <Gold.PLP.Fitness>
37.4313

> <Gold.PLP.PLP>
-31.4628

> <Gold.PLP.part.hbond>
-4.6431

> <Gold.PLP.part.metal>
0.0000

> <Gold.PLP.part.buried>
-2.6792

> <Gold.PLP.part.nonpolar>
-25.2005

> <Gold.PLP.part.repulsive>
0.1683

> <Gold.PLP.ligand.clash>
0.0000

> <Gold.PLP.ligand.torsion>
0.5626

> <Gold.PLP.Chemscore.Hbond>
2.1718

> <Gold.PLP.Chemscore.CHOScore>
0.0000

> <Gold.PLP.Chemscore.Metal>
0.0000

> <Gold.Chemscore.Hbonds>
donor molecule, donor type, donor heavy atom, donor atom, acceptor molecule, acceptor atom, score
      P1  H  6931  6943       L1    17  0.58
      P1  H  6934  6947       L1    17  0.32
      P1  H  7989  7998       L1     2  0.20
      P1  H  7997  8008       L1     2  1.00

> <Gold.PLP.Chemscore.Internal.Correction>
0.5784

> <Gold.Rescore>
     Score         DG    S(hbond)    S(metal)    S(lipo)     H(rot)  DE(clash)    DE(int)     intcor
      8.40     -10.70       1.10        0.00      75.14       2.84       0.14       2.16       ----

> <Gold.Chemscore.Fitness>
8.4031

> <Gold.Chemscore.DG>
-10.6976

> <Gold.Chemscore.ZeroCoef>
-5.4800

> <Gold.Chemscore.Hbond>
1.1037

> <Gold.Chemscore.Metal>
0.0000

> <Gold.Chemscore.Lipo>
75.1356

> <Gold.Chemscore.Internal_Hbond>
0.0000

> <Gold.Chemscore.DEClash>
0.1367

> <Gold.Chemscore.DEInternal>
2.1578

> <Gold.Chemscore.Rot>
2.8358

> <Gold.Chemscore.Internal.Correction>
   9.000000E+99

> <Gold.Chemscore.Hbonds>
donor molecule, donor type, donor heavy atom, donor atom, acceptor molecule, acceptor atom, score
      P1  H  6931  6943       L1    17  0.15
      P1  H  6934  6947       L1    17  0.29
      P1  H  7989  7998       L1     2  0.01
      P1  H  7997  8008       L1     2  0.20

> <Gold.Chemscore.Hbond.Weighted>
-3.6863

> <Gold.Chemscore.Metal.Weighted>
-0.0000

> <Gold.Chemscore.Lipo.Weighted>
-8.7909

> <Gold.Chemscore.Internal_Hbond.Weighted>
0.0000

> <Gold.Chemscore.DEClash.Weighted>
0.1367

> <Gold.Chemscore.DEInternal.Weighted>
2.1578

> <Gold.Chemscore.Rot.Weighted>
7.2596

> <Gold.Chemscore.Internal.Correction.Weighted>
   9.000000E+99

> <Gold.Protein.RotatedTorsions>
[ 6907 6896 6895 6894 ] final  174.25 input  -60.11 | X-H torsion
[ 7974 7965 7964 7962 ] final   29.36 input  175.53 | X-H torsion
[ 8008 7997 7996 7995 ] final    0.67 input   59.86 | X-H torsion
[ 10167 10162 10161 10158 ] final  -17.77 input  -65.29 | X-H torsion
[ 10718 10713 10712 10709 ] final   87.67 input   66.30 | X-H torsion
[ 10763 10752 10751 10750 ] final -171.57 input  -60.55 | X-H torsion
[ 11005 11000 10999 10996 ] final   42.79 input  -57.11 | X-H torsion

> <Gold.Protein.ActiveResidues>
 VAL166  LYS551  ARG553  GLY616  TRP617  ASP618  TYR619  PRO620  LYS621  CYS622 
 ASP623  PHE694  ASN695  SER759  ASP760  ASP761  ALA762  ILE779  LEU786  VAL792 
 PHE793  MET794  SER795  GLU796  ALA797  LYS798  CYS799  TRP800  GLU811  SER814 

> <Gold.Protein.RotatedAtoms>
  151.7552  133.3330  159.3402 H   0  0  0  0  0  0  0  0  0  0  0  0  # atno 6907 bound_to 6896
  150.7519  134.6156  159.6118 H   0  0  0  0  0  0  0  0  0  0  0  0  # atno 6908 bound_to 6896
  152.3442  134.7096  160.0307 H   0  0  0  0  0  0  0  0  0  0  0  0  # atno 6909 bound_to 6896
  146.1676  139.6932  142.8990 H   0  0  0  0  0  0  0  0  0  0  0  0  # atno 7974 bound_to 7965
  154.6708  140.2611  155.7009 H   0  0  0  0  0  0  0  0  0  0  0  0  # atno 8008 bound_to 7997
  156.2658  140.2830  156.1138 H   0  0  0  0  0  0  0  0  0  0  0  0  # atno 8009 bound_to 7997
  155.1172  140.0376  157.2730 H   0  0  0  0  0  0  0  0  0  0  0  0  # atno 8010 bound_to 7997
  140.7251  143.4982  150.9903 H   0  0  0  0  0  0  0  0  0  0  0  0  # atno 10167 bound_to 10162
  157.6942  131.0264  150.3158 H   0  0  0  0  0  0  0  0  0  0  0  0  # atno 10718 bound_to 10713
  154.6290  135.2884  155.0239 H   0  0  0  0  0  0  0  0  0  0  0  0  # atno 10763 bound_to 10752
  154.1406  135.6519  153.4945 H   0  0  0  0  0  0  0  0  0  0  0  0  # atno 10764 bound_to 10752
  153.0271  135.5332  154.7110 H   0  0  0  0  0  0  0  0  0  0  0  0  # atno 10765 bound_to 10752
  140.1705  134.4227  155.8260 H   0  0  0  0  0  0  0  0  0  0  0  0  # atno 11005 bound_to 11000
  145.4426  141.0423  143.2849 LP  0  0  0  0  0  0  0  0  0  0  0  0  # atno 17320 bound_to 7965
  144.8115  139.5954  143.7027 LP  0  0  0  0  0  0  0  0  0  0  0  0  # atno 17321 bound_to 7965
  139.8690  143.7216  152.3168 LP  0  0  0  0  0  0  0  0  0  0  0  0  # atno 17342 bound_to 10162
  139.7459  144.7547  151.0581 LP  0  0  0  0  0  0  0  0  0  0  0  0  # atno 17343 bound_to 10162
  156.3652  130.3854  149.7219 LP  0  0  0  0  0  0  0  0  0  0  0  0  # atno 17370 bound_to 10713
  156.4652  130.7970  151.2990 LP  0  0  0  0  0  0  0  0  0  0  0  0  # atno 17371 bound_to 10713
  141.2217  133.6954  156.7756 LP  0  0  0  0  0  0  0  0  0  0  0  0  # atno 17394 bound_to 11000
  140.2382  134.8633  157.3547 LP  0  0  0  0  0  0  0  0  0  0  0  0  # atno 17395 bound_to 11000

$$$$
