AV-unprocessed.smi:1759|AV-procd|sdf|7088|dock9
  -GOLD-   22720 8303D 1   1.00000     0.00000
 Structure written by MMmdl.
 31 32  0  0  0  0  0  0  0  0  1 V2000
  153.7996  142.7029  163.0463 C   0  0  0  0  0  0  0  0  0  0  0  0
  152.9669  142.6114  161.8142 C   0  0  0  0  0  0  0  0  0  0  0  0
  152.9866  141.7691  160.7383 C   0  0  0  0  0  0  0  0  0  0  0  0
  151.9186  142.2510  159.9357 C   0  0  0  0  0  0  0  0  0  0  0  0
  151.6046  141.6360  158.6972 N   0  0  0  0  0  0  0  0  0  0  0  0
  152.3127  140.6978  158.0462 C   0  0  0  0  0  0  0  0  0  0  0  0
  153.3886  140.2320  158.4228 O   0  0  0  0  0  0  0  0  0  0  0  0
  151.7012  140.3253  156.9129 N   0  0  0  0  0  0  0  0  0  0  0  0
  152.2227  139.3468  155.9658 C   0  0  0  0  0  0  0  0  0  0  0  0
  151.1635  138.9571  154.9220 C   0  0  1  0  0  0  0  0  0  0  0  0
  150.1093  137.9864  155.4521 C   0  0  0  0  0  0  0  0  0  0  0  0
  148.9288  138.2973  154.5614 C   0  0  0  0  0  0  0  0  0  0  0  0
  149.0403  139.8117  154.4247 C   0  0  0  0  0  0  0  0  0  0  0  0
  150.4325  140.1070  154.4983 O   0  0  0  0  0  0  0  0  0  0  0  0
  151.3019  143.2923  160.4734 N   0  0  0  0  0  0  0  0  0  0  0  0
  151.9707  143.5286  161.6803 O   0  0  0  0  0  0  0  0  0  0  0  0
  154.5640  141.9258  163.0587 H   0  0  0  0  0  0  0  0  0  0  0  0
  153.1837  142.5862  163.9380 H   0  0  0  0  0  0  0  0  0  0  0  0
  154.2990  143.6700  163.1032 H   0  0  0  0  0  0  0  0  0  0  0  0
  153.6584  140.9433  160.5568 H   0  0  0  0  0  0  0  0  0  0  0  0
  150.7449  141.9379  158.2636 H   0  0  0  0  0  0  0  0  0  0  0  0
  150.8226  140.7627  156.6765 H   0  0  0  0  0  0  0  0  0  0  0  0
  153.1126  139.7418  155.4725 H   0  0  0  0  0  0  0  0  0  0  0  0
  152.5437  138.4654  156.5216 H   0  0  0  0  0  0  0  0  0  0  0  0
  151.6352  138.5170  154.0417 H   0  0  0  0  0  0  0  0  0  0  0  0
  150.4260  136.9447  155.3960 H   0  0  0  0  0  0  0  0  0  0  0  0
  149.8615  138.2135  156.4903 H   0  0  0  0  0  0  0  0  0  0  0  0
  149.0558  137.8200  153.5887 H   0  0  0  0  0  0  0  0  0  0  0  0
  147.9756  137.9750  154.9813 H   0  0  0  0  0  0  0  0  0  0  0  0
  148.6009  140.1808  153.4977 H   0  0  0  0  0  0  0  0  0  0  0  0
  148.5387  140.3058  155.2577 H   0  0  0  0  0  0  0  0  0  0  0  0
  1  2  1  0  0  0  0
  1 17  1  0  0  0  0
  1 18  1  0  0  0  0
  1 19  1  0  0  0  0
  2 16  1  0  0  0  0
  2  3  2  0  0  0  0
  3  4  1  0  0  0  0
  3 20  1  0  0  0  0
  4  5  1  0  0  0  0
  4 15  2  0  0  0  0
  5  6  1  0  0  0  0
  5 21  1  0  0  0  0
  6  7  2  0  0  0  0
  6  8  1  0  0  0  0
  8  9  1  0  0  0  0
  8 22  1  0  0  0  0
  9 10  1  0  0  0  0
  9 23  1  0  0  0  0
  9 24  1  0  0  0  0
 10 14  1  0  0  0  0
 10 11  1  0  0  0  0
 10 25  1  0  0  0  0
 11 12  1  0  0  0  0
 11 26  1  0  0  0  0
 11 27  1  0  0  0  0
 12 13  1  0  0  0  0
 12 28  1  0  0  0  0
 12 29  1  0  0  0  0
 13 14  1  0  0  0  0
 13 30  1  0  0  0  0
 13 31  1  0  0  0  0
 15 16  1  0  0  0  0
M  END
> <s_m_source_file>
AV-unprocessed.smi

> <i_m_source_file_index>
1759

> <i_lp_mmshare_version>
43012

> <i_f3d_flags>
0

> <s_epik_input>
W0NIM11jMVtjSF1jKG5vMSlbTkhdQyg9TylbTkhdW0NIMl1bQ0BASF0yW0NIMl1bQ0gyXVtDSDJdTzI=

> <s_epik_cmdline>
J2VwaWtfcHl0aG9uJywgJy1waCcsICc3LjAnLCAnLXRuJywgJzgnLCAnLW1hJywgJzIwMCcsICctbWV0YWxfYmluZGluZycsICctaW1hZScsICc8aW5maWxlLm1hZT4nLCAnLW9tYWUnLCAnPG91dGZpbGUubWFlPic=

> <r_lp_tautomer_probability>
1

> <r_epik_Ionization_Penalty>
2.1743e-05

> <r_epik_Ionization_Penalty_Charging>
0

> <r_epik_Ionization_Penalty_Neutral>
2.1743e-05

> <r_epik_State_Penalty>
-0

> <r_epik_Charging_Adjusted_Penalty>
0

> <i_epik_Tot_Q>
0

> <i_epik_Tot_abs_Q>
0

> <r_epik_Metal_State_Penalty>
-0

> <b_epik_Metal_Only>
0

> <s_lp_Force_Field>
OPLS_2005

> <r_lp_Energy>
14.348

> <b_lp_Chiralities_Consistent>
1

> <s_lp_Variant>
AV-unprocessed.smi:1759-2

> <Gold.Version>
5.8.1

> <Gold.Id.Protein>
6NUR|6NUR_protein|mol2

> <Gold.PLP.Fitness>
36.8934

> <Gold.PLP.PLP>
-31.3759

> <Gold.PLP.part.hbond>
-2.2849

> <Gold.PLP.part.metal>
0.0000

> <Gold.PLP.part.buried>
-3.9817

> <Gold.PLP.part.nonpolar>
-24.9844

> <Gold.PLP.part.repulsive>
0.5492

> <Gold.PLP.ligand.clash>
0.0000

> <Gold.PLP.ligand.torsion>
0.2300

> <Gold.PLP.Chemscore.Hbond>
1.9920

> <Gold.PLP.Chemscore.CHOScore>
0.0000

> <Gold.PLP.Chemscore.Metal>
0.0000

> <Gold.Chemscore.Hbonds>
donor molecule, donor type, donor heavy atom, donor atom, acceptor molecule, acceptor atom, score
      P1  H  7989  7998       L1    14  1.00
      P1  H  7997  8010       L1     7  0.93

> <Gold.PLP.Chemscore.Internal.Correction>
0.0015

> <Gold.Rescore>
     Score         DG    S(hbond)    S(metal)    S(lipo)     H(rot)  DE(clash)    DE(int)     intcor
     13.37     -15.30       1.70        0.00      63.74       1.30       0.28       1.65       ----

> <Gold.Chemscore.Fitness>
13.3692

> <Gold.Chemscore.DG>
-15.2960

> <Gold.Chemscore.ZeroCoef>
-5.4800

> <Gold.Chemscore.Hbond>
1.6999

> <Gold.Chemscore.Metal>
0.0000

> <Gold.Chemscore.Lipo>
63.7400

> <Gold.Chemscore.Internal_Hbond>
0.0000

> <Gold.Chemscore.DEClash>
0.2774

> <Gold.Chemscore.DEInternal>
1.6494

> <Gold.Chemscore.Rot>
1.2965

> <Gold.Chemscore.Internal.Correction>
   9.000000E+99

> <Gold.Chemscore.Hbonds>
donor molecule, donor type, donor heavy atom, donor atom, acceptor molecule, acceptor atom, score
      P1  H  7989  7998       L1    14  0.25
      P1  H  7997  8010       L1     7  0.81

> <Gold.Chemscore.Hbond.Weighted>
-5.6775

> <Gold.Chemscore.Metal.Weighted>
-0.0000

> <Gold.Chemscore.Lipo.Weighted>
-7.4576

> <Gold.Chemscore.Internal_Hbond.Weighted>
0.0000

> <Gold.Chemscore.DEClash.Weighted>
0.2774

> <Gold.Chemscore.DEInternal.Weighted>
1.6494

> <Gold.Chemscore.Rot.Weighted>
3.3192

> <Gold.Chemscore.Internal.Correction.Weighted>
   9.000000E+99

> <Gold.Protein.RotatedTorsions>
[ 6907 6896 6895 6894 ] final  -71.08 input  -60.11 | X-H torsion
[ 7974 7965 7964 7962 ] final -105.18 input  175.53 | X-H torsion
[ 8008 7997 7996 7995 ] final   28.06 input   59.86 | X-H torsion
[ 10167 10162 10161 10158 ] final  -39.82 input  -65.29 | X-H torsion
[ 10718 10713 10712 10709 ] final  161.02 input   66.30 | X-H torsion
[ 10763 10752 10751 10750 ] final -174.88 input  -60.55 | X-H torsion
[ 11005 11000 10999 10996 ] final -149.06 input  -57.11 | X-H torsion

> <Gold.Protein.ActiveResidues>
 VAL166  LYS551  ARG553  GLY616  TRP617  ASP618  TYR619  PRO620  LYS621  CYS622 
 ASP623  PHE694  ASN695  SER759  ASP760  ASP761  ALA762  ILE779  LEU786  VAL792 
 PHE793  MET794  SER795  GLU796  ALA797  LYS798  CYS799  TRP800  GLU811  SER814 

> <Gold.Protein.RotatedAtoms>
  150.7228  134.5360  159.5723 H   0  0  0  0  0  0  0  0  0  0  0  0  # atno 6907 bound_to 6896
  152.2882  134.7748  160.0392 H   0  0  0  0  0  0  0  0  0  0  0  0  # atno 6908 bound_to 6896
  151.8371  133.3382  159.3668 H   0  0  0  0  0  0  0  0  0  0  0  0  # atno 6909 bound_to 6896
  145.2337  140.9180  143.3189 H   0  0  0  0  0  0  0  0  0  0  0  0  # atno 7974 bound_to 7965
  155.0528  140.3181  155.4686 H   0  0  0  0  0  0  0  0  0  0  0  0  # atno 8008 bound_to 7997
  156.2831  140.2143  156.5598 H   0  0  0  0  0  0  0  0  0  0  0  0  # atno 8009 bound_to 7997
  154.7196  140.0490  157.0615 H   0  0  0  0  0  0  0  0  0  0  0  0  # atno 8010 bound_to 7997
  140.7053  143.3190  151.2837 H   0  0  0  0  0  0  0  0  0  0  0  0  # atno 10167 bound_to 10162
  157.1423  131.0543  151.2320 H   0  0  0  0  0  0  0  0  0  0  0  0  # atno 10718 bound_to 10713
  154.5910  135.2845  155.0635 H   0  0  0  0  0  0  0  0  0  0  0  0  # atno 10763 bound_to 10752
  154.1935  135.6436  153.5070 H   0  0  0  0  0  0  0  0  0  0  0  0  # atno 10764 bound_to 10752
  153.0121  135.5452  154.6596 H   0  0  0  0  0  0  0  0  0  0  0  0  # atno 10765 bound_to 10752
  140.7548  134.3366  157.5117 H   0  0  0  0  0  0  0  0  0  0  0  0  # atno 11005 bound_to 11000
  144.9652  139.3937  143.6336 LP  0  0  0  0  0  0  0  0  0  0  0  0  # atno 17320 bound_to 7965
  146.3346  139.8724  142.8838 LP  0  0  0  0  0  0  0  0  0  0  0  0  # atno 17321 bound_to 7965
  139.6639  144.0141  152.2710 LP  0  0  0  0  0  0  0  0  0  0  0  0  # atno 17342 bound_to 10162
  139.9717  144.6489  150.7983 LP  0  0  0  0  0  0  0  0  0  0  0  0  # atno 17343 bound_to 10162
  157.4295  130.7483  149.6979 LP  0  0  0  0  0  0  0  0  0  0  0  0  # atno 17370 bound_to 10713
  155.9786  130.4049  150.3638 LP  0  0  0  0  0  0  0  0  0  0  0  0  # atno 17371 bound_to 10713
  139.8781  134.9164  156.3155 LP  0  0  0  0  0  0  0  0  0  0  0  0  # atno 17394 bound_to 11000
  140.9718  133.7322  156.0545 LP  0  0  0  0  0  0  0  0  0  0  0  0  # atno 17395 bound_to 11000

$$$$
