AV-unprocessed.smi:123|AV-procd|sdf|1143|dock1
  -GOLD-   2262018273D 1   1.00000     0.00000
 Structure written by MMmdl.
 43 45  0  0  0  0  0  0  0  0  1 V2000
  147.0021  133.9464  153.4198 C   0  0  0  0  0  0  0  0  0  0  0  0
  145.4736  134.0908  153.3034 C   0  0  2  0  0  0  0  0  0  0  0  0
  144.8250  133.9115  154.6034 N   0  0  0  0  0  0  0  0  0  0  0  0
  145.2340  134.4094  155.7827 C   0  0  0  0  0  0  0  0  0  0  0  0
  146.2523  135.0900  155.9150 O   0  0  0  0  0  0  0  0  0  0  0  0
  144.3492  134.0703  156.9919 C   0  0  0  0  0  0  0  0  0  0  0  0
  144.5211  135.0064  158.1247 N   0  0  0  0  0  0  0  0  0  0  0  0
  143.4162  135.8051  158.5132 C   0  0  0  0  0  0  0  0  0  0  0  0
  142.3326  135.7214  157.9328 O   0  0  0  0  0  0  0  0  0  0  0  0
  143.6573  136.7167  159.6259 C   0  0  0  0  0  0  0  0  0  0  0  0
  142.6621  137.5021  160.0715 F   0  0  0  0  0  0  0  0  0  0  0  0
  144.8672  136.7831  160.2176 C   0  0  0  0  0  0  0  0  0  0  0  0
  145.9408  136.0112  159.8167 N   0  0  0  0  0  0  0  0  0  0  0  0
  147.2737  136.1368  160.5156 C   0  0  2  0  0  0  0  0  0  0  0  0
  147.6435  134.8190  161.2093 C   0  0  0  0  0  0  0  0  0  0  0  0
  147.3678  135.1293  162.6663 C   0  0  0  0  0  0  0  0  0  0  0  0
  147.6641  136.6222  162.7284 C   0  0  0  0  0  0  0  0  0  0  0  0
  147.1684  137.1283  161.4954 O   0  0  0  0  0  0  0  0  0  0  0  0
  145.7860  135.0928  158.7551 C   0  0  0  0  0  0  0  0  0  0  0  0
  146.7252  134.3833  158.3889 O   0  0  0  0  0  0  0  0  0  0  0  0
  144.8643  133.2333  152.2325 C   0  0  0  0  0  0  0  0  0  0  0  0
  145.3521  132.2620  151.4003 C   0  0  0  0  0  0  0  0  0  0  0  0
  144.2592  131.8285  150.6006 C   0  0  0  0  0  0  0  0  0  0  0  0
  143.1849  132.5720  150.9973 C   0  0  0  0  0  0  0  0  0  0  0  0
  143.5371  133.4348  151.9885 O   0  0  0  0  0  0  0  0  0  0  0  0
  147.4920  134.2186  152.4846 H   0  0  0  0  0  0  0  0  0  0  0  0
  147.2961  132.9239  153.6590 H   0  0  0  0  0  0  0  0  0  0  0  0
  147.3997  134.5977  154.1988 H   0  0  0  0  0  0  0  0  0  0  0  0
  145.2781  135.1283  153.0307 H   0  0  0  0  0  0  0  0  0  0  0  0
  143.9794  133.3600  154.6039 H   0  0  0  0  0  0  0  0  0  0  0  0
  143.3065  134.0459  156.6705 H   0  0  0  0  0  0  0  0  0  0  0  0
  144.5572  133.0412  157.2880 H   0  0  0  0  0  0  0  0  0  0  0  0
  144.9944  137.4729  161.0385 H   0  0  0  0  0  0  0  0  0  0  0  0
  148.0061  136.4523  159.7719 H   0  0  0  0  0  0  0  0  0  0  0  0
  147.0749  133.9719  160.8226 H   0  0  0  0  0  0  0  0  0  0  0  0
  148.7063  134.6318  161.0521 H   0  0  0  0  0  0  0  0  0  0  0  0
  146.3197  134.9415  162.9020 H   0  0  0  0  0  0  0  0  0  0  0  0
  147.9815  134.5444  163.3516 H   0  0  0  0  0  0  0  0  0  0  0  0
  147.1941  137.1121  163.5814 H   0  0  0  0  0  0  0  0  0  0  0  0
  148.7396  136.7977  162.7810 H   0  0  0  0  0  0  0  0  0  0  0  0
  146.3701  131.9030  151.3737 H   0  0  0  0  0  0  0  0  0  0  0  0
  144.2587  131.0696  149.8322 H   0  0  0  0  0  0  0  0  0  0  0  0
  142.1489  132.6141  150.6951 H   0  0  0  0  0  0  0  0  0  0  0  0
  1  2  1  0  0  0  0
  1 26  1  0  0  0  0
  1 27  1  0  0  0  0
  1 28  1  0  0  0  0
  2  3  1  0  0  0  0
  2 21  1  0  0  0  0
  2 29  1  0  0  0  0
  3  4  1  0  0  0  0
  3 30  1  0  0  0  0
  4  5  2  0  0  0  0
  4  6  1  0  0  0  0
  6  7  1  0  0  0  0
  6 31  1  0  0  0  0
  6 32  1  0  0  0  0
  7 19  1  0  0  0  0
  7  8  1  0  0  0  0
  8  9  2  0  0  0  0
  8 10  1  0  0  0  0
 10 11  1  0  0  0  0
 10 12  2  0  0  0  0
 12 13  1  0  0  0  0
 12 33  1  0  0  0  0
 13 14  1  0  0  0  0
 13 19  1  0  0  0  0
 14 18  1  0  0  0  0
 14 15  1  0  0  0  0
 14 34  1  0  0  0  0
 15 16  1  0  0  0  0
 15 35  1  0  0  0  0
 15 36  1  0  0  0  0
 16 17  1  0  0  0  0
 16 37  1  0  0  0  0
 16 38  1  0  0  0  0
 17 18  1  0  0  0  0
 17 39  1  0  0  0  0
 17 40  1  0  0  0  0
 19 20  2  0  0  0  0
 21 25  1  0  0  0  0
 21 22  2  0  0  0  0
 22 23  1  0  0  0  0
 22 41  1  0  0  0  0
 23 24  2  0  0  0  0
 23 42  1  0  0  0  0
 24 25  1  0  0  0  0
 24 43  1  0  0  0  0
M  END
> <s_m_source_file>
AV-unprocessed.smi

> <i_m_source_file_index>
123

> <i_lp_mmshare_version>
43012

> <i_f3d_flags>
0

> <s_epik_input>
bzFbY0hdW2NIXVtjSF1jMVtDQEhdKFtDSDNdKVtOSF1DKD1PKVtDSDJdbjJjKD1PKWMoRilbY0hdbihjMj1PKVtDQEBIXTNbQ0gyXVtDSDJdW0NIMl1PMw==

> <s_epik_cmdline>
J2VwaWtfcHl0aG9uJywgJy1waCcsICc3LjAnLCAnLXRuJywgJzgnLCAnLW1hJywgJzIwMCcsICctbWV0YWxfYmluZGluZycsICctaW1hZScsICc8aW5maWxlLm1hZT4nLCAnLW9tYWUnLCAnPG91dGZpbGUubWFlPic=

> <r_lp_tautomer_probability>
1

> <r_epik_Ionization_Penalty>
2.31906e-08

> <r_epik_Ionization_Penalty_Charging>
3.85846e-09

> <r_epik_Ionization_Penalty_Neutral>
1.93321e-08

> <r_epik_State_Penalty>
-0

> <r_epik_Charging_Adjusted_Penalty>
3.85846e-09

> <i_epik_Tot_Q>
0

> <i_epik_Tot_abs_Q>
0

> <r_epik_Metal_State_Penalty>
-0

> <b_epik_Metal_Only>
0

> <s_epik_Chemistry_Notes>
This compound contains an acetal/aminal-like group ( X-CH(R)-Y where X, Y are N, S, or O) that may be acid/base labile, releasing an aldehyde.

> <s_lp_Force_Field>
OPLS_2005

> <r_lp_Energy>
21.3093

> <b_lp_Chiralities_Consistent>
1

> <s_lp_Variant>
AV-unprocessed.smi:123-1

> <Gold.Version>
5.8.1

> <Gold.Id.Protein>
6NUR|6NUR_protein|mol2

> <Gold.PLP.Fitness>
42.0295

> <Gold.PLP.PLP>
-30.9809

> <Gold.PLP.part.hbond>
-3.6717

> <Gold.PLP.part.metal>
0.0000

> <Gold.PLP.part.buried>
-5.3157

> <Gold.PLP.part.nonpolar>
-22.7100

> <Gold.PLP.part.repulsive>
0.1903

> <Gold.PLP.ligand.clash>
0.0000

> <Gold.PLP.ligand.torsion>
0.5326

> <Gold.PLP.Chemscore.Hbond>
2.6720

> <Gold.PLP.Chemscore.CHOScore>
1.3022

> <Gold.PLP.Chemscore.Metal>
0.0000

> <Gold.Chemscore.Hbonds>
donor molecule, donor type, donor heavy atom, donor atom, acceptor molecule, acceptor atom, score
      L1  H     3    30       P1 10957  0.89
      P1  H  6934  6947       L1    18  0.99
      P1  H 11000 11005       L1     9  0.57
      L1  C    24    43       P1 10186  0.97
      L1  C    24    43       P1 10952  0.19

> <Gold.PLP.Chemscore.Internal.Correction>
0.1912

> <Gold.Rescore>
     Score         DG    S(hbond)    S(metal)    S(lipo)     H(rot)  DE(clash)    DE(int)     intcor
     14.59     -16.52       2.60        0.00      69.08       2.23       0.05       1.89       ----

> <Gold.Chemscore.Fitness>
14.5853

> <Gold.Chemscore.DG>
-16.5226

> <Gold.Chemscore.ZeroCoef>
-5.4800

> <Gold.Chemscore.Hbond>
2.5992

> <Gold.Chemscore.Metal>
0.0000

> <Gold.Chemscore.Lipo>
69.0765

> <Gold.Chemscore.Internal_Hbond>
0.0000

> <Gold.Chemscore.DEClash>
0.0474

> <Gold.Chemscore.DEInternal>
1.8899

> <Gold.Chemscore.Rot>
2.2347

> <Gold.Chemscore.Internal.Correction>
   9.000000E+99

> <Gold.Chemscore.Hbonds>
donor molecule, donor type, donor heavy atom, donor atom, acceptor molecule, acceptor atom, score
      L1  H     3    30       P1 10957  0.87
      P1  H  6934  6947       L1    18  0.89
      P1  H 11000 11005       L1     9  0.56

> <Gold.Chemscore.Hbond.Weighted>
-8.6815

> <Gold.Chemscore.Metal.Weighted>
-0.0000

> <Gold.Chemscore.Lipo.Weighted>
-8.0819

> <Gold.Chemscore.Internal_Hbond.Weighted>
0.0000

> <Gold.Chemscore.DEClash.Weighted>
0.0474

> <Gold.Chemscore.DEInternal.Weighted>
1.8899

> <Gold.Chemscore.Rot.Weighted>
5.7208

> <Gold.Chemscore.Internal.Correction.Weighted>
   9.000000E+99

> <Gold.Protein.RotatedTorsions>
[ 6907 6896 6895 6894 ] final  -57.33 input  -60.11 | X-H torsion
[ 7974 7965 7964 7962 ] final  127.97 input  175.53 | X-H torsion
[ 8008 7997 7996 7995 ] final   -5.45 input   59.86 | X-H torsion
[ 10167 10162 10161 10158 ] final  -59.77 input  -65.29 | X-H torsion
[ 10718 10713 10712 10709 ] final -158.47 input   66.30 | X-H torsion
[ 10763 10752 10751 10750 ] final -153.62 input  -60.55 | X-H torsion
[ 11005 11000 10999 10996 ] final -150.23 input  -57.11 | X-H torsion

> <Gold.Protein.ActiveResidues>
 VAL166  LYS551  ARG553  GLY616  TRP617  ASP618  TYR619  PRO620  LYS621  CYS622 
 ASP623  PHE694  ASN695  SER759  ASP760  ASP761  ALA762  ILE779  LEU786  VAL792 
 PHE793  MET794  SER795  GLU796  ALA797  LYS798  CYS799  TRP800  GLU811  SER814 

> <Gold.Protein.RotatedAtoms>
  150.8094  134.7240  159.6674 H   0  0  0  0  0  0  0  0  0  0  0  0  # atno 6907 bound_to 6896
  152.4214  134.5944  159.9993 H   0  0  0  0  0  0  0  0  0  0  0  0  # atno 6908 bound_to 6896
  151.6159  133.3306  159.3113 H   0  0  0  0  0  0  0  0  0  0  0  0  # atno 6909 bound_to 6896
  145.0447  139.3933  143.5084 H   0  0  0  0  0  0  0  0  0  0  0  0  # atno 7974 bound_to 7965
  154.6038  140.2458  155.7757 H   0  0  0  0  0  0  0  0  0  0  0  0  # atno 8008 bound_to 7997
  156.2328  140.2960  156.0185 H   0  0  0  0  0  0  0  0  0  0  0  0  # atno 8009 bound_to 7997
  155.2166  140.0399  157.2932 H   0  0  0  0  0  0  0  0  0  0  0  0  # atno 8010 bound_to 7997
  140.6114  143.2388  151.5700 H   0  0  0  0  0  0  0  0  0  0  0  0  # atno 10167 bound_to 10162
  156.5546  130.8620  151.2790 H   0  0  0  0  0  0  0  0  0  0  0  0  # atno 10718 bound_to 10713
  154.7915  135.3208  154.7766 H   0  0  0  0  0  0  0  0  0  0  0  0  # atno 10763 bound_to 10752
  153.8454  135.6867  153.4802 H   0  0  0  0  0  0  0  0  0  0  0  0  # atno 10764 bound_to 10752
  153.1587  135.4669  154.9682 H   0  0  0  0  0  0  0  0  0  0  0  0  # atno 10765 bound_to 10752
  140.7424  134.3499  157.5144 H   0  0  0  0  0  0  0  0  0  0  0  0  # atno 11005 bound_to 11000
  146.3513  140.0066  142.8671 LP  0  0  0  0  0  0  0  0  0  0  0  0  # atno 17320 bound_to 7965
  145.1603  140.9669  143.4381 LP  0  0  0  0  0  0  0  0  0  0  0  0  # atno 17321 bound_to 7965
  139.5364  144.2768  152.1260 LP  0  0  0  0  0  0  0  0  0  0  0  0  # atno 17342 bound_to 10162
  140.1969  144.4697  150.6451 LP  0  0  0  0  0  0  0  0  0  0  0  0  # atno 17343 bound_to 10162
  157.7381  130.9807  150.2231 LP  0  0  0  0  0  0  0  0  0  0  0  0  # atno 17370 bound_to 10713
  156.2854  130.3738  149.7894 LP  0  0  0  0  0  0  0  0  0  0  0  0  # atno 17371 bound_to 10713
  139.8803  134.9089  156.2979 LP  0  0  0  0  0  0  0  0  0  0  0  0  # atno 17394 bound_to 11000
  140.9825  133.7258  156.0693 LP  0  0  0  0  0  0  0  0  0  0  0  0  # atno 17395 bound_to 11000

$$$$
