AV-unprocessed.smi:2021|AV-procd|sdf|8182|dock5
  -GOLD-   2272010433D 1   1.00000     0.00000
 Structure written by MMmdl.
 41 42  0  0  0  0  0  0  0  0  3 V2000
  146.0055  129.9406  151.6975 C   0  0  0  0  0  0  0  0  0  0  0  0
  145.2863  131.2973  151.6546 C   0  0  0  0  0  0  0  0  0  0  0  0
  145.3561  131.8956  150.2396 C   0  0  0  0  0  0  0  0  0  0  0  0
  145.8706  132.2535  152.7173 C   0  0  0  0  0  0  0  0  0  0  0  0
  144.8951  133.2763  153.1841 N   0  3  2  0  0  0  0  0  0  0  0  0
  144.2342  134.0128  152.0792 C   0  0  0  0  0  0  0  0  0  0  0  0
  145.1600  135.0991  151.5046 C   0  0  0  0  0  0  0  0  0  0  0  0
  145.5521  135.9756  152.5513 O   0  0  0  0  0  0  0  0  0  0  0  0
  146.3063  135.3179  153.5650 C   0  0  1  0  0  0  0  0  0  0  0  0
  146.7593  136.3573  154.6049 C   0  0  0  0  0  0  0  0  0  0  0  0
  147.8932  137.1387  154.1226 N   0  0  0  0  0  0  0  0  0  0  0  0
  148.4362  138.1995  154.7360 C   0  0  0  0  0  0  0  0  0  0  0  0
  147.9894  138.5807  155.8203 O   0  0  0  0  0  0  0  0  0  0  0  0
  149.4620  138.7548  154.0526 N   0  5  0  0  0  0  0  0  0  0  0  0
  150.7124  138.6737  154.5372 C   0  0  0  0  0  0  0  0  0  0  0  0
  151.5024  139.7513  154.6689 N   0  0  0  0  0  0  0  0  0  0  0  0
  152.7542  139.4505  155.1889 N   0  0  0  0  0  0  0  0  0  0  0  0
  152.8795  138.1455  155.4294 C   0  0  0  0  0  0  0  0  0  0  0  0
  151.4831  137.1650  155.0358 S   0  0  0  0  0  0  0  0  0  0  0  0
  145.4185  134.2253  154.2012 C   0  0  0  0  0  0  0  0  0  0  0  0
  147.0661  130.0452  151.4654 H   0  0  0  0  0  0  0  0  0  0  0  0
  145.5755  129.2438  150.9773 H   0  0  0  0  0  0  0  0  0  0  0  0
  145.9242  129.4827  152.6838 H   0  0  0  0  0  0  0  0  0  0  0  0
  144.2394  131.1017  151.8838 H   0  0  0  0  0  0  0  0  0  0  0  0
  146.3851  132.1104  149.9491 H   0  0  0  0  0  0  0  0  0  0  0  0
  144.7887  132.8237  150.1680 H   0  0  0  0  0  0  0  0  0  0  0  0
  144.9410  131.2068  149.5029 H   0  0  0  0  0  0  0  0  0  0  0  0
  146.2536  131.6881  153.5668 H   0  0  0  0  0  0  0  0  0  0  0  0
  146.7349  132.7551  152.2795 H   0  0  0  0  0  0  0  0  0  0  0  0
  143.9048  133.3275  151.2976 H   0  0  0  0  0  0  0  0  0  0  0  0
  143.3318  134.4829  152.4725 H   0  0  0  0  0  0  0  0  0  0  0  0
  146.0371  134.6637  151.0237 H   0  0  0  0  0  0  0  0  0  0  0  0
  144.6344  135.6753  150.7430 H   0  0  0  0  0  0  0  0  0  0  0  0
  147.1947  134.8667  153.1209 H   0  0  0  0  0  0  0  0  0  0  0  0
  145.9306  137.0055  154.8947 H   0  0  0  0  0  0  0  0  0  0  0  0
  147.0822  135.8492  155.5137 H   0  0  0  0  0  0  0  0  0  0  0  0
  148.2964  136.8619  153.2395 H   0  0  0  0  0  0  0  0  0  0  0  0
  153.8010  137.7573  155.8365 H   0  0  0  0  0  0  0  0  0  0  0  0
  144.5638  134.6968  154.6882 H   0  0  0  0  0  0  0  0  0  0  0  0
  145.9593  133.7006  154.9874 H   0  0  0  0  0  0  0  0  0  0  0  0
  144.1623  132.7474  153.6355 H   0  0  0  0  0  0  0  0  0  0  0  0
  1  2  1  0  0  0  0
  1 21  1  0  0  0  0
  1 22  1  0  0  0  0
  1 23  1  0  0  0  0
  2  3  1  0  0  0  0
  2  4  1  0  0  0  0
  2 24  1  0  0  0  0
  3 25  1  0  0  0  0
  3 26  1  0  0  0  0
  3 27  1  0  0  0  0
  4  5  1  0  0  0  0
  4 28  1  0  0  0  0
  4 29  1  0  0  0  0
  5 20  1  0  0  0  0
  5  6  1  0  0  0  0
  5 41  1  0  0  0  0
  6  7  1  0  0  0  0
  6 30  1  0  0  0  0
  6 31  1  0  0  0  0
  7  8  1  0  0  0  0
  7 32  1  0  0  0  0
  7 33  1  0  0  0  0
  8  9  1  0  0  0  0
  9 10  1  0  0  0  0
  9 20  1  0  0  0  0
  9 34  1  0  0  0  0
 10 11  1  0  0  0  0
 10 35  1  0  0  0  0
 10 36  1  0  0  0  0
 11 12  1  0  0  0  0
 11 37  1  0  0  0  0
 12 13  2  0  0  0  0
 12 14  1  0  0  0  0
 14 15  1  0  0  0  0
 15 19  1  0  0  0  0
 15 16  2  0  0  0  0
 16 17  1  0  0  0  0
 17 18  2  0  0  0  0
 18 19  1  0  0  0  0
 18 38  1  0  0  0  0
 20 39  1  0  0  0  0
 20 40  1  0  0  0  0
M  CHG  1   5   1
M  CHG  1  14  -1
M  END
> <s_m_source_file>
AV-unprocessed.smi

> <i_m_source_file_index>
2021

> <i_lp_mmshare_version>
43012

> <i_f3d_flags>
0

> <s_epik_input>
W0NIM11bQ0hdKFtDSDNdKVtDSDJdTjFbQ0gyXVtDSDJdT1tDQEhdKFtDSDJdMSlbQ0gyXVtOSF1DKD1PKVtOSF1jMm5uW2NIXXMy

> <s_epik_cmdline>
J2VwaWtfcHl0aG9uJywgJy1waCcsICc3LjAnLCAnLXRuJywgJzgnLCAnLW1hJywgJzIwMCcsICctbWV0YWxfYmluZGluZycsICctaW1hZScsICc8aW5maWxlLm1hZT4nLCAnLW9tYWUnLCAnPG91dGZpbGUubWFlPic=

> <r_lp_tautomer_probability>
1

> <r_epik_Ionization_Penalty>
3.15762

> <r_epik_Ionization_Penalty_Charging>
3.12229

> <r_epik_Ionization_Penalty_Neutral>
0.0353298

> <r_epik_State_Penalty>
3.11266

> <r_epik_Charging_Adjusted_Penalty>
6.23495

> <i_epik_Tot_Q>
0

> <i_epik_Tot_abs_Q>
2

> <r_epik_Metal_State_Penalty>
0.541462

> <b_epik_Metal_Only>
1

> <s_lp_Force_Field>
OPLS_2005

> <r_lp_Energy>
12.8808

> <b_lp_Chiralities_Consistent>
1

> <s_lp_Variant>
AV-unprocessed.smi:2021-8

> <Gold.Version>
5.8.1

> <Gold.Id.Protein>
6NUR|6NUR_protein|mol2

> <Gold.PLP.Fitness>
41.0586

> <Gold.PLP.PLP>
-29.2108

> <Gold.PLP.part.hbond>
-4.5947

> <Gold.PLP.part.metal>
0.0000

> <Gold.PLP.part.buried>
-6.6694

> <Gold.PLP.part.nonpolar>
-20.5614

> <Gold.PLP.part.repulsive>
0.4288

> <Gold.PLP.ligand.clash>
0.0000

> <Gold.PLP.ligand.torsion>
1.5809

> <Gold.PLP.Chemscore.Hbond>
4.9588

> <Gold.PLP.Chemscore.CHOScore>
0.0000

> <Gold.PLP.Chemscore.Metal>
0.0000

> <Gold.Chemscore.Hbonds>
donor molecule, donor type, donor heavy atom, donor atom, acceptor molecule, acceptor atom, score
      L1  H     5    41       P1 10957  1.56
      L1  H    11    37       P1  7948  1.00
      P1  H  7989  7998       L1    16  1.00
      P1  H  7997  8010       L1    17  1.00

> <Gold.PLP.Chemscore.Internal.Correction>
0.1333

> <Gold.Rescore>
     Score         DG    S(hbond)    S(metal)    S(lipo)     H(rot)  DE(clash)    DE(int)     intcor
     17.32     -19.39       3.57        0.00      57.28       1.85       0.22       1.85       ----

> <Gold.Chemscore.Fitness>
17.3245

> <Gold.Chemscore.DG>
-19.3895

> <Gold.Chemscore.ZeroCoef>
-5.4800

> <Gold.Chemscore.Hbond>
3.5733

> <Gold.Chemscore.Metal>
0.0000

> <Gold.Chemscore.Lipo>
57.2823

> <Gold.Chemscore.Internal_Hbond>
0.0000

> <Gold.Chemscore.DEClash>
0.2195

> <Gold.Chemscore.DEInternal>
1.8455

> <Gold.Chemscore.Rot>
1.8466

> <Gold.Chemscore.Internal.Correction>
   9.000000E+99

> <Gold.Chemscore.Hbonds>
donor molecule, donor type, donor heavy atom, donor atom, acceptor molecule, acceptor atom, score
      L1  H     5    41       P1 10957  0.50
      L1  H    11    37       P1  7948  1.00
      P1  H  7989  7998       L1    16  0.68
      P1  H  7997  8010       L1    17  0.34

> <Gold.Chemscore.Hbond.Weighted>
-11.9347

> <Gold.Chemscore.Metal.Weighted>
-0.0000

> <Gold.Chemscore.Lipo.Weighted>
-6.7020

> <Gold.Chemscore.Internal_Hbond.Weighted>
0.0000

> <Gold.Chemscore.DEClash.Weighted>
0.2195

> <Gold.Chemscore.DEInternal.Weighted>
1.8455

> <Gold.Chemscore.Rot.Weighted>
4.7272

> <Gold.Chemscore.Internal.Correction.Weighted>
   9.000000E+99

> <Gold.Protein.RotatedTorsions>
[ 6907 6896 6895 6894 ] final  -68.80 input  -60.11 | X-H torsion
[ 7974 7965 7964 7962 ] final    8.39 input  175.53 | X-H torsion
[ 8008 7997 7996 7995 ] final  100.23 input   59.86 | X-H torsion
[ 10167 10162 10161 10158 ] final  103.38 input  -65.29 | X-H torsion
[ 10718 10713 10712 10709 ] final  106.60 input   66.30 | X-H torsion
[ 10763 10752 10751 10750 ] final -140.74 input  -60.55 | X-H torsion
[ 11005 11000 10999 10996 ] final  150.82 input  -57.11 | X-H torsion

> <Gold.Protein.ActiveResidues>
 VAL166  LYS551  ARG553  GLY616  TRP617  ASP618  TYR619  PRO620  LYS621  CYS622 
 ASP623  PHE694  ASN695  SER759  ASP760  ASP761  ALA762  ILE779  LEU786  VAL792 
 PHE793  MET794  SER795  GLU796  ALA797  LYS798  CYS799  TRP800  GLU811  SER814 

> <Gold.Protein.RotatedAtoms>
  150.7337  134.5687  159.5879 H   0  0  0  0  0  0  0  0  0  0  0  0  # atno 6907 bound_to 6896
  152.3132  134.7469  160.0340 H   0  0  0  0  0  0  0  0  0  0  0  0  # atno 6908 bound_to 6896
  151.8010  133.3334  159.3563 H   0  0  0  0  0  0  0  0  0  0  0  0  # atno 6909 bound_to 6896
  146.2416  139.9940  142.8423 H   0  0  0  0  0  0  0  0  0  0  0  0  # atno 7974 bound_to 7965
  156.1183  140.3216  155.8171 H   0  0  0  0  0  0  0  0  0  0  0  0  # atno 8008 bound_to 7997
  155.4551  140.0535  157.3014 H   0  0  0  0  0  0  0  0  0  0  0  0  # atno 8009 bound_to 7997
  154.4809  140.2052  155.9781 H   0  0  0  0  0  0  0  0  0  0  0  0  # atno 8010 bound_to 7997
  139.7268  144.7045  151.0785 H   0  0  0  0  0  0  0  0  0  0  0  0  # atno 10167 bound_to 10162
  157.6662  131.0854  150.6031 H   0  0  0  0  0  0  0  0  0  0  0  0  # atno 10718 bound_to 10713
  154.8568  135.3544  154.5756 H   0  0  0  0  0  0  0  0  0  0  0  0  # atno 10763 bound_to 10752
  153.6368  135.7000  153.5260 H   0  0  0  0  0  0  0  0  0  0  0  0  # atno 10764 bound_to 10752
  153.3004  135.4208  155.1206 H   0  0  0  0  0  0  0  0  0  0  0  0  # atno 10765 bound_to 10752
  140.1164  134.8891  157.2010 H   0  0  0  0  0  0  0  0  0  0  0  0  # atno 11005 bound_to 11000
  145.1477  140.9606  143.4451 LP  0  0  0  0  0  0  0  0  0  0  0  0  # atno 17320 bound_to 7965
  145.0235  139.3403  143.6060 LP  0  0  0  0  0  0  0  0  0  0  0  0  # atno 17321 bound_to 7965
  140.7764  143.5095  150.9670 LP  0  0  0  0  0  0  0  0  0  0  0  0  # atno 17342 bound_to 10162
  139.8782  143.7105  152.3159 LP  0  0  0  0  0  0  0  0  0  0  0  0  # atno 17343 bound_to 10162
  156.6332  130.4438  149.5779 LP  0  0  0  0  0  0  0  0  0  0  0  0  # atno 17370 bound_to 10713
  156.2266  130.6769  151.1421 LP  0  0  0  0  0  0  0  0  0  0  0  0  # atno 17371 bound_to 10713
  140.3022  134.3118  155.7287 LP  0  0  0  0  0  0  0  0  0  0  0  0  # atno 17394 bound_to 11000
  141.2142  133.7599  156.9657 LP  0  0  0  0  0  0  0  0  0  0  0  0  # atno 17395 bound_to 11000

$$$$
