AV-unprocessed.smi:459|AV-procd|sdf|2624|dock7
  -GOLD-   2262023 23D 1   1.00000     0.00000
 Structure written by MMmdl.
 43 45  0  0  0  0  0  0  0  0  1 V2000
  155.2511  141.5464  169.3193 C   0  0  0  0  0  0  0  0  0  0  0  0
  155.6615  140.4038  168.5822 O   0  0  0  0  0  0  0  0  0  0  0  0
  155.7116  140.5023  167.2082 C   0  0  0  0  0  0  0  0  0  0  0  0
  155.5033  141.7033  166.4867 C   0  0  0  0  0  0  0  0  0  0  0  0
  155.5743  141.7103  165.0804 C   0  0  0  0  0  0  0  0  0  0  0  0
  155.8512  140.5303  164.3627 C   0  0  0  0  0  0  0  0  0  0  0  0
  155.9012  140.6302  162.9896 O   0  0  0  0  0  0  0  0  0  0  0  0
  156.2272  139.4680  162.2387 C   0  0  0  0  0  0  0  0  0  0  0  0
  154.9366  138.7722  161.7836 C   0  0  0  0  0  0  0  0  0  0  0  0
  154.2734  139.5026  160.7125 N   0  0  0  0  0  0  0  0  0  0  0  0
  154.0581  139.1211  159.4266 C   0  0  0  0  0  0  0  0  0  0  0  0
  154.4920  137.7892  158.8854 C   0  0  0  0  0  0  0  0  0  0  0  0
  153.3318  136.9555  158.3188 C   0  0  0  0  0  0  0  0  0  0  0  0
  152.2710  136.8661  159.2468 O   0  0  0  0  0  0  0  0  0  0  0  0
  153.4206  140.0076  158.6600 N   0  0  0  0  0  0  0  0  0  0  0  0
  153.2068  141.0624  159.5249 C   0  0  0  0  0  0  0  0  0  0  0  0
  152.5785  142.3106  159.3135 C   0  0  0  0  0  0  0  0  0  0  0  0
  152.4773  143.2458  160.3644 C   0  0  0  0  0  0  0  0  0  0  0  0
  153.0024  142.9472  161.6384 C   0  0  0  0  0  0  0  0  0  0  0  0
  153.6320  141.7091  161.8700 C   0  0  0  0  0  0  0  0  0  0  0  0
  153.7294  140.7786  160.8179 C   0  0  0  0  0  0  0  0  0  0  0  0
  156.0594  139.3293  165.0838 C   0  0  0  0  0  0  0  0  0  0  0  0
  155.9890  139.3225  166.4901 C   0  0  0  0  0  0  0  0  0  0  0  0
  155.2679  141.3127  170.3838 H   0  0  0  0  0  0  0  0  0  0  0  0
  154.2326  141.8413  169.0626 H   0  0  0  0  0  0  0  0  0  0  0  0
  155.9240  142.3894  169.1564 H   0  0  0  0  0  0  0  0  0  0  0  0
  155.2872  142.6339  166.9886 H   0  0  0  0  0  0  0  0  0  0  0  0
  155.4124  142.6345  164.5451 H   0  0  0  0  0  0  0  0  0  0  0  0
  156.8219  139.7372  161.3646 H   0  0  0  0  0  0  0  0  0  0  0  0
  156.8153  138.7798  162.8480 H   0  0  0  0  0  0  0  0  0  0  0  0
  155.1441  137.7525  161.4632 H   0  0  0  0  0  0  0  0  0  0  0  0
  154.2457  138.6873  162.6229 H   0  0  0  0  0  0  0  0  0  0  0  0
  155.2074  137.9797  158.0846 H   0  0  0  0  0  0  0  0  0  0  0  0
  155.0449  137.2237  159.6345 H   0  0  0  0  0  0  0  0  0  0  0  0
  152.9711  137.3717  157.3778 H   0  0  0  0  0  0  0  0  0  0  0  0
  153.6759  135.9422  158.1103 H   0  0  0  0  0  0  0  0  0  0  0  0
  152.4982  137.3725  160.0119 H   0  0  0  0  0  0  0  0  0  0  0  0
  152.1745  142.5488  158.3408 H   0  0  0  0  0  0  0  0  0  0  0  0
  151.9949  144.1966  160.1917 H   0  0  0  0  0  0  0  0  0  0  0  0
  152.9215  143.6691  162.4379 H   0  0  0  0  0  0  0  0  0  0  0  0
  154.0354  141.4772  162.8444 H   0  0  0  0  0  0  0  0  0  0  0  0
  156.2757  138.3986  164.5821 H   0  0  0  0  0  0  0  0  0  0  0  0
  156.1506  138.3978  167.0247 H   0  0  0  0  0  0  0  0  0  0  0  0
  1  2  1  0  0  0  0
  1 24  1  0  0  0  0
  1 25  1  0  0  0  0
  1 26  1  0  0  0  0
  2  3  1  0  0  0  0
  3 23  1  0  0  0  0
  3  4  2  0  0  0  0
  4  5  1  0  0  0  0
  4 27  1  0  0  0  0
  5  6  2  0  0  0  0
  5 28  1  0  0  0  0
  6  7  1  0  0  0  0
  6 22  1  0  0  0  0
  7  8  1  0  0  0  0
  8  9  1  0  0  0  0
  8 29  1  0  0  0  0
  8 30  1  0  0  0  0
  9 10  1  0  0  0  0
  9 31  1  0  0  0  0
  9 32  1  0  0  0  0
 10 21  1  0  0  0  0
 10 11  1  0  0  0  0
 11 12  1  0  0  0  0
 11 15  2  0  0  0  0
 12 13  1  0  0  0  0
 12 33  1  0  0  0  0
 12 34  1  0  0  0  0
 13 14  1  0  0  0  0
 13 35  1  0  0  0  0
 13 36  1  0  0  0  0
 14 37  1  0  0  0  0
 15 16  1  0  0  0  0
 16 21  2  0  0  0  0
 16 17  1  0  0  0  0
 17 18  2  0  0  0  0
 17 38  1  0  0  0  0
 18 19  1  0  0  0  0
 18 39  1  0  0  0  0
 19 20  2  0  0  0  0
 19 40  1  0  0  0  0
 20 21  1  0  0  0  0
 20 41  1  0  0  0  0
 22 23  2  0  0  0  0
 22 42  1  0  0  0  0
 23 43  1  0  0  0  0
M  END
> <s_m_source_file>
AV-unprocessed.smi

> <i_m_source_file_index>
459

> <i_lp_mmshare_version>
43012

> <i_f3d_flags>
0

> <s_epik_input>
W0NIM11PYzFbY0hdW2NIXWMoW2NIXVtjSF0xKU9bQ0gyXVtDSDJdbihjKG4yKVtDSDJdW0NIMl1bT0hdKWMoYzIzKVtjSF1bY0hdW2NIXVtjSF0z

> <s_epik_cmdline>
J2VwaWtfcHl0aG9uJywgJy1waCcsICc3LjAnLCAnLXRuJywgJzgnLCAnLW1hJywgJzIwMCcsICctbWV0YWxfYmluZGluZycsICctaW1hZScsICc8aW5maWxlLm1hZT4nLCAnLW9tYWUnLCAnPG91dGZpbGUubWFlPic=

> <r_lp_tautomer_probability>
1

> <r_epik_Ionization_Penalty>
0.207087

> <r_epik_Ionization_Penalty_Charging>
0

> <r_epik_Ionization_Penalty_Neutral>
0.207087

> <r_epik_State_Penalty>
0.197081

> <r_epik_Charging_Adjusted_Penalty>
0.197081

> <i_epik_Tot_Q>
0

> <i_epik_Tot_abs_Q>
0

> <r_epik_Metal_State_Penalty>
0.00023377

> <b_epik_Metal_Only>
0

> <s_lp_Force_Field>
OPLS_2005

> <r_lp_Energy>
17.9825

> <b_lp_Chiralities_Consistent>
1

> <s_lp_Variant>
AV-unprocessed.smi:459-1

> <Gold.Version>
5.8.1

> <Gold.Id.Protein>
6NUR|6NUR_protein|mol2

> <Gold.PLP.Fitness>
50.7590

> <Gold.PLP.PLP>
-45.4498

> <Gold.PLP.part.hbond>
-3.0182

> <Gold.PLP.part.metal>
0.0000

> <Gold.PLP.part.buried>
-6.6265

> <Gold.PLP.part.nonpolar>
-35.2035

> <Gold.PLP.part.repulsive>
0.1077

> <Gold.PLP.ligand.clash>
0.0000

> <Gold.PLP.ligand.torsion>
0.3717

> <Gold.PLP.Chemscore.Hbond>
2.0000

> <Gold.PLP.Chemscore.CHOScore>
0.0000

> <Gold.PLP.Chemscore.Metal>
0.0000

> <Gold.Chemscore.Hbonds>
donor molecule, donor type, donor heavy atom, donor atom, acceptor molecule, acceptor atom, score
      P1  H  6896  6908       L1    14  1.00
      P1  H  7997  8008       L1    15  0.85

> <Gold.PLP.Chemscore.Internal.Correction>
0.0527

> <Gold.Rescore>
     Score         DG    S(hbond)    S(metal)    S(lipo)     H(rot)  DE(clash)    DE(int)     intcor
     14.68     -17.88       1.56        0.00     118.19       2.59       1.25       1.95       ----

> <Gold.Chemscore.Fitness>
14.6850

> <Gold.Chemscore.DG>
-17.8808

> <Gold.Chemscore.ZeroCoef>
-5.4800

> <Gold.Chemscore.Hbond>
1.5590

> <Gold.Chemscore.Metal>
0.0000

> <Gold.Chemscore.Lipo>
118.1916

> <Gold.Chemscore.Internal_Hbond>
0.0000

> <Gold.Chemscore.DEClash>
1.2506

> <Gold.Chemscore.DEInternal>
1.9452

> <Gold.Chemscore.Rot>
2.5916

> <Gold.Chemscore.Internal.Correction>
   9.000000E+99

> <Gold.Chemscore.Hbonds>
donor molecule, donor type, donor heavy atom, donor atom, acceptor molecule, acceptor atom, score
      P1  H  6896  6908       L1    14  0.42
      P1  H  7997  8008       L1    15  0.14

> <Gold.Chemscore.Hbond.Weighted>
-5.2069

> <Gold.Chemscore.Metal.Weighted>
-0.0000

> <Gold.Chemscore.Lipo.Weighted>
-13.8284

> <Gold.Chemscore.Internal_Hbond.Weighted>
0.0000

> <Gold.Chemscore.DEClash.Weighted>
1.2506

> <Gold.Chemscore.DEInternal.Weighted>
1.9452

> <Gold.Chemscore.Rot.Weighted>
6.6346

> <Gold.Chemscore.Internal.Correction.Weighted>
   9.000000E+99

> <Gold.Protein.RotatedTorsions>
[ 6907 6896 6895 6894 ] final -116.02 input  -60.11 | X-H torsion
[ 7974 7965 7964 7962 ] final  -39.13 input  175.53 | X-H torsion
[ 8008 7997 7996 7995 ] final  -97.28 input   59.86 | X-H torsion
[ 10167 10162 10161 10158 ] final  -54.41 input  -65.29 | X-H torsion
[ 10718 10713 10712 10709 ] final  -72.87 input   66.30 | X-H torsion
[ 10763 10752 10751 10750 ] final  117.45 input  -60.55 | X-H torsion
[ 11005 11000 10999 10996 ] final   93.26 input  -57.11 | X-H torsion

> <Gold.Protein.ActiveResidues>
 VAL166  LYS551  ARG553  GLY616  TRP617  ASP618  TYR619  PRO620  LYS621  CYS622 
 ASP623  PHE694  ASN695  SER759  ASP760  ASP761  ALA762  ILE779  LEU786  VAL792 
 PHE793  MET794  SER795  GLU796  ALA797  LYS798  CYS799  TRP800  GLU811  SER814 

> <Gold.Protein.RotatedAtoms>
  150.8023  133.8576  159.3222 H   0  0  0  0  0  0  0  0  0  0  0  0  # atno 6907 bound_to 6896
  151.6384  135.1013  160.0146 H   0  0  0  0  0  0  0  0  0  0  0  0  # atno 6908 bound_to 6896
  152.4111  133.6926  159.6434 H   0  0  0  0  0  0  0  0  0  0  0  0  # atno 6909 bound_to 6896
  146.0424  140.6591  142.9081 H   0  0  0  0  0  0  0  0  0  0  0  0  # atno 7974 bound_to 7965
  154.7857  140.0464  157.1162 H   0  0  0  0  0  0  0  0  0  0  0  0  # atno 8008 bound_to 7997
  154.9651  140.3082  155.4993 H   0  0  0  0  0  0  0  0  0  0  0  0  # atno 8009 bound_to 7997
  156.2943  140.2263  156.4740 H   0  0  0  0  0  0  0  0  0  0  0  0  # atno 8010 bound_to 7997
  140.6432  143.2519  151.4933 H   0  0  0  0  0  0  0  0  0  0  0  0  # atno 10167 bound_to 10162
  156.0303  130.4381  150.2657 H   0  0  0  0  0  0  0  0  0  0  0  0  # atno 10718 bound_to 10713
  153.5526  135.3536  155.2766 H   0  0  0  0  0  0  0  0  0  0  0  0  # atno 10763 bound_to 10752
  154.8705  135.4117  154.2920 H   0  0  0  0  0  0  0  0  0  0  0  0  # atno 10764 bound_to 10752
  153.3649  135.7061  153.6751 H   0  0  0  0  0  0  0  0  0  0  0  0  # atno 10765 bound_to 10752
  139.8812  134.8779  156.3691 H   0  0  0  0  0  0  0  0  0  0  0  0  # atno 11005 bound_to 11000
  144.7081  140.3932  143.7102 LP  0  0  0  0  0  0  0  0  0  0  0  0  # atno 17320 bound_to 7965
  145.6862  139.1629  143.2673 LP  0  0  0  0  0  0  0  0  0  0  0  0  # atno 17321 bound_to 7965
  139.5641  144.2084  152.1738 LP  0  0  0  0  0  0  0  0  0  0  0  0  # atno 17342 bound_to 10162
  140.1361  144.5245  150.6773 LP  0  0  0  0  0  0  0  0  0  0  0  0  # atno 17343 bound_to 10162
  157.0759  131.0130  151.3174 LP  0  0  0  0  0  0  0  0  0  0  0  0  # atno 17370 bound_to 10713
  157.4964  130.7853  149.7559 LP  0  0  0  0  0  0  0  0  0  0  0  0  # atno 17371 bound_to 10713
  140.9476  133.7472  156.0229 LP  0  0  0  0  0  0  0  0  0  0  0  0  # atno 17394 bound_to 11000
  140.8144  134.3362  157.5402 LP  0  0  0  0  0  0  0  0  0  0  0  0  # atno 17395 bound_to 11000

$$$$
