#       Name:                AV-unprocessed.smi:513
#       Creating user name   scv26
#       Creation time:       Thu Mar 26 23:24:28 2020


#       File generated by GOLD software.
#

@<TRIPOS>MOLECULE
AV-unprocessed.smi:513
    50    52     1
SMALL
NO_CHARGES


@<TRIPOS>ATOM
      1 ****        -3.5522   0.6906  -1.9994 C.3            1 S1                 0.0000
      2 ****        -2.1370   0.7310  -1.9850 O.3            1 S1                 0.0000
      3 ****        -1.5545  -0.5541  -1.8449 C.3            1 S1                 0.0000
      4 ****        -0.0230  -0.4437  -1.8016 C.3            1 S1                 0.0000
      5 ****         0.4390   0.4239  -0.7211 N.pl3          1 S1                 0.0000
      6 ****         0.6940   0.0668   0.5623 C.2            1 S1                 0.0000
      7 ****         0.5337  -1.2491   0.9804 N.pl3          1 S1                 0.0000
      8 ****         1.6220  -2.2113   1.1090 C.3            1 S1                 0.0000
      9 ****         1.2028  -3.6002   0.5896 C.3            1 S1                 0.0000
     10 ****         0.0595  -4.0873   1.3536 N.3            1 S1                 0.0000
     11 ****        -1.0424  -3.1468   1.1840 C.3            1 S1                 0.0000
     12 ****        -0.6269  -1.7561   1.7033 C.3            1 S1                 0.0000
     13 ****         1.1030   1.0567   1.3562 N.2            1 S1                 0.0000
     14 ****         1.1072   2.1463   0.4970 C.2            1 S1                 0.0000
     15 ****         0.7111   1.7949  -0.7562 C.2            1 S1                 0.0000
     16 ****         0.6112   2.7477  -1.8831 C.2            1 S1                 0.0000
     17 ****         0.2472   2.3794  -2.9979 O.2            1 S1                 0.0000
     18 ****         0.9637   4.0202  -1.5147 N.pl3          1 S1                -1.0000
     19 ****         1.3715   4.4193  -0.2594 C.2            1 S1                 0.0000
     20 ****         1.6680   5.5904  -0.0214 O.2            1 S1                 0.0000
     21 ****         1.4519   3.4992   0.7549 N.am           1 S1                 0.0000
     22 ****         1.8815   3.8412   2.1144 C.3            1 S1                 0.0000
     23 ****        -3.9456   1.7005  -2.1149 H              1 S1                 0.0000
     24 ****        -3.9432   0.2807  -1.0673 H              1 S1                 0.0000
     25 ****        -3.9216   0.0885  -2.8304 H              1 S1                 0.0000
     26 ****        -1.9185  -1.0230  -0.9304 H              1 S1                 0.0000
     27 ****        -1.8539  -1.1916  -2.6778 H              1 S1                 0.0000
     28 ****         0.4140  -1.4339  -1.6740 H              1 S1                 0.0000
     29 ****         0.3639  -0.0814  -2.7521 H              1 S1                 0.0000
     30 ****         2.4839  -1.8528   0.5453 H              1 S1                 0.0000
     31 ****         1.9327  -2.2698   2.1531 H              1 S1                 0.0000
     32 ****         0.9526  -3.5591  -0.4714 H              1 S1                 0.0000
     33 ****         2.0273  -4.3051   0.6979 H              1 S1                 0.0000
     34 ****        -0.2148  -4.9965   1.0099 H              1 S1                 0.0000
     35 ****        -1.3313  -3.1000   0.1333 H              1 S1                 0.0000
     36 ****        -1.9070  -3.5113   1.7388 H              1 S1                 0.0000
     37 ****        -0.4002  -1.7967   2.7696 H              1 S1                 0.0000
     38 ****        -1.4551  -1.0564   1.5860 H              1 S1                 0.0000
     39 ****         2.1481   4.8892   2.2534 H              1 S1                 0.0000
     40 ****         2.7538   3.2467   2.3873 H              1 S1                 0.0000
     41 ****         1.0851   3.6116   2.8229 H              1 S1                 0.0000
     42 ****        -1.8410   1.3017  -1.2190 LP             1 S1                 0.0000
     43 ****        -1.8197   1.1343  -2.8433 LP             1 S1                 0.0000
     44 ****         0.2996  -4.1647   2.3213 LP             1 S1                 0.0000
     45 ****         1.3454   1.0226   2.3258 LP             1 S1                 0.0000
     46 ****         0.0122   1.4203  -3.1556 LP             1 S1                 0.0000
     47 ****         0.1860   3.0389  -3.7471 LP             1 S1                 0.0000
     48 ****         0.9211   4.7252  -2.2227 LP             1 S1                 0.0000
     49 ****         1.6158   6.2768  -0.7468 LP             1 S1                 0.0000
     50 ****         1.9610   5.8552   0.8973 LP             1 S1                 0.0000
@<TRIPOS>BOND
    1    1    2 1     
    2    1   23 1     
    3    1   24 1     
    4    1   25 1     
    5    2    3 1     
    6    3    4 1     
    7    3   26 1     
    8    3   27 1     
    9    4    5 1     
   10    4   28 1     
   11    4   29 1     
   12    5   15 1     
   13    5    6 1     
   14    6    7 1     
   15    6   13 2     
   16    7   12 1     
   17    7    8 1     
   18    8    9 1     
   19    8   30 1     
   20    8   31 1     
   21    9   10 1     
   22    9   32 1     
   23    9   33 1     
   24   10   11 1     
   25   10   34 1     
   26   11   12 1     
   27   11   35 1     
   28   11   36 1     
   29   12   37 1     
   30   12   38 1     
   31   13   14 1     
   32   14   21 1     
   33   14   15 2     
   34   15   16 1     
   35   16   17 2     
   36   16   18 1     
   37   18   19 1     
   38   19   20 2     
   39   19   21 am    
   40   21   22 1     
   41   22   39 1     
   42   22   40 1     
   43   22   41 1     
   44    2   42 1     
   45    2   43 1     
   46   10   44 1     
   47   13   45 1     
   48   17   46 1     
   49   17   47 1     
   50   18   48 1     
   51   20   49 1     
   52   20   50 1     
@<TRIPOS>SUBSTRUCTURE
      1 S1             1
@<TRIPOS>SET
LONE_PAIRS      STATIC     ATOMS    <user>   **** ""
9 42 43 44 45 46 47 48 49 50
DONOR_HYDROGENS      STATIC     ATOMS    <user>   **** ""
1 34
ATOM$BLUE        STATIC     ATOMS    COLORGROUP SYSTEM
9 42 43 44 45 46 47 48 49 50
ATOM$RED        STATIC     ATOMS    COLORGROUP SYSTEM
1 34
