AV-unprocessed.smi:1370|AV-procd|sdf|5580|dock2
  -GOLD-   22720 5173D 1   1.00000     0.00000
 Structure written by MMmdl.
 39 40  0  0  0  0  0  0  0  0  1 V2000
  150.0274  140.7086  157.2652 O   0  0  0  0  0  0  0  0  0  0  0  0
  150.0105  141.7714  156.6427 C   0  0  0  0  0  0  0  0  0  0  0  0
  151.2108  142.7276  156.6846 C   0  0  0  0  0  0  0  0  0  0  0  0
  151.4619  143.2883  158.0225 N   0  0  0  0  0  0  0  0  0  0  0  0
  151.1403  144.6460  158.2203 C   0  0  0  0  0  0  0  0  0  0  0  0
  151.3295  145.2557  159.4014 C   0  0  0  0  0  0  0  0  0  0  0  0
  151.8780  144.4809  160.4890 C   0  0  0  0  0  0  0  0  0  0  0  0
  152.1927  143.1827  160.3095 C   0  0  0  0  0  0  0  0  0  0  0  0
  151.9916  142.5135  159.0189 C   0  0  0  0  0  0  0  0  0  0  0  0
  152.2806  141.3291  158.8450 O   0  0  0  0  0  0  0  0  0  0  0  0
  148.9795  142.1567  155.8762 N   0  0  0  0  0  0  0  0  0  0  0  0
  147.7568  141.3892  155.6628 C   0  0  0  0  0  0  0  0  0  0  0  0
  146.5071  142.2841  155.6811 C   0  0  0  0  0  0  0  0  0  0  0  0
  146.2130  143.0758  154.0731 S   0  0  0  0  0  0  0  0  0  0  0  0
  144.6602  143.9494  154.4218 C   0  0  0  0  0  0  0  0  0  0  0  0
  144.4236  145.1216  153.4710 C   0  0  0  0  0  0  0  0  0  0  0  0
  143.3968  145.9833  154.2039 C   0  0  0  0  0  0  0  0  0  0  0  0
  143.7257  145.8279  155.6946 C   0  0  0  0  0  0  0  0  0  0  0  0
  144.6226  144.5856  155.8167 C   0  0  0  0  0  0  0  0  0  0  0  0
  152.0866  142.1844  156.3276 H   0  0  0  0  0  0  0  0  0  0  0  0
  151.0620  143.5326  155.9623 H   0  0  0  0  0  0  0  0  0  0  0  0
  150.7415  145.1553  157.3551 H   0  0  0  0  0  0  0  0  0  0  0  0
  151.0818  146.2985  159.5330 H   0  0  0  0  0  0  0  0  0  0  0  0
  152.0380  144.9445  161.4513 H   0  0  0  0  0  0  0  0  0  0  0  0
  152.6025  142.6191  161.1348 H   0  0  0  0  0  0  0  0  0  0  0  0
  149.0519  143.0400  155.3923 H   0  0  0  0  0  0  0  0  0  0  0  0
  147.8175  140.8498  154.7161 H   0  0  0  0  0  0  0  0  0  0  0  0
  147.6836  140.6311  156.4427 H   0  0  0  0  0  0  0  0  0  0  0  0
  145.6269  141.7059  155.9636 H   0  0  0  0  0  0  0  0  0  0  0  0
  146.6276  143.0635  156.4336 H   0  0  0  0  0  0  0  0  0  0  0  0
  143.8309  143.2476  154.3220 H   0  0  0  0  0  0  0  0  0  0  0  0
  145.3460  145.6881  153.3338 H   0  0  0  0  0  0  0  0  0  0  0  0
  144.0774  144.8025  152.4877 H   0  0  0  0  0  0  0  0  0  0  0  0
  143.4168  147.0233  153.8770 H   0  0  0  0  0  0  0  0  0  0  0  0
  142.3955  145.5966  154.0105 H   0  0  0  0  0  0  0  0  0  0  0  0
  144.2540  146.7074  156.0646 H   0  0  0  0  0  0  0  0  0  0  0  0
  142.8142  145.7246  156.2840 H   0  0  0  0  0  0  0  0  0  0  0  0
  144.2555  143.8879  156.5699 H   0  0  0  0  0  0  0  0  0  0  0  0
  145.6244  144.8938  156.1193 H   0  0  0  0  0  0  0  0  0  0  0  0
  1  2  2  0  0  0  0
  2  3  1  0  0  0  0
  2 11  1  0  0  0  0
  3  4  1  0  0  0  0
  3 20  1  0  0  0  0
  3 21  1  0  0  0  0
  4  9  1  0  0  0  0
  4  5  1  0  0  0  0
  5  6  2  0  0  0  0
  5 22  1  0  0  0  0
  6  7  1  0  0  0  0
  6 23  1  0  0  0  0
  7  8  2  0  0  0  0
  7 24  1  0  0  0  0
  8  9  1  0  0  0  0
  8 25  1  0  0  0  0
  9 10  2  0  0  0  0
 11 12  1  0  0  0  0
 11 26  1  0  0  0  0
 12 13  1  0  0  0  0
 12 27  1  0  0  0  0
 12 28  1  0  0  0  0
 13 14  1  0  0  0  0
 13 29  1  0  0  0  0
 13 30  1  0  0  0  0
 14 15  1  0  0  0  0
 15 19  1  0  0  0  0
 15 16  1  0  0  0  0
 15 31  1  0  0  0  0
 16 17  1  0  0  0  0
 16 32  1  0  0  0  0
 16 33  1  0  0  0  0
 17 18  1  0  0  0  0
 17 34  1  0  0  0  0
 17 35  1  0  0  0  0
 18 19  1  0  0  0  0
 18 36  1  0  0  0  0
 18 37  1  0  0  0  0
 19 38  1  0  0  0  0
 19 39  1  0  0  0  0
M  END
> <s_m_source_file>
AV-unprocessed.smi

> <i_m_source_file_index>
1370

> <i_lp_mmshare_version>
43012

> <i_f3d_flags>
0

> <s_epik_input>
Tz1jMVtjSF1bY0hdW2NIXVtjSF1uMVtDSDJdQyg9TylbTkhdW0NIMl1bQ0gyXVNbQ0hdMltDSDJdW0NIMl1bQ0gyXVtDSDJdMg==

> <s_epik_cmdline>
J2VwaWtfcHl0aG9uJywgJy1waCcsICc3LjAnLCAnLXRuJywgJzgnLCAnLW1hJywgJzIwMCcsICctbWV0YWxfYmluZGluZycsICctaW1hZScsICc8aW5maWxlLm1hZT4nLCAnLW9tYWUnLCAnPG91dGZpbGUubWFlPic=

> <r_lp_tautomer_probability>
1

> <r_epik_Ionization_Penalty>
3.75756e-07

> <r_epik_Ionization_Penalty_Charging>
3.52005e-07

> <r_epik_Ionization_Penalty_Neutral>
2.37506e-08

> <r_epik_State_Penalty>
-0

> <r_epik_Charging_Adjusted_Penalty>
3.52005e-07

> <i_epik_Tot_Q>
0

> <i_epik_Tot_abs_Q>
0

> <r_epik_Metal_State_Penalty>
-0

> <b_epik_Metal_Only>
0

> <s_lp_Force_Field>
OPLS_2005

> <r_lp_Energy>
28.6611

> <b_lp_Chiralities_Consistent>
1

> <s_lp_Variant>
AV-unprocessed.smi:1370-1

> <Gold.Version>
5.8.1

> <Gold.Id.Protein>
6NUR|6NUR_protein|mol2

> <Gold.PLP.Fitness>
47.8549

> <Gold.PLP.PLP>
-43.4269

> <Gold.PLP.part.hbond>
-1.0000

> <Gold.PLP.part.metal>
0.0000

> <Gold.PLP.part.buried>
-7.0967

> <Gold.PLP.part.nonpolar>
-36.5337

> <Gold.PLP.part.repulsive>
0.1302

> <Gold.PLP.ligand.clash>
0.0000

> <Gold.PLP.ligand.torsion>
0.6182

> <Gold.PLP.Chemscore.Hbond>
0.8480

> <Gold.PLP.Chemscore.CHOScore>
0.9880

> <Gold.PLP.Chemscore.Metal>
0.0000

> <Gold.Chemscore.Hbonds>
donor molecule, donor type, donor heavy atom, donor atom, acceptor molecule, acceptor atom, score
      L1  H    11    26       P1  8028  0.83
      L1  C     5    22       P1  8028  0.97

> <Gold.PLP.Chemscore.Internal.Correction>
0.1562

> <Gold.Rescore>
     Score         DG    S(hbond)    S(metal)    S(lipo)     H(rot)  DE(clash)    DE(int)     intcor
     14.86     -15.82       0.90        0.00     103.48       1.87       0.18       0.78       ----

> <Gold.Chemscore.Fitness>
14.8630

> <Gold.Chemscore.DG>
-15.8164

> <Gold.Chemscore.ZeroCoef>
-5.4800

> <Gold.Chemscore.Hbond>
0.9018

> <Gold.Chemscore.Metal>
0.0000

> <Gold.Chemscore.Lipo>
103.4793

> <Gold.Chemscore.Internal_Hbond>
0.0000

> <Gold.Chemscore.DEClash>
0.1755

> <Gold.Chemscore.DEInternal>
0.7778

> <Gold.Chemscore.Rot>
1.8682

> <Gold.Chemscore.Internal.Correction>
   9.000000E+99

> <Gold.Chemscore.Hbonds>
donor molecule, donor type, donor heavy atom, donor atom, acceptor molecule, acceptor atom, score
      L1  H    11    26       P1  8028  0.83

> <Gold.Chemscore.Hbond.Weighted>
-3.0120

> <Gold.Chemscore.Metal.Weighted>
-0.0000

> <Gold.Chemscore.Lipo.Weighted>
-12.1071

> <Gold.Chemscore.Internal_Hbond.Weighted>
0.0000

> <Gold.Chemscore.DEClash.Weighted>
0.1755

> <Gold.Chemscore.DEInternal.Weighted>
0.7778

> <Gold.Chemscore.Rot.Weighted>
4.7827

> <Gold.Chemscore.Internal.Correction.Weighted>
   9.000000E+99

> <Gold.Protein.RotatedTorsions>
[ 6907 6896 6895 6894 ] final  -73.46 input  -60.11 | X-H torsion
[ 7974 7965 7964 7962 ] final  115.18 input  175.53 | X-H torsion
[ 8008 7997 7996 7995 ] final  161.23 input   59.86 | X-H torsion
[ 10167 10162 10161 10158 ] final   90.29 input  -65.29 | X-H torsion
[ 10718 10713 10712 10709 ] final -138.05 input   66.30 | X-H torsion
[ 10763 10752 10751 10750 ] final  -18.99 input  -60.55 | X-H torsion
[ 11005 11000 10999 10996 ] final  -88.62 input  -57.11 | X-H torsion

> <Gold.Protein.ActiveResidues>
 VAL166  LYS551  ARG553  GLY616  TRP617  ASP618  TYR619  PRO620  LYS621  CYS622 
 ASP623  PHE694  ASN695  SER759  ASP760  ASP761  ALA762  ILE779  LEU786  VAL792 
 PHE793  MET794  SER795  GLU796  ALA797  LYS798  CYS799  TRP800  GLU811  SER814 

> <Gold.Protein.RotatedAtoms>
  150.7129  134.5013  159.5562 H   0  0  0  0  0  0  0  0  0  0  0  0  # atno 6907 bound_to 6896
  152.2610  134.8031  160.0439 H   0  0  0  0  0  0  0  0  0  0  0  0  # atno 6908 bound_to 6896
  151.8745  133.3447  159.3782 H   0  0  0  0  0  0  0  0  0  0  0  0  # atno 6909 bound_to 6896
  145.1951  139.2980  143.4347 H   0  0  0  0  0  0  0  0  0  0  0  0  # atno 7974 bound_to 7965
  156.2117  140.1783  156.7679 H   0  0  0  0  0  0  0  0  0  0  0  0  # atno 8008 bound_to 7997
  154.5733  140.0679  156.9026 H   0  0  0  0  0  0  0  0  0  0  0  0  # atno 8009 bound_to 7997
  155.2634  140.3337  155.4273 H   0  0  0  0  0  0  0  0  0  0  0  0  # atno 8010 bound_to 7997
  139.8488  144.6604  150.9194 H   0  0  0  0  0  0  0  0  0  0  0  0  # atno 10167 bound_to 10162
  156.2950  130.7396  151.1432 H   0  0  0  0  0  0  0  0  0  0  0  0  # atno 10718 bound_to 10713
  153.5979  135.7000  153.5396 H   0  0  0  0  0  0  0  0  0  0  0  0  # atno 10763 bound_to 10752
  153.3122  135.4098  155.1345 H   0  0  0  0  0  0  0  0  0  0  0  0  # atno 10764 bound_to 10752
  154.8588  135.3675  154.5513 H   0  0  0  0  0  0  0  0  0  0  0  0  # atno 10765 bound_to 10752
  141.1599  133.7581  156.9477 H   0  0  0  0  0  0  0  0  0  0  0  0  # atno 11005 bound_to 11000
  146.3428  140.2177  142.8591 LP  0  0  0  0  0  0  0  0  0  0  0  0  # atno 17320 bound_to 7965
  145.0002  140.8625  143.5286 LP  0  0  0  0  0  0  0  0  0  0  0  0  # atno 17321 bound_to 7965
  140.7790  143.3846  151.1416 LP  0  0  0  0  0  0  0  0  0  0  0  0  # atno 17342 bound_to 10162
  139.7486  143.8814  152.3070 LP  0  0  0  0  0  0  0  0  0  0  0  0  # atno 17343 bound_to 10162
  157.7353  131.0574  150.5479 LP  0  0  0  0  0  0  0  0  0  0  0  0  # atno 17370 bound_to 10713
  156.5600  130.4253  149.6067 LP  0  0  0  0  0  0  0  0  0  0  0  0  # atno 17371 bound_to 10713
  140.1278  134.9375  157.2295 LP  0  0  0  0  0  0  0  0  0  0  0  0  # atno 17394 bound_to 11000
  140.2991  134.3153  155.7294 LP  0  0  0  0  0  0  0  0  0  0  0  0  # atno 17395 bound_to 11000

$$$$
