AV-unprocessed.smi:2428|AV-procd|sdf|9580|dock1
  -GOLD-   2272013213D 1   1.00000     0.00000
 Structure written by MMmdl.
 30 31  0  0  0  0  0  0  0  0  1 V2000
  152.5504  144.9767  158.4008 F   0  0  0  0  0  0  0  0  0  0  0  0
  151.8808  144.4417  159.4220 C   0  0  0  0  0  0  0  0  0  0  0  0
  151.8770  145.3172  160.4277 F   0  0  0  0  0  0  0  0  0  0  0  0
  150.6229  144.2209  159.0422 F   0  0  0  0  0  0  0  0  0  0  0  0
  152.5215  143.1244  159.8276 C   0  0  0  0  0  0  0  0  0  0  0  0
  152.8150  142.8596  161.1809 C   0  0  0  0  0  0  0  0  0  0  0  0
  153.4122  141.6315  161.5244 C   0  0  0  0  0  0  0  0  0  0  0  0
  153.6975  140.7040  160.5011 C   0  0  0  0  0  0  0  0  0  0  0  0
  154.2915  139.4826  160.8514 N   0  0  0  0  0  0  0  0  0  0  0  0
  154.3578  139.0487  162.2418 C   0  0  0  0  0  0  0  0  0  0  0  0
  154.1833  137.5279  162.3876 C   0  0  2  0  0  0  0  0  0  0  0  0
  154.0565  137.0674  163.8372 C   0  0  0  0  0  0  0  0  0  0  0  0
  154.4690  135.6063  163.7754 C   0  0  0  0  0  0  0  0  0  0  0  0
  155.2654  135.5018  162.4711 C   0  0  0  0  0  0  0  0  0  0  0  0
  155.3436  136.8283  161.9661 O   0  0  0  0  0  0  0  0  0  0  0  0
  153.4277  140.9573  159.1987 N   0  0  0  0  0  0  0  0  0  0  0  0
  152.8535  142.1359  158.8759 C   0  0  0  0  0  0  0  0  0  0  0  0
  152.5864  143.5869  161.9460 H   0  0  0  0  0  0  0  0  0  0  0  0
  153.6429  141.4087  162.5561 H   0  0  0  0  0  0  0  0  0  0  0  0
  154.9316  139.0570  160.1969 H   0  0  0  0  0  0  0  0  0  0  0  0
  155.2772  139.3862  162.7213 H   0  0  0  0  0  0  0  0  0  0  0  0
  153.5443  139.5502  162.7663 H   0  0  0  0  0  0  0  0  0  0  0  0
  153.3208  137.1804  161.8153 H   0  0  0  0  0  0  0  0  0  0  0  0
  154.7552  137.6184  164.4684 H   0  0  0  0  0  0  0  0  0  0  0  0
  153.0536  137.2097  164.2400 H   0  0  0  0  0  0  0  0  0  0  0  0
  155.0628  135.3226  164.6447 H   0  0  0  0  0  0  0  0  0  0  0  0
  153.5953  134.9550  163.7376 H   0  0  0  0  0  0  0  0  0  0  0  0
  156.2628  135.0893  162.6235 H   0  0  0  0  0  0  0  0  0  0  0  0
  154.7421  134.8709  161.7514 H   0  0  0  0  0  0  0  0  0  0  0  0
  152.6593  142.2878  157.8246 H   0  0  0  0  0  0  0  0  0  0  0  0
  1  2  1  0  0  0  0
  2  3  1  0  0  0  0
  2  4  1  0  0  0  0
  2  5  1  0  0  0  0
  5 17  1  0  0  0  0
  5  6  2  0  0  0  0
  6  7  1  0  0  0  0
  6 18  1  0  0  0  0
  7  8  2  0  0  0  0
  7 19  1  0  0  0  0
  8  9  1  0  0  0  0
  8 16  1  0  0  0  0
  9 10  1  0  0  0  0
  9 20  1  0  0  0  0
 10 11  1  0  0  0  0
 10 21  1  0  0  0  0
 10 22  1  0  0  0  0
 11 15  1  0  0  0  0
 11 12  1  0  0  0  0
 11 23  1  0  0  0  0
 12 13  1  0  0  0  0
 12 24  1  0  0  0  0
 12 25  1  0  0  0  0
 13 14  1  0  0  0  0
 13 26  1  0  0  0  0
 13 27  1  0  0  0  0
 14 15  1  0  0  0  0
 14 28  1  0  0  0  0
 14 29  1  0  0  0  0
 16 17  2  0  0  0  0
 17 30  1  0  0  0  0
M  END
> <s_m_source_file>
AV-unprocessed.smi

> <i_m_source_file_index>
2428

> <i_lp_mmshare_version>
43012

> <i_f3d_flags>
0

> <s_epik_input>
RkMoRikoRiljMVtjSF1bY0hdYyhuW2NIXTEpW05IXVtDSDJdW0NAQEhdMltDSDJdW0NIMl1bQ0gyXU8y

> <s_epik_cmdline>
J2VwaWtfcHl0aG9uJywgJy1waCcsICc3LjAnLCAnLXRuJywgJzgnLCAnLW1hJywgJzIwMCcsICctbWV0YWxfYmluZGluZycsICctaW1hZScsICc8aW5maWxlLm1hZT4nLCAnLW9tYWUnLCAnPG91dGZpbGUubWFlPic=

> <r_lp_tautomer_probability>
1

> <r_epik_Ionization_Penalty>
0.000819842

> <r_epik_Ionization_Penalty_Charging>
0

> <r_epik_Ionization_Penalty_Neutral>
0.000819842

> <r_epik_State_Penalty>
0.000527207

> <r_epik_Charging_Adjusted_Penalty>
0.000527207

> <i_epik_Tot_Q>
0

> <i_epik_Tot_abs_Q>
0

> <r_epik_Metal_State_Penalty>
-0

> <b_epik_Metal_Only>
0

> <s_lp_Force_Field>
OPLS_2005

> <r_lp_Energy>
19.3564

> <b_lp_Chiralities_Consistent>
1

> <s_lp_Variant>
AV-unprocessed.smi:2428-1

> <Gold.Version>
5.8.1

> <Gold.Id.Protein>
6NUR|6NUR_protein|mol2

> <Gold.PLP.Fitness>
43.3440

> <Gold.PLP.PLP>
-44.8667

> <Gold.PLP.part.hbond>
0.0000

> <Gold.PLP.part.metal>
0.0000

> <Gold.PLP.part.buried>
-5.2375

> <Gold.PLP.part.nonpolar>
-38.9833

> <Gold.PLP.part.repulsive>
0.0195

> <Gold.PLP.ligand.clash>
0.5000

> <Gold.PLP.ligand.torsion>
0.6146

> <Gold.PLP.Chemscore.Hbond>
0.0000

> <Gold.PLP.Chemscore.CHOScore>
0.0000

> <Gold.PLP.Chemscore.Metal>
0.0000

> <Gold.PLP.Chemscore.Internal.Correction>
0.2065

> <Gold.Rescore>
     Score         DG    S(hbond)    S(metal)    S(lipo)     H(rot)  DE(clash)    DE(int)     intcor
     13.06     -13.26       0.00        0.00      93.88       1.25       0.01       0.20       ----

> <Gold.Chemscore.Fitness>
13.0561

> <Gold.Chemscore.DG>
-13.2615

> <Gold.Chemscore.ZeroCoef>
-5.4800

> <Gold.Chemscore.Hbond>
0.0002

> <Gold.Chemscore.Metal>
0.0000

> <Gold.Chemscore.Lipo>
93.8841

> <Gold.Chemscore.Internal_Hbond>
0.0000

> <Gold.Chemscore.DEClash>
0.0052

> <Gold.Chemscore.DEInternal>
0.2001

> <Gold.Chemscore.Rot>
1.2514

> <Gold.Chemscore.Internal.Correction>
   9.000000E+99

> <Gold.Chemscore.Hbond.Weighted>
-0.0006

> <Gold.Chemscore.Metal.Weighted>
-0.0000

> <Gold.Chemscore.Lipo.Weighted>
-10.9844

> <Gold.Chemscore.Internal_Hbond.Weighted>
0.0000

> <Gold.Chemscore.DEClash.Weighted>
0.0052

> <Gold.Chemscore.DEInternal.Weighted>
0.2001

> <Gold.Chemscore.Rot.Weighted>
3.2036

> <Gold.Chemscore.Internal.Correction.Weighted>
   9.000000E+99

> <Gold.Protein.RotatedTorsions>
[ 6907 6896 6895 6894 ] final  -14.86 input  -60.11 | X-H torsion
[ 7974 7965 7964 7962 ] final   16.24 input  175.53 | X-H torsion
[ 8008 7997 7996 7995 ] final   10.25 input   59.86 | X-H torsion
[ 10167 10162 10161 10158 ] final -130.81 input  -65.29 | X-H torsion
[ 10718 10713 10712 10709 ] final  -84.56 input   66.30 | X-H torsion
[ 10763 10752 10751 10750 ] final  168.37 input  -60.55 | X-H torsion
[ 11005 11000 10999 10996 ] final  -88.93 input  -57.11 | X-H torsion

> <Gold.Protein.ActiveResidues>
 VAL166  LYS551  ARG553  GLY616  TRP617  ASP618  TYR619  PRO620  LYS621  CYS622 
 ASP623  PHE694  ASN695  SER759  ASP760  ASP761  ALA762  ILE779  LEU786  VAL792 
 PHE793  MET794  SER795  GLU796  ALA797  LYS798  CYS799  TRP800  GLU811  SER814 

> <Gold.Protein.RotatedAtoms>
  151.3329  135.0846  159.9344 H   0  0  0  0  0  0  0  0  0  0  0  0  # atno 6907 bound_to 6896
  152.5230  133.9524  159.7688 H   0  0  0  0  0  0  0  0  0  0  0  0  # atno 6908 bound_to 6896
  150.9866  133.6138  159.2744 H   0  0  0  0  0  0  0  0  0  0  0  0  # atno 6909 bound_to 6896
  146.2255  139.8777  142.8576 H   0  0  0  0  0  0  0  0  0  0  0  0  # atno 7974 bound_to 7965
  154.7908  140.2835  155.5993 H   0  0  0  0  0  0  0  0  0  0  0  0  # atno 8008 bound_to 7997
  156.2964  140.2605  156.2684 H   0  0  0  0  0  0  0  0  0  0  0  0  # atno 8009 bound_to 7997
  154.9672  140.0376  157.2207 H   0  0  0  0  0  0  0  0  0  0  0  0  # atno 8010 bound_to 7997
  139.9254  143.6333  152.2543 H   0  0  0  0  0  0  0  0  0  0  0  0  # atno 10167 bound_to 10162
  156.0005  130.4702  150.4429 H   0  0  0  0  0  0  0  0  0  0  0  0  # atno 10718 bound_to 10713
  154.3676  135.2753  155.2284 H   0  0  0  0  0  0  0  0  0  0  0  0  # atno 10763 bound_to 10752
  154.4446  135.5946  153.6155 H   0  0  0  0  0  0  0  0  0  0  0  0  # atno 10764 bound_to 10752
  152.9840  135.6027  154.3904 H   0  0  0  0  0  0  0  0  0  0  0  0  # atno 10765 bound_to 10752
  141.1593  133.7599  156.9522 H   0  0  0  0  0  0  0  0  0  0  0  0  # atno 11005 bound_to 11000
  145.2544  141.0055  143.3862 LP  0  0  0  0  0  0  0  0  0  0  0  0  # atno 17320 bound_to 7965
  144.9348  139.4256  143.6477 LP  0  0  0  0  0  0  0  0  0  0  0  0  # atno 17321 bound_to 7965
  139.6826  144.7654  151.1581 LP  0  0  0  0  0  0  0  0  0  0  0  0  # atno 17342 bound_to 10162
  140.7651  143.5703  150.9003 LP  0  0  0  0  0  0  0  0  0  0  0  0  # atno 17343 bound_to 10162
  157.2468  131.0537  151.2403 LP  0  0  0  0  0  0  0  0  0  0  0  0  # atno 17370 bound_to 10713
  157.3567  130.7110  149.6475 LP  0  0  0  0  0  0  0  0  0  0  0  0  # atno 17371 bound_to 10713
  140.1249  134.9393  157.2256 LP  0  0  0  0  0  0  0  0  0  0  0  0  # atno 17394 bound_to 11000
  140.3025  134.3115  155.7286 LP  0  0  0  0  0  0  0  0  0  0  0  0  # atno 17395 bound_to 11000

$$$$
