AV-unprocessed.smi:2589|AV-procd|sdf|10151|dock8
  -GOLD-   2272014163D 1   1.00000     0.00000
 Structure written by MMmdl.
 41 42  0  0  0  0  0  0  0  0  1 V2000
  147.4950  135.2629  163.0888 C   0  0  0  0  0  0  0  0  0  0  0  0
  147.4833  136.0152  161.7630 C   0  0  0  0  0  0  0  0  0  0  0  0
  147.0998  137.1836  161.7183 O   0  0  0  0  0  0  0  0  0  0  0  0
  147.9094  135.3327  160.6890 N   0  0  0  0  0  0  0  0  0  0  0  0
  148.0007  135.8707  159.3342 C   0  0  0  0  0  0  0  0  0  0  0  0
  149.1344  136.8910  159.1787 C   0  0  0  0  0  0  0  0  0  0  0  0
  150.3037  136.5668  159.3904 O   0  0  0  0  0  0  0  0  0  0  0  0
  148.7722  138.1204  158.7831 N   0  0  0  0  0  0  0  0  0  0  0  0
  149.6947  139.2277  158.5594 C   0  0  0  0  0  0  0  0  0  0  0  0
  150.6339  138.9987  157.3770 C   0  0  0  0  0  0  0  0  0  0  0  0
  150.3837  137.9283  156.4903 C   0  0  0  0  0  0  0  0  0  0  0  0
  151.2407  137.7247  155.3940 C   0  0  0  0  0  0  0  0  0  0  0  0
  152.3216  138.6076  155.2210 C   0  0  0  0  0  0  0  0  0  0  0  0
  152.5743  139.6369  156.0550 N   0  0  0  0  0  0  0  0  0  0  0  0
  151.7509  139.8352  157.1133 C   0  0  0  0  0  0  0  0  0  0  0  0
  152.0601  140.9037  157.9697 N   0  0  0  0  0  0  0  0  0  0  0  0
  152.3318  140.5269  159.3512 C   0  0  0  0  0  0  0  0  0  0  0  0
  152.8151  141.7566  160.1390 C   0  0  0  0  0  0  0  0  0  0  0  0
  151.8473  142.7984  160.0403 O   0  0  0  0  0  0  0  0  0  0  0  0
  151.6330  143.2071  158.6917 C   0  0  0  0  0  0  0  0  0  0  0  0
  151.1229  142.0141  157.8658 C   0  0  0  0  0  0  0  0  0  0  0  0
  148.5189  135.0341  163.3850 H   0  0  0  0  0  0  0  0  0  0  0  0
  146.9418  134.3274  163.0038 H   0  0  0  0  0  0  0  0  0  0  0  0
  147.0364  135.8597  163.8776 H   0  0  0  0  0  0  0  0  0  0  0  0
  148.2139  134.3793  160.8220 H   0  0  0  0  0  0  0  0  0  0  0  0
  148.1851  135.0435  158.6489 H   0  0  0  0  0  0  0  0  0  0  0  0
  147.0478  136.3147  159.0402 H   0  0  0  0  0  0  0  0  0  0  0  0
  147.7910  138.3027  158.6295 H   0  0  0  0  0  0  0  0  0  0  0  0
  149.1023  140.1177  158.3474 H   0  0  0  0  0  0  0  0  0  0  0  0
  150.2305  139.4421  159.4844 H   0  0  0  0  0  0  0  0  0  0  0  0
  149.5418  137.2694  156.6456 H   0  0  0  0  0  0  0  0  0  0  0  0
  151.0723  136.9132  154.7016 H   0  0  0  0  0  0  0  0  0  0  0  0
  153.0014  138.4849  154.3909 H   0  0  0  0  0  0  0  0  0  0  0  0
  151.4281  140.1250  159.8116 H   0  0  0  0  0  0  0  0  0  0  0  0
  153.0872  139.7408  159.3781 H   0  0  0  0  0  0  0  0  0  0  0  0
  152.9561  141.4999  161.1889 H   0  0  0  0  0  0  0  0  0  0  0  0
  153.7785  142.1051  159.7630 H   0  0  0  0  0  0  0  0  0  0  0  0
  150.9015  144.0151  158.6764 H   0  0  0  0  0  0  0  0  0  0  0  0
  152.5571  143.6047  158.2689 H   0  0  0  0  0  0  0  0  0  0  0  0
  151.0005  142.3043  156.8221 H   0  0  0  0  0  0  0  0  0  0  0  0
  150.1432  141.7014  158.2299 H   0  0  0  0  0  0  0  0  0  0  0  0
  1  2  1  0  0  0  0
  1 22  1  0  0  0  0
  1 23  1  0  0  0  0
  1 24  1  0  0  0  0
  2  3  2  0  0  0  0
  2  4  1  0  0  0  0
  4  5  1  0  0  0  0
  4 25  1  0  0  0  0
  5  6  1  0  0  0  0
  5 26  1  0  0  0  0
  5 27  1  0  0  0  0
  6  7  2  0  0  0  0
  6  8  1  0  0  0  0
  8  9  1  0  0  0  0
  8 28  1  0  0  0  0
  9 10  1  0  0  0  0
  9 29  1  0  0  0  0
  9 30  1  0  0  0  0
 10 15  1  0  0  0  0
 10 11  2  0  0  0  0
 11 12  1  0  0  0  0
 11 31  1  0  0  0  0
 12 13  2  0  0  0  0
 12 32  1  0  0  0  0
 13 14  1  0  0  0  0
 13 33  1  0  0  0  0
 14 15  2  0  0  0  0
 15 16  1  0  0  0  0
 16 21  1  0  0  0  0
 16 17  1  0  0  0  0
 17 18  1  0  0  0  0
 17 34  1  0  0  0  0
 17 35  1  0  0  0  0
 18 19  1  0  0  0  0
 18 36  1  0  0  0  0
 18 37  1  0  0  0  0
 19 20  1  0  0  0  0
 20 21  1  0  0  0  0
 20 38  1  0  0  0  0
 20 39  1  0  0  0  0
 21 40  1  0  0  0  0
 21 41  1  0  0  0  0
M  END
> <s_m_source_file>
AV-unprocessed.smi

> <i_m_source_file_index>
2589

> <i_lp_mmshare_version>
43012

> <i_f3d_flags>
0

> <s_epik_input>
W0NIM11DKD1PKVtOSF1bQ0gyXUMoPU8pW05IXVtDSDJdYzFbY0hdW2NIXVtjSF1uYzFOMltDSDJdW0NIMl1PW0NIMl1bQ0gyXTI=

> <s_epik_cmdline>
J2VwaWtfcHl0aG9uJywgJy1waCcsICc3LjAnLCAnLXRuJywgJzgnLCAnLW1hJywgJzIwMCcsICctbWV0YWxfYmluZGluZycsICctaW1hZScsICc8aW5maWxlLm1hZT4nLCAnLW9tYWUnLCAnPG91dGZpbGUubWFlPic=

> <r_lp_tautomer_probability>
1

> <r_epik_Ionization_Penalty>
0.00462917

> <r_epik_Ionization_Penalty_Charging>
0

> <r_epik_Ionization_Penalty_Neutral>
0.00462917

> <r_epik_State_Penalty>
0.00334737

> <r_epik_Charging_Adjusted_Penalty>
0.00334737

> <i_epik_Tot_Q>
0

> <i_epik_Tot_abs_Q>
0

> <r_epik_Metal_State_Penalty>
-0

> <b_epik_Metal_Only>
0

> <s_lp_Force_Field>
OPLS_2005

> <r_lp_Energy>
14.0488

> <b_lp_Chiralities_Consistent>
1

> <s_lp_Variant>
AV-unprocessed.smi:2589-1

> <Gold.Version>
5.8.1

> <Gold.Id.Protein>
6NUR|6NUR_protein|mol2

> <Gold.PLP.Fitness>
46.7626

> <Gold.PLP.PLP>
-35.9414

> <Gold.PLP.part.hbond>
-4.1432

> <Gold.PLP.part.metal>
0.0000

> <Gold.PLP.part.buried>
-4.9146

> <Gold.PLP.part.nonpolar>
-26.5199

> <Gold.PLP.part.repulsive>
0.2967

> <Gold.PLP.ligand.clash>
0.0000

> <Gold.PLP.ligand.torsion>
0.3163

> <Gold.PLP.Chemscore.Hbond>
3.7689

> <Gold.PLP.Chemscore.CHOScore>
0.0000

> <Gold.PLP.Chemscore.Metal>
0.0000

> <Gold.Chemscore.Hbonds>
donor molecule, donor type, donor heavy atom, donor atom, acceptor molecule, acceptor atom, score
      P1  H  6896  6908       L1     7  1.00
      P1  H  6931  6943       L1     3  0.46
      P1  H  6934  6947       L1     3  0.91
      P1  H  7997  8009       L1    14  1.00

> <Gold.PLP.Chemscore.Internal.Correction>
0.1473

> <Gold.Rescore>
     Score         DG    S(hbond)    S(metal)    S(lipo)     H(rot)  DE(clash)    DE(int)     intcor
     17.71     -18.07       2.90        0.00      74.50       2.28       0.00       0.36       ----

> <Gold.Chemscore.Fitness>
17.7058

> <Gold.Chemscore.DG>
-18.0710

> <Gold.Chemscore.ZeroCoef>
-5.4800

> <Gold.Chemscore.Hbond>
2.9050

> <Gold.Chemscore.Metal>
0.0000

> <Gold.Chemscore.Lipo>
74.4994

> <Gold.Chemscore.Internal_Hbond>
0.0000

> <Gold.Chemscore.DEClash>
0.0021

> <Gold.Chemscore.DEInternal>
0.3631

> <Gold.Chemscore.Rot>
2.2766

> <Gold.Chemscore.Internal.Correction>
   9.000000E+99

> <Gold.Chemscore.Hbonds>
donor molecule, donor type, donor heavy atom, donor atom, acceptor molecule, acceptor atom, score
      P1  H  6896  6908       L1     7  1.00
      P1  H  6931  6943       L1     3  0.14
      P1  H  6934  6947       L1     3  0.87
      P1  H  7997  8009       L1    14  0.89

> <Gold.Chemscore.Hbond.Weighted>
-9.7027

> <Gold.Chemscore.Metal.Weighted>
-0.0000

> <Gold.Chemscore.Lipo.Weighted>
-8.7164

> <Gold.Chemscore.Internal_Hbond.Weighted>
0.0000

> <Gold.Chemscore.DEClash.Weighted>
0.0021

> <Gold.Chemscore.DEInternal.Weighted>
0.3631

> <Gold.Chemscore.Rot.Weighted>
5.8281

> <Gold.Chemscore.Internal.Correction.Weighted>
   9.000000E+99

> <Gold.Protein.RotatedTorsions>
[ 6907 6896 6895 6894 ] final -149.00 input  -60.11 | X-H torsion
[ 7974 7965 7964 7962 ] final  114.82 input  175.53 | X-H torsion
[ 8008 7997 7996 7995 ] final -150.19 input   59.86 | X-H torsion
[ 10167 10162 10161 10158 ] final   28.89 input  -65.29 | X-H torsion
[ 10718 10713 10712 10709 ] final -178.82 input   66.30 | X-H torsion
[ 10763 10752 10751 10750 ] final -168.95 input  -60.55 | X-H torsion
[ 11005 11000 10999 10996 ] final  168.92 input  -57.11 | X-H torsion

> <Gold.Protein.ActiveResidues>
 VAL166  LYS551  ARG553  GLY616  TRP617  ASP618  TYR619  PRO620  LYS621  CYS622 
 ASP623  PHE694  ASN695  SER759  ASP760  ASP761  ALA762  ILE779  LEU786  VAL792 
 PHE793  MET794  SER795  GLU796  ALA797  LYS798  CYS799  TRP800  GLU811  SER814 

> <Gold.Protein.RotatedAtoms>
  151.1779  133.4743  159.2593 H   0  0  0  0  0  0  0  0  0  0  0  0  # atno 6907 bound_to 6896
  151.1289  135.0119  159.8583 H   0  0  0  0  0  0  0  0  0  0  0  0  # atno 6908 bound_to 6896
  152.5459  134.1684  159.8639 H   0  0  0  0  0  0  0  0  0  0  0  0  # atno 6909 bound_to 6896
  145.1996  139.2959  143.4325 H   0  0  0  0  0  0  0  0  0  0  0  0  # atno 7974 bound_to 7965
  155.6196  140.0680  157.2682 H   0  0  0  0  0  0  0  0  0  0  0  0  # atno 8008 bound_to 7997
  154.4232  140.1787  156.1406 H   0  0  0  0  0  0  0  0  0  0  0  0  # atno 8009 bound_to 7997
  156.0020  140.3335  155.6858 H   0  0  0  0  0  0  0  0  0  0  0  0  # atno 8010 bound_to 7997
  140.4813  144.0611  150.6266 H   0  0  0  0  0  0  0  0  0  0  0  0  # atno 10167 bound_to 10162
  156.8500  130.9716  151.3093 H   0  0  0  0  0  0  0  0  0  0  0  0  # atno 10718 bound_to 10713
  154.6575  135.2920  154.9909 H   0  0  0  0  0  0  0  0  0  0  0  0  # atno 10763 bound_to 10752
  154.0981  135.6581  153.4867 H   0  0  0  0  0  0  0  0  0  0  0  0  # atno 10764 bound_to 10752
  153.0410  135.5236  154.7510 H   0  0  0  0  0  0  0  0  0  0  0  0  # atno 10765 bound_to 10752
  140.2924  134.7663  157.3849 H   0  0  0  0  0  0  0  0  0  0  0  0  # atno 11005 bound_to 11000
  146.3420  140.2237  142.8592 LP  0  0  0  0  0  0  0  0  0  0  0  0  # atno 17320 bound_to 7965
  144.9960  140.8590  143.5310 LP  0  0  0  0  0  0  0  0  0  0  0  0  # atno 17321 bound_to 7965
  140.3854  143.2780  152.0122 LP  0  0  0  0  0  0  0  0  0  0  0  0  # atno 17342 bound_to 10162
  139.4834  144.6121  151.7415 LP  0  0  0  0  0  0  0  0  0  0  0  0  # atno 17343 bound_to 10162
  157.6309  130.8728  149.9271 LP  0  0  0  0  0  0  0  0  0  0  0  0  # atno 17370 bound_to 10713
  156.0833  130.3670  150.0536 LP  0  0  0  0  0  0  0  0  0  0  0  0  # atno 17371 bound_to 10713
  140.1184  134.5253  155.8205 LP  0  0  0  0  0  0  0  0  0  0  0  0  # atno 17394 bound_to 11000
  141.2144  133.6748  156.6819 LP  0  0  0  0  0  0  0  0  0  0  0  0  # atno 17395 bound_to 11000

$$$$
