AV-unprocessed.smi:112|AV-procd|sdf|1090|dock4
  -GOLD-   2262018193D 1   1.00000     0.00000
 Structure written by MMmdl.
 54 57  0  0  0  0  0  0  0  0  3 V2000
  144.0644  137.0959  156.2481 C   0  0  0  0  0  0  0  0  0  0  0  0
  144.7156  137.3246  154.8933 C   0  0  0  0  0  0  0  0  0  0  0  0
  144.4156  136.5674  153.8131 C   0  0  0  0  0  0  0  0  0  0  0  0
  144.9846  136.7479  152.5668 N   0  0  0  0  0  0  0  0  0  0  0  0
  144.6139  135.8050  151.4400 C   0  0  1  0  0  0  0  0  0  0  0  0
  145.8249  135.1817  150.7305 C   0  0  0  0  0  0  0  0  0  0  0  0
  145.3020  133.8014  150.3846 C   0  0  2  0  0  0  0  0  0  0  0  0
  144.6271  133.8285  149.1400 O   0  0  0  0  0  0  0  0  0  0  0  0
  144.3551  133.5042  151.5587 C   0  0  2  0  0  0  0  0  0  0  0  0
  143.2243  132.4909  151.3085 C   0  0  0  0  0  0  0  0  0  0  0  0
  143.5050  131.7111  150.1653 O   0  0  0  0  0  0  0  0  0  0  0  0
  143.8274  134.7696  151.9521 O   0  0  0  0  0  0  0  0  0  0  0  0
  145.9693  137.7457  152.3916 C   0  0  0  0  0  0  0  0  0  0  0  0
  146.5412  137.8951  151.3106 O   0  0  0  0  0  0  0  0  0  0  0  0
  146.2935  138.5656  153.4964 N   0  0  0  0  0  0  0  0  0  0  0  0
  147.3237  139.6154  153.3231 C   0  0  0  0  0  0  0  0  0  0  0  0
  148.6214  139.3514  154.1190 C   0  0  0  0  0  0  0  0  0  0  0  0
  149.2578  138.3213  153.8943 O   0  0  0  0  0  0  0  0  0  0  0  0
  149.0020  140.2755  155.0360 N   0  0  0  0  0  0  0  0  0  0  0  0
  148.2383  141.5035  155.3177 C   0  0  0  0  0  0  0  0  0  0  0  0
  149.0120  142.2510  156.4256 C   0  0  0  0  0  0  0  0  0  0  0  0
  150.1958  141.3628  156.6710 C   0  0  0  0  0  0  0  0  0  0  0  0
  151.2372  141.5873  157.5871 C   0  0  0  0  0  0  0  0  0  0  0  0
  152.2816  140.6343  157.6835 C   0  0  0  0  0  0  0  0  0  0  0  0
  153.3920  140.8363  158.6352 N   0  3  0  0  0  0  0  0  0  0  0  0
  154.3687  140.0984  158.5544 O   0  0  0  0  0  0  0  0  0  0  0  0
  153.2890  141.7332  159.4658 O   0  5  0  0  0  0  0  0  0  0  0  0
  152.2444  139.4832  156.8522 C   0  0  0  0  0  0  0  0  0  0  0  0
  151.1897  139.2734  155.9371 C   0  0  0  0  0  0  0  0  0  0  0  0
  150.1595  140.2358  155.8582 C   0  0  0  0  0  0  0  0  0  0  0  0
  145.7026  138.3994  154.7728 C   0  0  0  0  0  0  0  0  0  0  0  0
  146.0275  139.1248  155.7149 O   0  0  0  0  0  0  0  0  0  0  0  0
  143.3512  136.2716  156.2223 H   0  0  0  0  0  0  0  0  0  0  0  0
  143.5291  137.9900  156.5693 H   0  0  0  0  0  0  0  0  0  0  0  0
  144.8194  136.8598  156.9987 H   0  0  0  0  0  0  0  0  0  0  0  0
  143.6864  135.7793  153.9360 H   0  0  0  0  0  0  0  0  0  0  0  0
  143.9966  136.3788  150.7482 H   0  0  0  0  0  0  0  0  0  0  0  0
  146.1256  135.7768  149.8674 H   0  0  0  0  0  0  0  0  0  0  0  0
  146.6778  135.1018  151.4027 H   0  0  0  0  0  0  0  0  0  0  0  0
  146.1072  133.0689  150.3212 H   0  0  0  0  0  0  0  0  0  0  0  0
  145.2525  134.0317  148.4614 H   0  0  0  0  0  0  0  0  0  0  0  0
  144.9562  133.1506  152.3976 H   0  0  0  0  0  0  0  0  0  0  0  0
  143.1382  131.8184  152.1621 H   0  0  0  0  0  0  0  0  0  0  0  0
  142.2579  132.9822  151.1964 H   0  0  0  0  0  0  0  0  0  0  0  0
  142.7198  131.2505  149.9122 H   0  0  0  0  0  0  0  0  0  0  0  0
  147.5751  139.7298  152.2678 H   0  0  0  0  0  0  0  0  0  0  0  0
  146.9231  140.5891  153.6074 H   0  0  0  0  0  0  0  0  0  0  0  0
  148.1648  142.1232  154.4231 H   0  0  0  0  0  0  0  0  0  0  0  0
  147.2284  141.2667  155.6553 H   0  0  0  0  0  0  0  0  0  0  0  0
  149.3352  143.2404  156.1005 H   0  0  0  0  0  0  0  0  0  0  0  0
  148.4200  142.3539  157.3355 H   0  0  0  0  0  0  0  0  0  0  0  0
  151.2285  142.4764  158.2004 H   0  0  0  0  0  0  0  0  0  0  0  0
  153.0304  138.7447  156.9086 H   0  0  0  0  0  0  0  0  0  0  0  0
  151.2009  138.3863  155.3241 H   0  0  0  0  0  0  0  0  0  0  0  0
  1  2  1  0  0  0  0
  1 33  1  0  0  0  0
  1 34  1  0  0  0  0
  1 35  1  0  0  0  0
  2 31  1  0  0  0  0
  2  3  2  0  0  0  0
  3  4  1  0  0  0  0
  3 36  1  0  0  0  0
  4  5  1  0  0  0  0
  4 13  1  0  0  0  0
  5 12  1  0  0  0  0
  5  6  1  0  0  0  0
  5 37  1  0  0  0  0
  6  7  1  0  0  0  0
  6 38  1  0  0  0  0
  6 39  1  0  0  0  0
  7  8  1  0  0  0  0
  7  9  1  0  0  0  0
  7 40  1  0  0  0  0
  8 41  1  0  0  0  0
  9 10  1  0  0  0  0
  9 12  1  0  0  0  0
  9 42  1  0  0  0  0
 10 11  1  0  0  0  0
 10 43  1  0  0  0  0
 10 44  1  0  0  0  0
 11 45  1  0  0  0  0
 13 14  2  0  0  0  0
 13 15  1  0  0  0  0
 15 16  1  0  0  0  0
 15 31  1  0  0  0  0
 16 17  1  0  0  0  0
 16 46  1  0  0  0  0
 16 47  1  0  0  0  0
 17 18  2  0  0  0  0
 17 19  1  0  0  0  0
 19 30  1  0  0  0  0
 19 20  1  0  0  0  0
 20 21  1  0  0  0  0
 20 48  1  0  0  0  0
 20 49  1  0  0  0  0
 21 22  1  0  0  0  0
 21 50  1  0  0  0  0
 21 51  1  0  0  0  0
 22 30  2  0  0  0  0
 22 23  1  0  0  0  0
 23 24  2  0  0  0  0
 23 52  1  0  0  0  0
 24 25  1  0  0  0  0
 24 28  1  0  0  0  0
 25 26  2  0  0  0  0
 25 27  1  0  0  0  0
 28 29  2  0  0  0  0
 28 53  1  0  0  0  0
 29 30  1  0  0  0  0
 29 54  1  0  0  0  0
 31 32  2  0  0  0  0
M  CHG  1  25   1
M  CHG  1  27  -1
M  END
> <s_m_source_file>
AV-unprocessed.smi

> <i_m_source_file_index>
112

> <i_lp_mmshare_version>
43012

> <i_f3d_flags>
0

> <s_epik_input>
W09IXVtDSDJdW0NAQEhdKE8xKVtDQEhdKFtPSF0pW0NIMl1bQ0BIXTFuKFtjSF1jMltDSDNdKWMoPU8pbihjMj1PKVtDSDJdQyg9TylOKFtDSDJdW0NIMl0zKWMoYzM0KVtjSF1bY0hdYyhbY0hdNClbTitdKD1PKVtPLV0=

> <s_epik_cmdline>
J2VwaWtfcHl0aG9uJywgJy1waCcsICc3LjAnLCAnLXRuJywgJzgnLCAnLW1hJywgJzIwMCcsICctbWV0YWxfYmluZGluZycsICctaW1hZScsICc8aW5maWxlLm1hZT4nLCAnLW9tYWUnLCAnPG91dGZpbGUubWFlPic=

> <r_lp_tautomer_probability>
1

> <r_epik_Ionization_Penalty>
2.5696e-07

> <r_epik_Ionization_Penalty_Charging>
1.04886e-08

> <r_epik_Ionization_Penalty_Neutral>
2.46472e-07

> <r_epik_State_Penalty>
-0

> <r_epik_Charging_Adjusted_Penalty>
1.04886e-08

> <i_epik_Tot_Q>
0

> <i_epik_Tot_abs_Q>
2

> <r_epik_Metal_State_Penalty>
-0

> <b_epik_Metal_Only>
0

> <s_epik_Chemistry_Notes>
This compound contains an acetal/aminal-like group ( X-CH(R)-Y where X, Y are N, S, or O) that may be acid/base labile, releasing an aldehyde.

> <s_lp_Force_Field>
OPLS_2005

> <r_lp_Energy>
55.491

> <b_lp_Chiralities_Consistent>
1

> <s_lp_Variant>
AV-unprocessed.smi:112-8

> <Gold.Version>
5.8.1

> <Gold.Id.Protein>
6NUR|6NUR_protein|mol2

> <Gold.PLP.Fitness>
44.7232

> <Gold.PLP.PLP>
-34.4198

> <Gold.PLP.part.hbond>
-4.0360

> <Gold.PLP.part.metal>
0.0000

> <Gold.PLP.part.buried>
0.7189

> <Gold.PLP.part.nonpolar>
-35.1674

> <Gold.PLP.part.repulsive>
3.9744

> <Gold.PLP.ligand.clash>
0.0000

> <Gold.PLP.ligand.torsion>
0.8697

> <Gold.PLP.Chemscore.Hbond>
4.0000

> <Gold.PLP.Chemscore.CHOScore>
0.0000

> <Gold.PLP.Chemscore.Metal>
0.0000

> <Gold.Chemscore.Hbonds>
donor molecule, donor type, donor heavy atom, donor atom, acceptor molecule, acceptor atom, score
      L1  H     8    41       P1  7921  0.75
      L1  H    11    45       P1 10952  0.75
      P1  H  7954  7966       L1    14  0.70
      P1  H  7997  8010       L1    26  0.64

> <Gold.PLP.Chemscore.Internal.Correction>
0.0427

> <Gold.Rescore>
     Score         DG    S(hbond)    S(metal)    S(lipo)     H(rot)  DE(clash)    DE(int)     intcor
      9.95     -18.69       3.57        0.00      82.97       3.29       4.45       4.29       ----

> <Gold.Chemscore.Fitness>
9.9528

> <Gold.Chemscore.DG>
-18.6933

> <Gold.Chemscore.ZeroCoef>
-5.4800

> <Gold.Chemscore.Hbond>
3.5725

> <Gold.Chemscore.Metal>
0.0000

> <Gold.Chemscore.Lipo>
82.9714

> <Gold.Chemscore.Internal_Hbond>
0.0000

> <Gold.Chemscore.DEClash>
4.4529

> <Gold.Chemscore.DEInternal>
4.2875

> <Gold.Chemscore.Rot>
3.2916

> <Gold.Chemscore.Internal.Correction>
   9.000000E+99

> <Gold.Chemscore.Hbonds>
donor molecule, donor type, donor heavy atom, donor atom, acceptor molecule, acceptor atom, score
      L1  H     8    41       P1  7921  0.71
      L1  H    11    45       P1 10952  0.72
      P1  H  7954  7966       L1    14  0.69
      P1  H  7997  8010       L1    26  0.59

> <Gold.Chemscore.Hbond.Weighted>
-11.9321

> <Gold.Chemscore.Metal.Weighted>
-0.0000

> <Gold.Chemscore.Lipo.Weighted>
-9.7077

> <Gold.Chemscore.Internal_Hbond.Weighted>
0.0000

> <Gold.Chemscore.DEClash.Weighted>
4.4529

> <Gold.Chemscore.DEInternal.Weighted>
4.2875

> <Gold.Chemscore.Rot.Weighted>
8.4265

> <Gold.Chemscore.Internal.Correction.Weighted>
   9.000000E+99

> <Gold.Protein.RotatedTorsions>
[ 6907 6896 6895 6894 ] final  -26.69 input  -60.11 | X-H torsion
[ 7974 7965 7964 7962 ] final   82.64 input  175.53 | X-H torsion
[ 8008 7997 7996 7995 ] final    1.96 input   59.86 | X-H torsion
[ 10167 10162 10161 10158 ] final -162.69 input  -65.29 | X-H torsion
[ 10718 10713 10712 10709 ] final   46.12 input   66.30 | X-H torsion
[ 10763 10752 10751 10750 ] final  -92.66 input  -60.55 | X-H torsion
[ 11005 11000 10999 10996 ] final  -67.44 input  -57.11 | X-H torsion

> <Gold.Protein.ActiveResidues>
 VAL166  LYS551  ARG553  GLY616  TRP617  ASP618  TYR619  PRO620  LYS621  CYS622 
 ASP623  PHE694  ASN695  SER759  ASP760  ASP761  ALA762  ILE779  LEU786  VAL792 
 PHE793  MET794  SER795  GLU796  ALA797  LYS798  CYS799  TRP800  GLU811  SER814 

> <Gold.Protein.RotatedAtoms>
  151.1574  135.0257  159.8694 H   0  0  0  0  0  0  0  0  0  0  0  0  # atno 6907 bound_to 6896
  152.5452  134.1318  159.8452 H   0  0  0  0  0  0  0  0  0  0  0  0  # atno 6908 bound_to 6896
  151.1410  133.4925  159.2629 H   0  0  0  0  0  0  0  0  0  0  0  0  # atno 6909 bound_to 6896
  145.6224  139.2388  143.2130 H   0  0  0  0  0  0  0  0  0  0  0  0  # atno 7974 bound_to 7965
  154.6859  140.2643  155.6861 H   0  0  0  0  0  0  0  0  0  0  0  0  # atno 8008 bound_to 7997
  156.2714  140.2801  156.1343 H   0  0  0  0  0  0  0  0  0  0  0  0  # atno 8009 bound_to 7997
  155.0965  140.0374  157.2674 H   0  0  0  0  0  0  0  0  0  0  0  0  # atno 8010 bound_to 7997
  139.6374  144.0324  152.2065 H   0  0  0  0  0  0  0  0  0  0  0  0  # atno 10167 bound_to 10162
  157.4448  130.8102  149.7729 H   0  0  0  0  0  0  0  0  0  0  0  0  # atno 10718 bound_to 10713
  154.6882  135.5223  153.8356 H   0  0  0  0  0  0  0  0  0  0  0  0  # atno 10763 bound_to 10752
  153.0613  135.6569  154.0466 H   0  0  0  0  0  0  0  0  0  0  0  0  # atno 10764 bound_to 10752
  154.0344  135.2982  155.3344 H   0  0  0  0  0  0  0  0  0  0  0  0  # atno 10765 bound_to 10752
  141.1508  133.6719  156.6292 H   0  0  0  0  0  0  0  0  0  0  0  0  # atno 11005 bound_to 11000
  146.1420  140.7044  142.9362 LP  0  0  0  0  0  0  0  0  0  0  0  0  # atno 17320 bound_to 7965
  144.7225  140.4421  143.6997 LP  0  0  0  0  0  0  0  0  0  0  0  0  # atno 17321 bound_to 7965
  140.0004  144.6297  150.7734 LP  0  0  0  0  0  0  0  0  0  0  0  0  # atno 17342 bound_to 10162
  140.7473  143.2904  151.3347 LP  0  0  0  0  0  0  0  0  0  0  0  0  # atno 17343 bound_to 10162
  155.9963  130.3907  150.2786 LP  0  0  0  0  0  0  0  0  0  0  0  0  # atno 17370 bound_to 10713
  157.0953  131.0181  151.3106 LP  0  0  0  0  0  0  0  0  0  0  0  0  # atno 17371 bound_to 10713
  140.3480  134.7793  157.4446 LP  0  0  0  0  0  0  0  0  0  0  0  0  # atno 17394 bound_to 11000
  140.0884  134.5635  155.8469 LP  0  0  0  0  0  0  0  0  0  0  0  0  # atno 17395 bound_to 11000

$$$$
