AV-unprocessed.smi:867|AV-procd|sdf|3998|dock5
  -GOLD-   22720 1483D 1   1.00000     0.00000
 Structure written by MMmdl.
 54 57  0  0  0  0  0  0  0  0  3 V2000
  152.4062  139.9211  155.7792 O   0  0  0  0  0  0  0  0  0  0  0  0
  151.2040  139.6708  155.6849 C   0  0  0  0  0  0  0  0  0  0  0  0
  150.2913  140.2141  156.5092 N   0  0  0  0  0  0  0  0  0  0  0  0
  150.5603  141.1831  157.5688 C   0  0  0  0  0  0  0  0  0  0  0  0
  151.0490  142.5373  157.0206 C   0  0  0  0  0  0  0  0  0  0  0  0
  151.0994  143.6362  158.0675 C   0  0  0  0  0  0  0  0  0  0  0  0
  149.9308  144.0394  158.7516 C   0  0  0  0  0  0  0  0  0  0  0  0
  150.0175  145.0504  159.7312 C   0  0  0  0  0  0  0  0  0  0  0  0
  151.2701  145.6372  160.0035 C   0  0  0  0  0  0  0  0  0  0  0  0
  152.3656  145.2279  159.3269 N   0  3  0  0  0  0  0  0  0  0  0  0
  152.3243  144.2638  158.3817 C   0  0  0  0  0  0  0  0  0  0  0  0
  150.7002  138.7832  154.7914 N   0  0  0  0  0  0  0  0  0  0  0  0
  151.3836  137.5885  154.2781 C   0  0  0  0  0  0  0  0  0  0  0  0
  150.7799  136.3428  154.9521 C   0  0  0  0  0  0  0  0  0  0  0  0
  149.3049  136.2618  154.7451 N   0  3  0  0  0  0  0  0  0  0  0  0
  148.6991  135.0624  155.3928 C   0  0  2  0  0  0  0  0  0  0  0  0
  149.4651  133.7397  155.1412 C   0  0  0  0  0  0  0  0  0  0  0  0
  148.3554  132.7731  154.6862 C   0  0  2  0  0  0  0  0  0  0  0  0
  147.9728  133.1090  153.2349 C   0  0  0  0  0  0  0  0  0  0  0  0
  147.2343  134.4506  153.3870 C   0  0  0  0  0  0  0  0  0  0  0  0
  147.2721  134.6977  154.9113 C   0  0  1  0  0  0  0  0  0  0  0  0
  147.1390  133.2781  155.4528 C   0  0  0  0  0  0  0  0  0  0  0  0
  148.6161  137.5339  155.1085 C   0  0  0  0  0  0  0  0  0  0  0  0
  149.2784  138.7532  154.4408 C   0  0  0  0  0  0  0  0  0  0  0  0
  149.3271  139.9417  156.3847 H   0  0  0  0  0  0  0  0  0  0  0  0
  149.6807  141.3218  158.1997 H   0  0  0  0  0  0  0  0  0  0  0  0
  151.3293  140.7587  158.2147 H   0  0  0  0  0  0  0  0  0  0  0  0
  152.0482  142.4187  156.6001 H   0  0  0  0  0  0  0  0  0  0  0  0
  150.4106  142.8529  156.1944 H   0  0  0  0  0  0  0  0  0  0  0  0
  148.9791  143.5764  158.5351 H   0  0  0  0  0  0  0  0  0  0  0  0
  149.1358  145.3704  160.2667 H   0  0  0  0  0  0  0  0  0  0  0  0
  151.4280  146.4153  160.7360 H   0  0  0  0  0  0  0  0  0  0  0  0
  153.2675  144.0193  157.9149 H   0  0  0  0  0  0  0  0  0  0  0  0
  151.2417  137.5325  153.1978 H   0  0  0  0  0  0  0  0  0  0  0  0
  152.4631  137.5967  154.4272 H   0  0  0  0  0  0  0  0  0  0  0  0
  151.2741  135.4569  154.5550 H   0  0  0  0  0  0  0  0  0  0  0  0
  150.9922  136.3657  156.0224 H   0  0  0  0  0  0  0  0  0  0  0  0
  148.6595  135.2484  156.4680 H   0  0  0  0  0  0  0  0  0  0  0  0
  150.2419  133.8205  154.3801 H   0  0  0  0  0  0  0  0  0  0  0  0
  149.9362  133.3920  156.0613 H   0  0  0  0  0  0  0  0  0  0  0  0
  148.5971  131.7213  154.8416 H   0  0  0  0  0  0  0  0  0  0  0  0
  148.8416  133.1816  152.5795 H   0  0  0  0  0  0  0  0  0  0  0  0
  147.3071  132.3491  152.8234 H   0  0  0  0  0  0  0  0  0  0  0  0
  147.7040  135.2503  152.8141 H   0  0  0  0  0  0  0  0  0  0  0  0
  146.2054  134.3575  153.0376 H   0  0  0  0  0  0  0  0  0  0  0  0
  146.4977  135.3787  155.2655 H   0  0  0  0  0  0  0  0  0  0  0  0
  146.2089  132.7871  155.1605 H   0  0  0  0  0  0  0  0  0  0  0  0
  147.2522  133.2120  156.5365 H   0  0  0  0  0  0  0  0  0  0  0  0
  147.5701  137.5001  154.8054 H   0  0  0  0  0  0  0  0  0  0  0  0
  148.6290  137.6542  156.1931 H   0  0  0  0  0  0  0  0  0  0  0  0
  148.7555  139.6669  154.7274 H   0  0  0  0  0  0  0  0  0  0  0  0
  149.1773  138.6859  153.3565 H   0  0  0  0  0  0  0  0  0  0  0  0
  149.1663  136.1470  153.7512 H   0  0  0  0  0  0  0  0  0  0  0  0
  153.2631  145.6643  159.5399 H   0  0  0  0  0  0  0  0  0  0  0  0
  1  2  2  0  0  0  0
  2  3  1  0  0  0  0
  2 12  1  0  0  0  0
  3  4  1  0  0  0  0
  3 25  1  0  0  0  0
  4  5  1  0  0  0  0
  4 26  1  0  0  0  0
  4 27  1  0  0  0  0
  5  6  1  0  0  0  0
  5 28  1  0  0  0  0
  5 29  1  0  0  0  0
  6 11  1  0  0  0  0
  6  7  2  0  0  0  0
  7  8  1  0  0  0  0
  7 30  1  0  0  0  0
  8  9  2  0  0  0  0
  8 31  1  0  0  0  0
  9 10  1  0  0  0  0
  9 32  1  0  0  0  0
 10 11  2  0  0  0  0
 10 54  1  0  0  0  0
 11 33  1  0  0  0  0
 12 24  1  0  0  0  0
 12 13  1  0  0  0  0
 13 14  1  0  0  0  0
 13 34  1  0  0  0  0
 13 35  1  0  0  0  0
 14 15  1  0  0  0  0
 14 36  1  0  0  0  0
 14 37  1  0  0  0  0
 15 16  1  0  0  0  0
 15 23  1  0  0  0  0
 15 53  1  0  0  0  0
 16 21  1  0  0  0  0
 16 17  1  0  0  0  0
 16 38  1  0  0  0  0
 17 18  1  0  0  0  0
 17 39  1  0  0  0  0
 17 40  1  0  0  0  0
 18 22  1  0  0  0  0
 18 19  1  0  0  0  0
 18 41  1  0  0  0  0
 19 20  1  0  0  0  0
 19 42  1  0  0  0  0
 19 43  1  0  0  0  0
 20 21  1  0  0  0  0
 20 44  1  0  0  0  0
 20 45  1  0  0  0  0
 21 22  1  0  0  0  0
 21 46  1  0  0  0  0
 22 47  1  0  0  0  0
 22 48  1  0  0  0  0
 23 24  1  0  0  0  0
 23 49  1  0  0  0  0
 23 50  1  0  0  0  0
 24 51  1  0  0  0  0
 24 52  1  0  0  0  0
M  CHG  1  10   1
M  CHG  1  15   1
M  END
> <s_m_source_file>
AV-unprocessed.smi

> <i_m_source_file_index>
867

> <i_lp_mmshare_version>
43012

> <i_f3d_flags>
0

> <s_epik_input>
W0NIMl0xW0NIMl1bQ0BASF0oW0NIMl0yKVtDQEBIXShbQ0gyXVtDQEhdMTIpTihbQ0gyXVtDSDJdMylbQ0gyXVtDSDJdTjNDKD1PKVtOSF1bQ0gyXVtDSDJdYzRbY0hdW2NIXVtjSF1uW2NIXTQ=

> <s_epik_cmdline>
J2VwaWtfcHl0aG9uJywgJy1waCcsICc3LjAnLCAnLXRuJywgJzgnLCAnLW1hJywgJzIwMCcsICctbWV0YWxfYmluZGluZycsICctaW1hZScsICc8aW5maWxlLm1hZT4nLCAnLW9tYWUnLCAnPG91dGZpbGUubWFlPic=

> <r_epik_Ionization_Penalty>
2.25108

> <r_epik_Ionization_Penalty_Charging>
2.25105

> <r_epik_Ionization_Penalty_Neutral>
2.64641e-05

> <r_epik_State_Penalty>
2.39519

> <r_epik_Charging_Adjusted_Penalty>
4.64625

> <i_epik_Tot_Q>
2

> <i_epik_Tot_abs_Q>
2

> <r_epik_Metal_State_Penalty>
2.40865

> <b_epik_Metal_Only>
0

> <s_lp_Force_Field>
OPLS_2005

> <r_lp_Energy>
106.832

> <b_lp_Chiralities_Consistent>
1

> <s_lp_Variant>
AV-unprocessed.smi:867-5

> <Gold.Version>
5.8.1

> <Gold.Id.Protein>
6NUR|6NUR_protein|mol2

> <Gold.PLP.Fitness>
50.3522

> <Gold.PLP.PLP>
-42.9797

> <Gold.PLP.part.hbond>
-3.0000

> <Gold.PLP.part.metal>
0.0000

> <Gold.PLP.part.buried>
0.6206

> <Gold.PLP.part.nonpolar>
-40.9491

> <Gold.PLP.part.repulsive>
0.1933

> <Gold.PLP.ligand.clash>
0.8218

> <Gold.PLP.ligand.torsion>
0.4569

> <Gold.PLP.Chemscore.Hbond>
3.0000

> <Gold.PLP.Chemscore.CHOScore>
0.0000

> <Gold.PLP.Chemscore.Metal>
0.0000

> <Gold.Chemscore.Hbonds>
donor molecule, donor type, donor heavy atom, donor atom, acceptor molecule, acceptor atom, score
      L1  H    15    53       P1  7948  2.00
      P1  H  7997  8008       L1     1  1.00

> <Gold.PLP.Chemscore.Internal.Correction>
0.1079

> <Gold.Rescore>
     Score         DG    S(hbond)    S(metal)    S(lipo)     H(rot)  DE(clash)    DE(int)     intcor
     19.32     -21.37       1.85        0.00     114.96       1.46       1.44       0.61       ----

> <Gold.Chemscore.Fitness>
19.3187

> <Gold.Chemscore.DG>
-21.3695

> <Gold.Chemscore.ZeroCoef>
-5.4800

> <Gold.Chemscore.Hbond>
1.8471

> <Gold.Chemscore.Metal>
0.0000

> <Gold.Chemscore.Lipo>
114.9629

> <Gold.Chemscore.Internal_Hbond>
0.0000

> <Gold.Chemscore.DEClash>
1.4426

> <Gold.Chemscore.DEInternal>
0.6082

> <Gold.Chemscore.Rot>
1.4572

> <Gold.Chemscore.Internal.Correction>
   9.000000E+99

> <Gold.Chemscore.Hbonds>
donor molecule, donor type, donor heavy atom, donor atom, acceptor molecule, acceptor atom, score
      L1  H    15    53       P1  7948  0.93
      P1  H  7997  8008       L1     1  0.96

> <Gold.Chemscore.Hbond.Weighted>
-6.1694

> <Gold.Chemscore.Metal.Weighted>
-0.0000

> <Gold.Chemscore.Lipo.Weighted>
-13.4507

> <Gold.Chemscore.Internal_Hbond.Weighted>
0.0000

> <Gold.Chemscore.DEClash.Weighted>
1.4426

> <Gold.Chemscore.DEInternal.Weighted>
0.6082

> <Gold.Chemscore.Rot.Weighted>
3.7305

> <Gold.Chemscore.Internal.Correction.Weighted>
   9.000000E+99

> <Gold.Protein.RotatedTorsions>
[ 6907 6896 6895 6894 ] final  -34.19 input  -60.11 | X-H torsion
[ 7974 7965 7964 7962 ] final   -2.75 input  175.53 | X-H torsion
[ 8008 7997 7996 7995 ] final  -28.74 input   59.86 | X-H torsion
[ 10167 10162 10161 10158 ] final   38.66 input  -65.29 | X-H torsion
[ 10718 10713 10712 10709 ] final   -7.95 input   66.30 | X-H torsion
[ 10763 10752 10751 10750 ] final   -8.60 input  -60.55 | X-H torsion
[ 11005 11000 10999 10996 ] final -102.99 input  -57.11 | X-H torsion

> <Gold.Protein.ActiveResidues>
 VAL166  LYS551  ARG553  GLY616  TRP617  ASP618  TYR619  PRO620  LYS621  CYS622 
 ASP623  PHE694  ASN695  SER759  ASP760  ASP761  ALA762  ILE779  LEU786  VAL792 
 PHE793  MET794  SER795  GLU796  ALA797  LYS798  CYS799  TRP800  GLU811  SER814 

> <Gold.Protein.RotatedAtoms>
  151.0558  134.9703  159.8234 H   0  0  0  0  0  0  0  0  0  0  0  0  # atno 6907 bound_to 6896
  152.5388  134.2480  159.8898 H   0  0  0  0  0  0  0  0  0  0  0  0  # atno 6908 bound_to 6896
  151.2498  133.4313  159.2644 H   0  0  0  0  0  0  0  0  0  0  0  0  # atno 6909 bound_to 6896
  146.2400  140.1618  142.8332 H   0  0  0  0  0  0  0  0  0  0  0  0  # atno 7974 bound_to 7965
  154.4319  140.1837  156.1137 H   0  0  0  0  0  0  0  0  0  0  0  0  # atno 8008 bound_to 7997
  156.0198  140.3342  155.7001 H   0  0  0  0  0  0  0  0  0  0  0  0  # atno 8009 bound_to 7997
  155.5993  140.0639  157.2728 H   0  0  0  0  0  0  0  0  0  0  0  0  # atno 8010 bound_to 7997
  140.3915  144.1846  150.6131 H   0  0  0  0  0  0  0  0  0  0  0  0  # atno 10167 bound_to 10162
  156.7098  130.5118  149.5895 H   0  0  0  0  0  0  0  0  0  0  0  0  # atno 10718 bound_to 10713
  153.4428  135.7014  153.6158 H   0  0  0  0  0  0  0  0  0  0  0  0  # atno 10763 bound_to 10752
  153.4525  135.3754  155.2292 H   0  0  0  0  0  0  0  0  0  0  0  0  # atno 10764 bound_to 10752
  154.8727  135.4000  154.3829 H   0  0  0  0  0  0  0  0  0  0  0  0  # atno 10765 bound_to 10752
  141.1165  133.8604  157.1430 H   0  0  0  0  0  0  0  0  0  0  0  0  # atno 11005 bound_to 11000
  145.0083  140.8692  143.5240 LP  0  0  0  0  0  0  0  0  0  0  0  0  # atno 17320 bound_to 7965
  145.1648  139.2438  143.5373 LP  0  0  0  0  0  0  0  0  0  0  0  0  # atno 17321 bound_to 7965
  140.4834  143.2371  151.8922 LP  0  0  0  0  0  0  0  0  0  0  0  0  # atno 17342 bound_to 10162
  139.4789  144.5244  151.8755 LP  0  0  0  0  0  0  0  0  0  0  0  0  # atno 17343 bound_to 10162
  156.1669  130.6411  151.0789 LP  0  0  0  0  0  0  0  0  0  0  0  0  # atno 17370 bound_to 10713
  157.6941  131.0800  150.7022 LP  0  0  0  0  0  0  0  0  0  0  0  0  # atno 17371 bound_to 10713
  140.0091  134.9996  157.0357 LP  0  0  0  0  0  0  0  0  0  0  0  0  # atno 17394 bound_to 11000
  140.4630  134.1464  155.7193 LP  0  0  0  0  0  0  0  0  0  0  0  0  # atno 17395 bound_to 11000

$$$$
