AV-unprocessed.smi:1047|AV-procd|sdf|4577|dock1
  -GOLD-   22720 3 43D 1   1.00000     0.00000
 Structure written by MMmdl.
 56 58  0  0  0  0  0  0  0  0  2 V2000
  142.9116  146.1330  153.7704 C   0  0  0  0  0  0  0  0  0  0  0  0
  144.2394  145.3705  153.8833 C   0  0  0  0  0  0  0  0  0  0  0  0
  144.0458  143.8991  153.9803 N   0  3  2  0  0  0  0  0  0  0  0  0
  143.0602  143.4990  155.0138 C   0  0  0  0  0  0  0  0  0  0  0  0
  143.6755  143.5618  156.4233 C   0  0  0  0  0  0  0  0  0  0  0  0
  144.8384  142.7439  156.4691 O   0  0  0  0  0  0  0  0  0  0  0  0
  145.8517  143.1820  155.5697 C   0  0  1  0  0  0  0  0  0  0  0  0
  147.0744  142.2736  155.7722 C   0  0  0  0  0  0  0  0  0  0  0  0
  146.9905  141.0737  154.9449 N   0  0  0  0  0  0  0  0  0  0  0  0
  148.1338  140.9035  154.0535 C   0  0  0  0  0  0  0  0  0  0  0  0
  149.3974  140.5140  154.8381 C   0  0  1  0  0  0  0  0  0  0  0  0
  150.3100  139.9029  153.9465 O   0  0  0  0  0  0  0  0  0  0  0  0
  150.0717  141.7427  155.4787 C   0  0  0  0  0  0  0  0  0  0  0  0
  150.9498  141.3848  156.5786 N   0  0  0  0  0  0  0  0  0  0  0  0
  151.7300  140.2911  156.6771 C   0  0  0  0  0  0  0  0  0  0  0  0
  152.4593  140.1612  157.7818 N   0  0  0  0  0  0  0  0  0  0  0  0
  152.1161  141.3068  158.4792 C   0  0  0  0  0  0  0  0  0  0  0  0
  152.5447  141.7762  159.7402 C   0  0  0  0  0  0  0  0  0  0  0  0
  152.0550  142.9936  160.2650 C   0  0  0  0  0  0  0  0  0  0  0  0
  152.5412  143.4601  161.6259 C   0  0  0  0  0  0  0  0  0  0  0  0
  151.1218  143.7626  159.5241 C   0  0  0  0  0  0  0  0  0  0  0  0
  150.5817  145.0732  160.0682 C   0  0  0  0  0  0  0  0  0  0  0  0
  150.6831  143.3082  158.2629 C   0  0  0  0  0  0  0  0  0  0  0  0
  151.1765  142.0948  157.7524 C   0  0  0  0  0  0  0  0  0  0  0  0
  145.2973  143.1124  154.1275 C   0  0  0  0  0  0  0  0  0  0  0  0
  143.0843  147.2088  153.8090 H   0  0  0  0  0  0  0  0  0  0  0  0
  142.2391  145.8781  154.5899 H   0  0  0  0  0  0  0  0  0  0  0  0
  142.3966  145.9243  152.8332 H   0  0  0  0  0  0  0  0  0  0  0  0
  144.8957  145.6256  153.0514 H   0  0  0  0  0  0  0  0  0  0  0  0
  144.7422  145.7199  154.7859 H   0  0  0  0  0  0  0  0  0  0  0  0
  142.1633  144.1165  154.9535 H   0  0  0  0  0  0  0  0  0  0  0  0
  142.7416  142.4764  154.8065 H   0  0  0  0  0  0  0  0  0  0  0  0
  143.9212  144.5867  156.7045 H   0  0  0  0  0  0  0  0  0  0  0  0
  142.9600  143.1952  157.1596 H   0  0  0  0  0  0  0  0  0  0  0  0
  146.1300  144.2046  155.8287 H   0  0  0  0  0  0  0  0  0  0  0  0
  147.9747  142.8296  155.5069 H   0  0  0  0  0  0  0  0  0  0  0  0
  147.1744  142.0066  156.8251 H   0  0  0  0  0  0  0  0  0  0  0  0
  146.1377  141.0956  154.3937 H   0  0  0  0  0  0  0  0  0  0  0  0
  147.9207  140.1581  153.2859 H   0  0  0  0  0  0  0  0  0  0  0  0
  148.3131  141.8429  153.5291 H   0  0  0  0  0  0  0  0  0  0  0  0
  149.1414  139.8003  155.6227 H   0  0  0  0  0  0  0  0  0  0  0  0
  149.8630  139.7322  153.1315 H   0  0  0  0  0  0  0  0  0  0  0  0
  150.6476  142.2947  154.7340 H   0  0  0  0  0  0  0  0  0  0  0  0
  149.3165  142.4302  155.8614 H   0  0  0  0  0  0  0  0  0  0  0  0
  151.7618  139.5464  155.8951 H   0  0  0  0  0  0  0  0  0  0  0  0
  153.2556  141.1904  160.3040 H   0  0  0  0  0  0  0  0  0  0  0  0
  153.0413  144.4251  161.5429 H   0  0  0  0  0  0  0  0  0  0  0  0
  153.2483  142.7529  162.0603 H   0  0  0  0  0  0  0  0  0  0  0  0
  151.7036  143.5618  162.3161 H   0  0  0  0  0  0  0  0  0  0  0  0
  149.8838  145.5365  159.3704 H   0  0  0  0  0  0  0  0  0  0  0  0
  151.3942  145.7780  160.2455 H   0  0  0  0  0  0  0  0  0  0  0  0
  150.0550  144.9070  161.0080 H   0  0  0  0  0  0  0  0  0  0  0  0
  149.9722  143.8832  157.6882 H   0  0  0  0  0  0  0  0  0  0  0  0
  145.0718  142.0743  153.8789 H   0  0  0  0  0  0  0  0  0  0  0  0
  146.0470  143.4357  153.4065 H   0  0  0  0  0  0  0  0  0  0  0  0
  143.6400  143.6302  153.0951 H   0  0  0  0  0  0  0  0  0  0  0  0
  1  2  1  0  0  0  0
  1 26  1  0  0  0  0
  1 27  1  0  0  0  0
  1 28  1  0  0  0  0
  2  3  1  0  0  0  0
  2 29  1  0  0  0  0
  2 30  1  0  0  0  0
  3 25  1  0  0  0  0
  3  4  1  0  0  0  0
  3 56  1  0  0  0  0
  4  5  1  0  0  0  0
  4 31  1  0  0  0  0
  4 32  1  0  0  0  0
  5  6  1  0  0  0  0
  5 33  1  0  0  0  0
  5 34  1  0  0  0  0
  6  7  1  0  0  0  0
  7  8  1  0  0  0  0
  7 25  1  0  0  0  0
  7 35  1  0  0  0  0
  8  9  1  0  0  0  0
  8 36  1  0  0  0  0
  8 37  1  0  0  0  0
  9 10  1  0  0  0  0
  9 38  1  0  0  0  0
 10 11  1  0  0  0  0
 10 39  1  0  0  0  0
 10 40  1  0  0  0  0
 11 12  1  0  0  0  0
 11 13  1  0  0  0  0
 11 41  1  0  0  0  0
 12 42  1  0  0  0  0
 13 14  1  0  0  0  0
 13 43  1  0  0  0  0
 13 44  1  0  0  0  0
 14 24  1  0  0  0  0
 14 15  1  0  0  0  0
 15 16  2  0  0  0  0
 15 45  1  0  0  0  0
 16 17  1  0  0  0  0
 17 24  2  0  0  0  0
 17 18  1  0  0  0  0
 18 19  2  0  0  0  0
 18 46  1  0  0  0  0
 19 20  1  0  0  0  0
 19 21  1  0  0  0  0
 20 47  1  0  0  0  0
 20 48  1  0  0  0  0
 20 49  1  0  0  0  0
 21 22  1  0  0  0  0
 21 23  2  0  0  0  0
 22 50  1  0  0  0  0
 22 51  1  0  0  0  0
 22 52  1  0  0  0  0
 23 24  1  0  0  0  0
 23 53  1  0  0  0  0
 25 54  1  0  0  0  0
 25 55  1  0  0  0  0
M  CHG  1   3   1
M  END
> <s_m_source_file>
AV-unprocessed.smi

> <i_m_source_file_index>
1047

> <i_lp_mmshare_version>
43012

> <i_f3d_flags>
0

> <s_epik_input>
W0NIM11bQ0gyXU4xW0NIMl1bQ0gyXU9bQ0BIXShbQ0gyXTEpW0NIMl1bTkhdW0NIMl1bQ0BIXShbT0hdKVtDSDJdbihbY0hdbjIpYyhjMjMpW2NIXWMoW0NIM10pYyhbY0hdMylbQ0gzXQ==

> <s_epik_cmdline>
J2VwaWtfcHl0aG9uJywgJy1waCcsICc3LjAnLCAnLXRuJywgJzgnLCAnLW1hJywgJzIwMCcsICctbWV0YWxfYmluZGluZycsICctaW1hZScsICc8aW5maWxlLm1hZT4nLCAnLW9tYWUnLCAnPG91dGZpbGUubWFlPic=

> <r_epik_Ionization_Penalty>
1.19246

> <r_epik_Ionization_Penalty_Charging>
0.210041

> <r_epik_Ionization_Penalty_Neutral>
0.982415

> <r_epik_State_Penalty>
1.57595

> <r_epik_Charging_Adjusted_Penalty>
1.78599

> <i_epik_Tot_Q>
1

> <i_epik_Tot_abs_Q>
1

> <r_epik_Metal_State_Penalty>
1.46172

> <b_epik_Metal_Only>
0

> <s_lp_Force_Field>
OPLS_2005

> <r_lp_Energy>
32.1695

> <b_lp_Chiralities_Consistent>
1

> <s_lp_Variant>
AV-unprocessed.smi:1047-18

> <Gold.Version>
5.8.1

> <Gold.Id.Protein>
6NUR|6NUR_protein|mol2

> <Gold.PLP.Fitness>
61.1011

> <Gold.PLP.PLP>
-48.7512

> <Gold.PLP.part.hbond>
-4.0000

> <Gold.PLP.part.metal>
0.0000

> <Gold.PLP.part.buried>
-4.8907

> <Gold.PLP.part.nonpolar>
-39.2212

> <Gold.PLP.part.repulsive>
0.0972

> <Gold.PLP.ligand.clash>
0.0000

> <Gold.PLP.ligand.torsion>
1.4975

> <Gold.PLP.Chemscore.Hbond>
4.9920

> <Gold.PLP.Chemscore.CHOScore>
0.0000

> <Gold.PLP.Chemscore.Metal>
0.0000

> <Gold.Chemscore.Hbonds>
donor molecule, donor type, donor heavy atom, donor atom, acceptor molecule, acceptor atom, score
      L1  H     3    56       P1 10174  2.00
      L1  H    12    42       P1  7957  1.00
      P1  H  7989  7998       L1    12  1.00
      P1  H  7997  8008       L1    16  0.54

> <Gold.PLP.Chemscore.Internal.Correction>
0.3690

> <Gold.Rescore>
     Score         DG    S(hbond)    S(metal)    S(lipo)     H(rot)  DE(clash)    DE(int)     intcor
     22.76     -24.42       3.14        0.00     129.46       2.62       0.21       1.45       ----

> <Gold.Chemscore.Fitness>
22.7607

> <Gold.Chemscore.DG>
-24.4198

> <Gold.Chemscore.ZeroCoef>
-5.4800

> <Gold.Chemscore.Hbond>
3.1446

> <Gold.Chemscore.Metal>
0.0000

> <Gold.Chemscore.Lipo>
129.4575

> <Gold.Chemscore.Internal_Hbond>
0.0000

> <Gold.Chemscore.DEClash>
0.2067

> <Gold.Chemscore.DEInternal>
1.4523

> <Gold.Chemscore.Rot>
2.6209

> <Gold.Chemscore.Internal.Correction>
   9.000000E+99

> <Gold.Chemscore.Hbonds>
donor molecule, donor type, donor heavy atom, donor atom, acceptor molecule, acceptor atom, score
      L1  H     3    56       P1 10174  0.75
      L1  H    12    42       P1  7957  0.91
      P1  H  7989  7998       L1    12  0.34
      P1  H  7997  8008       L1    16  0.12

> <Gold.Chemscore.Hbond.Weighted>
-10.5029

> <Gold.Chemscore.Metal.Weighted>
-0.0000

> <Gold.Chemscore.Lipo.Weighted>
-15.1465

> <Gold.Chemscore.Internal_Hbond.Weighted>
0.0000

> <Gold.Chemscore.DEClash.Weighted>
0.2067

> <Gold.Chemscore.DEInternal.Weighted>
1.4523

> <Gold.Chemscore.Rot.Weighted>
6.7096

> <Gold.Chemscore.Internal.Correction.Weighted>
   9.000000E+99

> <Gold.Protein.RotatedTorsions>
[ 6907 6896 6895 6894 ] final  -77.45 input  -60.11 | X-H torsion
[ 7974 7965 7964 7962 ] final  151.60 input  175.53 | X-H torsion
[ 8008 7997 7996 7995 ] final  -76.44 input   59.86 | X-H torsion
[ 10167 10162 10161 10158 ] final   82.42 input  -65.29 | X-H torsion
[ 10718 10713 10712 10709 ] final    0.04 input   66.30 | X-H torsion
[ 10763 10752 10751 10750 ] final  164.07 input  -60.55 | X-H torsion
[ 11005 11000 10999 10996 ] final -153.11 input  -57.11 | X-H torsion

> <Gold.Protein.ActiveResidues>
 VAL166  LYS551  ARG553  GLY616  TRP617  ASP618  TYR619  PRO620  LYS621  CYS622 
 ASP623  PHE694  ASN695  SER759  ASP760  ASP761  ALA762  ILE779  LEU786  VAL792 
 PHE793  MET794  SER795  GLU796  ALA797  LYS798  CYS799  TRP800  GLU811  SER814 

> <Gold.Protein.RotatedAtoms>
  150.6998  134.4420  159.5296 H   0  0  0  0  0  0  0  0  0  0  0  0  # atno 6907 bound_to 6896
  152.2128  134.8482  160.0504 H   0  0  0  0  0  0  0  0  0  0  0  0  # atno 6908 bound_to 6896
  151.9361  133.3590  159.3985 H   0  0  0  0  0  0  0  0  0  0  0  0  # atno 6909 bound_to 6896
  144.8281  139.6558  143.6071 H   0  0  0  0  0  0  0  0  0  0  0  0  # atno 7974 bound_to 7965
  154.5505  140.0727  156.8660 H   0  0  0  0  0  0  0  0  0  0  0  0  # atno 8008 bound_to 7997
  155.3002  140.3383  155.4230 H   0  0  0  0  0  0  0  0  0  0  0  0  # atno 8009 bound_to 7997
  156.1957  140.1702  156.7989 H   0  0  0  0  0  0  0  0  0  0  0  0  # atno 8010 bound_to 7997
  139.9290  144.6164  150.8364 H   0  0  0  0  0  0  0  0  0  0  0  0  # atno 10167 bound_to 10162
  156.8276  130.5477  149.5690 H   0  0  0  0  0  0  0  0  0  0  0  0  # atno 10718 bound_to 10713
  154.3033  135.2758  155.2601 H   0  0  0  0  0  0  0  0  0  0  0  0  # atno 10763 bound_to 10752
  154.5028  135.5803  153.6548 H   0  0  0  0  0  0  0  0  0  0  0  0  # atno 10764 bound_to 10752
  152.9897  135.6162  154.3205 H   0  0  0  0  0  0  0  0  0  0  0  0  # atno 10765 bound_to 10752
  140.7116  134.3826  157.5197 H   0  0  0  0  0  0  0  0  0  0  0  0  # atno 11005 bound_to 11000
  146.2585  139.6358  142.9378 LP  0  0  0  0  0  0  0  0  0  0  0  0  # atno 17320 bound_to 7965
  145.4955  141.0438  143.2569 LP  0  0  0  0  0  0  0  0  0  0  0  0  # atno 17321 bound_to 7965
  140.7642  143.3244  151.2550 LP  0  0  0  0  0  0  0  0  0  0  0  0  # atno 17342 bound_to 10162
  139.6798  143.9874  152.2802 LP  0  0  0  0  0  0  0  0  0  0  0  0  # atno 17343 bound_to 10162
  156.0953  130.5927  150.9802 LP  0  0  0  0  0  0  0  0  0  0  0  0  # atno 17370 bound_to 10713
  157.6424  131.0908  150.8224 LP  0  0  0  0  0  0  0  0  0  0  0  0  # atno 17371 bound_to 10713
  139.8870  134.8894  156.2552 LP  0  0  0  0  0  0  0  0  0  0  0  0  # atno 17394 bound_to 11000
  141.0079  133.7112  156.1065 LP  0  0  0  0  0  0  0  0  0  0  0  0  # atno 17395 bound_to 11000

$$$$
