AV-unprocessed.smi:876|AV-procd|sdf|4019|dock2
  -GOLD-   22720 1503D 1   1.00000     0.00000
 Structure written by MMmdl.
 41 42  0  0  0  0  0  0  0  0  2 V2000
  151.6780  144.1410  157.1062 C   0  0  0  0  0  0  0  0  0  0  0  0
  151.6119  142.7291  157.4597 N   0  0  0  0  0  0  0  0  0  0  0  0
  152.1358  142.2649  158.7396 C   0  0  0  0  0  0  0  0  0  0  0  0
  151.0649  141.8010  156.5472 C   0  0  0  0  0  0  0  0  0  0  0  0
  151.5160  140.4628  156.4376 C   0  0  0  0  0  0  0  0  0  0  0  0
  150.9199  139.5922  155.5019 C   0  0  0  0  0  0  0  0  0  0  0  0
  149.8648  140.0626  154.6823 C   0  0  0  0  0  0  0  0  0  0  0  0
  149.2066  139.2765  153.6981 N   0  0  0  0  0  0  0  0  0  0  0  0
  147.9422  139.3776  153.2527 C   0  0  0  0  0  0  0  0  0  0  0  0
  147.1226  140.2183  153.6221 O   0  0  0  0  0  0  0  0  0  0  0  0
  147.6786  138.4479  152.3239 N   0  0  0  0  0  0  0  0  0  0  0  0
  146.4012  138.2984  151.6352 C   0  0  2  0  0  0  0  0  0  0  0  0
  145.3339  137.8460  152.5936 C   0  0  0  0  0  0  0  0  0  0  0  0
  144.7187  136.7364  152.1908 C   0  0  0  0  0  0  0  0  0  0  0  0
  145.2536  136.2131  150.8821 C   0  0  2  0  0  0  0  0  0  0  0  0
  145.6874  134.7390  150.9568 C   0  0  0  0  0  0  0  0  0  0  0  0
  146.7362  134.5756  151.8885 O   0  0  0  0  0  0  0  0  0  0  0  0
  146.4229  137.1787  150.5612 C   0  0  0  0  0  0  0  0  0  0  0  0
  149.4636  141.4064  154.8208 C   0  0  0  0  0  0  0  0  0  0  0  0
  150.0619  142.2055  155.7300 N   0  3  0  0  0  0  0  0  0  0  0  0
  146.0900  139.2500  151.2011 H   0  0  0  0  0  0  0  0  0  0  0  0
  144.4710  136.3284  150.1308 H   0  0  0  0  0  0  0  0  0  0  0  0
  150.6785  144.5397  156.9302 H   0  0  0  0  0  0  0  0  0  0  0  0
  152.2745  144.2832  156.2046 H   0  0  0  0  0  0  0  0  0  0  0  0
  152.1346  144.7282  157.9028 H   0  0  0  0  0  0  0  0  0  0  0  0
  152.9480  141.5533  158.5861 H   0  0  0  0  0  0  0  0  0  0  0  0
  151.3521  141.7779  159.3211 H   0  0  0  0  0  0  0  0  0  0  0  0
  152.5250  143.0925  159.3328 H   0  0  0  0  0  0  0  0  0  0  0  0
  152.3178  140.0862  157.0548 H   0  0  0  0  0  0  0  0  0  0  0  0
  151.2962  138.5840  155.4253 H   0  0  0  0  0  0  0  0  0  0  0  0
  149.7824  138.5861  153.2388 H   0  0  0  0  0  0  0  0  0  0  0  0
  148.4094  137.7983  152.0727 H   0  0  0  0  0  0  0  0  0  0  0  0
  145.1001  138.3922  153.4956 H   0  0  0  0  0  0  0  0  0  0  0  0
  143.9126  136.2485  152.7187 H   0  0  0  0  0  0  0  0  0  0  0  0
  144.8496  134.1142  151.2678 H   0  0  0  0  0  0  0  0  0  0  0  0
  146.0145  134.3794  149.9802 H   0  0  0  0  0  0  0  0  0  0  0  0
  147.3660  135.2681  151.7569 H   0  0  0  0  0  0  0  0  0  0  0  0
  146.3204  137.5978  149.5596 H   0  0  0  0  0  0  0  0  0  0  0  0
  147.3738  136.6434  150.5774 H   0  0  0  0  0  0  0  0  0  0  0  0
  148.6790  141.8667  154.2379 H   0  0  0  0  0  0  0  0  0  0  0  0
  149.7397  143.1704  155.8052 H   0  0  0  0  0  0  0  0  0  0  0  0
  1  2  1  0  0  0  0
  1 23  1  0  0  0  0
  1 24  1  0  0  0  0
  1 25  1  0  0  0  0
  2  3  1  0  0  0  0
  2  4  1  0  0  0  0
  3 26  1  0  0  0  0
  3 27  1  0  0  0  0
  3 28  1  0  0  0  0
  4 20  1  0  0  0  0
  4  5  2  0  0  0  0
  5  6  1  0  0  0  0
  5 29  1  0  0  0  0
  6  7  2  0  0  0  0
  6 30  1  0  0  0  0
  7  8  1  0  0  0  0
  7 19  1  0  0  0  0
  8  9  1  0  0  0  0
  8 31  1  0  0  0  0
  9 10  2  0  0  0  0
  9 11  1  0  0  0  0
 11 12  1  0  0  0  0
 11 32  1  0  0  0  0
 12 21  1  0  0  0  0
 12 18  1  0  0  0  0
 12 13  1  0  0  0  0
 13 14  2  0  0  0  0
 13 33  1  0  0  0  0
 14 15  1  0  0  0  0
 14 34  1  0  0  0  0
 15 22  1  0  0  0  0
 15 16  1  0  0  0  0
 15 18  1  0  0  0  0
 16 17  1  0  0  0  0
 16 35  1  0  0  0  0
 16 36  1  0  0  0  0
 17 37  1  0  0  0  0
 18 38  1  0  0  0  0
 18 39  1  0  0  0  0
 19 20  2  0  0  0  0
 19 40  1  0  0  0  0
 20 41  1  0  0  0  0
M  CHG  1  20   1
M  END
> <s_m_source_file>
AV-unprocessed.smi

> <i_m_source_file_index>
876

> <i_lp_mmshare_version>
43012

> <i_f3d_flags>
0

> <s_epik_input>
W0NIM11OKFtDSDNdKWMxW2NIXVtjSF1jKFtjSF1uMSlbTkhdQyg9TylbTkhdW0NAQEhdMltDSF09W0NIXVtDQEBIXShbQ0gyXTIpW0NIMl1bT0hd

> <s_epik_cmdline>
J2VwaWtfcHl0aG9uJywgJy1waCcsICc3LjAnLCAnLXRuJywgJzgnLCAnLW1hJywgJzIwMCcsICctbWV0YWxfYmluZGluZycsICctaW1hZScsICc8aW5maWxlLm1hZT4nLCAnLW9tYWUnLCAnPG91dGZpbGUubWFlPic=

> <r_lp_tautomer_probability>
0.999994

> <r_epik_Ionization_Penalty>
0.257994

> <r_epik_Ionization_Penalty_Charging>
0.257974

> <r_epik_Ionization_Penalty_Neutral>
1.95938e-05

> <r_epik_State_Penalty>
0.249586

> <r_epik_Charging_Adjusted_Penalty>
0.50756

> <i_epik_Tot_Q>
1

> <i_epik_Tot_abs_Q>
1

> <r_epik_Metal_State_Penalty>
0.538508

> <b_epik_Metal_Only>
0

> <s_lp_Force_Field>
OPLS_2005

> <r_lp_Energy>
26.1458

> <b_lp_Chiralities_Consistent>
1

> <s_lp_Variant>
AV-unprocessed.smi:876-1

> <Gold.Version>
5.8.1

> <Gold.Id.Protein>
6NUR|6NUR_protein|mol2

> <Gold.PLP.Fitness>
48.7118

> <Gold.PLP.PLP>
-37.9686

> <Gold.PLP.part.hbond>
-5.0000

> <Gold.PLP.part.metal>
0.0000

> <Gold.PLP.part.buried>
2.4432

> <Gold.PLP.part.nonpolar>
-36.3669

> <Gold.PLP.part.repulsive>
0.4261

> <Gold.PLP.ligand.clash>
0.0000

> <Gold.PLP.ligand.torsion>
0.6444

> <Gold.PLP.Chemscore.Hbond>
4.0000

> <Gold.PLP.Chemscore.CHOScore>
0.0000

> <Gold.PLP.Chemscore.Metal>
0.0000

> <Gold.Chemscore.Hbonds>
donor molecule, donor type, donor heavy atom, donor atom, acceptor molecule, acceptor atom, score
      L1  H    11    32       P1  7948  1.00
      L1  H    17    37       P1  7948  1.00
      L1  H    20    41       P1  8028  2.00

> <Gold.PLP.Chemscore.Internal.Correction>
0.0320

> <Gold.Rescore>
     Score         DG    S(hbond)    S(metal)    S(lipo)     H(rot)  DE(clash)    DE(int)     intcor
     17.62     -20.73       2.97        0.00      85.50       1.82       1.40       1.71       ----

> <Gold.Chemscore.Fitness>
17.6199

> <Gold.Chemscore.DG>
-20.7327

> <Gold.Chemscore.ZeroCoef>
-5.4800

> <Gold.Chemscore.Hbond>
2.9665

> <Gold.Chemscore.Metal>
0.0000

> <Gold.Chemscore.Lipo>
85.4959

> <Gold.Chemscore.Internal_Hbond>
0.0000

> <Gold.Chemscore.DEClash>
1.4008

> <Gold.Chemscore.DEInternal>
1.7121

> <Gold.Chemscore.Rot>
1.8197

> <Gold.Chemscore.Internal.Correction>
   9.000000E+99

> <Gold.Chemscore.Hbonds>
donor molecule, donor type, donor heavy atom, donor atom, acceptor molecule, acceptor atom, score
      L1  H    11    32       P1  7948  0.96
      L1  H    17    37       P1  7948  0.95
      L1  H    20    41       P1  8028  1.00

> <Gold.Chemscore.Hbond.Weighted>
-9.9082

> <Gold.Chemscore.Metal.Weighted>
-0.0000

> <Gold.Chemscore.Lipo.Weighted>
-10.0030

> <Gold.Chemscore.Internal_Hbond.Weighted>
0.0000

> <Gold.Chemscore.DEClash.Weighted>
1.4008

> <Gold.Chemscore.DEInternal.Weighted>
1.7121

> <Gold.Chemscore.Rot.Weighted>
4.6585

> <Gold.Chemscore.Internal.Correction.Weighted>
   9.000000E+99

> <Gold.Protein.RotatedTorsions>
[ 6907 6896 6895 6894 ] final  -44.82 input  -60.11 | X-H torsion
[ 7974 7965 7964 7962 ] final  153.48 input  175.53 | X-H torsion
[ 8008 7997 7996 7995 ] final  153.92 input   59.86 | X-H torsion
[ 10167 10162 10161 10158 ] final -152.69 input  -65.29 | X-H torsion
[ 10718 10713 10712 10709 ] final -179.44 input   66.30 | X-H torsion
[ 10763 10752 10751 10750 ] final   51.90 input  -60.55 | X-H torsion
[ 11005 11000 10999 10996 ] final  160.50 input  -57.11 | X-H torsion

> <Gold.Protein.ActiveResidues>
 VAL166  LYS551  ARG553  GLY616  TRP617  ASP618  TYR619  PRO620  LYS621  CYS622 
 ASP623  PHE694  ASN695  SER759  ASP760  ASP761  ALA762  ILE779  LEU786  VAL792 
 PHE793  MET794  SER795  GLU796  ALA797  LYS798  CYS799  TRP800  GLU811  SER814 

> <Gold.Protein.RotatedAtoms>
  150.9286  134.8702  159.7536 H   0  0  0  0  0  0  0  0  0  0  0  0  # atno 6907 bound_to 6896
  152.5027  134.4112  159.9459 H   0  0  0  0  0  0  0  0  0  0  0  0  # atno 6908 bound_to 6896
  151.4140  133.3678  159.2782 H   0  0  0  0  0  0  0  0  0  0  0  0  # atno 6909 bound_to 6896
  144.8152  139.6806  143.6124 H   0  0  0  0  0  0  0  0  0  0  0  0  # atno 7974 bound_to 7965
  156.2558  140.1980  156.6565 H   0  0  0  0  0  0  0  0  0  0  0  0  # atno 8008 bound_to 7997
  154.6497  140.0573  156.9966 H   0  0  0  0  0  0  0  0  0  0  0  0  # atno 8009 bound_to 7997
  155.1437  140.3245  155.4449 H   0  0  0  0  0  0  0  0  0  0  0  0  # atno 8010 bound_to 7997
  139.7160  143.9033  152.2486 H   0  0  0  0  0  0  0  0  0  0  0  0  # atno 10167 bound_to 10162
  156.8592  130.9746  151.3085 H   0  0  0  0  0  0  0  0  0  0  0  0  # atno 10718 bound_to 10713
  152.9786  135.5830  154.4491 H   0  0  0  0  0  0  0  0  0  0  0  0  # atno 10763 bound_to 10752
  154.4082  135.2769  155.2055 H   0  0  0  0  0  0  0  0  0  0  0  0  # atno 10764 bound_to 10752
  154.3857  135.6137  153.5869 H   0  0  0  0  0  0  0  0  0  0  0  0  # atno 10765 bound_to 10752
  140.2065  134.8299  157.3075 H   0  0  0  0  0  0  0  0  0  0  0  0  # atno 11005 bound_to 11000
  146.2454  139.6087  142.9463 LP  0  0  0  0  0  0  0  0  0  0  0  0  # atno 17320 bound_to 7965
  145.5232  141.0431  143.2424 LP  0  0  0  0  0  0  0  0  0  0  0  0  # atno 17321 bound_to 7965
  139.8915  144.6962  150.8765 LP  0  0  0  0  0  0  0  0  0  0  0  0  # atno 17342 bound_to 10162
  140.7744  143.3582  151.1879 LP  0  0  0  0  0  0  0  0  0  0  0  0  # atno 17343 bound_to 10162
  157.6260  130.8691  149.9189 LP  0  0  0  0  0  0  0  0  0  0  0  0  # atno 17370 bound_to 10713
  156.0786  130.3676  150.0627 LP  0  0  0  0  0  0  0  0  0  0  0  0  # atno 17371 bound_to 10713
  140.1997  134.4270  155.7669 LP  0  0  0  0  0  0  0  0  0  0  0  0  # atno 17394 bound_to 11000
  141.2227  133.7066  156.8163 LP  0  0  0  0  0  0  0  0  0  0  0  0  # atno 17395 bound_to 11000

$$$$
