AV-unprocessed.smi:208|AV-procd|sdf|1605|dock8
  -GOLD-   2262019523D 1   1.00000     0.00000
 Structure written by MMmdl.
 50 53  0  0  0  0  0  0  0  0  1 V2000
  151.1070  142.2139  158.3820 C   0  0  0  0  0  0  0  0  0  0  0  0
  149.9968  141.5557  157.5460 C   0  0  0  0  0  0  0  0  0  0  0  0
  150.1866  140.0546  157.2159 C   0  0  2  0  0  0  0  0  0  0  0  0
  151.5731  139.7452  156.5997 C   0  0  0  0  0  0  0  0  0  0  0  0
  152.5780  140.1116  157.2108 O   0  0  0  0  0  0  0  0  0  0  0  0
  151.6487  139.0759  155.4240 N   0  0  0  0  0  0  0  0  0  0  0  0
  152.9455  138.7433  154.8330 C   0  0  0  0  0  0  0  0  0  0  0  0
  150.4770  138.6144  154.6696 C   0  0  0  0  0  0  0  0  0  0  0  0
  149.2161  139.4294  154.9841 C   0  0  0  0  0  0  0  0  0  0  0  0
  149.0498  139.5612  156.4262 N   0  0  0  0  0  0  0  0  0  0  0  0
  148.2589  138.6151  156.9833 C   0  0  0  0  0  0  0  0  0  0  0  0
  147.0510  138.4000  156.4061 N   0  0  0  0  0  0  0  0  0  0  0  0
  146.2285  137.4712  156.9029 C   0  0  0  0  0  0  0  0  0  0  0  0
  146.4185  136.6588  157.9447 N   0  0  0  0  0  0  0  0  0  0  0  0
  147.6373  136.8648  158.5210 C   0  0  0  0  0  0  0  0  0  0  0  0
  148.6146  137.8121  158.1045 C   0  0  0  0  0  0  0  0  0  0  0  0
  149.7389  137.7200  158.9161 N   0  0  0  0  0  0  0  0  0  0  0  0
  149.4410  136.7773  159.7671 C   0  0  0  0  0  0  0  0  0  0  0  0
  148.1929  136.2170  159.6110 N   0  0  0  0  0  0  0  0  0  0  0  0
  147.6126  135.1554  160.4196 C   0  0  0  0  0  0  0  0  0  0  0  0
  147.0447  135.6306  161.7735 C   0  0  0  0  0  0  0  0  0  0  0  0
  146.4899  134.4447  162.5829 C   0  0  0  0  0  0  0  0  0  0  0  0
  145.4520  133.7833  161.8877 O   0  0  0  0  0  0  0  0  0  0  0  0
  147.9389  136.5815  162.5823 C   0  0  0  0  0  0  0  0  0  0  0  0
  146.8629  137.5258  162.7638 O   0  0  0  0  0  0  0  0  0  0  0  0
  146.1244  136.8581  161.7189 C   0  0  0  0  0  0  0  0  0  0  0  0
  150.8351  143.2386  158.6356 H   0  0  0  0  0  0  0  0  0  0  0  0
  152.0465  142.2597  157.8326 H   0  0  0  0  0  0  0  0  0  0  0  0
  151.2825  141.6819  159.3170 H   0  0  0  0  0  0  0  0  0  0  0  0
  149.0518  141.6827  158.0758 H   0  0  0  0  0  0  0  0  0  0  0  0
  149.8802  142.1131  156.6157 H   0  0  0  0  0  0  0  0  0  0  0  0
  150.1911  139.5483  158.1824 H   0  0  0  0  0  0  0  0  0  0  0  0
  153.4413  139.6463  154.4747 H   0  0  0  0  0  0  0  0  0  0  0  0
  152.8479  138.0581  153.9901 H   0  0  0  0  0  0  0  0  0  0  0  0
  153.5970  138.2614  155.5637 H   0  0  0  0  0  0  0  0  0  0  0  0
  150.6713  138.6602  153.5973 H   0  0  0  0  0  0  0  0  0  0  0  0
  150.3100  137.5643  154.9119 H   0  0  0  0  0  0  0  0  0  0  0  0
  149.3026  140.4206  154.5415 H   0  0  0  0  0  0  0  0  0  0  0  0
  148.3432  138.9674  154.5191 H   0  0  0  0  0  0  0  0  0  0  0  0
  145.2831  137.3633  156.3922 H   0  0  0  0  0  0  0  0  0  0  0  0
  150.1260  136.4671  160.5430 H   0  0  0  0  0  0  0  0  0  0  0  0
  146.8348  134.6731  159.8267 H   0  0  0  0  0  0  0  0  0  0  0  0
  148.3749  134.3907  160.5735 H   0  0  0  0  0  0  0  0  0  0  0  0
  147.2699  133.7253  162.8323 H   0  0  0  0  0  0  0  0  0  0  0  0
  146.0842  134.7884  163.5352 H   0  0  0  0  0  0  0  0  0  0  0  0
  144.9558  133.2694  162.5067 H   0  0  0  0  0  0  0  0  0  0  0  0
  148.2989  136.1637  163.5230 H   0  0  0  0  0  0  0  0  0  0  0  0
  148.7585  137.0201  162.0120 H   0  0  0  0  0  0  0  0  0  0  0  0
  146.1715  137.4065  160.7765 H   0  0  0  0  0  0  0  0  0  0  0  0
  145.0903  136.6543  161.9990 H   0  0  0  0  0  0  0  0  0  0  0  0
  1  2  1  0  0  0  0
  1 27  1  0  0  0  0
  1 28  1  0  0  0  0
  1 29  1  0  0  0  0
  2  3  1  0  0  0  0
  2 30  1  0  0  0  0
  2 31  1  0  0  0  0
  3 10  1  0  0  0  0
  3  4  1  0  0  0  0
  3 32  1  0  0  0  0
  4  5  2  0  0  0  0
  4  6  1  0  0  0  0
  6  7  1  0  0  0  0
  6  8  1  0  0  0  0
  7 33  1  0  0  0  0
  7 34  1  0  0  0  0
  7 35  1  0  0  0  0
  8  9  1  0  0  0  0
  8 36  1  0  0  0  0
  8 37  1  0  0  0  0
  9 10  1  0  0  0  0
  9 38  1  0  0  0  0
  9 39  1  0  0  0  0
 10 11  1  0  0  0  0
 11 16  1  0  0  0  0
 11 12  2  0  0  0  0
 12 13  1  0  0  0  0
 13 14  2  0  0  0  0
 13 40  1  0  0  0  0
 14 15  1  0  0  0  0
 15 19  1  0  0  0  0
 15 16  2  0  0  0  0
 16 17  1  0  0  0  0
 17 18  2  0  0  0  0
 18 19  1  0  0  0  0
 18 41  1  0  0  0  0
 19 20  1  0  0  0  0
 20 21  1  0  0  0  0
 20 42  1  0  0  0  0
 20 43  1  0  0  0  0
 21 26  1  0  0  0  0
 21 22  1  0  0  0  0
 21 24  1  0  0  0  0
 22 23  1  0  0  0  0
 22 44  1  0  0  0  0
 22 45  1  0  0  0  0
 23 46  1  0  0  0  0
 24 25  1  0  0  0  0
 24 47  1  0  0  0  0
 24 48  1  0  0  0  0
 25 26  1  0  0  0  0
 26 49  1  0  0  0  0
 26 50  1  0  0  0  0
M  END
> <s_m_source_file>
AV-unprocessed.smi

> <i_m_source_file_index>
208

> <i_lp_mmshare_version>
43012

> <i_f3d_flags>
0

> <s_epik_input>
W0NIM11bQ0gyXVtDQEBIXTFDKD1PKU4oW0NIM10pW0NIMl1bQ0gyXU4xYyhuW2NIXW4yKWMoYzIzKW5bY0hdbjNbQ0gyXUM0KFtDSDJdW09IXSlbQ0gyXU9bQ0gyXTQ=

> <s_epik_cmdline>
J2VwaWtfcHl0aG9uJywgJy1waCcsICc3LjAnLCAnLXRuJywgJzgnLCAnLW1hJywgJzIwMCcsICctbWV0YWxfYmluZGluZycsICctaW1hZScsICc8aW5maWxlLm1hZT4nLCAnLW9tYWUnLCAnPG91dGZpbGUubWFlPic=

> <r_lp_tautomer_probability>
1

> <r_epik_Ionization_Penalty>
0.000581289

> <r_epik_Ionization_Penalty_Charging>
0

> <r_epik_Ionization_Penalty_Neutral>
0.000581289

> <r_epik_State_Penalty>
0.000280365

> <r_epik_Charging_Adjusted_Penalty>
0.000280365

> <i_epik_Tot_Q>
0

> <i_epik_Tot_abs_Q>
0

> <r_epik_Metal_State_Penalty>
-0

> <b_epik_Metal_Only>
0

> <s_lp_Force_Field>
OPLS_2005

> <r_lp_Energy>
41.1811

> <b_lp_Chiralities_Consistent>
1

> <s_lp_Variant>
AV-unprocessed.smi:208-1

> <Gold.Version>
5.8.1

> <Gold.Id.Protein>
6NUR|6NUR_protein|mol2

> <Gold.PLP.Fitness>
40.0157

> <Gold.PLP.PLP>
-38.2820

> <Gold.PLP.part.hbond>
-3.0000

> <Gold.PLP.part.metal>
0.0000

> <Gold.PLP.part.buried>
-4.6130

> <Gold.PLP.part.nonpolar>
-30.6771

> <Gold.PLP.part.repulsive>
0.0000

> <Gold.PLP.ligand.clash>
0.0000

> <Gold.PLP.ligand.torsion>
0.9585

> <Gold.PLP.Chemscore.Hbond>
1.0000

> <Gold.PLP.Chemscore.CHOScore>
0.0000

> <Gold.PLP.Chemscore.Metal>
0.0000

> <Gold.Chemscore.Hbonds>
donor molecule, donor type, donor heavy atom, donor atom, acceptor molecule, acceptor atom, score
      P1  H  7997  8009       L1     5  1.00

> <Gold.PLP.Chemscore.Internal.Correction>
0.6508

> <Gold.Rescore>
     Score         DG    S(hbond)    S(metal)    S(lipo)     H(rot)  DE(clash)    DE(int)     intcor
      9.16     -11.55       1.00        0.00      77.21       2.46       0.06       2.34       ----

> <Gold.Chemscore.Fitness>
9.1569

> <Gold.Chemscore.DG>
-11.5512

> <Gold.Chemscore.ZeroCoef>
-5.4800

> <Gold.Chemscore.Hbond>
0.9986

> <Gold.Chemscore.Metal>
0.0000

> <Gold.Chemscore.Lipo>
77.2068

> <Gold.Chemscore.Internal_Hbond>
0.0000

> <Gold.Chemscore.DEClash>
0.0580

> <Gold.Chemscore.DEInternal>
2.3364

> <Gold.Chemscore.Rot>
2.4598

> <Gold.Chemscore.Internal.Correction>
   9.000000E+99

> <Gold.Chemscore.Hbonds>
donor molecule, donor type, donor heavy atom, donor atom, acceptor molecule, acceptor atom, score
      P1  H  7997  8009       L1     5  0.98

> <Gold.Chemscore.Hbond.Weighted>
-3.3352

> <Gold.Chemscore.Metal.Weighted>
-0.0000

> <Gold.Chemscore.Lipo.Weighted>
-9.0332

> <Gold.Chemscore.Internal_Hbond.Weighted>
0.0000

> <Gold.Chemscore.DEClash.Weighted>
0.0580

> <Gold.Chemscore.DEInternal.Weighted>
2.3364

> <Gold.Chemscore.Rot.Weighted>
6.2972

> <Gold.Chemscore.Internal.Correction.Weighted>
   9.000000E+99

> <Gold.Protein.RotatedTorsions>
[ 6907 6896 6895 6894 ] final  169.84 input  -60.11 | X-H torsion
[ 7974 7965 7964 7962 ] final  133.77 input  175.53 | X-H torsion
[ 8008 7997 7996 7995 ] final  178.58 input   59.86 | X-H torsion
[ 10167 10162 10161 10158 ] final  -74.09 input  -65.29 | X-H torsion
[ 10718 10713 10712 10709 ] final   -5.26 input   66.30 | X-H torsion
[ 10763 10752 10751 10750 ] final  165.41 input  -60.55 | X-H torsion
[ 11005 11000 10999 10996 ] final   94.93 input  -57.11 | X-H torsion

> <Gold.Protein.ActiveResidues>
 VAL166  LYS551  ARG553  GLY616  TRP617  ASP618  TYR619  PRO620  LYS621  CYS622 
 ASP623  PHE694  ASN695  SER759  ASP760  ASP761  ALA762  ILE779  LEU786  VAL792 
 PHE793  MET794  SER795  GLU796  ALA797  LYS798  CYS799  TRP800  GLU811  SER814 

> <Gold.Protein.RotatedAtoms>
  151.8255  133.3401  159.3597 H   0  0  0  0  0  0  0  0  0  0  0  0  # atno 6907 bound_to 6896
  150.7281  134.5532  159.5814 H   0  0  0  0  0  0  0  0  0  0  0  0  # atno 6908 bound_to 6896
  152.2974  134.7652  160.0416 H   0  0  0  0  0  0  0  0  0  0  0  0  # atno 6909 bound_to 6896
  144.9831  139.4484  143.5376 H   0  0  0  0  0  0  0  0  0  0  0  0  # atno 7974 bound_to 7965
  156.0531  140.1330  157.0028 H   0  0  0  0  0  0  0  0  0  0  0  0  # atno 8008 bound_to 7997
  154.4444  140.1007  156.6476 H   0  0  0  0  0  0  0  0  0  0  0  0  # atno 8009 bound_to 7997
  155.5493  140.3462  155.4467 H   0  0  0  0  0  0  0  0  0  0  0  0  # atno 8010 bound_to 7997
  140.5056  143.2353  151.7680 H   0  0  0  0  0  0  0  0  0  0  0  0  # atno 10167 bound_to 10162
  156.7492  130.5234  149.5807 H   0  0  0  0  0  0  0  0  0  0  0  0  # atno 10718 bound_to 10713
  154.3235  135.2755  155.2507 H   0  0  0  0  0  0  0  0  0  0  0  0  # atno 10763 bound_to 10752
  154.4850  135.5848  153.6421 H   0  0  0  0  0  0  0  0  0  0  0  0  # atno 10764 bound_to 10752
  152.9874  135.6121  154.3422 H   0  0  0  0  0  0  0  0  0  0  0  0  # atno 10765 bound_to 10752
  139.8794  134.8872  156.3936 H   0  0  0  0  0  0  0  0  0  0  0  0  # atno 11005 bound_to 11000
  146.3413  139.9116  142.8779 LP  0  0  0  0  0  0  0  0  0  0  0  0  # atno 17320 bound_to 7965
  145.2392  141.0003  143.3945 LP  0  0  0  0  0  0  0  0  0  0  0  0  # atno 17321 bound_to 7965
  139.4883  144.4462  151.9707 LP  0  0  0  0  0  0  0  0  0  0  0  0  # atno 17342 bound_to 10162
  140.3553  144.3040  150.5942 LP  0  0  0  0  0  0  0  0  0  0  0  0  # atno 17343 bound_to 10162
  156.1412  130.6246  151.0470 LP  0  0  0  0  0  0  0  0  0  0  0  0  # atno 17370 bound_to 10713
  157.6784  131.0844  150.7433 LP  0  0  0  0  0  0  0  0  0  0  0  0  # atno 17371 bound_to 10713
  140.9315  133.7576  156.0031 LP  0  0  0  0  0  0  0  0  0  0  0  0  # atno 17394 bound_to 11000
  140.8324  134.3162  157.5344 LP  0  0  0  0  0  0  0  0  0  0  0  0  # atno 17395 bound_to 11000

$$$$
