AV-unprocessed.smi:589|AV-procd|sdf|3007|dock6
  -GOLD-   2262023513D 1   1.00000     0.00000
 Structure written by MMmdl.
 40 41  0  0  0  0  0  0  0  0  1 V2000
  151.7190  145.4729  159.9203 C   0  0  0  0  0  0  0  0  0  0  0  0
  151.9896  144.0247  159.5704 C   0  0  0  0  0  0  0  0  0  0  0  0
  153.0799  143.3345  160.1297 C   0  0  0  0  0  0  0  0  0  0  0  0
  153.2888  141.9869  159.7724 C   0  0  0  0  0  0  0  0  0  0  0  0
  154.4468  141.2408  160.4195 C   0  0  0  0  0  0  0  0  0  0  0  0
  152.3977  141.3773  158.8436 C   0  0  0  0  0  0  0  0  0  0  0  0
  152.5630  139.9386  158.4197 C   0  0  0  0  0  0  0  0  0  0  0  0
  151.4646  139.3349  157.9569 N   0  0  0  0  0  0  0  0  0  0  0  0
  153.6402  139.3562  158.5307 O   0  0  0  0  0  0  0  0  0  0  0  0
  151.3155  142.1632  158.3508 C   0  0  0  0  0  0  0  0  0  0  0  0
  150.3944  141.6325  157.4315 N   0  0  0  0  0  0  0  0  0  0  0  0
  148.9970  141.7723  157.8136 C   0  0  0  0  0  0  0  0  0  0  0  0
  148.1156  140.9431  156.8631 C   0  0  1  0  0  0  0  0  0  0  0  0
  146.6233  141.1341  157.1519 C   0  0  0  0  0  0  0  0  0  0  0  0
  148.3641  141.3444  155.5146 O   0  0  0  0  0  0  0  0  0  0  0  0
  149.7281  141.2352  155.0946 C   0  0  2  0  0  0  0  0  0  0  0  0
  150.1599  139.7699  154.9061 C   0  0  0  0  0  0  0  0  0  0  0  0
  150.6437  142.0242  156.0518 C   0  0  0  0  0  0  0  0  0  0  0  0
  151.1272  143.4562  158.7064 N   0  0  0  0  0  0  0  0  0  0  0  0
  152.4256  145.8395  160.6653 H   0  0  0  0  0  0  0  0  0  0  0  0
  150.7121  145.5840  160.3236 H   0  0  0  0  0  0  0  0  0  0  0  0
  151.8053  146.0990  159.0319 H   0  0  0  0  0  0  0  0  0  0  0  0
  153.7393  143.8288  160.8282 H   0  0  0  0  0  0  0  0  0  0  0  0
  154.1283  140.2641  160.7849 H   0  0  0  0  0  0  0  0  0  0  0  0
  154.8435  141.7931  161.2720 H   0  0  0  0  0  0  0  0  0  0  0  0
  155.2591  141.1008  159.7060 H   0  0  0  0  0  0  0  0  0  0  0  0
  151.5078  138.3729  157.6535 H   0  0  0  0  0  0  0  0  0  0  0  0
  150.5952  139.8461  157.9097 H   0  0  0  0  0  0  0  0  0  0  0  0
  148.8618  141.4372  158.8427 H   0  0  0  0  0  0  0  0  0  0  0  0
  148.7075  142.8235  157.7729 H   0  0  0  0  0  0  0  0  0  0  0  0
  148.3488  139.8844  156.9797 H   0  0  0  0  0  0  0  0  0  0  0  0
  146.3789  140.8278  158.1693 H   0  0  0  0  0  0  0  0  0  0  0  0
  146.0156  140.5380  156.4706 H   0  0  0  0  0  0  0  0  0  0  0  0
  146.3287  142.1774  157.0356 H   0  0  0  0  0  0  0  0  0  0  0  0
  149.7842  141.7095  154.1146 H   0  0  0  0  0  0  0  0  0  0  0  0
  151.1571  139.7156  154.4692 H   0  0  0  0  0  0  0  0  0  0  0  0
  149.4771  139.2462  154.2370 H   0  0  0  0  0  0  0  0  0  0  0  0
  150.1917  139.2230  155.8482 H   0  0  0  0  0  0  0  0  0  0  0  0
  150.4505  143.0926  155.9455 H   0  0  0  0  0  0  0  0  0  0  0  0
  151.6919  141.8622  155.7973 H   0  0  0  0  0  0  0  0  0  0  0  0
  1  2  1  0  0  0  0
  1 20  1  0  0  0  0
  1 21  1  0  0  0  0
  1 22  1  0  0  0  0
  2 19  1  0  0  0  0
  2  3  2  0  0  0  0
  3  4  1  0  0  0  0
  3 23  1  0  0  0  0
  4  5  1  0  0  0  0
  4  6  2  0  0  0  0
  5 24  1  0  0  0  0
  5 25  1  0  0  0  0
  5 26  1  0  0  0  0
  6  7  1  0  0  0  0
  6 10  1  0  0  0  0
  7  8  1  0  0  0  0
  7  9  2  0  0  0  0
  8 27  1  0  0  0  0
  8 28  1  0  0  0  0
 10 11  1  0  0  0  0
 10 19  2  0  0  0  0
 11 18  1  0  0  0  0
 11 12  1  0  0  0  0
 12 13  1  0  0  0  0
 12 29  1  0  0  0  0
 12 30  1  0  0  0  0
 13 14  1  0  0  0  0
 13 15  1  0  0  0  0
 13 31  1  0  0  0  0
 14 32  1  0  0  0  0
 14 33  1  0  0  0  0
 14 34  1  0  0  0  0
 15 16  1  0  0  0  0
 16 17  1  0  0  0  0
 16 18  1  0  0  0  0
 16 35  1  0  0  0  0
 17 36  1  0  0  0  0
 17 37  1  0  0  0  0
 17 38  1  0  0  0  0
 18 39  1  0  0  0  0
 18 40  1  0  0  0  0
M  END
> <s_m_source_file>
AV-unprocessed.smi

> <i_m_source_file_index>
589

> <i_lp_mmshare_version>
43012

> <i_f3d_flags>
0

> <s_epik_input>
W0NIM11jMVtjSF1jKFtDSDNdKWMoQyg9TylbTkgyXSljKG4xKU4yW0NIMl1bQ0BASF0oW0NIM10pT1tDQEBIXShbQ0gzXSlbQ0gyXTI=

> <s_epik_cmdline>
J2VwaWtfcHl0aG9uJywgJy1waCcsICc3LjAnLCAnLXRuJywgJzgnLCAnLW1hJywgJzIwMCcsICctbWV0YWxfYmluZGluZycsICctaW1hZScsICc8aW5maWxlLm1hZT4nLCAnLW9tYWUnLCAnPG91dGZpbGUubWFlPic=

> <r_lp_tautomer_probability>
1

> <r_epik_Ionization_Penalty>
0.000626871

> <r_epik_Ionization_Penalty_Charging>
0

> <r_epik_Ionization_Penalty_Neutral>
0.000626871

> <r_epik_State_Penalty>
0.000395665

> <r_epik_Charging_Adjusted_Penalty>
0.000395665

> <i_epik_Tot_Q>
0

> <i_epik_Tot_abs_Q>
0

> <r_epik_Metal_State_Penalty>
-0

> <b_epik_Metal_Only>
0

> <s_lp_Force_Field>
OPLS_2005

> <r_lp_Energy>
27.549

> <b_lp_Chiralities_Consistent>
1

> <s_lp_Variant>
AV-unprocessed.smi:589-3

> <Gold.Version>
5.8.1

> <Gold.Id.Protein>
6NUR|6NUR_protein|mol2

> <Gold.PLP.Fitness>
39.7818

> <Gold.PLP.PLP>
-37.4612

> <Gold.PLP.part.hbond>
-1.0000

> <Gold.PLP.part.metal>
0.0000

> <Gold.PLP.part.buried>
-5.1485

> <Gold.PLP.part.nonpolar>
-31.1590

> <Gold.PLP.part.repulsive>
0.3056

> <Gold.PLP.ligand.clash>
0.0000

> <Gold.PLP.ligand.torsion>
0.5126

> <Gold.PLP.Chemscore.Hbond>
1.0000

> <Gold.PLP.Chemscore.CHOScore>
0.0000

> <Gold.PLP.Chemscore.Metal>
0.0000

> <Gold.Chemscore.Hbonds>
donor molecule, donor type, donor heavy atom, donor atom, acceptor molecule, acceptor atom, score
      P1  H  7997  8009       L1     9  1.00

> <Gold.PLP.Chemscore.Internal.Correction>
0.3458

> <Gold.Rescore>
     Score         DG    S(hbond)    S(metal)    S(lipo)     H(rot)  DE(clash)    DE(int)     intcor
     13.55     -17.07       0.96        0.00      93.52       1.00       0.08       3.44       ----

> <Gold.Chemscore.Fitness>
13.5459

> <Gold.Chemscore.DG>
-17.0682

> <Gold.Chemscore.ZeroCoef>
-5.4800

> <Gold.Chemscore.Hbond>
0.9599

> <Gold.Chemscore.Metal>
0.0000

> <Gold.Chemscore.Lipo>
93.5225

> <Gold.Chemscore.Internal_Hbond>
0.0000

> <Gold.Chemscore.DEClash>
0.0829

> <Gold.Chemscore.DEInternal>
3.4394

> <Gold.Chemscore.Rot>
1.0000

> <Gold.Chemscore.Internal.Correction>
   9.000000E+99

> <Gold.Chemscore.Hbonds>
donor molecule, donor type, donor heavy atom, donor atom, acceptor molecule, acceptor atom, score
      P1  H  7997  8009       L1     9  0.81

> <Gold.Chemscore.Hbond.Weighted>
-3.2061

> <Gold.Chemscore.Metal.Weighted>
-0.0000

> <Gold.Chemscore.Lipo.Weighted>
-10.9421

> <Gold.Chemscore.Internal_Hbond.Weighted>
0.0000

> <Gold.Chemscore.DEClash.Weighted>
0.0829

> <Gold.Chemscore.DEInternal.Weighted>
3.4394

> <Gold.Chemscore.Rot.Weighted>
2.5600

> <Gold.Chemscore.Internal.Correction.Weighted>
   9.000000E+99

> <Gold.Protein.RotatedTorsions>
[ 6907 6896 6895 6894 ] final   91.83 input  -60.11 | X-H torsion
[ 7974 7965 7964 7962 ] final   36.43 input  175.53 | X-H torsion
[ 8008 7997 7996 7995 ] final  128.84 input   59.86 | X-H torsion
[ 10167 10162 10161 10158 ] final    7.42 input  -65.29 | X-H torsion
[ 10718 10713 10712 10709 ] final  -63.15 input   66.30 | X-H torsion
[ 10763 10752 10751 10750 ] final  -20.57 input  -60.55 | X-H torsion
[ 11005 11000 10999 10996 ] final -141.18 input  -57.11 | X-H torsion

> <Gold.Protein.ActiveResidues>
 VAL166  LYS551  ARG553  GLY616  TRP617  ASP618  TYR619  PRO620  LYS621  CYS622 
 ASP623  PHE694  ASN695  SER759  ASP760  ASP761  ALA762  ILE779  LEU786  VAL792 
 PHE793  MET794  SER795  GLU796  ALA797  LYS798  CYS799  TRP800  GLU811  SER814 

> <Gold.Protein.RotatedAtoms>
  152.5451  134.1596  159.8552 H   0  0  0  0  0  0  0  0  0  0  0  0  # atno 6907 bound_to 6896
  151.1616  133.4834  159.2601 H   0  0  0  0  0  0  0  0  0  0  0  0  # atno 6908 bound_to 6896
  151.1367  135.0169  159.8662 H   0  0  0  0  0  0  0  0  0  0  0  0  # atno 6909 bound_to 6896
  146.1212  139.6018  142.9289 H   0  0  0  0  0  0  0  0  0  0  0  0  # atno 7974 bound_to 7965
  156.2924  140.2635  156.2501 H   0  0  0  0  0  0  0  0  0  0  0  0  # atno 8008 bound_to 7997
  154.9891  140.0389  157.2330 H   0  0  0  0  0  0  0  0  0  0  0  0  # atno 8009 bound_to 7997
  154.7702  140.2776  155.6148 H   0  0  0  0  0  0  0  0  0  0  0  0  # atno 8010 bound_to 7997
  140.6372  143.7858  150.7377 H   0  0  0  0  0  0  0  0  0  0  0  0  # atno 10167 bound_to 10162
  156.0809  130.4217  150.1236 H   0  0  0  0  0  0  0  0  0  0  0  0  # atno 10718 bound_to 10713
  153.6225  135.6992  153.5305 H   0  0  0  0  0  0  0  0  0  0  0  0  # atno 10763 bound_to 10752
  153.2926  135.4152  155.1180 H   0  0  0  0  0  0  0  0  0  0  0  0  # atno 10764 bound_to 10752
  154.8540  135.3629  154.5766 H   0  0  0  0  0  0  0  0  0  0  0  0  # atno 10765 bound_to 10752
  140.8350  134.2471  157.4838 H   0  0  0  0  0  0  0  0  0  0  0  0  # atno 11005 bound_to 11000
  145.5463  141.0417  143.2303 LP  0  0  0  0  0  0  0  0  0  0  0  0  # atno 17320 bound_to 7965
  144.7599  139.6983  143.7239 LP  0  0  0  0  0  0  0  0  0  0  0  0  # atno 17321 bound_to 7965
  140.1481  143.4381  152.2149 LP  0  0  0  0  0  0  0  0  0  0  0  0  # atno 17342 bound_to 10162
  139.5582  144.7388  151.4231 LP  0  0  0  0  0  0  0  0  0  0  0  0  # atno 17343 bound_to 10162
  156.9268  130.9701  151.3539 LP  0  0  0  0  0  0  0  0  0  0  0  0  # atno 17370 bound_to 10713
  157.5925  130.8454  149.8681 LP  0  0  0  0  0  0  0  0  0  0  0  0  # atno 17371 bound_to 10713
  139.8704  134.9606  156.4368 LP  0  0  0  0  0  0  0  0  0  0  0  0  # atno 17394 bound_to 11000
  140.8957  133.7815  155.9623 LP  0  0  0  0  0  0  0  0  0  0  0  0  # atno 17395 bound_to 11000

$$$$
