AV-unprocessed.smi:221|AV-procd|sdf|1690|dock3
  -GOLD-   2262020133D 1   1.00000     0.00000
 Structure written by MMmdl.
 50 53  0  0  0  0  0  0  0  0  1 V2000
  142.1872  134.2075  154.7870 N   0  0  0  0  0  0  0  0  0  0  0  0
  142.3186  135.1890  153.8917 C   0  0  0  0  0  0  0  0  0  0  0  0
  141.7190  136.2574  154.0006 O   0  0  0  0  0  0  0  0  0  0  0  0
  143.2769  134.9319  152.7197 C   0  0  2  0  0  0  0  0  0  0  0  0
  143.0115  133.5761  152.0516 C   0  0  0  0  0  0  0  0  0  0  0  0
  144.3452  133.2495  151.3894 C   0  0  1  0  0  0  0  0  0  0  0  0
  144.4313  133.8873  150.2209 F   0  0  0  0  0  0  0  0  0  0  0  0
  145.3730  133.8265  152.3657 C   0  0  0  0  0  0  0  0  0  0  0  0
  144.6738  134.8409  153.1505 N   0  0  0  0  0  0  0  0  0  0  0  0
  145.3245  136.0158  153.3003 C   0  0  0  0  0  0  0  0  0  0  0  0
  145.0334  137.0022  152.4181 N   0  0  0  0  0  0  0  0  0  0  0  0
  145.6458  138.1864  152.5154 C   0  0  0  0  0  0  0  0  0  0  0  0
  146.5610  138.5833  153.4028 N   0  0  0  0  0  0  0  0  0  0  0  0
  146.8548  137.5907  154.2911 C   0  0  0  0  0  0  0  0  0  0  0  0
  146.2879  136.2858  154.3123 C   0  0  0  0  0  0  0  0  0  0  0  0
  146.8300  135.5487  155.3583 N   0  0  0  0  0  0  0  0  0  0  0  0
  147.6706  136.3713  155.9239 C   0  0  0  0  0  0  0  0  0  0  0  0
  147.7522  137.6171  155.3444 N   0  0  0  0  0  0  0  0  0  0  0  0
  148.6036  138.7136  155.7718 C   0  0  0  0  0  0  0  0  0  0  0  0
  149.2051  139.5116  154.5886 C   0  0  1  0  0  0  0  0  0  0  0  0
  148.6061  140.9338  154.4660 C   0  0  0  0  0  0  0  0  0  0  0  0
  148.8598  141.4942  153.1940 O   0  0  0  0  0  0  0  0  0  0  0  0
  150.7542  139.5249  154.6388 C   0  0  2  0  0  0  0  0  0  0  0  0
  151.4010  138.1644  154.8317 C   0  0  0  0  0  0  0  0  0  0  0  0
  152.8010  138.5377  155.3055 C   0  0  0  0  0  0  0  0  0  0  0  0
  152.6450  139.7396  156.0509 O   0  0  0  0  0  0  0  0  0  0  0  0
  151.3480  140.2851  155.8298 C   0  0  0  0  0  0  0  0  0  0  0  0
  143.1645  135.7247  151.9777 H   0  0  0  0  0  0  0  0  0  0  0  0
  144.4849  132.1862  151.1940 H   0  0  0  0  0  0  0  0  0  0  0  0
  141.5678  134.3291  155.5751 H   0  0  0  0  0  0  0  0  0  0  0  0
  142.7052  133.3482  154.6739 H   0  0  0  0  0  0  0  0  0  0  0  0
  142.7804  132.8127  152.7970 H   0  0  0  0  0  0  0  0  0  0  0  0
  142.1858  133.6093  151.3402 H   0  0  0  0  0  0  0  0  0  0  0  0
  145.7052  133.0511  153.0567 H   0  0  0  0  0  0  0  0  0  0  0  0
  146.2598  134.1975  151.8485 H   0  0  0  0  0  0  0  0  0  0  0  0
  145.3614  138.9208  151.7764 H   0  0  0  0  0  0  0  0  0  0  0  0
  148.2612  136.0893  156.7834 H   0  0  0  0  0  0  0  0  0  0  0  0
  148.0276  139.3733  156.4215 H   0  0  0  0  0  0  0  0  0  0  0  0
  149.3940  138.2895  156.3910 H   0  0  0  0  0  0  0  0  0  0  0  0
  148.9213  138.9827  153.6775 H   0  0  0  0  0  0  0  0  0  0  0  0
  147.5289  140.9175  154.6304 H   0  0  0  0  0  0  0  0  0  0  0  0
  149.0135  141.5978  155.2284 H   0  0  0  0  0  0  0  0  0  0  0  0
  148.9356  140.7925  152.5654 H   0  0  0  0  0  0  0  0  0  0  0  0
  151.1467  139.9651  153.7207 H   0  0  0  0  0  0  0  0  0  0  0  0
  150.8816  137.6000  155.6076 H   0  0  0  0  0  0  0  0  0  0  0  0
  151.4176  137.5619  153.9231 H   0  0  0  0  0  0  0  0  0  0  0  0
  153.2631  137.7526  155.9040 H   0  0  0  0  0  0  0  0  0  0  0  0
  153.4493  138.7401  154.4521 H   0  0  0  0  0  0  0  0  0  0  0  0
  151.4021  141.3595  155.6531 H   0  0  0  0  0  0  0  0  0  0  0  0
  150.7532  140.1224  156.7296 H   0  0  0  0  0  0  0  0  0  0  0  0
  1  2  1  0  0  0  0
  1 30  1  0  0  0  0
  1 31  1  0  0  0  0
  2  3  2  0  0  0  0
  2  4  1  0  0  0  0
  4 28  1  0  0  0  0
  4  9  1  0  0  0  0
  4  5  1  0  0  0  0
  5  6  1  0  0  0  0
  5 32  1  0  0  0  0
  5 33  1  0  0  0  0
  6 29  1  0  0  0  0
  6  7  1  0  0  0  0
  6  8  1  0  0  0  0
  8  9  1  0  0  0  0
  8 34  1  0  0  0  0
  8 35  1  0  0  0  0
  9 10  1  0  0  0  0
 10 15  1  0  0  0  0
 10 11  2  0  0  0  0
 11 12  1  0  0  0  0
 12 13  2  0  0  0  0
 12 36  1  0  0  0  0
 13 14  1  0  0  0  0
 14 18  1  0  0  0  0
 14 15  2  0  0  0  0
 15 16  1  0  0  0  0
 16 17  2  0  0  0  0
 17 18  1  0  0  0  0
 17 37  1  0  0  0  0
 18 19  1  0  0  0  0
 19 20  1  0  0  0  0
 19 38  1  0  0  0  0
 19 39  1  0  0  0  0
 20 21  1  0  0  0  0
 20 23  1  0  0  0  0
 20 40  1  0  0  0  0
 21 22  1  0  0  0  0
 21 41  1  0  0  0  0
 21 42  1  0  0  0  0
 22 43  1  0  0  0  0
 23 27  1  0  0  0  0
 23 24  1  0  0  0  0
 23 44  1  0  0  0  0
 24 25  1  0  0  0  0
 24 45  1  0  0  0  0
 24 46  1  0  0  0  0
 25 26  1  0  0  0  0
 25 47  1  0  0  0  0
 25 48  1  0  0  0  0
 26 27  1  0  0  0  0
 27 49  1  0  0  0  0
 27 50  1  0  0  0  0
M  END
> <s_m_source_file>
AV-unprocessed.smi

> <i_m_source_file_index>
221

> <i_lp_mmshare_version>
43012

> <i_f3d_flags>
0

> <s_epik_input>
W05IMl1DKD1PKVtDQEBIXTFbQ0gyXVtDQEBIXShGKVtDSDJdTjFjKG5bY0hdbjIpYyhjMjMpbltjSF1uM1tDSDJdW0NASF0oW0NIMl1bT0hdKVtDQEBIXTRbQ0gyXVtDSDJdT1tDSDJdNA==

> <s_epik_cmdline>
J2VwaWtfcHl0aG9uJywgJy1waCcsICc3LjAnLCAnLXRuJywgJzgnLCAnLW1hJywgJzIwMCcsICctbWV0YWxfYmluZGluZycsICctaW1hZScsICc8aW5maWxlLm1hZT4nLCAnLW9tYWUnLCAnPG91dGZpbGUubWFlPic=

> <r_lp_tautomer_probability>
1

> <r_epik_Ionization_Penalty>
0.000818822

> <r_epik_Ionization_Penalty_Charging>
0

> <r_epik_Ionization_Penalty_Neutral>
0.000818822

> <r_epik_State_Penalty>
0.000440551

> <r_epik_Charging_Adjusted_Penalty>
0.000440551

> <i_epik_Tot_Q>
0

> <i_epik_Tot_abs_Q>
0

> <r_epik_Metal_State_Penalty>
-0

> <b_epik_Metal_Only>
0

> <s_lp_Force_Field>
OPLS_2005

> <r_lp_Energy>
51.1408

> <b_lp_Chiralities_Consistent>
1

> <s_lp_Variant>
AV-unprocessed.smi:221-5

> <Gold.Version>
5.8.1

> <Gold.Id.Protein>
6NUR|6NUR_protein|mol2

> <Gold.PLP.Fitness>
52.1351

> <Gold.PLP.PLP>
-36.9169

> <Gold.PLP.part.hbond>
-5.3969

> <Gold.PLP.part.metal>
0.0000

> <Gold.PLP.part.buried>
-4.2881

> <Gold.PLP.part.nonpolar>
-29.4298

> <Gold.PLP.part.repulsive>
0.6795

> <Gold.PLP.ligand.clash>
0.0000

> <Gold.PLP.ligand.torsion>
2.0214

> <Gold.PLP.Chemscore.Hbond>
4.9593

> <Gold.PLP.Chemscore.CHOScore>
1.3191

> <Gold.PLP.Chemscore.Metal>
0.0000

> <Gold.Chemscore.Hbonds>
donor molecule, donor type, donor heavy atom, donor atom, acceptor molecule, acceptor atom, score
      L1  H     1    30       P1 11000  1.00
      L1  H     1    31       P1 10957  0.90
      L1  H    22    43       P1  7957  1.00
      P1  H  7997  8008       L1    26  1.00
      P1  H  8011  8017       L1    22  0.49
      L1  C    12    36       P1 10171  0.97
      L1  C    12    36       P1 10175  0.72

> <Gold.PLP.Chemscore.Internal.Correction>
0.4260

> <Gold.Rescore>
     Score         DG    S(hbond)    S(metal)    S(lipo)     H(rot)  DE(clash)    DE(int)     intcor
     15.16     -17.65       4.19        0.00      65.94       3.72       0.04       2.45       ----

> <Gold.Chemscore.Fitness>
15.1630

> <Gold.Chemscore.DG>
-17.6530

> <Gold.Chemscore.ZeroCoef>
-5.4800

> <Gold.Chemscore.Hbond>
4.1861

> <Gold.Chemscore.Metal>
0.0000

> <Gold.Chemscore.Lipo>
65.9428

> <Gold.Chemscore.Internal_Hbond>
0.0000

> <Gold.Chemscore.DEClash>
0.0376

> <Gold.Chemscore.DEInternal>
2.4524

> <Gold.Chemscore.Rot>
3.7202

> <Gold.Chemscore.Internal.Correction>
   9.000000E+99

> <Gold.Chemscore.Hbonds>
donor molecule, donor type, donor heavy atom, donor atom, acceptor molecule, acceptor atom, score
      L1  H     1    30       P1 11000  0.88
      L1  H     1    31       P1 10957  0.86
      L1  H    22    43       P1  7957  0.97
      P1  H  7997  8008       L1    26  0.33
      P1  H  8011  8017       L1    22  0.03

> <Gold.Chemscore.Hbond.Weighted>
-13.9814

> <Gold.Chemscore.Metal.Weighted>
-0.0000

> <Gold.Chemscore.Lipo.Weighted>
-7.7153

> <Gold.Chemscore.Internal_Hbond.Weighted>
0.0000

> <Gold.Chemscore.DEClash.Weighted>
0.0376

> <Gold.Chemscore.DEInternal.Weighted>
2.4524

> <Gold.Chemscore.Rot.Weighted>
9.5237

> <Gold.Chemscore.Internal.Correction.Weighted>
   9.000000E+99

> <Gold.Protein.RotatedTorsions>
[ 6907 6896 6895 6894 ] final  -14.73 input  -60.11 | X-H torsion
[ 7974 7965 7964 7962 ] final   81.04 input  175.53 | X-H torsion
[ 8008 7997 7996 7995 ] final  -58.33 input   59.86 | X-H torsion
[ 10167 10162 10161 10158 ] final   -2.52 input  -65.29 | X-H torsion
[ 10718 10713 10712 10709 ] final   80.28 input   66.30 | X-H torsion
[ 10763 10752 10751 10750 ] final  118.39 input  -60.55 | X-H torsion
[ 11005 11000 10999 10996 ] final  161.83 input  -57.11 | X-H torsion

> <Gold.Protein.ActiveResidues>
 VAL166  LYS551  ARG553  GLY616  TRP617  ASP618  TYR619  PRO620  LYS621  CYS622 
 ASP623  PHE694  ASN695  SER759  ASP760  ASP761  ALA762  ILE779  LEU786  VAL792 
 PHE793  MET794  SER795  GLU796  ALA797  LYS798  CYS799  TRP800  GLU811  SER814 

> <Gold.Protein.RotatedAtoms>
  151.3348  135.0850  159.9350 H   0  0  0  0  0  0  0  0  0  0  0  0  # atno 6907 bound_to 6896
  152.5226  133.9506  159.7680 H   0  0  0  0  0  0  0  0  0  0  0  0  # atno 6908 bound_to 6896
  150.9852  133.6152  159.2746 H   0  0  0  0  0  0  0  0  0  0  0  0  # atno 6909 bound_to 6896
  145.6434  139.2430  143.2018 H   0  0  0  0  0  0  0  0  0  0  0  0  # atno 7974 bound_to 7965
  154.4304  140.1086  156.5940 H   0  0  0  0  0  0  0  0  0  0  0  0  # atno 8008 bound_to 7997
  155.5982  140.3493  155.4567 H   0  0  0  0  0  0  0  0  0  0  0  0  # atno 8009 bound_to 7997
  156.0194  140.1236  157.0363 H   0  0  0  0  0  0  0  0  0  0  0  0  # atno 8010 bound_to 7997
  140.6854  143.6648  150.8236 H   0  0  0  0  0  0  0  0  0  0  0  0  # atno 10167 bound_to 10162
  157.6801  130.9952  150.2056 H   0  0  0  0  0  0  0  0  0  0  0  0  # atno 10718 bound_to 10713
  153.5670  135.3509  155.2822 H   0  0  0  0  0  0  0  0  0  0  0  0  # atno 10763 bound_to 10752
  154.8687  135.4150  154.2767 H   0  0  0  0  0  0  0  0  0  0  0  0  # atno 10764 bound_to 10752
  153.3525  135.7056  153.6846 H   0  0  0  0  0  0  0  0  0  0  0  0  # atno 10765 bound_to 10752
  140.2197  134.8205  157.3207 H   0  0  0  0  0  0  0  0  0  0  0  0  # atno 11005 bound_to 11000
  146.1262  140.7244  142.9434 LP  0  0  0  0  0  0  0  0  0  0  0  0  # atno 17320 bound_to 7965
  144.7149  140.4174  143.7052 LP  0  0  0  0  0  0  0  0  0  0  0  0  # atno 17321 bound_to 7965
  140.0354  143.5400  152.2741 LP  0  0  0  0  0  0  0  0  0  0  0  0  # atno 17342 bound_to 10162
  139.6208  144.7628  151.2744 LP  0  0  0  0  0  0  0  0  0  0  0  0  # atno 17343 bound_to 10162
  156.2738  130.3725  149.8004 LP  0  0  0  0  0  0  0  0  0  0  0  0  # atno 17370 bound_to 10713
  156.5713  130.8426  151.3357 LP  0  0  0  0  0  0  0  0  0  0  0  0  # atno 17371 bound_to 10713
  140.1863  134.4427  155.7742 LP  0  0  0  0  0  0  0  0  0  0  0  0  # atno 17394 bound_to 11000
  141.2223  133.7006  156.7952 LP  0  0  0  0  0  0  0  0  0  0  0  0  # atno 17395 bound_to 11000

$$$$
