AV-unprocessed.smi:3045|AV-procd|sdf|11611|dock6
  -GOLD-   2272016593D 1   1.00000     0.00000
 Structure written by MMmdl.
 36 37  0  0  0  0  0  0  0  0  2 V2000
  145.4898  142.5039  155.4990 C   0  0  0  0  0  0  0  0  0  0  0  0
  146.5745  141.7942  154.8347 N   0  0  0  0  0  0  0  0  0  0  0  0
  147.7912  142.4825  154.4400 C   0  0  0  0  0  0  0  0  0  0  0  0
  148.7490  141.3786  153.9407 C   0  0  1  0  0  0  0  0  0  0  0  0
  149.9425  141.1724  154.8868 C   0  0  0  0  0  0  0  0  0  0  0  0
  150.6532  140.1718  154.7818 O   0  0  0  0  0  0  0  0  0  0  0  0
  150.1494  142.1253  155.8089 N   0  0  0  0  0  0  0  0  0  0  0  0
  151.2311  142.1196  156.7864 C   0  0  0  0  0  0  0  0  0  0  0  0
  151.4251  143.5019  157.4327 C   0  0  0  0  0  0  0  0  0  0  0  0
  151.8754  143.3989  158.8768 C   0  0  0  0  0  0  0  0  0  0  0  0
  151.7769  144.5144  159.7377 C   0  0  0  0  0  0  0  0  0  0  0  0
  152.1975  144.3931  161.0786 C   0  0  0  0  0  0  0  0  0  0  0  0
  152.7092  143.1585  161.5278 C   0  0  0  0  0  0  0  0  0  0  0  0
  152.7895  142.1135  160.6749 N   0  3  0  0  0  0  0  0  0  0  0  0
  152.3961  142.1888  159.3843 C   0  0  0  0  0  0  0  0  0  0  0  0
  147.8799  140.1081  153.8349 C   0  0  0  0  0  0  0  0  0  0  0  0
  146.5690  140.5024  154.4949 C   0  0  0  0  0  0  0  0  0  0  0  0
  145.6497  139.7073  154.6828 O   0  0  0  0  0  0  0  0  0  0  0  0
  144.5779  142.4553  154.9030 H   0  0  0  0  0  0  0  0  0  0  0  0
  145.7406  143.5545  155.6483 H   0  0  0  0  0  0  0  0  0  0  0  0
  145.2868  142.0622  156.4752 H   0  0  0  0  0  0  0  0  0  0  0  0
  147.5635  143.1887  153.6403 H   0  0  0  0  0  0  0  0  0  0  0  0
  148.1957  143.0530  155.2779 H   0  0  0  0  0  0  0  0  0  0  0  0
  149.1239  141.6460  152.9509 H   0  0  0  0  0  0  0  0  0  0  0  0
  149.5193  142.9147  155.8262 H   0  0  0  0  0  0  0  0  0  0  0  0
  151.0332  141.3632  157.5480 H   0  0  0  0  0  0  0  0  0  0  0  0
  152.1463  141.8159  156.2775 H   0  0  0  0  0  0  0  0  0  0  0  0
  152.1563  144.0803  156.8663 H   0  0  0  0  0  0  0  0  0  0  0  0
  150.4951  144.0711  157.4026 H   0  0  0  0  0  0  0  0  0  0  0  0
  151.3802  145.4521  159.3758 H   0  0  0  0  0  0  0  0  0  0  0  0
  152.1277  145.2349  161.7521 H   0  0  0  0  0  0  0  0  0  0  0  0
  153.0532  142.9764  162.5356 H   0  0  0  0  0  0  0  0  0  0  0  0
  152.5085  141.2850  158.8030 H   0  0  0  0  0  0  0  0  0  0  0  0
  147.6962  139.8421  152.7936 H   0  0  0  0  0  0  0  0  0  0  0  0
  148.3099  139.2376  154.3332 H   0  0  0  0  0  0  0  0  0  0  0  0
  153.1631  141.2289  161.0204 H   0  0  0  0  0  0  0  0  0  0  0  0
  1  2  1  0  0  0  0
  1 19  1  0  0  0  0
  1 20  1  0  0  0  0
  1 21  1  0  0  0  0
  2 17  1  0  0  0  0
  2  3  1  0  0  0  0
  3  4  1  0  0  0  0
  3 22  1  0  0  0  0
  3 23  1  0  0  0  0
  4  5  1  0  0  0  0
  4 16  1  0  0  0  0
  4 24  1  0  0  0  0
  5  6  2  0  0  0  0
  5  7  1  0  0  0  0
  7  8  1  0  0  0  0
  7 25  1  0  0  0  0
  8  9  1  0  0  0  0
  8 26  1  0  0  0  0
  8 27  1  0  0  0  0
  9 10  1  0  0  0  0
  9 28  1  0  0  0  0
  9 29  1  0  0  0  0
 10 15  1  0  0  0  0
 10 11  2  0  0  0  0
 11 12  1  0  0  0  0
 11 30  1  0  0  0  0
 12 13  2  0  0  0  0
 12 31  1  0  0  0  0
 13 14  1  0  0  0  0
 13 32  1  0  0  0  0
 14 15  2  0  0  0  0
 14 36  1  0  0  0  0
 15 33  1  0  0  0  0
 16 17  1  0  0  0  0
 16 34  1  0  0  0  0
 16 35  1  0  0  0  0
 17 18  2  0  0  0  0
M  CHG  1  14   1
M  END
> <s_m_source_file>
AV-unprocessed.smi

> <i_m_source_file_index>
3045

> <i_lp_mmshare_version>
43012

> <i_f3d_flags>
0

> <s_epik_input>
W0NIM11OMVtDSDJdW0NASF0oW0NIMl1DMT1PKUMoPU8pW05IXVtDSDJdW0NIMl1jMltjSF1bY0hdW2NIXW5bY0hdMg==

> <s_epik_cmdline>
J2VwaWtfcHl0aG9uJywgJy1waCcsICc3LjAnLCAnLXRuJywgJzgnLCAnLW1hJywgJzIwMCcsICctbWV0YWxfYmluZGluZycsICctaW1hZScsICc8aW5maWxlLm1hZT4nLCAnLW9tYWUnLCAnPG91dGZpbGUubWFlPic=

> <r_epik_Ionization_Penalty>
2.26523

> <r_epik_Ionization_Penalty_Charging>
2.26523

> <r_epik_Ionization_Penalty_Neutral>
2.92809e-08

> <r_epik_State_Penalty>
2.41338

> <r_epik_Charging_Adjusted_Penalty>
4.67861

> <i_epik_Tot_Q>
1

> <i_epik_Tot_abs_Q>
1

> <r_epik_Metal_State_Penalty>
2.42626

> <b_epik_Metal_Only>
0

> <s_lp_Force_Field>
OPLS_2005

> <r_lp_Energy>
17.4677

> <b_lp_Chiralities_Consistent>
1

> <s_lp_Variant>
AV-unprocessed.smi:3045-3

> <Gold.Version>
5.8.1

> <Gold.Id.Protein>
6NUR|6NUR_protein|mol2

> <Gold.PLP.Fitness>
42.8935

> <Gold.PLP.PLP>
-38.5196

> <Gold.PLP.part.hbond>
-2.0000

> <Gold.PLP.part.metal>
0.0000

> <Gold.PLP.part.buried>
-2.2758

> <Gold.PLP.part.nonpolar>
-33.2713

> <Gold.PLP.part.repulsive>
0.3656

> <Gold.PLP.ligand.clash>
0.0000

> <Gold.PLP.ligand.torsion>
0.8241

> <Gold.PLP.Chemscore.Hbond>
2.0000

> <Gold.PLP.Chemscore.CHOScore>
0.0000

> <Gold.PLP.Chemscore.Metal>
0.0000

> <Gold.Chemscore.Hbonds>
donor molecule, donor type, donor heavy atom, donor atom, acceptor molecule, acceptor atom, score
      L1  H     7    25       P1  8028  1.00
      P1  H  7989  7998       L1     6  0.65

> <Gold.PLP.Chemscore.Internal.Correction>
0.0222

> <Gold.Rescore>
     Score         DG    S(hbond)    S(metal)    S(lipo)     H(rot)  DE(clash)    DE(int)     intcor
     16.69     -18.31       1.65        0.00      99.88       1.71       0.39       1.24       ----

> <Gold.Chemscore.Fitness>
16.6869

> <Gold.Chemscore.DG>
-18.3140

> <Gold.Chemscore.ZeroCoef>
-5.4800

> <Gold.Chemscore.Hbond>
1.6547

> <Gold.Chemscore.Metal>
0.0000

> <Gold.Chemscore.Lipo>
99.8809

> <Gold.Chemscore.Internal_Hbond>
0.0000

> <Gold.Chemscore.DEClash>
0.3853

> <Gold.Chemscore.DEInternal>
1.2419

> <Gold.Chemscore.Rot>
1.7105

> <Gold.Chemscore.Internal.Correction>
   9.000000E+99

> <Gold.Chemscore.Hbonds>
donor molecule, donor type, donor heavy atom, donor atom, acceptor molecule, acceptor atom, score
      L1  H     7    25       P1  8028  0.99
      P1  H  7989  7998       L1     6  0.06

> <Gold.Chemscore.Hbond.Weighted>
-5.5268

> <Gold.Chemscore.Metal.Weighted>
-0.0000

> <Gold.Chemscore.Lipo.Weighted>
-11.6861

> <Gold.Chemscore.Internal_Hbond.Weighted>
0.0000

> <Gold.Chemscore.DEClash.Weighted>
0.3853

> <Gold.Chemscore.DEInternal.Weighted>
1.2419

> <Gold.Chemscore.Rot.Weighted>
4.3789

> <Gold.Chemscore.Internal.Correction.Weighted>
   9.000000E+99

> <Gold.Protein.RotatedTorsions>
[ 6907 6896 6895 6894 ] final   12.13 input  -60.11 | X-H torsion
[ 7974 7965 7964 7962 ] final   39.65 input  175.53 | X-H torsion
[ 8008 7997 7996 7995 ] final   98.65 input   59.86 | X-H torsion
[ 10167 10162 10161 10158 ] final   43.75 input  -65.29 | X-H torsion
[ 10718 10713 10712 10709 ] final  -73.57 input   66.30 | X-H torsion
[ 10763 10752 10751 10750 ] final -118.24 input  -60.55 | X-H torsion
[ 11005 11000 10999 10996 ] final -146.22 input  -57.11 | X-H torsion

> <Gold.Protein.ActiveResidues>
 VAL166  LYS551  ARG553  GLY616  TRP617  ASP618  TYR619  PRO620  LYS621  CYS622 
 ASP623  PHE694  ASN695  SER759  ASP760  ASP761  ALA762  ILE779  LEU786  VAL792 
 PHE793  MET794  SER795  GLU796  ALA797  LYS798  CYS799  TRP800  GLU811  SER814 

> <Gold.Protein.RotatedAtoms>
  151.7654  135.0800  160.0351 H   0  0  0  0  0  0  0  0  0  0  0  0  # atno 6907 bound_to 6896
  152.3325  133.5970  159.5828 H   0  0  0  0  0  0  0  0  0  0  0  0  # atno 6908 bound_to 6896
  150.7431  133.9762  159.3603 H   0  0  0  0  0  0  0  0  0  0  0  0  # atno 6909 bound_to 6896
  146.0967  139.5626  142.9440 H   0  0  0  0  0  0  0  0  0  0  0  0  # atno 7974 bound_to 7965
  156.1026  140.3240  155.7962 H   0  0  0  0  0  0  0  0  0  0  0  0  # atno 8008 bound_to 7997
  155.4811  140.0554  157.2984 H   0  0  0  0  0  0  0  0  0  0  0  0  # atno 8009 bound_to 7997
  154.4706  140.2010  156.0018 H   0  0  0  0  0  0  0  0  0  0  0  0  # atno 8010 bound_to 7997
  140.3412  144.2467  150.6155 H   0  0  0  0  0  0  0  0  0  0  0  0  # atno 10167 bound_to 10162
  156.0275  130.4397  150.2762 H   0  0  0  0  0  0  0  0  0  0  0  0  # atno 10718 bound_to 10713
  154.8581  135.4281  154.2108 H   0  0  0  0  0  0  0  0  0  0  0  0  # atno 10763 bound_to 10752
  153.3134  135.6977  153.7101 H   0  0  0  0  0  0  0  0  0  0  0  0  # atno 10764 bound_to 10752
  153.6185  135.3506  155.2976 H   0  0  0  0  0  0  0  0  0  0  0  0  # atno 10765 bound_to 10752
  140.7842  134.3043  157.5035 H   0  0  0  0  0  0  0  0  0  0  0  0  # atno 11005 bound_to 11000
  145.5934  141.0366  143.2058 LP  0  0  0  0  0  0  0  0  0  0  0  0  # atno 17320 bound_to 7965
  144.7401  139.7473  143.7314 LP  0  0  0  0  0  0  0  0  0  0  0  0  # atno 17321 bound_to 7965
  140.5307  143.2244  151.8244 LP  0  0  0  0  0  0  0  0  0  0  0  0  # atno 17342 bound_to 10162
  139.4840  144.4724  151.9408 LP  0  0  0  0  0  0  0  0  0  0  0  0  # atno 17343 bound_to 10162
  157.0865  131.0158  151.3137 LP  0  0  0  0  0  0  0  0  0  0  0  0  # atno 17370 bound_to 10713
  157.4887  130.7809  149.7486 LP  0  0  0  0  0  0  0  0  0  0  0  0  # atno 17371 bound_to 10713
  139.8739  134.9336  156.3586 LP  0  0  0  0  0  0  0  0  0  0  0  0  # atno 17394 bound_to 11000
  140.9453  133.7487  156.0199 LP  0  0  0  0  0  0  0  0  0  0  0  0  # atno 17395 bound_to 11000

$$$$
