AV-unprocessed.smi:1420|AV-procd|sdf|5787|dock5
  -GOLD-   22720 5433D 1   1.00000     0.00000
 Structure written by MMmdl.
 38 39  0  0  0  0  0  0  0  0  1 V2000
  151.3717  137.6557  154.4195 C   0  0  0  0  0  0  0  0  0  0  0  0
  150.7727  138.9179  155.0910 C   0  0  1  0  0  0  0  0  0  0  0  0
  151.9337  139.8853  155.4651 C   0  0  0  0  0  0  0  0  0  0  0  0
  151.7641  140.5185  156.7698 N   0  0  0  0  0  0  0  0  0  0  0  0
  152.4916  140.2411  157.8631 C   0  0  0  0  0  0  0  0  0  0  0  0
  153.3945  139.4049  157.8832 O   0  0  0  0  0  0  0  0  0  0  0  0
  152.1545  141.0327  159.1273 C   0  0  0  0  0  0  0  0  0  0  0  0
  152.1224  142.4601  158.8621 N   0  0  0  0  0  0  0  0  0  0  0  0
  152.8051  143.4678  159.5115 C   0  0  0  0  0  0  0  0  0  0  0  0
  152.4566  144.6453  158.9144 C   0  0  0  0  0  0  0  0  0  0  0  0
  151.5436  144.2512  157.8965 C   0  0  0  0  0  0  0  0  0  0  0  0
  151.3452  142.9431  157.8675 N   0  0  0  0  0  0  0  0  0  0  0  0
  149.7171  139.5572  154.2707 N   0  0  0  0  0  0  0  0  0  0  0  0
  148.5305  138.7067  154.1208 C   0  0  0  0  0  0  0  0  0  0  0  0
  147.4166  139.3729  153.2947 C   0  0  0  0  0  0  0  0  0  0  0  0
  147.0544  140.6104  153.8913 O   0  0  0  0  0  0  0  0  0  0  0  0
  148.1587  141.4990  153.9860 C   0  0  0  0  0  0  0  0  0  0  0  0
  149.2802  140.8484  154.8148 C   0  0  0  0  0  0  0  0  0  0  0  0
  152.1840  137.2204  155.0002 H   0  0  0  0  0  0  0  0  0  0  0  0
  151.7645  137.8853  153.4283 H   0  0  0  0  0  0  0  0  0  0  0  0
  150.6394  136.8563  154.3156 H   0  0  0  0  0  0  0  0  0  0  0  0
  150.3135  138.5909  156.0251 H   0  0  0  0  0  0  0  0  0  0  0  0
  152.8799  139.3433  155.4721 H   0  0  0  0  0  0  0  0  0  0  0  0
  152.0475  140.6908  154.7412 H   0  0  0  0  0  0  0  0  0  0  0  0
  151.0398  141.2183  156.8476 H   0  0  0  0  0  0  0  0  0  0  0  0
  151.1799  140.7273  159.5105 H   0  0  0  0  0  0  0  0  0  0  0  0
  152.8871  140.8189  159.9074 H   0  0  0  0  0  0  0  0  0  0  0  0
  153.4729  143.2642  160.3358 H   0  0  0  0  0  0  0  0  0  0  0  0
  152.8014  145.6373  159.1662 H   0  0  0  0  0  0  0  0  0  0  0  0
  151.0229  144.8726  157.1828 H   0  0  0  0  0  0  0  0  0  0  0  0
  148.7860  137.7764  153.6173 H   0  0  0  0  0  0  0  0  0  0  0  0
  148.1403  138.4394  155.1040 H   0  0  0  0  0  0  0  0  0  0  0  0
  147.7424  139.5363  152.2662 H   0  0  0  0  0  0  0  0  0  0  0  0
  146.5389  138.7279  153.2536 H   0  0  0  0  0  0  0  0  0  0  0  0
  148.5158  141.7569  152.9877 H   0  0  0  0  0  0  0  0  0  0  0  0
  147.8294  142.4253  154.4569 H   0  0  0  0  0  0  0  0  0  0  0  0
  148.9423  140.7211  155.8445 H   0  0  0  0  0  0  0  0  0  0  0  0
  150.1043  141.5581  154.8368 H   0  0  0  0  0  0  0  0  0  0  0  0
  1  2  1  0  0  0  0
  1 19  1  0  0  0  0
  1 20  1  0  0  0  0
  1 21  1  0  0  0  0
  2  3  1  0  0  0  0
  2 13  1  0  0  0  0
  2 22  1  0  0  0  0
  3  4  1  0  0  0  0
  3 23  1  0  0  0  0
  3 24  1  0  0  0  0
  4  5  1  0  0  0  0
  4 25  1  0  0  0  0
  5  6  2  0  0  0  0
  5  7  1  0  0  0  0
  7  8  1  0  0  0  0
  7 26  1  0  0  0  0
  7 27  1  0  0  0  0
  8 12  1  0  0  0  0
  8  9  1  0  0  0  0
  9 10  2  0  0  0  0
  9 28  1  0  0  0  0
 10 11  1  0  0  0  0
 10 29  1  0  0  0  0
 11 12  2  0  0  0  0
 11 30  1  0  0  0  0
 13 18  1  0  0  0  0
 13 14  1  0  0  0  0
 14 15  1  0  0  0  0
 14 31  1  0  0  0  0
 14 32  1  0  0  0  0
 15 16  1  0  0  0  0
 15 33  1  0  0  0  0
 15 34  1  0  0  0  0
 16 17  1  0  0  0  0
 17 18  1  0  0  0  0
 17 35  1  0  0  0  0
 17 36  1  0  0  0  0
 18 37  1  0  0  0  0
 18 38  1  0  0  0  0
M  END
> <s_m_source_file>
AV-unprocessed.smi

> <i_m_source_file_index>
1420

> <i_lp_mmshare_version>
43012

> <i_f3d_flags>
0

> <s_epik_input>
W0NIMl0xW0NIMl1PW0NIMl1bQ0gyXU4xW0NASF0oW0NIM10pW0NIMl1bTkhdQyg9TylbQ0gyXW4yW2NIXVtjSF1bY0hdbjI=

> <s_epik_cmdline>
J2VwaWtfcHl0aG9uJywgJy1waCcsICc3LjAnLCAnLXRuJywgJzgnLCAnLW1hJywgJzIwMCcsICctbWV0YWxfYmluZGluZycsICctaW1hZScsICc8aW5maWxlLm1hZT4nLCAnLW9tYWUnLCAnPG91dGZpbGUubWFlPic=

> <r_lp_tautomer_probability>
1

> <r_epik_Ionization_Penalty>
0.196927

> <r_epik_Ionization_Penalty_Charging>
0

> <r_epik_Ionization_Penalty_Neutral>
0.196927

> <r_epik_State_Penalty>
0.186684

> <r_epik_Charging_Adjusted_Penalty>
0.186684

> <i_epik_Tot_Q>
0

> <i_epik_Tot_abs_Q>
0

> <r_epik_Metal_State_Penalty>
0.186682

> <b_epik_Metal_Only>
0

> <s_lp_Force_Field>
OPLS_2005

> <r_lp_Energy>
28.9216

> <b_lp_Chiralities_Consistent>
1

> <s_lp_Variant>
AV-unprocessed.smi:1420-2

> <Gold.Version>
5.8.1

> <Gold.Id.Protein>
6NUR|6NUR_protein|mol2

> <Gold.PLP.Fitness>
43.0871

> <Gold.PLP.PLP>
-38.5844

> <Gold.PLP.part.hbond>
-1.0000

> <Gold.PLP.part.metal>
0.0000

> <Gold.PLP.part.buried>
-2.4869

> <Gold.PLP.part.nonpolar>
-35.0725

> <Gold.PLP.part.repulsive>
0.5224

> <Gold.PLP.ligand.clash>
0.0000

> <Gold.PLP.ligand.torsion>
0.7760

> <Gold.PLP.Chemscore.Hbond>
1.0000

> <Gold.PLP.Chemscore.CHOScore>
1.0000

> <Gold.PLP.Chemscore.Metal>
0.0000

> <Gold.Chemscore.Hbonds>
donor molecule, donor type, donor heavy atom, donor atom, acceptor molecule, acceptor atom, score
      P1  H  7997  8010       L1     6  1.00
      L1  C    11    30       P1  8028  0.86

> <Gold.PLP.Chemscore.Internal.Correction>
0.0547

> <Gold.Rescore>
     Score         DG    S(hbond)    S(metal)    S(lipo)     H(rot)  DE(clash)    DE(int)     intcor
     13.13     -15.14       0.92        0.00      97.05       1.87       0.06       1.96       ----

> <Gold.Chemscore.Fitness>
13.1265

> <Gold.Chemscore.DG>
-15.1408

> <Gold.Chemscore.ZeroCoef>
-5.4800

> <Gold.Chemscore.Hbond>
0.9238

> <Gold.Chemscore.Metal>
0.0000

> <Gold.Chemscore.Lipo>
97.0465

> <Gold.Chemscore.Internal_Hbond>
0.0000

> <Gold.Chemscore.DEClash>
0.0550

> <Gold.Chemscore.DEInternal>
1.9593

> <Gold.Chemscore.Rot>
1.8669

> <Gold.Chemscore.Internal.Correction>
   9.000000E+99

> <Gold.Chemscore.Hbonds>
donor molecule, donor type, donor heavy atom, donor atom, acceptor molecule, acceptor atom, score
      P1  H  7997  8010       L1     6  0.54

> <Gold.Chemscore.Hbond.Weighted>
-3.0855

> <Gold.Chemscore.Metal.Weighted>
-0.0000

> <Gold.Chemscore.Lipo.Weighted>
-11.3544

> <Gold.Chemscore.Internal_Hbond.Weighted>
0.0000

> <Gold.Chemscore.DEClash.Weighted>
0.0550

> <Gold.Chemscore.DEInternal.Weighted>
1.9593

> <Gold.Chemscore.Rot.Weighted>
4.7792

> <Gold.Chemscore.Internal.Correction.Weighted>
   9.000000E+99

> <Gold.Protein.RotatedTorsions>
[ 6907 6896 6895 6894 ] final  -23.74 input  -60.11 | X-H torsion
[ 7974 7965 7964 7962 ] final   57.35 input  175.53 | X-H torsion
[ 8008 7997 7996 7995 ] final   33.18 input   59.86 | X-H torsion
[ 10167 10162 10161 10158 ] final  179.39 input  -65.29 | X-H torsion
[ 10718 10713 10712 10709 ] final  -29.92 input   66.30 | X-H torsion
[ 10763 10752 10751 10750 ] final  -93.28 input  -60.55 | X-H torsion
[ 11005 11000 10999 10996 ] final -138.13 input  -57.11 | X-H torsion

> <Gold.Protein.ActiveResidues>
 VAL166  LYS551  ARG553  GLY616  TRP617  ASP618  TYR619  PRO620  LYS621  CYS622 
 ASP623  PHE694  ASN695  SER759  ASP760  ASP761  ALA762  ILE779  LEU786  VAL792 
 PHE793  MET794  SER795  GLU796  ALA797  LYS798  CYS799  TRP800  GLU811  SER814 

> <Gold.Protein.RotatedAtoms>
  151.1996  135.0437  159.8866 H   0  0  0  0  0  0  0  0  0  0  0  0  # atno 6907 bound_to 6896
  152.5433  134.0864  159.8268 H   0  0  0  0  0  0  0  0  0  0  0  0  # atno 6908 bound_to 6896
  151.1003  133.5201  159.2642 H   0  0  0  0  0  0  0  0  0  0  0  0  # atno 6909 bound_to 6896
  145.9300  139.3800  143.0427 H   0  0  0  0  0  0  0  0  0  0  0  0  # atno 7974 bound_to 7965
  155.1345  140.3260  155.4466 H   0  0  0  0  0  0  0  0  0  0  0  0  # atno 8008 bound_to 7997
  156.2624  140.2004  156.6412 H   0  0  0  0  0  0  0  0  0  0  0  0  # atno 8009 bound_to 7997
  154.6588  140.0549  157.0025 H   0  0  0  0  0  0  0  0  0  0  0  0  # atno 8010 bound_to 7997
  139.5334  144.2567  152.0740 H   0  0  0  0  0  0  0  0  0  0  0  0  # atno 10167 bound_to 10162
  156.4063  130.4399  149.7285 H   0  0  0  0  0  0  0  0  0  0  0  0  # atno 10718 bound_to 10713
  154.6943  135.5200  153.8436 H   0  0  0  0  0  0  0  0  0  0  0  0  # atno 10763 bound_to 10752
  153.0655  135.6583  154.0373 H   0  0  0  0  0  0  0  0  0  0  0  0  # atno 10764 bound_to 10752
  154.0242  135.2991  155.3357 H   0  0  0  0  0  0  0  0  0  0  0  0  # atno 10765 bound_to 10752
  140.8645  134.2127  157.4688 H   0  0  0  0  0  0  0  0  0  0  0  0  # atno 11005 bound_to 11000
  145.8438  140.9566  143.0785 LP  0  0  0  0  0  0  0  0  0  0  0  0  # atno 17320 bound_to 7965
  144.6763  140.0319  143.7482 LP  0  0  0  0  0  0  0  0  0  0  0  0  # atno 17321 bound_to 7965
  140.2034  144.4635  150.6420 LP  0  0  0  0  0  0  0  0  0  0  0  0  # atno 17342 bound_to 10162
  140.6526  143.2229  151.6041 LP  0  0  0  0  0  0  0  0  0  0  0  0  # atno 17343 bound_to 10162
  156.4281  130.7801  151.2821 LP  0  0  0  0  0  0  0  0  0  0  0  0  # atno 17370 bound_to 10713
  157.7505  131.0162  150.3536 LP  0  0  0  0  0  0  0  0  0  0  0  0  # atno 17371 bound_to 10713
  139.8708  134.9745  156.4849 LP  0  0  0  0  0  0  0  0  0  0  0  0  # atno 17394 bound_to 11000
  140.8644  133.8035  155.9299 LP  0  0  0  0  0  0  0  0  0  0  0  0  # atno 17395 bound_to 11000

$$$$
