AV-unprocessed.smi:3150|AV-procd|sdf|12008|dock2
  -GOLD-   2272017413D 1   1.00000     0.00000
 Structure written by MMmdl.
 33 34  0  0  0  0  0  0  0  0  1 V2000
  151.6233  138.5092  154.4547 C   0  0  0  0  0  0  0  0  0  0  0  0
  150.8866  139.6850  155.1136 C   0  0  1  0  0  0  0  0  0  0  0  0
  149.6284  139.2012  155.5759 O   0  0  0  0  0  0  0  0  0  0  0  0
  148.5644  139.2769  154.6350 C   0  0  0  0  0  0  0  0  0  0  0  0
  148.4929  140.6881  154.0932 C   0  0  0  0  0  0  0  0  0  0  0  0
  147.7407  141.7583  154.8514 C   0  0  0  0  0  0  0  0  0  0  0  0
  147.1958  141.2391  153.5454 C   0  0  0  0  0  0  0  0  0  0  0  0
  151.6957  140.2716  156.2820 C   0  0  0  0  0  0  0  0  0  0  0  0
  152.7716  139.7620  156.5965 O   0  0  0  0  0  0  0  0  0  0  0  0
  151.1371  141.3264  156.9044 N   0  0  0  0  0  0  0  0  0  0  0  0
  151.6323  142.0679  158.0122 C   0  0  0  0  0  0  0  0  0  0  0  0
  152.0355  141.4882  159.1709 N   0  0  0  0  0  0  0  0  0  0  0  0
  152.4948  142.2635  160.1750 C   0  0  0  0  0  0  0  0  0  0  0  0
  152.5809  143.6644  160.0874 C   0  0  0  0  0  0  0  0  0  0  0  0
  152.1662  144.2796  158.8935 C   0  0  0  0  0  0  0  0  0  0  0  0
  151.6854  143.4749  157.8409 C   0  0  0  0  0  0  0  0  0  0  0  0
  151.2794  144.0676  156.6773 O   0  0  0  0  0  0  0  0  0  0  0  0
  152.6081  138.8100  154.0958 H   0  0  0  0  0  0  0  0  0  0  0  0
  151.0624  138.1336  153.5986 H   0  0  0  0  0  0  0  0  0  0  0  0
  151.7575  137.6786  155.1487 H   0  0  0  0  0  0  0  0  0  0  0  0
  150.7222  140.4517  154.3536 H   0  0  0  0  0  0  0  0  0  0  0  0
  148.7051  138.5782  153.8092 H   0  0  0  0  0  0  0  0  0  0  0  0
  147.6164  139.0373  155.1181 H   0  0  0  0  0  0  0  0  0  0  0  0
  149.4038  141.0150  153.5951 H   0  0  0  0  0  0  0  0  0  0  0  0
  147.2204  141.4665  155.7618 H   0  0  0  0  0  0  0  0  0  0  0  0
  148.1627  142.7612  154.8568 H   0  0  0  0  0  0  0  0  0  0  0  0
  147.2562  141.8944  152.6789 H   0  0  0  0  0  0  0  0  0  0  0  0
  146.3160  140.5997  153.5855 H   0  0  0  0  0  0  0  0  0  0  0  0
  150.2455  141.6360  156.5459 H   0  0  0  0  0  0  0  0  0  0  0  0
  152.8032  141.7512  161.0742 H   0  0  0  0  0  0  0  0  0  0  0  0
  152.9550  144.2500  160.9138 H   0  0  0  0  0  0  0  0  0  0  0  0
  152.2171  145.3533  158.7881 H   0  0  0  0  0  0  0  0  0  0  0  0
  150.3637  144.3018  156.6808 H   0  0  0  0  0  0  0  0  0  0  0  0
  1  2  1  0  0  0  0
  1 18  1  0  0  0  0
  1 19  1  0  0  0  0
  1 20  1  0  0  0  0
  2  3  1  0  0  0  0
  2  8  1  0  0  0  0
  2 21  1  0  0  0  0
  3  4  1  0  0  0  0
  4  5  1  0  0  0  0
  4 22  1  0  0  0  0
  4 23  1  0  0  0  0
  5  7  1  0  0  0  0
  5  6  1  0  0  0  0
  5 24  1  0  0  0  0
  6  7  1  0  0  0  0
  6 25  1  0  0  0  0
  6 26  1  0  0  0  0
  7 27  1  0  0  0  0
  7 28  1  0  0  0  0
  8  9  2  0  0  0  0
  8 10  1  0  0  0  0
 10 11  1  0  0  0  0
 10 29  1  0  0  0  0
 11 16  1  0  0  0  0
 11 12  2  0  0  0  0
 12 13  1  0  0  0  0
 13 14  2  0  0  0  0
 13 30  1  0  0  0  0
 14 15  1  0  0  0  0
 14 31  1  0  0  0  0
 15 16  2  0  0  0  0
 15 32  1  0  0  0  0
 16 17  1  0  0  0  0
 17 33  1  0  0  0  0
M  END
> <s_m_source_file>
AV-unprocessed.smi

> <i_m_source_file_index>
3150

> <i_lp_mmshare_version>
43012

> <i_f3d_flags>
0

> <s_epik_input>
W0NIMl0xW0NIMl1bQ0hdMVtDSDJdT1tDQEBIXShbQ0gzXSlDKD1PKVtOSF1jMm5bY0hdW2NIXVtjSF1jMltPSF0=

> <s_epik_cmdline>
J2VwaWtfcHl0aG9uJywgJy1waCcsICc3LjAnLCAnLXRuJywgJzgnLCAnLW1hJywgJzIwMCcsICctbWV0YWxfYmluZGluZycsICctaW1hZScsICc8aW5maWxlLm1hZT4nLCAnLW9tYWUnLCAnPG91dGZpbGUubWFlPic=

> <r_lp_tautomer_probability>
0.43658

> <r_epik_Ionization_Penalty>
0.0204299

> <r_epik_Ionization_Penalty_Charging>
0

> <r_epik_Ionization_Penalty_Neutral>
0.0204299

> <r_epik_State_Penalty>
0.419322

> <r_epik_Charging_Adjusted_Penalty>
0.419322

> <i_epik_Tot_Q>
0

> <i_epik_Tot_abs_Q>
0

> <r_epik_Metal_State_Penalty>
0.377394

> <b_epik_Metal_Only>
0

> <s_lp_Force_Field>
OPLS_2005

> <r_lp_Energy>
16.197

> <b_lp_Chiralities_Consistent>
1

> <s_lp_Variant>
AV-unprocessed.smi:3150-2

> <Gold.Version>
5.8.1

> <Gold.Id.Protein>
6NUR|6NUR_protein|mol2

> <Gold.PLP.Fitness>
42.4815

> <Gold.PLP.PLP>
-38.1535

> <Gold.PLP.part.hbond>
-2.0000

> <Gold.PLP.part.metal>
0.0000

> <Gold.PLP.part.buried>
-3.8383

> <Gold.PLP.part.nonpolar>
-31.6943

> <Gold.PLP.part.repulsive>
0.1172

> <Gold.PLP.ligand.clash>
0.0000

> <Gold.PLP.ligand.torsion>
1.1363

> <Gold.PLP.Chemscore.Hbond>
2.0000

> <Gold.PLP.Chemscore.CHOScore>
0.0000

> <Gold.PLP.Chemscore.Metal>
0.0000

> <Gold.Chemscore.Hbonds>
donor molecule, donor type, donor heavy atom, donor atom, acceptor molecule, acceptor atom, score
      L1  H    17    33       P1  8028  0.93
      P1  H  7997  8008       L1     9  1.00

> <Gold.PLP.Chemscore.Internal.Correction>
0.6005

> <Gold.Rescore>
     Score         DG    S(hbond)    S(metal)    S(lipo)     H(rot)  DE(clash)    DE(int)     intcor
     15.54     -16.45       1.97        0.00      85.97       2.22       0.06       0.85       ----

> <Gold.Chemscore.Fitness>
15.5428

> <Gold.Chemscore.DG>
-16.4503

> <Gold.Chemscore.ZeroCoef>
-5.4800

> <Gold.Chemscore.Hbond>
1.9740

> <Gold.Chemscore.Metal>
0.0000

> <Gold.Chemscore.Lipo>
85.9690

> <Gold.Chemscore.Internal_Hbond>
0.0000

> <Gold.Chemscore.DEClash>
0.0598

> <Gold.Chemscore.DEInternal>
0.8476

> <Gold.Chemscore.Rot>
2.2192

> <Gold.Chemscore.Internal.Correction>
   9.000000E+99

> <Gold.Chemscore.Hbonds>
donor molecule, donor type, donor heavy atom, donor atom, acceptor molecule, acceptor atom, score
      L1  H    17    33       P1  8028  0.88
      P1  H  7997  8008       L1     9  0.97

> <Gold.Chemscore.Hbond.Weighted>
-6.5931

> <Gold.Chemscore.Metal.Weighted>
-0.0000

> <Gold.Chemscore.Lipo.Weighted>
-10.0584

> <Gold.Chemscore.Internal_Hbond.Weighted>
0.0000

> <Gold.Chemscore.DEClash.Weighted>
0.0598

> <Gold.Chemscore.DEInternal.Weighted>
0.8476

> <Gold.Chemscore.Rot.Weighted>
5.6812

> <Gold.Chemscore.Internal.Correction.Weighted>
   9.000000E+99

> <Gold.Protein.RotatedTorsions>
[ 6907 6896 6895 6894 ] final  -98.03 input  -60.11 | X-H torsion
[ 7974 7965 7964 7962 ] final   92.67 input  175.53 | X-H torsion
[ 8008 7997 7996 7995 ] final  -65.92 input   59.86 | X-H torsion
[ 10167 10162 10161 10158 ] final  -59.58 input  -65.29 | X-H torsion
[ 10718 10713 10712 10709 ] final   22.25 input   66.30 | X-H torsion
[ 10763 10752 10751 10750 ] final -150.15 input  -60.55 | X-H torsion
[ 11005 11000 10999 10996 ] final  -68.80 input  -57.11 | X-H torsion

> <Gold.Protein.ActiveResidues>
 VAL166  LYS551  ARG553  GLY616  TRP617  ASP618  TYR619  PRO620  LYS621  CYS622 
 ASP623  PHE694  ASN695  SER759  ASP760  ASP761  ALA762  ILE779  LEU786  VAL792 
 PHE793  MET794  SER795  GLU796  ALA797  LYS798  CYS799  TRP800  GLU811  SER814 

> <Gold.Protein.RotatedAtoms>
  150.7034  134.1257  159.4050 H   0  0  0  0  0  0  0  0  0  0  0  0  # atno 6907 bound_to 6896
  151.9243  135.0282  160.0534 H   0  0  0  0  0  0  0  0  0  0  0  0  # atno 6908 bound_to 6896
  152.2229  133.4963  159.5209 H   0  0  0  0  0  0  0  0  0  0  0  0  # atno 6909 bound_to 6896
  145.4892  139.2277  143.2839 H   0  0  0  0  0  0  0  0  0  0  0  0  # atno 7974 bound_to 7965
  154.4702  140.0923  156.7125 H   0  0  0  0  0  0  0  0  0  0  0  0  # atno 8008 bound_to 7997
  155.4745  140.3465  155.4312 H   0  0  0  0  0  0  0  0  0  0  0  0  # atno 8009 bound_to 7997
  156.1026  140.1426  156.9436 H   0  0  0  0  0  0  0  0  0  0  0  0  # atno 8010 bound_to 7997
  140.6126  143.2392  151.5674 H   0  0  0  0  0  0  0  0  0  0  0  0  # atno 10167 bound_to 10162
  157.1497  130.6669  149.6008 H   0  0  0  0  0  0  0  0  0  0  0  0  # atno 10718 bound_to 10713
  154.8136  135.3291  154.7239 H   0  0  0  0  0  0  0  0  0  0  0  0  # atno 10763 bound_to 10752
  153.7883  135.6913  153.4880 H   0  0  0  0  0  0  0  0  0  0  0  0  # atno 10764 bound_to 10752
  153.1933  135.4543  155.0124 H   0  0  0  0  0  0  0  0  0  0  0  0  # atno 10765 bound_to 10752
  141.1540  133.6749  156.6502 H   0  0  0  0  0  0  0  0  0  0  0  0  # atno 11005 bound_to 11000
  146.2294  140.5684  142.8982 LP  0  0  0  0  0  0  0  0  0  0  0  0  # atno 17320 bound_to 7965
  144.7844  140.5906  143.6584 LP  0  0  0  0  0  0  0  0  0  0  0  0  # atno 17321 bound_to 7965
  139.5373  144.2746  152.1278 LP  0  0  0  0  0  0  0  0  0  0  0  0  # atno 17342 bound_to 10162
  140.1948  144.4716  150.6461 LP  0  0  0  0  0  0  0  0  0  0  0  0  # atno 17343 bound_to 10162
  155.9773  130.4748  150.6582 LP  0  0  0  0  0  0  0  0  0  0  0  0  # atno 17370 bound_to 10713
  157.4231  131.0839  151.1111 LP  0  0  0  0  0  0  0  0  0  0  0  0  # atno 17371 bound_to 10713
  140.3326  134.7916  157.4338 LP  0  0  0  0  0  0  0  0  0  0  0  0  # atno 17394 bound_to 11000
  140.1004  134.5480  155.8358 LP  0  0  0  0  0  0  0  0  0  0  0  0  # atno 17395 bound_to 11000

$$$$
