#       Name:                AV-unprocessed.smi:1394
#       Creating user name   scv26
#       Creation time:       Fri Mar 27 05:28:58 2020


#       File generated by GOLD software.
#

@<TRIPOS>MOLECULE
AV-unprocessed.smi:1394
    45    46     1
SMALL
NO_CHARGES


@<TRIPOS>ATOM
      1 ****        -2.4660  -2.0405  -1.1456 C.3            1 S1                 0.0000
      2 ****        -2.6925  -1.8267   0.3607 C.3            1 S1                 0.0000
      3 ****        -2.2768  -3.0677   1.1773 C.3            1 S1                 0.0000
      4 ****        -2.5660  -2.8816   2.6753 C.3            1 S1                 0.0000
      5 ****        -1.8853  -1.6183   3.2224 C.3            1 S1                 0.0000
      6 ****        -2.2908  -0.3727   2.4155 C.3            1 S1                 0.0000
      7 ****        -2.0207  -0.5395   0.9061 C.3            1 S1                 0.0000
      8 ****        -0.5773  -0.5232   0.6580 N.am           1 S1                 0.0000
      9 ****         0.0556   0.1864  -0.2891 C.2            1 S1                 0.0000
     10 ****        -0.5290   0.9061  -1.1003 O.2            1 S1                 0.0000
     11 ****         1.5835   0.0349  -0.3249 C.3            1 S1                 0.0000
     12 ****         2.2531   1.0296  -1.1812 N.am           1 S1                 0.0000
     13 ****         2.5978   0.6194  -2.4814 C.2            1 S1                 0.0000
     14 ****         3.2018   1.4463  -3.3454 C.2            1 S1                 0.0000
     15 ****         3.4938   2.7907  -2.9120 C.2            1 S1                 0.0000
     16 ****         3.1727   3.2151  -1.6678 C.2            1 S1                 0.0000
     17 ****         3.4650   4.6379  -1.1969 C.3            1 S1                 0.0000
     18 ****         2.3387   5.2543  -0.8357 F              1 S1                 0.0000
     19 ****         4.2874   4.6236  -0.1472 F              1 S1                 0.0000
     20 ****         4.0389   5.3679  -2.1547 F              1 S1                 0.0000
     21 ****         2.5121   2.2931  -0.7212 C.2            1 S1                 0.0000
     22 ****         2.2045   2.6314   0.4231 O.2            1 S1                 0.0000
     23 ****        -1.4201  -2.2488  -1.3718 H              1 S1                 0.0000
     24 ****        -2.7628  -1.1598  -1.7156 H              1 S1                 0.0000
     25 ****        -3.0541  -2.8823  -1.5119 H              1 S1                 0.0000
     26 ****        -3.7681  -1.7019   0.4956 H              1 S1                 0.0000
     27 ****        -2.8085  -3.9472   0.8125 H              1 S1                 0.0000
     28 ****        -1.2148  -3.2702   1.0326 H              1 S1                 0.0000
     29 ****        -3.6431  -2.8134   2.8333 H              1 S1                 0.0000
     30 ****        -2.2274  -3.7566   3.2309 H              1 S1                 0.0000
     31 ****        -2.1476  -1.4807   4.2716 H              1 S1                 0.0000
     32 ****        -0.8022  -1.7433   3.1914 H              1 S1                 0.0000
     33 ****        -3.3537  -0.1819   2.5686 H              1 S1                 0.0000
     34 ****        -1.7690   0.5057   2.7977 H              1 S1                 0.0000
     35 ****        -2.4764   0.3168   0.4057 H              1 S1                 0.0000
     36 ****        -0.0123  -1.0941   1.2698 H              1 S1                 0.0000
     37 ****         1.9726   0.0924   0.6934 H              1 S1                 0.0000
     38 ****         1.8157  -0.9772  -0.6597 H              1 S1                 0.0000
     39 ****         2.3366  -0.3991  -2.7297 H              1 S1                 0.0000
     40 ****         3.4581   1.1165  -4.3416 H              1 S1                 0.0000
     41 ****         3.9750   3.4605  -3.6088 H              1 S1                 0.0000
     42 ****        -1.5256   0.9829  -1.0732 LP             1 S1                 0.0000
     43 ****        -0.0068   1.4133  -1.7858 LP             1 S1                 0.0000
     44 ****         1.7573   1.9784   1.0344 LP             1 S1                 0.0000
     45 ****         2.4022   3.5588   0.7405 LP             1 S1                 0.0000
@<TRIPOS>BOND
    1    1    2 1     
    2    1   23 1     
    3    1   24 1     
    4    1   25 1     
    5    2    7 1     
    6    2    3 1     
    7    2   26 1     
    8    3    4 1     
    9    3   27 1     
   10    3   28 1     
   11    4    5 1     
   12    4   29 1     
   13    4   30 1     
   14    5    6 1     
   15    5   31 1     
   16    5   32 1     
   17    6    7 1     
   18    6   33 1     
   19    6   34 1     
   20    7    8 1     
   21    7   35 1     
   22    8    9 am    
   23    8   36 1     
   24    9   10 2     
   25    9   11 1     
   26   11   12 1     
   27   11   37 1     
   28   11   38 1     
   29   12   21 am    
   30   12   13 1     
   31   13   14 2     
   32   13   39 1     
   33   14   15 1     
   34   14   40 1     
   35   15   16 2     
   36   15   41 1     
   37   16   17 1     
   38   16   21 1     
   39   17   18 1     
   40   17   19 1     
   41   17   20 1     
   42   21   22 2     
   43   10   42 1     
   44   10   43 1     
   45   22   44 1     
   46   22   45 1     
@<TRIPOS>SUBSTRUCTURE
      1 S1             1
@<TRIPOS>SET
LONE_PAIRS      STATIC     ATOMS    <user>   **** ""
4 42 43 44 45
DONOR_HYDROGENS      STATIC     ATOMS    <user>   **** ""
1 36
ATOM$BLUE        STATIC     ATOMS    COLORGROUP SYSTEM
4 42 43 44 45
ATOM$RED        STATIC     ATOMS    COLORGROUP SYSTEM
1 36
