AV-unprocessed.smi:2188|AV-procd|sdf|8881|dock2
  -GOLD-   2272012 83D 1   1.00000     0.00000
 Structure written by MMmdl.
 40 42  0  0  0  0  0  0  0  0  2 V2000
  154.2393  141.5580  161.4519 O   0  0  0  0  0  0  0  0  0  0  0  0
  153.7921  141.2804  160.3372 C   0  0  0  0  0  0  0  0  0  0  0  0
  154.0682  140.0939  159.7601 N   0  0  0  0  0  0  0  0  0  0  0  0
  154.8773  139.0227  160.3394 C   0  0  0  0  0  0  0  0  0  0  0  0
  154.1968  137.6427  160.2363 C   0  0  0  0  0  0  0  0  0  0  0  0
  154.3878  136.7733  161.4676 C   0  0  0  0  0  0  0  0  0  0  0  0
  153.9157  137.1955  162.7307 C   0  0  0  0  0  0  0  0  0  0  0  0
  154.1453  136.3845  163.8614 C   0  0  0  0  0  0  0  0  0  0  0  0
  154.8406  135.1682  163.7040 C   0  0  0  0  0  0  0  0  0  0  0  0
  155.2726  134.7943  162.4797 N   0  3  0  0  0  0  0  0  0  0  0  0
  155.0707  135.5413  161.3722 C   0  0  0  0  0  0  0  0  0  0  0  0
  152.9210  142.1586  159.5280 C   0  0  0  0  0  0  0  0  0  0  0  0
  152.7255  143.4474  159.9185 C   0  0  0  0  0  0  0  0  0  0  0  0
  151.8730  144.3471  159.1824 C   0  0  0  0  0  0  0  0  0  0  0  0
  151.2982  143.8949  158.0636 C   0  0  0  0  0  0  0  0  0  0  0  0
  151.4873  142.6029  157.5782 N   0  0  0  0  0  0  0  0  0  0  0  0
  150.8938  142.2926  156.2817 C   0  0  0  0  0  0  0  0  0  0  0  0
  150.3049  140.8942  156.2888 C   0  0  0  0  0  0  0  0  0  0  0  0
  151.7162  139.7615  156.5464 S   0  0  0  0  0  0  0  0  0  0  0  0
  151.1824  138.4175  156.8134 O   0  0  0  0  0  0  0  0  0  0  0  0
  152.6664  139.9551  155.4399 O   0  0  0  0  0  0  0  0  0  0  0  0
  152.3686  140.4040  157.9486 N   0  0  0  0  0  0  0  0  0  0  0  0
  152.2602  141.6530  158.3046 C   0  0  0  0  0  0  0  0  0  0  0  0
  153.6831  139.9208  158.8429 H   0  0  0  0  0  0  0  0  0  0  0  0
  155.8276  138.9970  159.8057 H   0  0  0  0  0  0  0  0  0  0  0  0
  155.1228  139.2475  161.3785 H   0  0  0  0  0  0  0  0  0  0  0  0
  153.1298  137.7733  160.0508 H   0  0  0  0  0  0  0  0  0  0  0  0
  154.5899  137.1071  159.3714 H   0  0  0  0  0  0  0  0  0  0  0  0
  153.3958  138.1365  162.8368 H   0  0  0  0  0  0  0  0  0  0  0  0
  153.7983  136.6942  164.8360 H   0  0  0  0  0  0  0  0  0  0  0  0
  155.0642  134.4894  164.5142 H   0  0  0  0  0  0  0  0  0  0  0  0
  155.4760  135.1428  160.4534 H   0  0  0  0  0  0  0  0  0  0  0  0
  153.2074  143.8540  160.7957 H   0  0  0  0  0  0  0  0  0  0  0  0
  151.7001  145.3560  159.5272 H   0  0  0  0  0  0  0  0  0  0  0  0
  150.6472  144.5210  157.4706 H   0  0  0  0  0  0  0  0  0  0  0  0
  150.1044  143.0046  156.0382 H   0  0  0  0  0  0  0  0  0  0  0  0
  151.6527  142.3913  155.5049 H   0  0  0  0  0  0  0  0  0  0  0  0
  149.5774  140.7570  157.0894 H   0  0  0  0  0  0  0  0  0  0  0  0
  149.8286  140.6499  155.3394 H   0  0  0  0  0  0  0  0  0  0  0  0
  155.7779  133.9127  162.3882 H   0  0  0  0  0  0  0  0  0  0  0  0
  1  2  2  0  0  0  0
  2  3  1  0  0  0  0
  2 12  1  0  0  0  0
  3  4  1  0  0  0  0
  3 24  1  0  0  0  0
  4  5  1  0  0  0  0
  4 25  1  0  0  0  0
  4 26  1  0  0  0  0
  5  6  1  0  0  0  0
  5 27  1  0  0  0  0
  5 28  1  0  0  0  0
  6 11  1  0  0  0  0
  6  7  2  0  0  0  0
  7  8  1  0  0  0  0
  7 29  1  0  0  0  0
  8  9  2  0  0  0  0
  8 30  1  0  0  0  0
  9 10  1  0  0  0  0
  9 31  1  0  0  0  0
 10 11  2  0  0  0  0
 10 40  1  0  0  0  0
 11 32  1  0  0  0  0
 12 23  1  0  0  0  0
 12 13  2  0  0  0  0
 13 14  1  0  0  0  0
 13 33  1  0  0  0  0
 14 15  2  0  0  0  0
 14 34  1  0  0  0  0
 15 16  1  0  0  0  0
 15 35  1  0  0  0  0
 16 23  1  0  0  0  0
 16 17  1  0  0  0  0
 17 18  1  0  0  0  0
 17 36  1  0  0  0  0
 17 37  1  0  0  0  0
 18 19  1  0  0  0  0
 18 38  1  0  0  0  0
 18 39  1  0  0  0  0
 19 20  2  0  0  0  0
 19 21  2  0  0  0  0
 19 22  1  0  0  0  0
 22 23  2  0  0  0  0
M  CHG  1  10   1
M  END
> <s_m_source_file>
AV-unprocessed.smi

> <i_m_source_file_index>
2188

> <i_lp_mmshare_version>
43012

> <i_f3d_flags>
0

> <s_epik_input>
W0NIMl0xW0NIMl1TKD1PKSg9TylOPUMoTjEyKUMoPVtDSF1bQ0hdPVtDSF0yKUMoPU8pW05IXVtDSDJdW0NIMl1jM1tjSF1bY0hdW2NIXW5bY0hdMw==

> <s_epik_cmdline>
J2VwaWtfcHl0aG9uJywgJy1waCcsICc3LjAnLCAnLXRuJywgJzgnLCAnLW1hJywgJzIwMCcsICctbWV0YWxfYmluZGluZycsICctaW1hZScsICc8aW5maWxlLm1hZT4nLCAnLW9tYWUnLCAnPG91dGZpbGUubWFlPic=

> <r_epik_Ionization_Penalty>
2.45954

> <r_epik_Ionization_Penalty_Charging>
2.45946

> <r_epik_Ionization_Penalty_Neutral>
8.13788e-05

> <r_epik_State_Penalty>
2.62155

> <r_epik_Charging_Adjusted_Penalty>
5.08101

> <i_epik_Tot_Q>
1

> <i_epik_Tot_abs_Q>
1

> <r_epik_Metal_State_Penalty>
2.74793

> <b_epik_Metal_Only>
0

> <s_lp_Force_Field>
OPLS_2005

> <r_lp_Energy>
33.7727

> <b_lp_Chiralities_Consistent>
1

> <s_lp_Variant>
AV-unprocessed.smi:2188-2

> <Gold.Version>
5.8.1

> <Gold.Id.Protein>
6NUR|6NUR_protein|mol2

> <Gold.PLP.Fitness>
53.9285

> <Gold.PLP.PLP>
-48.5872

> <Gold.PLP.part.hbond>
-2.0000

> <Gold.PLP.part.metal>
0.0000

> <Gold.PLP.part.buried>
-5.9047

> <Gold.PLP.part.nonpolar>
-41.1635

> <Gold.PLP.part.repulsive>
0.0835

> <Gold.PLP.ligand.clash>
0.0000

> <Gold.PLP.ligand.torsion>
0.3809

> <Gold.PLP.Chemscore.Hbond>
1.0000

> <Gold.PLP.Chemscore.CHOScore>
0.9965

> <Gold.PLP.Chemscore.Metal>
0.0000

> <Gold.Chemscore.Hbonds>
donor molecule, donor type, donor heavy atom, donor atom, acceptor molecule, acceptor atom, score
      P1  H  7989  7998       L1    21  0.11
      P1  H  7997  8009       L1    21  1.00
      L1  C    15    35       P1  8028  1.00

> <Gold.PLP.Chemscore.Internal.Correction>
0.1137

> <Gold.Rescore>
     Score         DG    S(hbond)    S(metal)    S(lipo)     H(rot)  DE(clash)    DE(int)     intcor
     16.13     -18.29       1.00        0.00     114.69       1.54       0.01       2.15       ----

> <Gold.Chemscore.Fitness>
16.1263

> <Gold.Chemscore.DG>
-18.2924

> <Gold.Chemscore.ZeroCoef>
-5.4800

> <Gold.Chemscore.Hbond>
0.9954

> <Gold.Chemscore.Metal>
0.0000

> <Gold.Chemscore.Lipo>
114.6894

> <Gold.Chemscore.Internal_Hbond>
0.0000

> <Gold.Chemscore.DEClash>
0.0127

> <Gold.Chemscore.DEInternal>
2.1534

> <Gold.Chemscore.Rot>
1.5355

> <Gold.Chemscore.Internal.Correction>
   9.000000E+99

> <Gold.Chemscore.Hbonds>
donor molecule, donor type, donor heavy atom, donor atom, acceptor molecule, acceptor atom, score
      P1  H  7989  7998       L1    21  0.10
      P1  H  7997  8009       L1    21  0.82

> <Gold.Chemscore.Hbond.Weighted>
-3.3247

> <Gold.Chemscore.Metal.Weighted>
-0.0000

> <Gold.Chemscore.Lipo.Weighted>
-13.4187

> <Gold.Chemscore.Internal_Hbond.Weighted>
0.0000

> <Gold.Chemscore.DEClash.Weighted>
0.0127

> <Gold.Chemscore.DEInternal.Weighted>
2.1534

> <Gold.Chemscore.Rot.Weighted>
3.9309

> <Gold.Chemscore.Internal.Correction.Weighted>
   9.000000E+99

> <Gold.Protein.RotatedTorsions>
[ 6907 6896 6895 6894 ] final  -99.58 input  -60.11 | X-H torsion
[ 7974 7965 7964 7962 ] final   18.87 input  175.53 | X-H torsion
[ 8008 7997 7996 7995 ] final -146.13 input   59.86 | X-H torsion
[ 10167 10162 10161 10158 ] final -171.37 input  -65.29 | X-H torsion
[ 10718 10713 10712 10709 ] final  -39.09 input   66.30 | X-H torsion
[ 10763 10752 10751 10750 ] final   61.03 input  -60.55 | X-H torsion
[ 11005 11000 10999 10996 ] final  -31.98 input  -57.11 | X-H torsion

> <Gold.Protein.ActiveResidues>
 VAL166  LYS551  ARG553  GLY616  TRP617  ASP618  TYR619  PRO620  LYS621  CYS622 
 ASP623  PHE694  ASN695  SER759  ASP760  ASP761  ALA762  ILE779  LEU786  VAL792 
 PHE793  MET794  SER795  GLU796  ALA797  LYS798  CYS799  TRP800  GLU811  SER814 

> <Gold.Protein.RotatedAtoms>
  150.7085  134.1019  159.3968 H   0  0  0  0  0  0  0  0  0  0  0  0  # atno 6907 bound_to 6896
  151.9005  135.0378  160.0515 H   0  0  0  0  0  0  0  0  0  0  0  0  # atno 6908 bound_to 6896
  152.2418  133.5106  159.5311 H   0  0  0  0  0  0  0  0  0  0  0  0  # atno 6909 bound_to 6896
  146.2170  139.8395  142.8644 H   0  0  0  0  0  0  0  0  0  0  0  0  # atno 7974 bound_to 7965
  155.5544  140.0619  157.2843 H   0  0  0  0  0  0  0  0  0  0  0  0  # atno 8008 bound_to 7997
  154.4410  140.1897  156.0764 H   0  0  0  0  0  0  0  0  0  0  0  0  # atno 8009 bound_to 7997
  156.0493  140.3286  155.7336 H   0  0  0  0  0  0  0  0  0  0  0  0  # atno 8010 bound_to 7997
  139.5806  144.1432  152.1510 H   0  0  0  0  0  0  0  0  0  0  0  0  # atno 10167 bound_to 10162
  156.2964  130.4234  149.8187 H   0  0  0  0  0  0  0  0  0  0  0  0  # atno 10718 bound_to 10713
  152.9938  135.5515  154.5968 H   0  0  0  0  0  0  0  0  0  0  0  0  # atno 10763 bound_to 10752
  154.5318  135.2814  155.1175 H   0  0  0  0  0  0  0  0  0  0  0  0  # atno 10764 bound_to 10752
  154.2487  135.6403  153.5285 H   0  0  0  0  0  0  0  0  0  0  0  0  # atno 10765 bound_to 10752
  140.9514  133.7219  156.1226 H   0  0  0  0  0  0  0  0  0  0  0  0  # atno 11005 bound_to 11000
  145.2913  141.0168  143.3661 LP  0  0  0  0  0  0  0  0  0  0  0  0  # atno 17320 bound_to 7965
  144.9075  139.4571  143.6603 LP  0  0  0  0  0  0  0  0  0  0  0  0  # atno 17321 bound_to 7965
  140.0984  144.5561  150.7006 LP  0  0  0  0  0  0  0  0  0  0  0  0  # atno 17342 bound_to 10162
  140.7085  143.2486  151.4654 LP  0  0  0  0  0  0  0  0  0  0  0  0  # atno 17343 bound_to 10162
  156.5581  130.8371  151.3320 LP  0  0  0  0  0  0  0  0  0  0  0  0  # atno 17370 bound_to 10713
  157.7356  130.9765  150.2093 LP  0  0  0  0  0  0  0  0  0  0  0  0  # atno 17371 bound_to 10713
  140.7597  134.3953  157.5528 LP  0  0  0  0  0  0  0  0  0  0  0  0  # atno 17394 bound_to 11000
  139.8848  134.8953  156.2678 LP  0  0  0  0  0  0  0  0  0  0  0  0  # atno 17395 bound_to 11000

$$$$
