AV-unprocessed.smi:3333|AV-procd|sdf|12832|dock1
  -GOLD-   2272019213D 1   1.00000     0.00000
 Structure written by MMmdl.
 41 43  0  0  0  0  0  0  0  0  1 V2000
  145.8146  144.5606  151.5703 C   0  0  0  0  0  0  0  0  0  0  0  0
  145.1281  144.1510  152.8777 C   0  0  0  0  0  0  0  0  0  0  0  0
  145.8612  143.0658  153.5929 C   0  0  0  0  0  0  0  0  0  0  0  0
  147.1504  142.7872  153.3833 N   0  0  0  0  0  0  0  0  0  0  0  0
  147.5970  141.6964  154.1368 C   0  0  0  0  0  0  0  0  0  0  0  0
  149.0230  141.2360  154.0178 C   0  0  0  0  0  0  0  0  0  0  0  0
  149.6760  141.0378  155.3918 C   0  0  0  0  0  0  0  0  0  0  0  0
  150.1527  139.9500  155.7199 O   0  0  0  0  0  0  0  0  0  0  0  0
  149.6965  142.1146  156.1924 N   0  0  0  0  0  0  0  0  0  0  0  0
  150.2638  142.1469  157.5361 C   0  0  0  0  0  0  0  0  0  0  0  0
  151.2471  143.3223  157.7226 C   0  0  1  0  0  0  0  0  0  0  0  0
  150.5863  144.6343  158.1939 C   0  0  0  0  0  0  0  0  0  0  0  0
  151.4682  145.0534  159.3854 C   0  0  1  0  0  0  0  0  0  0  0  0
  151.1669  144.1343  160.5832 C   0  0  0  0  0  0  0  0  0  0  0  0
  151.8221  142.8060  160.1623 C   0  0  0  0  0  0  0  0  0  0  0  0
  152.3797  143.1270  158.7602 C   0  0  2  0  0  0  0  0  0  0  0  0
  152.8476  144.5661  158.9544 C   0  0  0  0  0  0  0  0  0  0  0  0
  146.6186  141.1541  154.9337 C   0  0  0  0  0  0  0  0  0  0  0  0
  145.0953  141.9782  154.7452 S   0  0  0  0  0  0  0  0  0  0  0  0
  145.2552  145.3500  151.0681 H   0  0  0  0  0  0  0  0  0  0  0  0
  145.8903  143.7164  150.8843 H   0  0  0  0  0  0  0  0  0  0  0  0
  146.8227  144.9328  151.7564 H   0  0  0  0  0  0  0  0  0  0  0  0
  145.0410  145.0142  153.5388 H   0  0  0  0  0  0  0  0  0  0  0  0
  144.1126  143.8110  152.6727 H   0  0  0  0  0  0  0  0  0  0  0  0
  149.0798  140.2944  153.4705 H   0  0  0  0  0  0  0  0  0  0  0  0
  149.6041  141.9609  153.4460 H   0  0  0  0  0  0  0  0  0  0  0  0
  149.2898  142.9721  155.8475 H   0  0  0  0  0  0  0  0  0  0  0  0
  149.4620  142.2141  158.2731 H   0  0  0  0  0  0  0  0  0  0  0  0
  150.7557  141.1932  157.7247 H   0  0  0  0  0  0  0  0  0  0  0  0
  151.7168  143.5166  156.7567 H   0  0  0  0  0  0  0  0  0  0  0  0
  150.6178  145.3832  157.4013 H   0  0  0  0  0  0  0  0  0  0  0  0
  149.5429  144.5058  158.4852 H   0  0  0  0  0  0  0  0  0  0  0  0
  151.4058  146.1154  159.6235 H   0  0  0  0  0  0  0  0  0  0  0  0
  151.6278  144.5169  161.4948 H   0  0  0  0  0  0  0  0  0  0  0  0
  150.0967  144.0313  160.7671 H   0  0  0  0  0  0  0  0  0  0  0  0
  152.6355  142.5557  160.8447 H   0  0  0  0  0  0  0  0  0  0  0  0
  151.1259  141.9685  160.1713 H   0  0  0  0  0  0  0  0  0  0  0  0
  153.1586  142.4383  158.4317 H   0  0  0  0  0  0  0  0  0  0  0  0
  153.2050  145.0358  158.0362 H   0  0  0  0  0  0  0  0  0  0  0  0
  153.6075  144.6750  159.7305 H   0  0  0  0  0  0  0  0  0  0  0  0
  146.6982  140.3137  155.6072 H   0  0  0  0  0  0  0  0  0  0  0  0
  1  2  1  0  0  0  0
  1 20  1  0  0  0  0
  1 21  1  0  0  0  0
  1 22  1  0  0  0  0
  2  3  1  0  0  0  0
  2 23  1  0  0  0  0
  2 24  1  0  0  0  0
  3 19  1  0  0  0  0
  3  4  2  0  0  0  0
  4  5  1  0  0  0  0
  5  6  1  0  0  0  0
  5 18  2  0  0  0  0
  6  7  1  0  0  0  0
  6 25  1  0  0  0  0
  6 26  1  0  0  0  0
  7  8  2  0  0  0  0
  7  9  1  0  0  0  0
  9 10  1  0  0  0  0
  9 27  1  0  0  0  0
 10 11  1  0  0  0  0
 10 28  1  0  0  0  0
 10 29  1  0  0  0  0
 11 16  1  0  0  0  0
 11 12  1  0  0  0  0
 11 30  1  0  0  0  0
 12 13  1  0  0  0  0
 12 31  1  0  0  0  0
 12 32  1  0  0  0  0
 13 17  1  0  0  0  0
 13 14  1  0  0  0  0
 13 33  1  0  0  0  0
 14 15  1  0  0  0  0
 14 34  1  0  0  0  0
 14 35  1  0  0  0  0
 15 16  1  0  0  0  0
 15 36  1  0  0  0  0
 15 37  1  0  0  0  0
 16 17  1  0  0  0  0
 16 38  1  0  0  0  0
 17 39  1  0  0  0  0
 17 40  1  0  0  0  0
 18 19  1  0  0  0  0
 18 41  1  0  0  0  0
M  END
> <s_m_source_file>
AV-unprocessed.smi

> <i_m_source_file_index>
3333

> <i_lp_mmshare_version>
43012

> <i_f3d_flags>
0

> <s_epik_input>
W0NIM11bQ0gyXWMxbmMoW2NIXXMxKVtDSDJdQyg9TylbTkhdW0NIMl1bQ0BIXShbQ0gyXVtDQEBIXTIzKVtDQEBIXShbQ0gyXTMpW0NIMl1bQ0gyXTI=

> <s_epik_cmdline>
J2VwaWtfcHl0aG9uJywgJy1waCcsICc3LjAnLCAnLXRuJywgJzgnLCAnLW1hJywgJzIwMCcsICctbWV0YWxfYmluZGluZycsICctaW1hZScsICc8aW5maWxlLm1hZT4nLCAnLW9tYWUnLCAnPG91dGZpbGUubWFlPic=

> <r_lp_tautomer_probability>
1

> <r_epik_Ionization_Penalty>
6.68371e-05

> <r_epik_Ionization_Penalty_Charging>
0

> <r_epik_Ionization_Penalty_Neutral>
6.68371e-05

> <r_epik_State_Penalty>
-0

> <r_epik_Charging_Adjusted_Penalty>
0

> <i_epik_Tot_Q>
0

> <i_epik_Tot_abs_Q>
0

> <r_epik_Metal_State_Penalty>
-0

> <b_epik_Metal_Only>
0

> <s_lp_Force_Field>
OPLS_2005

> <r_lp_Energy>
44.5958

> <b_lp_Chiralities_Consistent>
1

> <s_lp_Variant>
AV-unprocessed.smi:3333-2

> <Gold.Version>
5.8.1

> <Gold.Id.Protein>
6NUR|6NUR_protein|mol2

> <Gold.PLP.Fitness>
47.4948

> <Gold.PLP.PLP>
-46.0235

> <Gold.PLP.part.hbond>
-2.0000

> <Gold.PLP.part.metal>
0.0000

> <Gold.PLP.part.buried>
-3.5074

> <Gold.PLP.part.nonpolar>
-41.0405

> <Gold.PLP.part.repulsive>
0.3208

> <Gold.PLP.ligand.clash>
0.0000

> <Gold.PLP.ligand.torsion>
0.8174

> <Gold.PLP.Chemscore.Hbond>
1.0156

> <Gold.PLP.Chemscore.CHOScore>
0.0000

> <Gold.PLP.Chemscore.Metal>
0.0000

> <Gold.Chemscore.Hbonds>
donor molecule, donor type, donor heavy atom, donor atom, acceptor molecule, acceptor atom, score
      L1  H     9    27       P1  8028  1.00

> <Gold.PLP.Chemscore.Internal.Correction>
0.0593

> <Gold.Rescore>
     Score         DG    S(hbond)    S(metal)    S(lipo)     H(rot)  DE(clash)    DE(int)     intcor
     19.63     -21.01       1.04        0.00     134.01       1.42       0.85       0.53       ----

> <Gold.Chemscore.Fitness>
19.6277

> <Gold.Chemscore.DG>
-21.0072

> <Gold.Chemscore.ZeroCoef>
-5.4800

> <Gold.Chemscore.Hbond>
1.0448

> <Gold.Chemscore.Metal>
0.0000

> <Gold.Chemscore.Lipo>
134.0142

> <Gold.Chemscore.Internal_Hbond>
0.0000

> <Gold.Chemscore.DEClash>
0.8538

> <Gold.Chemscore.DEInternal>
0.5258

> <Gold.Chemscore.Rot>
1.4227

> <Gold.Chemscore.Internal.Correction>
   9.000000E+99

> <Gold.Chemscore.Hbonds>
donor molecule, donor type, donor heavy atom, donor atom, acceptor molecule, acceptor atom, score
      L1  H     9    27       P1  8028  1.00
      P1  H  8022  8030       L1     4  0.02

> <Gold.Chemscore.Hbond.Weighted>
-3.4897

> <Gold.Chemscore.Metal.Weighted>
-0.0000

> <Gold.Chemscore.Lipo.Weighted>
-15.6797

> <Gold.Chemscore.Internal_Hbond.Weighted>
0.0000

> <Gold.Chemscore.DEClash.Weighted>
0.8538

> <Gold.Chemscore.DEInternal.Weighted>
0.5258

> <Gold.Chemscore.Rot.Weighted>
3.6421

> <Gold.Chemscore.Internal.Correction.Weighted>
   9.000000E+99

> <Gold.Protein.RotatedTorsions>
[ 6907 6896 6895 6894 ] final  -55.90 input  -60.11 | X-H torsion
[ 7974 7965 7964 7962 ] final   67.95 input  175.53 | X-H torsion
[ 8008 7997 7996 7995 ] final  -80.46 input   59.86 | X-H torsion
[ 10167 10162 10161 10158 ] final -143.00 input  -65.29 | X-H torsion
[ 10718 10713 10712 10709 ] final   93.25 input   66.30 | X-H torsion
[ 10763 10752 10751 10750 ] final -120.81 input  -60.55 | X-H torsion
[ 11005 11000 10999 10996 ] final   69.08 input  -57.11 | X-H torsion

> <Gold.Protein.ActiveResidues>
 VAL166  LYS551  ARG553  GLY616  TRP617  ASP618  TYR619  PRO620  LYS621  CYS622 
 ASP623  PHE694  ASN695  SER759  ASP760  ASP761  ALA762  ILE779  LEU786  VAL792 
 PHE793  MET794  SER795  GLU796  ALA797  LYS798  CYS799  TRP800  GLU811  SER814 

> <Gold.Protein.RotatedAtoms>
  150.8212  134.7421  159.6773 H   0  0  0  0  0  0  0  0  0  0  0  0  # atno 6907 bound_to 6896
  152.4327  134.5742  159.9939 H   0  0  0  0  0  0  0  0  0  0  0  0  # atno 6908 bound_to 6896
  151.5926  133.3327  159.3067 H   0  0  0  0  0  0  0  0  0  0  0  0  # atno 6909 bound_to 6896
  145.8085  139.3020  143.1113 H   0  0  0  0  0  0  0  0  0  0  0  0  # atno 7974 bound_to 7965
  154.5885  140.0662  156.9206 H   0  0  0  0  0  0  0  0  0  0  0  0  # atno 8008 bound_to 7997
  155.2336  140.3339  155.4282 H   0  0  0  0  0  0  0  0  0  0  0  0  # atno 8009 bound_to 7997
  156.2240  140.1811  156.7394 H   0  0  0  0  0  0  0  0  0  0  0  0  # atno 8010 bound_to 7997
  139.8035  143.7801  152.2659 H   0  0  0  0  0  0  0  0  0  0  0  0  # atno 10167 bound_to 10162
  157.6955  131.0472  150.4006 H   0  0  0  0  0  0  0  0  0  0  0  0  # atno 10718 bound_to 10713
  154.8653  135.4190  154.2518 H   0  0  0  0  0  0  0  0  0  0  0  0  # atno 10763 bound_to 10752
  153.3463  135.6996  153.6831 H   0  0  0  0  0  0  0  0  0  0  0  0  # atno 10764 bound_to 10752
  153.5788  135.3577  155.2840 H   0  0  0  0  0  0  0  0  0  0  0  0  # atno 10765 bound_to 10752
  139.9674  134.6957  156.0517 H   0  0  0  0  0  0  0  0  0  0  0  0  # atno 11005 bound_to 11000
  145.9802  140.8689  143.0118 LP  0  0  0  0  0  0  0  0  0  0  0  0  # atno 17320 bound_to 7965
  144.6760  140.2070  143.7381 LP  0  0  0  0  0  0  0  0  0  0  0  0  # atno 17321 bound_to 7965
  139.7928  144.7404  150.9931 LP  0  0  0  0  0  0  0  0  0  0  0  0  # atno 17342 bound_to 10162
  140.7820  143.4424  151.0532 LP  0  0  0  0  0  0  0  0  0  0  0  0  # atno 17343 bound_to 10162
  156.4400  130.3989  149.6704 LP  0  0  0  0  0  0  0  0  0  0  0  0  # atno 17370 bound_to 10713
  156.3891  130.7618  151.2617 LP  0  0  0  0  0  0  0  0  0  0  0  0  # atno 17371 bound_to 10713
  141.1354  133.6576  156.3579 LP  0  0  0  0  0  0  0  0  0  0  0  0  # atno 17394 bound_to 11000
  140.5366  134.6161  157.5367 LP  0  0  0  0  0  0  0  0  0  0  0  0  # atno 17395 bound_to 11000

$$$$
