AV-unprocessed.smi:2643|AV-procd|sdf|10276|dock4
  -GOLD-   2272014283D 1   1.00000     0.00000
 Structure written by MMmdl.
 34 35  0  0  0  0  0  0  0  0  1 V2000
  146.8167  138.9769  151.8452 C   0  0  0  0  0  0  0  0  0  0  0  0
  146.6048  139.0796  153.3601 C   0  0  0  0  0  0  0  0  0  0  0  0
  147.7207  139.7336  154.0153 N   0  0  0  0  0  0  0  0  0  0  0  0
  147.7333  140.9507  154.6671 C   0  0  0  0  0  0  0  0  0  0  0  0
  149.0136  141.1172  155.1136 C   0  0  0  0  0  0  0  0  0  0  0  0
  149.5794  142.1916  155.8447 N   0  0  0  0  0  0  0  0  0  0  0  0
  150.7217  142.1884  156.5579 C   0  0  0  0  0  0  0  0  0  0  0  0
  151.4636  141.2157  156.6792 O   0  0  0  0  0  0  0  0  0  0  0  0
  151.0101  143.3641  157.1446 N   0  0  0  0  0  0  0  0  0  0  0  0
  152.1650  143.6973  157.9820 C   0  0  0  0  0  0  0  0  0  0  0  0
  152.3345  142.7036  159.1513 C   0  0  0  0  0  0  0  0  0  0  0  0
  152.4875  143.5533  160.4140 C   0  0  0  0  0  0  0  0  0  0  0  0
  151.7045  144.8257  160.1087 C   0  0  0  0  0  0  0  0  0  0  0  0
  151.9779  145.0832  158.6267 C   0  0  0  0  0  0  0  0  0  0  0  0
  149.7227  139.9609  154.6964 C   0  0  0  0  0  0  0  0  0  0  0  0
  148.9345  139.1287  154.0332 N   0  0  0  0  0  0  0  0  0  0  0  0
  145.9755  138.4732  151.3691 H   0  0  0  0  0  0  0  0  0  0  0  0
  147.7193  138.4112  151.6118 H   0  0  0  0  0  0  0  0  0  0  0  0
  146.9125  139.9637  151.3914 H   0  0  0  0  0  0  0  0  0  0  0  0
  145.6924  139.6354  153.5796 H   0  0  0  0  0  0  0  0  0  0  0  0
  146.4813  138.0855  153.7912 H   0  0  0  0  0  0  0  0  0  0  0  0
  146.8496  141.5661  154.7492 H   0  0  0  0  0  0  0  0  0  0  0  0
  149.0636  143.0592  155.8223 H   0  0  0  0  0  0  0  0  0  0  0  0
  150.3566  144.1170  156.9836 H   0  0  0  0  0  0  0  0  0  0  0  0
  153.0680  143.7225  157.3692 H   0  0  0  0  0  0  0  0  0  0  0  0
  151.4481  142.0753  159.2533 H   0  0  0  0  0  0  0  0  0  0  0  0
  153.1847  142.0369  159.0045 H   0  0  0  0  0  0  0  0  0  0  0  0
  152.1302  143.0435  161.3093 H   0  0  0  0  0  0  0  0  0  0  0  0
  153.5393  143.7986  160.5670 H   0  0  0  0  0  0  0  0  0  0  0  0
  150.6391  144.6480  160.2613 H   0  0  0  0  0  0  0  0  0  0  0  0
  151.9981  145.6632  160.7423 H   0  0  0  0  0  0  0  0  0  0  0  0
  152.9035  145.6520  158.5286 H   0  0  0  0  0  0  0  0  0  0  0  0
  151.1893  145.6764  158.1613 H   0  0  0  0  0  0  0  0  0  0  0  0
  150.7604  139.7026  154.8496 H   0  0  0  0  0  0  0  0  0  0  0  0
  1  2  1  0  0  0  0
  1 17  1  0  0  0  0
  1 18  1  0  0  0  0
  1 19  1  0  0  0  0
  2  3  1  0  0  0  0
  2 20  1  0  0  0  0
  2 21  1  0  0  0  0
  3 16  1  0  0  0  0
  3  4  1  0  0  0  0
  4  5  2  0  0  0  0
  4 22  1  0  0  0  0
  5  6  1  0  0  0  0
  5 15  1  0  0  0  0
  6  7  1  0  0  0  0
  6 23  1  0  0  0  0
  7  8  2  0  0  0  0
  7  9  1  0  0  0  0
  9 10  1  0  0  0  0
  9 24  1  0  0  0  0
 10 14  1  0  0  0  0
 10 11  1  0  0  0  0
 10 25  1  0  0  0  0
 11 12  1  0  0  0  0
 11 26  1  0  0  0  0
 11 27  1  0  0  0  0
 12 13  1  0  0  0  0
 12 28  1  0  0  0  0
 12 29  1  0  0  0  0
 13 14  1  0  0  0  0
 13 30  1  0  0  0  0
 13 31  1  0  0  0  0
 14 32  1  0  0  0  0
 14 33  1  0  0  0  0
 15 16  2  0  0  0  0
 15 34  1  0  0  0  0
M  END
> <s_m_source_file>
AV-unprocessed.smi

> <i_m_source_file_index>
2643

> <i_lp_mmshare_version>
43012

> <i_f3d_flags>
0

> <s_epik_input>
W0NIM11bQ0gyXW4xW2NIXWMoW2NIXW4xKVtOSF1DKD1PKVtOSF1bQ0hdMltDSDJdW0NIMl1bQ0gyXVtDSDJdMg==

> <s_epik_cmdline>
J2VwaWtfcHl0aG9uJywgJy1waCcsICc3LjAnLCAnLXRuJywgJzgnLCAnLW1hJywgJzIwMCcsICctbWV0YWxfYmluZGluZycsICctaW1hZScsICc8aW5maWxlLm1hZT4nLCAnLW9tYWUnLCAnPG91dGZpbGUubWFlPic=

> <r_lp_tautomer_probability>
1

> <r_epik_Ionization_Penalty>
0.000191398

> <r_epik_Ionization_Penalty_Charging>
0

> <r_epik_Ionization_Penalty_Neutral>
0.000191398

> <r_epik_State_Penalty>
-0

> <r_epik_Charging_Adjusted_Penalty>
0

> <i_epik_Tot_Q>
0

> <i_epik_Tot_abs_Q>
0

> <r_epik_Metal_State_Penalty>
-0

> <b_epik_Metal_Only>
0

> <s_lp_Force_Field>
OPLS_2005

> <r_lp_Energy>
32.4137

> <b_lp_Chiralities_Consistent>
1

> <s_lp_Variant>
AV-unprocessed.smi:2643-1

> <Gold.Version>
5.8.1

> <Gold.Id.Protein>
6NUR|6NUR_protein|mol2

> <Gold.PLP.Fitness>
42.5318

> <Gold.PLP.PLP>
-37.3358

> <Gold.PLP.part.hbond>
-2.0000

> <Gold.PLP.part.metal>
0.0000

> <Gold.PLP.part.buried>
-3.7448

> <Gold.PLP.part.nonpolar>
-32.8856

> <Gold.PLP.part.repulsive>
0.6420

> <Gold.PLP.ligand.clash>
0.0000

> <Gold.PLP.ligand.torsion>
0.1761

> <Gold.PLP.Chemscore.Hbond>
1.8480

> <Gold.PLP.Chemscore.CHOScore>
0.0000

> <Gold.PLP.Chemscore.Metal>
0.0000

> <Gold.Chemscore.Hbonds>
donor molecule, donor type, donor heavy atom, donor atom, acceptor molecule, acceptor atom, score
      L1  H     6    23       P1  8028  1.00
      L1  H     9    24       P1  8028  0.81

> <Gold.PLP.Chemscore.Internal.Correction>
0.0042

> <Gold.Rescore>
     Score         DG    S(hbond)    S(metal)    S(lipo)     H(rot)  DE(clash)    DE(int)     intcor
     18.13     -19.55       1.77        0.00      95.32       1.17       0.12       1.30       ----

> <Gold.Chemscore.Fitness>
18.1263

> <Gold.Chemscore.DG>
-19.5455

> <Gold.Chemscore.ZeroCoef>
-5.4800

> <Gold.Chemscore.Hbond>
1.7721

> <Gold.Chemscore.Metal>
0.0000

> <Gold.Chemscore.Lipo>
95.3198

> <Gold.Chemscore.Internal_Hbond>
0.0000

> <Gold.Chemscore.DEClash>
0.1158

> <Gold.Chemscore.DEInternal>
1.3035

> <Gold.Chemscore.Rot>
1.1741

> <Gold.Chemscore.Internal.Correction>
   9.000000E+99

> <Gold.Chemscore.Hbonds>
donor molecule, donor type, donor heavy atom, donor atom, acceptor molecule, acceptor atom, score
      L1  H     6    23       P1  8028  0.98
      L1  H     9    24       P1  8028  0.73

> <Gold.Chemscore.Hbond.Weighted>
-5.9187

> <Gold.Chemscore.Metal.Weighted>
-0.0000

> <Gold.Chemscore.Lipo.Weighted>
-11.1524

> <Gold.Chemscore.Internal_Hbond.Weighted>
0.0000

> <Gold.Chemscore.DEClash.Weighted>
0.1158

> <Gold.Chemscore.DEInternal.Weighted>
1.3035

> <Gold.Chemscore.Rot.Weighted>
3.0056

> <Gold.Chemscore.Internal.Correction.Weighted>
   9.000000E+99

> <Gold.Protein.RotatedTorsions>
[ 6907 6896 6895 6894 ] final   83.51 input  -60.11 | X-H torsion
[ 7974 7965 7964 7962 ] final   84.96 input  175.53 | X-H torsion
[ 8008 7997 7996 7995 ] final -154.49 input   59.86 | X-H torsion
[ 10167 10162 10161 10158 ] final    6.61 input  -65.29 | X-H torsion
[ 10718 10713 10712 10709 ] final   -2.55 input   66.30 | X-H torsion
[ 10763 10752 10751 10750 ] final   94.15 input  -60.55 | X-H torsion
[ 11005 11000 10999 10996 ] final   -1.52 input  -57.11 | X-H torsion

> <Gold.Protein.ActiveResidues>
 VAL166  LYS551  ARG553  GLY616  TRP617  ASP618  TYR619  PRO620  LYS621  CYS622 
 ASP623  PHE694  ASN695  SER759  ASP760  ASP761  ALA762  ILE779  LEU786  VAL792 
 PHE793  MET794  SER795  GLU796  ALA797  LYS798  CYS799  TRP800  GLU811  SER814 

> <Gold.Protein.RotatedAtoms>
  152.5329  134.2885  159.9033 H   0  0  0  0  0  0  0  0  0  0  0  0  # atno 6907 bound_to 6896
  151.2837  133.4191  159.2636 H   0  0  0  0  0  0  0  0  0  0  0  0  # atno 6908 bound_to 6896
  151.0261  134.9520  159.8143 H   0  0  0  0  0  0  0  0  0  0  0  0  # atno 6909 bound_to 6896
  145.5918  139.2339  143.2295 H   0  0  0  0  0  0  0  0  0  0  0  0  # atno 7974 bound_to 7965
  155.6872  140.0751  157.2462 H   0  0  0  0  0  0  0  0  0  0  0  0  # atno 8008 bound_to 7997
  154.4095  140.1671  156.2099 H   0  0  0  0  0  0  0  0  0  0  0  0  # atno 8009 bound_to 7997
  155.9483  140.3379  155.6389 H   0  0  0  0  0  0  0  0  0  0  0  0  # atno 8010 bound_to 7997
  140.6418  143.7755  150.7440 H   0  0  0  0  0  0  0  0  0  0  0  0  # atno 10167 bound_to 10162
  156.7892  130.5356  149.5738 H   0  0  0  0  0  0  0  0  0  0  0  0  # atno 10718 bound_to 10713
  153.2383  135.4300  155.0671 H   0  0  0  0  0  0  0  0  0  0  0  0  # atno 10763 bound_to 10752
  154.8329  135.3396  154.6686 H   0  0  0  0  0  0  0  0  0  0  0  0  # atno 10764 bound_to 10752
  153.7110  135.7023  153.5094 H   0  0  0  0  0  0  0  0  0  0  0  0  # atno 10765 bound_to 10752
  140.6483  133.9428  155.8365 H   0  0  0  0  0  0  0  0  0  0  0  0  # atno 11005 bound_to 11000
  146.1641  140.6744  142.9264 LP  0  0  0  0  0  0  0  0  0  0  0  0  # atno 17320 bound_to 7965
  144.7348  140.4776  143.6912 LP  0  0  0  0  0  0  0  0  0  0  0  0  # atno 17321 bound_to 7965
  140.1388  143.4459  152.2207 LP  0  0  0  0  0  0  0  0  0  0  0  0  # atno 17342 bound_to 10162
  139.5628  144.7416  151.4108 LP  0  0  0  0  0  0  0  0  0  0  0  0  # atno 17343 bound_to 10162
  156.1170  130.6082  151.0135 LP  0  0  0  0  0  0  0  0  0  0  0  0  # atno 17370 bound_to 10713
  157.6609  131.0881  150.7841 LP  0  0  0  0  0  0  0  0  0  0  0  0  # atno 17371 bound_to 10713
  141.0556  134.0421  157.3727 LP  0  0  0  0  0  0  0  0  0  0  0  0  # atno 17394 bound_to 11000
  139.9055  135.0178  156.7466 LP  0  0  0  0  0  0  0  0  0  0  0  0  # atno 17395 bound_to 11000

$$$$
