AV-unprocessed.smi:2306|AV-procd|sdf|9249|dock10
  -GOLD-   2272012473D 1   1.00000     0.00000
 Structure written by MMmdl.
 41 42  0  0  0  0  0  0  0  0  1 V2000
  152.0644  145.2032  159.7573 C   0  0  0  0  0  0  0  0  0  0  0  0
  151.8443  143.9234  158.9703 C   0  0  0  0  0  0  0  0  0  0  0  0
  151.2333  144.0787  157.7228 N   0  0  0  0  0  0  0  0  0  0  0  0
  151.0006  143.0426  156.9855 C   0  0  0  0  0  0  0  0  0  0  0  0
  151.3455  141.7460  157.4035 N   0  0  0  0  0  0  0  0  0  0  0  0
  151.0244  140.6499  156.4735 C   0  0  0  0  0  0  0  0  0  0  0  0
  149.9720  141.0668  155.4210 C   0  0  1  0  0  0  0  0  0  0  0  0
  150.1328  140.3204  154.2316 O   0  0  0  0  0  0  0  0  0  0  0  0
  148.5255  140.8604  155.9027 C   0  0  0  0  0  0  0  0  0  0  0  0
  147.7194  141.9580  155.5027 O   0  0  0  0  0  0  0  0  0  0  0  0
  146.3366  141.6469  155.4645 C   0  0  0  0  0  0  0  0  0  0  0  0
  145.5035  142.8373  155.0294 C   0  0  0  0  0  0  0  0  0  0  0  0
  144.5453  143.3906  155.9047 C   0  0  0  0  0  0  0  0  0  0  0  0
  143.7613  144.4871  155.4948 C   0  0  0  0  0  0  0  0  0  0  0  0
  143.9274  145.0300  154.2060 C   0  0  0  0  0  0  0  0  0  0  0  0
  144.8763  144.4748  153.3260 C   0  0  0  0  0  0  0  0  0  0  0  0
  145.6609  143.3790  153.7355 C   0  0  0  0  0  0  0  0  0  0  0  0
  151.9601  141.5080  158.5978 C   0  0  0  0  0  0  0  0  0  0  0  0
  152.2811  140.3702  158.9455 O   0  0  0  0  0  0  0  0  0  0  0  0
  152.2108  142.6958  159.4300 C   0  0  0  0  0  0  0  0  0  0  0  0
  152.8785  142.4655  160.7801 C   0  0  0  0  0  0  0  0  0  0  0  0
  153.1240  145.3423  159.9729 H   0  0  0  0  0  0  0  0  0  0  0  0
  151.5173  145.1706  160.6997 H   0  0  0  0  0  0  0  0  0  0  0  0
  151.7202  146.0760  159.2012 H   0  0  0  0  0  0  0  0  0  0  0  0
  150.5317  143.1102  156.0023 H   0  0  0  0  0  0  0  0  0  0  0  0
  151.9209  140.2593  155.9881 H   0  0  0  0  0  0  0  0  0  0  0  0
  150.6423  139.8008  157.0444 H   0  0  0  0  0  0  0  0  0  0  0  0
  150.0928  142.1201  155.1647 H   0  0  0  0  0  0  0  0  0  0  0  0
  149.3315  140.3716  153.7329 H   0  0  0  0  0  0  0  0  0  0  0  0
  148.1262  139.9502  155.4525 H   0  0  0  0  0  0  0  0  0  0  0  0
  148.4915  140.7234  156.9852 H   0  0  0  0  0  0  0  0  0  0  0  0
  146.1564  140.8289  154.7657 H   0  0  0  0  0  0  0  0  0  0  0  0
  146.0101  141.3121  156.4506 H   0  0  0  0  0  0  0  0  0  0  0  0
  144.4094  142.9782  156.8937 H   0  0  0  0  0  0  0  0  0  0  0  0
  143.0316  144.9107  156.1689 H   0  0  0  0  0  0  0  0  0  0  0  0
  143.3261  145.8703  153.8915 H   0  0  0  0  0  0  0  0  0  0  0  0
  145.0016  144.8885  152.3361 H   0  0  0  0  0  0  0  0  0  0  0  0
  146.3846  142.9563  153.0539 H   0  0  0  0  0  0  0  0  0  0  0  0
  152.2770  141.7874  161.3865 H   0  0  0  0  0  0  0  0  0  0  0  0
  153.0160  143.3808  161.3534 H   0  0  0  0  0  0  0  0  0  0  0  0
  153.8612  142.0137  160.6413 H   0  0  0  0  0  0  0  0  0  0  0  0
  1  2  1  0  0  0  0
  1 22  1  0  0  0  0
  1 23  1  0  0  0  0
  1 24  1  0  0  0  0
  2 20  2  0  0  0  0
  2  3  1  0  0  0  0
  3  4  2  0  0  0  0
  4  5  1  0  0  0  0
  4 25  1  0  0  0  0
  5  6  1  0  0  0  0
  5 18  1  0  0  0  0
  6  7  1  0  0  0  0
  6 26  1  0  0  0  0
  6 27  1  0  0  0  0
  7  8  1  0  0  0  0
  7  9  1  0  0  0  0
  7 28  1  0  0  0  0
  8 29  1  0  0  0  0
  9 10  1  0  0  0  0
  9 30  1  0  0  0  0
  9 31  1  0  0  0  0
 10 11  1  0  0  0  0
 11 12  1  0  0  0  0
 11 32  1  0  0  0  0
 11 33  1  0  0  0  0
 12 17  1  0  0  0  0
 12 13  2  0  0  0  0
 13 14  1  0  0  0  0
 13 34  1  0  0  0  0
 14 15  2  0  0  0  0
 14 35  1  0  0  0  0
 15 16  1  0  0  0  0
 15 36  1  0  0  0  0
 16 17  2  0  0  0  0
 16 37  1  0  0  0  0
 17 38  1  0  0  0  0
 18 19  2  0  0  0  0
 18 20  1  0  0  0  0
 20 21  1  0  0  0  0
 21 39  1  0  0  0  0
 21 40  1  0  0  0  0
 21 41  1  0  0  0  0
M  END
> <s_m_source_file>
AV-unprocessed.smi

> <i_m_source_file_index>
2306

> <i_lp_mmshare_version>
43012

> <i_f3d_flags>
0

> <s_epik_input>
W0NIM11jMW5bY0hdbihjKD1PKWMxW0NIM10pW0NIMl1bQ0BIXShbT0hdKVtDSDJdT1tDSDJdYzJbY0hdW2NIXVtjSF1bY0hdW2NIXTI=

> <s_epik_cmdline>
J2VwaWtfcHl0aG9uJywgJy1waCcsICc3LjAnLCAnLXRuJywgJzgnLCAnLW1hJywgJzIwMCcsICctbWV0YWxfYmluZGluZycsICctaW1hZScsICc8aW5maWxlLm1hZT4nLCAnLW9tYWUnLCAnPG91dGZpbGUubWFlPic=

> <r_lp_tautomer_probability>
1

> <r_epik_Ionization_Penalty>
5.35985e-05

> <r_epik_Ionization_Penalty_Charging>
1.17753e-07

> <r_epik_Ionization_Penalty_Neutral>
5.34808e-05

> <r_epik_State_Penalty>
-0

> <r_epik_Charging_Adjusted_Penalty>
1.17753e-07

> <i_epik_Tot_Q>
0

> <i_epik_Tot_abs_Q>
0

> <r_epik_Metal_State_Penalty>
-0

> <b_epik_Metal_Only>
0

> <s_lp_Force_Field>
OPLS_2005

> <r_lp_Energy>
24.4772

> <b_lp_Chiralities_Consistent>
1

> <s_lp_Variant>
AV-unprocessed.smi:2306-2

> <Gold.Version>
5.8.1

> <Gold.Id.Protein>
6NUR|6NUR_protein|mol2

> <Gold.PLP.Fitness>
49.2264

> <Gold.PLP.PLP>
-47.5381

> <Gold.PLP.part.hbond>
-1.5723

> <Gold.PLP.part.metal>
0.0000

> <Gold.PLP.part.buried>
-7.7503

> <Gold.PLP.part.nonpolar>
-40.9677

> <Gold.PLP.part.repulsive>
1.7426

> <Gold.PLP.ligand.clash>
1.0122

> <Gold.PLP.ligand.torsion>
1.2461

> <Gold.PLP.Chemscore.Hbond>
0.9920

> <Gold.PLP.Chemscore.CHOScore>
0.7101

> <Gold.PLP.Chemscore.Metal>
0.0000

> <Gold.Chemscore.Hbonds>
donor molecule, donor type, donor heavy atom, donor atom, acceptor molecule, acceptor atom, score
      P1  H  7989  7998       L1     8  0.91
      L1  C     4    25       P1  8028  0.77

> <Gold.PLP.Chemscore.Internal.Correction>
0.0863

> <Gold.Rescore>
     Score         DG    S(hbond)    S(metal)    S(lipo)     H(rot)  DE(clash)    DE(int)     intcor
     11.28     -13.66       0.66        0.00     106.25       2.52       1.23       1.15       ----

> <Gold.Chemscore.Fitness>
11.2780

> <Gold.Chemscore.DG>
-13.6592

> <Gold.Chemscore.ZeroCoef>
-5.4800

> <Gold.Chemscore.Hbond>
0.6553

> <Gold.Chemscore.Metal>
0.0000

> <Gold.Chemscore.Lipo>
106.2547

> <Gold.Chemscore.Internal_Hbond>
0.0000

> <Gold.Chemscore.DEClash>
1.2311

> <Gold.Chemscore.DEInternal>
1.1501

> <Gold.Chemscore.Rot>
2.5162

> <Gold.Chemscore.Internal.Correction>
   9.000000E+99

> <Gold.Chemscore.Hbonds>
donor molecule, donor type, donor heavy atom, donor atom, acceptor molecule, acceptor atom, score
      P1  H  7989  7998       L1     8  0.52

> <Gold.Chemscore.Hbond.Weighted>
-2.1888

> <Gold.Chemscore.Metal.Weighted>
-0.0000

> <Gold.Chemscore.Lipo.Weighted>
-12.4318

> <Gold.Chemscore.Internal_Hbond.Weighted>
0.0000

> <Gold.Chemscore.DEClash.Weighted>
1.2311

> <Gold.Chemscore.DEInternal.Weighted>
1.1501

> <Gold.Chemscore.Rot.Weighted>
6.4414

> <Gold.Chemscore.Internal.Correction.Weighted>
   9.000000E+99

> <Gold.Protein.RotatedTorsions>
[ 6907 6896 6895 6894 ] final  127.73 input  -60.11 | X-H torsion
[ 7974 7965 7964 7962 ] final   62.46 input  175.53 | X-H torsion
[ 8008 7997 7996 7995 ] final  -77.90 input   59.86 | X-H torsion
[ 10167 10162 10161 10158 ] final  -22.56 input  -65.29 | X-H torsion
[ 10718 10713 10712 10709 ] final  -75.43 input   66.30 | X-H torsion
[ 10763 10752 10751 10750 ] final  127.81 input  -60.55 | X-H torsion
[ 11005 11000 10999 10996 ] final   53.95 input  -57.11 | X-H torsion

> <Gold.Protein.ActiveResidues>
 VAL166  LYS551  ARG553  GLY616  TRP617  ASP618  TYR619  PRO620  LYS621  CYS622 
 ASP623  PHE694  ASN695  SER759  ASP760  ASP761  ALA762  ILE779  LEU786  VAL792 
 PHE793  MET794  SER795  GLU796  ALA797  LYS798  CYS799  TRP800  GLU811  SER814 

> <Gold.Protein.RotatedAtoms>
  152.3786  133.6515  159.6142 H   0  0  0  0  0  0  0  0  0  0  0  0  # atno 6907 bound_to 6896
  150.7723  133.9152  159.3390 H   0  0  0  0  0  0  0  0  0  0  0  0  # atno 6908 bound_to 6896
  151.6962  135.0939  160.0294 H   0  0  0  0  0  0  0  0  0  0  0  0  # atno 6909 bound_to 6896
  145.8731  139.3391  143.0751 H   0  0  0  0  0  0  0  0  0  0  0  0  # atno 7974 bound_to 7965
  154.5639  140.0703  156.8861 H   0  0  0  0  0  0  0  0  0  0  0  0  # atno 8008 bound_to 7997
  155.2760  140.3368  155.4243 H   0  0  0  0  0  0  0  0  0  0  0  0  # atno 8009 bound_to 7997
  156.2065  140.1742  156.7775 H   0  0  0  0  0  0  0  0  0  0  0  0  # atno 8010 bound_to 7997
  140.7286  143.4523  151.0498 H   0  0  0  0  0  0  0  0  0  0  0  0  # atno 10167 bound_to 10162
  156.0208  130.4440  150.3042 H   0  0  0  0  0  0  0  0  0  0  0  0  # atno 10718 bound_to 10713
  153.7155  135.3261  155.3255 H   0  0  0  0  0  0  0  0  0  0  0  0  # atno 10763 bound_to 10752
  154.8372  135.4487  154.1271 H   0  0  0  0  0  0  0  0  0  0  0  0  # atno 10764 bound_to 10752
  153.2376  135.6967  153.7898 H   0  0  0  0  0  0  0  0  0  0  0  0  # atno 10765 bound_to 10752
  140.0726  134.5449  155.9031 H   0  0  0  0  0  0  0  0  0  0  0  0  # atno 11005 bound_to 11000
  145.9113  140.9178  143.0452 LP  0  0  0  0  0  0  0  0  0  0  0  0  # atno 17320 bound_to 7965
  144.6726  140.1164  143.7452 LP  0  0  0  0  0  0  0  0  0  0  0  0  # atno 17321 bound_to 7965
  139.8200  143.7833  152.3176 LP  0  0  0  0  0  0  0  0  0  0  0  0  # atno 17342 bound_to 10162
  139.7912  144.7409  150.9952 LP  0  0  0  0  0  0  0  0  0  0  0  0  # atno 17343 bound_to 10162
  157.1144  131.0230  151.3035 LP  0  0  0  0  0  0  0  0  0  0  0  0  # atno 17370 bound_to 10713
  157.4678  130.7691  149.7295 LP  0  0  0  0  0  0  0  0  0  0  0  0  # atno 17371 bound_to 10713
  141.2017  133.6620  156.5967 LP  0  0  0  0  0  0  0  0  0  0  0  0  # atno 17394 bound_to 11000
  140.3605  134.7691  157.4530 LP  0  0  0  0  0  0  0  0  0  0  0  0  # atno 17395 bound_to 11000

$$$$
