AV-unprocessed.smi:2147|AV-procd|sdf|8743|dock4
  -GOLD-   2272011523D 1   1.00000     0.00000
 Structure written by MMmdl.
 41 43  0  0  0  0  0  0  0  0  1 V2000
  143.1555  145.5372  155.0476 C   0  0  0  0  0  0  0  0  0  0  0  0
  143.6470  144.4087  155.9524 C   0  0  0  0  0  0  0  0  0  0  0  0
  143.1807  144.3156  157.0875 O   0  0  0  0  0  0  0  0  0  0  0  0
  144.6737  143.4766  155.4058 C   0  0  0  0  0  0  0  0  0  0  0  0
  145.1817  143.6129  154.0931 C   0  0  0  0  0  0  0  0  0  0  0  0
  146.1485  142.7132  153.6047 C   0  0  0  0  0  0  0  0  0  0  0  0
  146.6299  141.6609  154.4078 C   0  0  0  0  0  0  0  0  0  0  0  0
  147.5725  140.8263  153.8474 O   0  0  0  0  0  0  0  0  0  0  0  0
  148.1072  139.7808  154.6487 C   0  0  0  0  0  0  0  0  0  0  0  0
  149.5770  140.0968  154.9606 C   0  0  1  0  0  0  0  0  0  0  0  0
  150.2586  140.3121  153.7407 O   0  0  0  0  0  0  0  0  0  0  0  0
  149.7334  141.3311  155.8704 C   0  0  0  0  0  0  0  0  0  0  0  0
  150.8864  141.2310  156.7469 N   0  0  0  0  0  0  0  0  0  0  0  0
  151.8041  140.2454  156.7760 C   0  0  0  0  0  0  0  0  0  0  0  0
  152.7846  140.3523  157.6683 N   0  0  0  0  0  0  0  0  0  0  0  0
  152.4695  141.5498  158.2876 C   0  0  0  0  0  0  0  0  0  0  0  0
  153.1202  142.2400  159.3351 C   0  0  0  0  0  0  0  0  0  0  0  0
  152.6076  143.4652  159.8102 C   0  0  0  0  0  0  0  0  0  0  0  0
  151.4388  144.0182  159.2471 C   0  0  0  0  0  0  0  0  0  0  0  0
  150.7728  143.3485  158.2026 C   0  0  0  0  0  0  0  0  0  0  0  0
  151.2874  142.1262  157.7321 C   0  0  0  0  0  0  0  0  0  0  0  0
  146.1239  141.5241  155.7236 C   0  0  0  0  0  0  0  0  0  0  0  0
  145.1564  142.4226  156.2135 C   0  0  0  0  0  0  0  0  0  0  0  0
  142.6841  145.1315  154.1521 H   0  0  0  0  0  0  0  0  0  0  0  0
  143.9865  146.1764  154.7489 H   0  0  0  0  0  0  0  0  0  0  0  0
  142.4225  146.1532  155.5691 H   0  0  0  0  0  0  0  0  0  0  0  0
  144.8427  144.4018  153.4386 H   0  0  0  0  0  0  0  0  0  0  0  0
  146.5242  142.8320  152.5989 H   0  0  0  0  0  0  0  0  0  0  0  0
  147.5404  139.7140  155.5790 H   0  0  0  0  0  0  0  0  0  0  0  0
  148.0316  138.8202  154.1360 H   0  0  0  0  0  0  0  0  0  0  0  0
  150.0313  139.2283  155.4393 H   0  0  0  0  0  0  0  0  0  0  0  0
  149.6223  140.3284  153.0419 H   0  0  0  0  0  0  0  0  0  0  0  0
  149.8267  142.2381  155.2712 H   0  0  0  0  0  0  0  0  0  0  0  0
  148.8463  141.4587  156.4919 H   0  0  0  0  0  0  0  0  0  0  0  0
  151.7460  139.3987  156.1075 H   0  0  0  0  0  0  0  0  0  0  0  0
  154.0156  141.8257  159.7743 H   0  0  0  0  0  0  0  0  0  0  0  0
  153.1141  143.9835  160.6111 H   0  0  0  0  0  0  0  0  0  0  0  0
  151.0540  144.9570  159.6176 H   0  0  0  0  0  0  0  0  0  0  0  0
  149.8773  143.7685  157.7687 H   0  0  0  0  0  0  0  0  0  0  0  0
  146.4612  140.7367  156.3803 H   0  0  0  0  0  0  0  0  0  0  0  0
  144.7893  142.2906  157.2211 H   0  0  0  0  0  0  0  0  0  0  0  0
  1  2  1  0  0  0  0
  1 24  1  0  0  0  0
  1 25  1  0  0  0  0
  1 26  1  0  0  0  0
  2  3  2  0  0  0  0
  2  4  1  0  0  0  0
  4 23  1  0  0  0  0
  4  5  2  0  0  0  0
  5  6  1  0  0  0  0
  5 27  1  0  0  0  0
  6  7  2  0  0  0  0
  6 28  1  0  0  0  0
  7  8  1  0  0  0  0
  7 22  1  0  0  0  0
  8  9  1  0  0  0  0
  9 10  1  0  0  0  0
  9 29  1  0  0  0  0
  9 30  1  0  0  0  0
 10 11  1  0  0  0  0
 10 12  1  0  0  0  0
 10 31  1  0  0  0  0
 11 32  1  0  0  0  0
 12 13  1  0  0  0  0
 12 33  1  0  0  0  0
 12 34  1  0  0  0  0
 13 21  1  0  0  0  0
 13 14  1  0  0  0  0
 14 15  2  0  0  0  0
 14 35  1  0  0  0  0
 15 16  1  0  0  0  0
 16 21  2  0  0  0  0
 16 17  1  0  0  0  0
 17 18  2  0  0  0  0
 17 36  1  0  0  0  0
 18 19  1  0  0  0  0
 18 37  1  0  0  0  0
 19 20  2  0  0  0  0
 19 38  1  0  0  0  0
 20 21  1  0  0  0  0
 20 39  1  0  0  0  0
 22 23  2  0  0  0  0
 22 40  1  0  0  0  0
 23 41  1  0  0  0  0
M  END
> <s_m_source_file>
AV-unprocessed.smi

> <i_m_source_file_index>
2147

> <i_lp_mmshare_version>
43012

> <i_f3d_flags>
0

> <s_epik_input>
W0NIM11DKD1PKWMxW2NIXVtjSF1jKFtjSF1bY0hdMSlPW0NIMl1bQ0BIXShbT0hdKVtDSDJdbihbY0hdbjIpYyhjMjMpW2NIXVtjSF1bY0hdW2NIXTM=

> <s_epik_cmdline>
J2VwaWtfcHl0aG9uJywgJy1waCcsICc3LjAnLCAnLXRuJywgJzgnLCAnLW1hJywgJzIwMCcsICctbWV0YWxfYmluZGluZycsICctaW1hZScsICc8aW5maWxlLm1hZT4nLCAnLW9tYWUnLCAnPG91dGZpbGUubWFlPic=

> <r_lp_tautomer_probability>
0.99995

> <r_epik_Ionization_Penalty>
0.0583018

> <r_epik_Ionization_Penalty_Charging>
0

> <r_epik_Ionization_Penalty_Neutral>
0.0583018

> <r_epik_State_Penalty>
0.0504087

> <r_epik_Charging_Adjusted_Penalty>
0.0504087

> <i_epik_Tot_Q>
0

> <i_epik_Tot_abs_Q>
0

> <r_epik_Metal_State_Penalty>
5.26129e-05

> <b_epik_Metal_Only>
0

> <s_lp_Force_Field>
OPLS_2005

> <r_lp_Energy>
19.4931

> <b_lp_Chiralities_Consistent>
1

> <s_lp_Variant>
AV-unprocessed.smi:2147-2

> <Gold.Version>
5.8.1

> <Gold.Id.Protein>
6NUR|6NUR_protein|mol2

> <Gold.PLP.Fitness>
53.2526

> <Gold.PLP.PLP>
-45.9662

> <Gold.PLP.part.hbond>
-2.7402

> <Gold.PLP.part.metal>
0.0000

> <Gold.PLP.part.buried>
-6.9193

> <Gold.PLP.part.nonpolar>
-35.6916

> <Gold.PLP.part.repulsive>
0.1748

> <Gold.PLP.ligand.clash>
0.0000

> <Gold.PLP.ligand.torsion>
0.7979

> <Gold.PLP.Chemscore.Hbond>
2.8715

> <Gold.PLP.Chemscore.CHOScore>
0.0000

> <Gold.PLP.Chemscore.Metal>
0.0000

> <Gold.Chemscore.Hbonds>
donor molecule, donor type, donor heavy atom, donor atom, acceptor molecule, acceptor atom, score
      L1  H    11    32       P1  7957  0.74
      P1  H  7989  7998       L1    11  0.66
      P1  H  7997  8010       L1    15  0.88

> <Gold.PLP.Chemscore.Internal.Correction>
0.2678

> <Gold.Rescore>
     Score         DG    S(hbond)    S(metal)    S(lipo)     H(rot)  DE(clash)    DE(int)     intcor
     17.92     -20.64       2.26        0.00     117.49       2.40       1.91       0.81       ----

> <Gold.Chemscore.Fitness>
17.9186

> <Gold.Chemscore.DG>
-20.6442

> <Gold.Chemscore.ZeroCoef>
-5.4800

> <Gold.Chemscore.Hbond>
2.2646

> <Gold.Chemscore.Metal>
0.0000

> <Gold.Chemscore.Lipo>
117.4851

> <Gold.Chemscore.Internal_Hbond>
0.0000

> <Gold.Chemscore.DEClash>
1.9146

> <Gold.Chemscore.DEInternal>
0.8110

> <Gold.Chemscore.Rot>
2.4005

> <Gold.Chemscore.Internal.Correction>
   9.000000E+99

> <Gold.Chemscore.Hbonds>
donor molecule, donor type, donor heavy atom, donor atom, acceptor molecule, acceptor atom, score
      L1  H    11    32       P1  7957  0.74
      P1  H  7989  7998       L1    11  0.62
      P1  H  7997  8010       L1    15  0.73

> <Gold.Chemscore.Hbond.Weighted>
-7.5637

> <Gold.Chemscore.Metal.Weighted>
-0.0000

> <Gold.Chemscore.Lipo.Weighted>
-13.7458

> <Gold.Chemscore.Internal_Hbond.Weighted>
0.0000

> <Gold.Chemscore.DEClash.Weighted>
1.9146

> <Gold.Chemscore.DEInternal.Weighted>
0.8110

> <Gold.Chemscore.Rot.Weighted>
6.1453

> <Gold.Chemscore.Internal.Correction.Weighted>
   9.000000E+99

> <Gold.Protein.RotatedTorsions>
[ 6907 6896 6895 6894 ] final   35.66 input  -60.11 | X-H torsion
[ 7974 7965 7964 7962 ] final  106.21 input  175.53 | X-H torsion
[ 8008 7997 7996 7995 ] final   42.14 input   59.86 | X-H torsion
[ 10167 10162 10161 10158 ] final   25.33 input  -65.29 | X-H torsion
[ 10718 10713 10712 10709 ] final  -21.36 input   66.30 | X-H torsion
[ 10763 10752 10751 10750 ] final  148.70 input  -60.55 | X-H torsion
[ 11005 11000 10999 10996 ] final  121.66 input  -57.11 | X-H torsion

> <Gold.Protein.ActiveResidues>
 VAL166  LYS551  ARG553  GLY616  TRP617  ASP618  TYR619  PRO620  LYS621  CYS622 
 ASP623  PHE694  ASN695  SER759  ASP760  ASP761  ALA762  ILE779  LEU786  VAL792 
 PHE793  MET794  SER795  GLU796  ALA797  LYS798  CYS799  TRP800  GLU811  SER814 

> <Gold.Protein.RotatedAtoms>
  152.1191  134.9218  160.0563 H   0  0  0  0  0  0  0  0  0  0  0  0  # atno 6907 bound_to 6896
  152.0366  133.3955  159.4327 H   0  0  0  0  0  0  0  0  0  0  0  0  # atno 6908 bound_to 6896
  150.6848  134.3382  159.4900 H   0  0  0  0  0  0  0  0  0  0  0  0  # atno 6909 bound_to 6896
  145.3096  139.2544  143.3770 H   0  0  0  0  0  0  0  0  0  0  0  0  # atno 7974 bound_to 7965
  155.2813  140.3372  155.4258 H   0  0  0  0  0  0  0  0  0  0  0  0  # atno 8008 bound_to 7997
  156.2088  140.1762  156.7781 H   0  0  0  0  0  0  0  0  0  0  0  0  # atno 8009 bound_to 7997
  154.5658  140.0679  156.8873 H   0  0  0  0  0  0  0  0  0  0  0  0  # atno 8010 bound_to 7997
  140.5115  144.0152  150.6375 H   0  0  0  0  0  0  0  0  0  0  0  0  # atno 10167 bound_to 10162
  156.5192  130.4628  149.6606 H   0  0  0  0  0  0  0  0  0  0  0  0  # atno 10718 bound_to 10713
  154.0590  135.2875  155.3328 H   0  0  0  0  0  0  0  0  0  0  0  0  # atno 10763 bound_to 10752
  154.6820  135.5259  153.8279 H   0  0  0  0  0  0  0  0  0  0  0  0  # atno 10764 bound_to 10752
  153.0530  135.6584  154.0780 H   0  0  0  0  0  0  0  0  0  0  0  0  # atno 10765 bound_to 10752
  139.9235  134.9639  156.7991 H   0  0  0  0  0  0  0  0  0  0  0  0  # atno 11005 bound_to 11000
  146.3122  140.3630  142.8666 LP  0  0  0  0  0  0  0  0  0  0  0  0  # atno 17320 bound_to 7965
  144.9026  140.7661  143.5857 LP  0  0  0  0  0  0  0  0  0  0  0  0  # atno 17321 bound_to 7965
  140.3476  143.2982  152.0521 LP  0  0  0  0  0  0  0  0  0  0  0  0  # atno 17342 bound_to 10162
  139.4897  144.6397  151.6902 LP  0  0  0  0  0  0  0  0  0  0  0  0  # atno 17343 bound_to 10162
  156.3165  130.7257  151.2161 LP  0  0  0  0  0  0  0  0  0  0  0  0  # atno 17370 bound_to 10713
  157.7439  131.0467  150.4907 LP  0  0  0  0  0  0  0  0  0  0  0  0  # atno 17371 bound_to 10713
  140.6404  133.9823  155.7705 LP  0  0  0  0  0  0  0  0  0  0  0  0  # atno 17394 bound_to 11000
  141.0775  134.0113  157.3436 LP  0  0  0  0  0  0  0  0  0  0  0  0  # atno 17395 bound_to 11000

$$$$
