AV-unprocessed.smi:2226|AV-procd|sdf|9008|dock7
  -GOLD-   2272012213D 1   1.00000     0.00000
 Structure written by MMmdl.
 41 43  0  0  0  0  0  0  0  0  3 V2000
  146.4730  138.8079  153.2586 C   0  0  0  0  0  0  0  0  0  0  0  0
  146.2582  140.1414  153.8698 N   0  3  2  0  0  0  0  0  0  0  0  0
  147.0255  141.2445  153.2438 C   0  0  1  0  0  0  0  0  0  0  0  0
  146.4065  142.5958  153.6683 C   0  0  0  0  0  0  0  0  0  0  0  0
  146.2664  142.7640  155.1931 C   0  0  0  0  0  0  0  0  0  0  0  0
  145.7666  141.4802  155.8834 C   0  0  0  0  0  0  0  0  0  0  0  0
  146.4156  140.1844  155.3433 C   0  0  2  0  0  0  0  0  0  0  0  0
  147.8907  139.9616  155.7630 C   0  0  0  0  0  0  0  0  0  0  0  0
  148.9496  140.7751  154.9772 C   0  0  2  0  0  0  0  0  0  0  0  0
  149.3985  141.9446  155.7321 N   0  0  0  0  0  0  0  0  0  0  0  0
  150.1412  141.9166  156.8499 C   0  0  0  0  0  0  0  0  0  0  0  0
  150.5538  140.8789  157.3684 O   0  0  0  0  0  0  0  0  0  0  0  0
  150.3740  143.1508  157.3224 N   0  0  0  0  0  0  0  0  0  0  0  0
  151.1336  143.4623  158.4736 C   0  0  0  0  0  0  0  0  0  0  0  0
  151.2185  144.6815  159.0032 N   0  3  0  0  0  0  0  0  0  0  0  0
  152.0375  144.6276  160.1039 C   0  0  0  0  0  0  0  0  0  0  0  0
  152.4383  143.3171  160.2072 C   0  0  0  0  0  0  0  0  0  0  0  0
  151.8778  142.5718  159.1892 O   0  0  0  0  0  0  0  0  0  0  0  0
  148.5447  141.1056  153.5145 C   0  0  0  0  0  0  0  0  0  0  0  0
  147.4989  138.4593  153.3749 H   0  0  0  0  0  0  0  0  0  0  0  0
  146.2464  138.8383  152.1927 H   0  0  0  0  0  0  0  0  0  0  0  0
  145.8122  138.0703  153.7143 H   0  0  0  0  0  0  0  0  0  0  0  0
  146.8846  141.1730  152.1642 H   0  0  0  0  0  0  0  0  0  0  0  0
  146.9774  143.4259  153.2507 H   0  0  0  0  0  0  0  0  0  0  0  0
  145.4115  142.6674  153.2263 H   0  0  0  0  0  0  0  0  0  0  0  0
  147.2086  143.0838  155.6243 H   0  0  0  0  0  0  0  0  0  0  0  0
  145.5779  143.5823  155.4061 H   0  0  0  0  0  0  0  0  0  0  0  0
  145.9046  141.5566  156.9623 H   0  0  0  0  0  0  0  0  0  0  0  0
  144.6892  141.4100  155.7268 H   0  0  0  0  0  0  0  0  0  0  0  0
  145.8363  139.3597  155.7610 H   0  0  0  0  0  0  0  0  0  0  0  0
  148.0045  140.1131  156.8373 H   0  0  0  0  0  0  0  0  0  0  0  0
  148.1154  138.9049  155.6124 H   0  0  0  0  0  0  0  0  0  0  0  0
  149.8313  140.1332  154.9199 H   0  0  0  0  0  0  0  0  0  0  0  0
  149.1041  142.8448  155.3819 H   0  0  0  0  0  0  0  0  0  0  0  0
  150.7715  145.5307  158.6812 H   0  0  0  0  0  0  0  0  0  0  0  0
  152.2498  145.5090  160.6919 H   0  0  0  0  0  0  0  0  0  0  0  0
  153.0761  142.7836  160.8970 H   0  0  0  0  0  0  0  0  0  0  0  0
  148.9129  140.2927  152.8877 H   0  0  0  0  0  0  0  0  0  0  0  0
  149.0701  141.9879  153.1471 H   0  0  0  0  0  0  0  0  0  0  0  0
  145.2858  140.3505  153.6929 H   0  0  0  0  0  0  0  0  0  0  0  0
  149.9799  143.9309  156.8178 H   0  0  0  0  0  0  0  0  0  0  0  0
  1  2  1  0  0  0  0
  1 20  1  0  0  0  0
  1 21  1  0  0  0  0
  1 22  1  0  0  0  0
  2  7  1  0  0  0  0
  2  3  1  0  0  0  0
  2 40  1  0  0  0  0
  3 19  1  0  0  0  0
  3  4  1  0  0  0  0
  3 23  1  0  0  0  0
  4  5  1  0  0  0  0
  4 24  1  0  0  0  0
  4 25  1  0  0  0  0
  5  6  1  0  0  0  0
  5 26  1  0  0  0  0
  5 27  1  0  0  0  0
  6  7  1  0  0  0  0
  6 28  1  0  0  0  0
  6 29  1  0  0  0  0
  7  8  1  0  0  0  0
  7 30  1  0  0  0  0
  8  9  1  0  0  0  0
  8 31  1  0  0  0  0
  8 32  1  0  0  0  0
  9 10  1  0  0  0  0
  9 19  1  0  0  0  0
  9 33  1  0  0  0  0
 10 34  1  0  0  0  0
 10 11  1  0  0  0  0
 11 13  1  0  0  0  0
 11 12  2  0  0  0  0
 13 14  1  0  0  0  0
 13 41  1  0  0  0  0
 14 18  1  0  0  0  0
 14 15  2  0  0  0  0
 15 35  1  0  0  0  0
 15 16  1  0  0  0  0
 16 36  1  0  0  0  0
 16 17  2  0  0  0  0
 17 37  1  0  0  0  0
 17 18  1  0  0  0  0
 19 38  1  0  0  0  0
 19 39  1  0  0  0  0
M  CHG  1   2   1
M  CHG  1  15   1
M  END
> <s_m_source_file>
AV-unprocessed.smi

> <i_m_source_file_index>
2226

> <i_lp_mmshare_version>
43012

> <i_f3d_flags>
0

> <s_epik_input>
W0NIMl0xW0NIMl1bQ0gyXVtDQEhdKE4oW0NIM10pW0NIXTEyKVtDSDJdW0NASF0oW0NIMl0yKVtOSF1DKD1PKVtOSF1jM25bY0hdW2NIXW8z

> <s_epik_cmdline>
J2VwaWtfcHl0aG9uJywgJy1waCcsICc3LjAnLCAnLXRuJywgJzgnLCAnLW1hJywgJzIwMCcsICctbWV0YWxfYmluZGluZycsICctaW1hZScsICc8aW5maWxlLm1hZT4nLCAnLW9tYWUnLCAnPG91dGZpbGUubWFlPic=

> <r_epik_Ionization_Penalty>
6.92532

> <r_epik_Ionization_Penalty_Charging>
6.82059

> <r_epik_Ionization_Penalty_Neutral>
0.104727

> <r_epik_State_Penalty>
2.17671

> <r_epik_Charging_Adjusted_Penalty>
8.99731

> <i_epik_Tot_Q>
2

> <i_epik_Tot_abs_Q>
2

> <r_epik_Metal_State_Penalty>
2.20618

> <b_epik_Metal_Only>
0

> <s_lp_Force_Field>
OPLS_2005

> <r_lp_Energy>
48.5107

> <b_lp_Chiralities_Consistent>
1

> <s_lp_Variant>
AV-unprocessed.smi:2226-8

> <Gold.Version>
5.8.1

> <Gold.Id.Protein>
6NUR|6NUR_protein|mol2

> <Gold.PLP.Fitness>
41.8741

> <Gold.PLP.PLP>
-30.3269

> <Gold.PLP.part.hbond>
-3.0000

> <Gold.PLP.part.metal>
0.0000

> <Gold.PLP.part.buried>
-2.6260

> <Gold.PLP.part.nonpolar>
-24.3075

> <Gold.PLP.part.repulsive>
0.2666

> <Gold.PLP.ligand.clash>
0.0000

> <Gold.PLP.ligand.torsion>
0.1931

> <Gold.PLP.Chemscore.Hbond>
3.9586

> <Gold.PLP.Chemscore.CHOScore>
0.0000

> <Gold.PLP.Chemscore.Metal>
0.0000

> <Gold.Chemscore.Hbonds>
donor molecule, donor type, donor heavy atom, donor atom, acceptor molecule, acceptor atom, score
      L1  H     2    40       P1 10175  2.00
      L1  H    10    34       P1  8028  1.00
      L1  H    13    41       P1  8028  1.00

> <Gold.PLP.Chemscore.Internal.Correction>
0.0575

> <Gold.Rescore>
     Score         DG    S(hbond)    S(metal)    S(lipo)     H(rot)  DE(clash)    DE(int)     intcor
     17.61     -20.36       2.74        0.00      70.83       1.00       1.15       1.59       ----

> <Gold.Chemscore.Fitness>
17.6118

> <Gold.Chemscore.DG>
-20.3589

> <Gold.Chemscore.ZeroCoef>
-5.4800

> <Gold.Chemscore.Hbond>
2.7400

> <Gold.Chemscore.Metal>
0.0000

> <Gold.Chemscore.Lipo>
70.8331

> <Gold.Chemscore.Internal_Hbond>
0.0000

> <Gold.Chemscore.DEClash>
1.1528

> <Gold.Chemscore.DEInternal>
1.5943

> <Gold.Chemscore.Rot>
1.0000

> <Gold.Chemscore.Internal.Correction>
   9.000000E+99

> <Gold.Chemscore.Hbonds>
donor molecule, donor type, donor heavy atom, donor atom, acceptor molecule, acceptor atom, score
      L1  H     2    40       P1 10175  0.91
      L1  H    10    34       P1  8028  0.94
      L1  H    13    41       P1  8028  0.97

> <Gold.Chemscore.Hbond.Weighted>
-9.1515

> <Gold.Chemscore.Metal.Weighted>
-0.0000

> <Gold.Chemscore.Lipo.Weighted>
-8.2875

> <Gold.Chemscore.Internal_Hbond.Weighted>
0.0000

> <Gold.Chemscore.DEClash.Weighted>
1.1528

> <Gold.Chemscore.DEInternal.Weighted>
1.5943

> <Gold.Chemscore.Rot.Weighted>
2.5600

> <Gold.Chemscore.Internal.Correction.Weighted>
   9.000000E+99

> <Gold.Protein.RotatedTorsions>
[ 6907 6896 6895 6894 ] final  118.71 input  -60.11 | X-H torsion
[ 7974 7965 7964 7962 ] final  153.73 input  175.53 | X-H torsion
[ 8008 7997 7996 7995 ] final -155.47 input   59.86 | X-H torsion
[ 10167 10162 10161 10158 ] final   48.79 input  -65.29 | X-H torsion
[ 10718 10713 10712 10709 ] final  -70.34 input   66.30 | X-H torsion
[ 10763 10752 10751 10750 ] final  150.16 input  -60.55 | X-H torsion
[ 11005 11000 10999 10996 ] final    3.59 input  -57.11 | X-H torsion

> <Gold.Protein.ActiveResidues>
 VAL166  LYS551  ARG553  GLY616  TRP617  ASP618  TYR619  PRO620  LYS621  CYS622 
 ASP623  PHE694  ASN695  SER759  ASP760  ASP761  ALA762  ILE779  LEU786  VAL792 
 PHE793  MET794  SER795  GLU796  ALA797  LYS798  CYS799  TRP800  GLU811  SER814 

> <Gold.Protein.RotatedAtoms>
  152.4524  133.7655  159.6769 H   0  0  0  0  0  0  0  0  0  0  0  0  # atno 6907 bound_to 6896
  150.8439  133.7882  159.3056 H   0  0  0  0  0  0  0  0  0  0  0  0  # atno 6908 bound_to 6896
  151.5498  135.1070  159.9999 H   0  0  0  0  0  0  0  0  0  0  0  0  # atno 6909 bound_to 6896
  144.8135  139.6839  143.6131 H   0  0  0  0  0  0  0  0  0  0  0  0  # atno 7974 bound_to 7965
  155.7023  140.0768  157.2405 H   0  0  0  0  0  0  0  0  0  0  0  0  # atno 8008 bound_to 7997
  154.4071  140.1645  156.2258 H   0  0  0  0  0  0  0  0  0  0  0  0  # atno 8009 bound_to 7997
  155.9357  140.3388  155.6288 H   0  0  0  0  0  0  0  0  0  0  0  0  # atno 8010 bound_to 7997
  140.2896  144.3062  150.6244 H   0  0  0  0  0  0  0  0  0  0  0  0  # atno 10167 bound_to 10162
  156.0413  130.4329  150.2280 H   0  0  0  0  0  0  0  0  0  0  0  0  # atno 10718 bound_to 10713
  154.0830  135.2858  155.3286 H   0  0  0  0  0  0  0  0  0  0  0  0  # atno 10763 bound_to 10752
  154.6671  135.5313  153.8094 H   0  0  0  0  0  0  0  0  0  0  0  0  # atno 10764 bound_to 10752
  153.0442  135.6548  154.1004 H   0  0  0  0  0  0  0  0  0  0  0  0  # atno 10765 bound_to 10752
  140.5914  133.9920  155.8090 H   0  0  0  0  0  0  0  0  0  0  0  0  # atno 11005 bound_to 11000
  146.2436  139.6053  142.9474 LP  0  0  0  0  0  0  0  0  0  0  0  0  # atno 17320 bound_to 7965
  145.5268  141.0429  143.2405 LP  0  0  0  0  0  0  0  0  0  0  0  0  # atno 17321 bound_to 7965
  140.5744  143.2178  151.7542 LP  0  0  0  0  0  0  0  0  0  0  0  0  # atno 17342 bound_to 10162
  139.4941  144.4171  152.0018 LP  0  0  0  0  0  0  0  0  0  0  0  0  # atno 17343 bound_to 10162
  157.0375  131.0025  151.3293 LP  0  0  0  0  0  0  0  0  0  0  0  0  # atno 17370 bound_to 10713
  157.5233  130.8012  149.7834 LP  0  0  0  0  0  0  0  0  0  0  0  0  # atno 17371 bound_to 10713
  141.0932  133.9884  157.3203 LP  0  0  0  0  0  0  0  0  0  0  0  0  # atno 17394 bound_to 11000
  139.9272  135.0201  156.8276 LP  0  0  0  0  0  0  0  0  0  0  0  0  # atno 17395 bound_to 11000

$$$$
