AV-unprocessed.smi:21|AV-procd|sdf|164|dock1
  -GOLD-   2262015403D 1   1.00000     0.00000
 Structure written by MMmdl.
 61 64  0  0  0  0  0  0  0  0  1 V2000
  148.9907  145.1459  160.5311 C   0  0  0  0  0  0  0  0  0  0  0  0
  150.1084  144.3703  160.9340 O   0  0  0  0  0  0  0  0  0  0  0  0
  151.1298  144.2940  159.9484 C   0  0  2  0  0  0  0  0  0  0  0  0
  150.7323  143.3646  158.7881 C   0  0  0  0  0  0  0  0  0  0  0  0
  151.8765  142.3432  158.6991 C   0  0  2  0  0  0  0  0  0  0  0  0
  151.4532  140.9923  158.0760 C   0  0  0  0  0  0  0  0  0  0  0  0
  151.5033  140.9833  156.6130 N   0  0  0  0  0  0  0  0  0  0  0  0
  150.8726  142.1029  155.9179 C   0  0  0  0  0  0  0  0  0  0  0  0
  151.5851  139.7883  155.9644 C   0  0  0  0  0  0  0  0  0  0  0  0
  152.7218  139.4899  155.2781 N   0  0  0  0  0  0  0  0  0  0  0  0
  152.8294  138.3456  154.5984 C   0  0  0  0  0  0  0  0  0  0  0  0
  151.9352  137.3651  154.4714 N   0  0  0  0  0  0  0  0  0  0  0  0
  150.7971  137.6440  155.1678 C   0  0  0  0  0  0  0  0  0  0  0  0
  150.5414  138.8152  155.9388 C   0  0  0  0  0  0  0  0  0  0  0  0
  149.2784  138.7234  156.5142 N   0  0  0  0  0  0  0  0  0  0  0  0
  148.8097  137.5812  156.0940 C   0  0  0  0  0  0  0  0  0  0  0  0
  149.6590  136.8651  155.2836 N   0  0  0  0  0  0  0  0  0  0  0  0
  149.3900  135.5721  154.6779 C   0  0  0  0  0  0  0  0  0  0  0  0
  148.0287  134.9663  155.1025 C   0  0  2  0  0  0  0  0  0  0  0  0
  148.0491  134.5410  156.5931 C   0  0  0  0  0  0  0  0  0  0  0  0
  149.2733  133.9337  156.9479 O   0  0  0  0  0  0  0  0  0  0  0  0
  147.6463  133.7931  154.1583 C   0  0  1  0  0  0  0  0  0  0  0  0
  147.6906  134.0993  152.6709 C   0  0  0  0  0  0  0  0  0  0  0  0
  147.7368  132.7071  152.0531 C   0  0  0  0  0  0  0  0  0  0  0  0
  148.4745  131.9098  152.9703 O   0  0  0  0  0  0  0  0  0  0  0  0
  148.5979  132.5905  154.2149 C   0  0  0  0  0  0  0  0  0  0  0  0
  152.3651  142.2451  160.0654 N   0  0  0  0  0  0  0  0  0  0  0  0
  153.6776  141.6232  160.1831 C   0  0  0  0  0  0  0  0  0  0  0  0
  152.3670  143.6146  160.5454 C   0  0  0  0  0  0  0  0  0  0  0  0
  151.3985  145.2910  159.5949 H   0  0  0  0  0  0  0  0  0  0  0  0
  152.6669  142.7802  158.0862 H   0  0  0  0  0  0  0  0  0  0  0  0
  148.2539  145.1671  161.3339 H   0  0  0  0  0  0  0  0  0  0  0  0
  148.5081  144.7305  159.6458 H   0  0  0  0  0  0  0  0  0  0  0  0
  149.2826  146.1748  160.3177 H   0  0  0  0  0  0  0  0  0  0  0  0
  149.7962  142.8556  159.0214 H   0  0  0  0  0  0  0  0  0  0  0  0
  150.5909  143.9108  157.8552 H   0  0  0  0  0  0  0  0  0  0  0  0
  152.1308  140.2093  158.4145 H   0  0  0  0  0  0  0  0  0  0  0  0
  150.4783  140.6947  158.4542 H   0  0  0  0  0  0  0  0  0  0  0  0
  151.2981  142.2308  154.9217 H   0  0  0  0  0  0  0  0  0  0  0  0
  151.0287  143.0331  156.4645 H   0  0  0  0  0  0  0  0  0  0  0  0
  149.7979  141.9446  155.8201 H   0  0  0  0  0  0  0  0  0  0  0  0
  153.7646  138.1971  154.0788 H   0  0  0  0  0  0  0  0  0  0  0  0
  147.8272  137.2256  156.3682 H   0  0  0  0  0  0  0  0  0  0  0  0
  149.4327  135.7142  153.5985 H   0  0  0  0  0  0  0  0  0  0  0  0
  150.2013  134.8880  154.9293 H   0  0  0  0  0  0  0  0  0  0  0  0
  147.2796  135.7516  154.9888 H   0  0  0  0  0  0  0  0  0  0  0  0
  147.8619  135.3964  157.2426 H   0  0  0  0  0  0  0  0  0  0  0  0
  147.2750  133.8072  156.8125 H   0  0  0  0  0  0  0  0  0  0  0  0
  149.5001  133.3031  156.2814 H   0  0  0  0  0  0  0  0  0  0  0  0
  146.6408  133.4477  154.4047 H   0  0  0  0  0  0  0  0  0  0  0  0
  146.8325  134.6744  152.3226 H   0  0  0  0  0  0  0  0  0  0  0  0
  148.5989  134.6496  152.4207 H   0  0  0  0  0  0  0  0  0  0  0  0
  146.7304  132.2960  151.9664 H   0  0  0  0  0  0  0  0  0  0  0  0
  148.1923  132.7036  151.0628 H   0  0  0  0  0  0  0  0  0  0  0  0
  149.6325  132.9198  154.3201 H   0  0  0  0  0  0  0  0  0  0  0  0
  148.3723  131.9198  155.0441 H   0  0  0  0  0  0  0  0  0  0  0  0
  154.0129  141.6336  161.2206 H   0  0  0  0  0  0  0  0  0  0  0  0
  154.4206  142.1490  159.5820 H   0  0  0  0  0  0  0  0  0  0  0  0
  153.6508  140.5832  159.8592 H   0  0  0  0  0  0  0  0  0  0  0  0
  153.2581  144.1309  160.1836 H   0  0  0  0  0  0  0  0  0  0  0  0
  152.3861  143.6574  161.6351 H   0  0  0  0  0  0  0  0  0  0  0  0
  1  2  1  0  0  0  0
  1 32  1  0  0  0  0
  1 33  1  0  0  0  0
  1 34  1  0  0  0  0
  2  3  1  0  0  0  0
  3 30  1  0  0  0  0
  3 29  1  0  0  0  0
  3  4  1  0  0  0  0
  4  5  1  0  0  0  0
  4 35  1  0  0  0  0
  4 36  1  0  0  0  0
  5 31  1  0  0  0  0
  5  6  1  0  0  0  0
  5 27  1  0  0  0  0
  6  7  1  0  0  0  0
  6 37  1  0  0  0  0
  6 38  1  0  0  0  0
  7  8  1  0  0  0  0
  7  9  1  0  0  0  0
  8 39  1  0  0  0  0
  8 40  1  0  0  0  0
  8 41  1  0  0  0  0
  9 14  1  0  0  0  0
  9 10  2  0  0  0  0
 10 11  1  0  0  0  0
 11 12  2  0  0  0  0
 11 42  1  0  0  0  0
 12 13  1  0  0  0  0
 13 17  1  0  0  0  0
 13 14  2  0  0  0  0
 14 15  1  0  0  0  0
 15 16  2  0  0  0  0
 16 17  1  0  0  0  0
 16 43  1  0  0  0  0
 17 18  1  0  0  0  0
 18 19  1  0  0  0  0
 18 44  1  0  0  0  0
 18 45  1  0  0  0  0
 19 20  1  0  0  0  0
 19 22  1  0  0  0  0
 19 46  1  0  0  0  0
 20 21  1  0  0  0  0
 20 47  1  0  0  0  0
 20 48  1  0  0  0  0
 21 49  1  0  0  0  0
 22 26  1  0  0  0  0
 22 23  1  0  0  0  0
 22 50  1  0  0  0  0
 23 24  1  0  0  0  0
 23 51  1  0  0  0  0
 23 52  1  0  0  0  0
 24 25  1  0  0  0  0
 24 53  1  0  0  0  0
 24 54  1  0  0  0  0
 25 26  1  0  0  0  0
 26 55  1  0  0  0  0
 26 56  1  0  0  0  0
 27 28  1  0  0  0  0
 27 29  1  0  0  0  0
 28 57  1  0  0  0  0
 28 58  1  0  0  0  0
 28 59  1  0  0  0  0
 29 60  1  0  0  0  0
 29 61  1  0  0  0  0
M  END
> <s_m_source_file>
AV-unprocessed.smi

> <i_m_source_file_index>
21

> <i_lp_mmshare_version>
43012

> <i_f3d_flags>
0

> <s_epik_input>
W0NIM11PW0NASF0xW0NIMl1bQ0BIXShOKFtDSDNdKVtDSDJdMSlbQ0gyXU4oW0NIM10pYyhuW2NIXW4yKWMoYzIzKW5bY0hdbjNbQ0gyXVtDQEhdKFtDSDJdW09IXSlbQ0BASF00W0NIMl1bQ0gyXU9bQ0gyXTQ=

> <s_epik_cmdline>
J2VwaWtfcHl0aG9uJywgJy1waCcsICc3LjAnLCAnLXRuJywgJzgnLCAnLW1hJywgJzIwMCcsICctbWV0YWxfYmluZGluZycsICctaW1hZScsICc8aW5maWxlLm1hZT4nLCAnLW9tYWUnLCAnPG91dGZpbGUubWFlPic=

> <r_lp_tautomer_probability>
1

> <r_epik_Ionization_Penalty>
2.17574

> <r_epik_Ionization_Penalty_Charging>
0

> <r_epik_Ionization_Penalty_Neutral>
2.17574

> <r_epik_State_Penalty>
2.31336

> <r_epik_Charging_Adjusted_Penalty>
2.31336

> <i_epik_Tot_Q>
0

> <i_epik_Tot_abs_Q>
0

> <r_epik_Metal_State_Penalty>
2.31025

> <b_epik_Metal_Only>
0

> <s_lp_Force_Field>
OPLS_2005

> <r_lp_Energy>
70.4108

> <b_lp_Chiralities_Consistent>
1

> <s_lp_Variant>
AV-unprocessed.smi:21-44

> <Gold.Version>
5.8.1

> <Gold.Id.Protein>
6NUR|6NUR_protein|mol2

> <Gold.PLP.Fitness>
52.5765

> <Gold.PLP.PLP>
-47.4914

> <Gold.PLP.part.hbond>
-4.3730

> <Gold.PLP.part.metal>
0.0000

> <Gold.PLP.part.buried>
-7.4278

> <Gold.PLP.part.nonpolar>
-37.7365

> <Gold.PLP.part.repulsive>
0.3904

> <Gold.PLP.ligand.clash>
0.0000

> <Gold.PLP.ligand.torsion>
2.2527

> <Gold.PLP.Chemscore.Hbond>
2.7276

> <Gold.PLP.Chemscore.CHOScore>
0.0000

> <Gold.PLP.Chemscore.Metal>
0.0000

> <Gold.Chemscore.Hbonds>
donor molecule, donor type, donor heavy atom, donor atom, acceptor molecule, acceptor atom, score
      P1  H  7997  8008       L1    10  0.98
      P1  H 10752 10763       L1    12  0.91

> <Gold.PLP.Chemscore.Internal.Correction>
1.4077

> <Gold.Rescore>
     Score         DG    S(hbond)    S(metal)    S(lipo)     H(rot)  DE(clash)    DE(int)     intcor
     15.27     -17.77       2.45        0.00     100.84       3.00       0.15       2.35       ----

> <Gold.Chemscore.Fitness>
15.2670

> <Gold.Chemscore.DG>
-17.7699

> <Gold.Chemscore.ZeroCoef>
-5.4800

> <Gold.Chemscore.Hbond>
2.4488

> <Gold.Chemscore.Metal>
0.0000

> <Gold.Chemscore.Lipo>
100.8441

> <Gold.Chemscore.Internal_Hbond>
0.0000

> <Gold.Chemscore.DEClash>
0.1513

> <Gold.Chemscore.DEInternal>
2.3516

> <Gold.Chemscore.Rot>
3.0031

> <Gold.Chemscore.Internal.Correction>
   9.000000E+99

> <Gold.Chemscore.Hbonds>
donor molecule, donor type, donor heavy atom, donor atom, acceptor molecule, acceptor atom, score
      P1  H  7997  8008       L1    10  0.58
      P1  H 10752 10763       L1    12  0.52

> <Gold.Chemscore.Hbond.Weighted>
-8.1791

> <Gold.Chemscore.Metal.Weighted>
-0.0000

> <Gold.Chemscore.Lipo.Weighted>
-11.7988

> <Gold.Chemscore.Internal_Hbond.Weighted>
0.0000

> <Gold.Chemscore.DEClash.Weighted>
0.1513

> <Gold.Chemscore.DEInternal.Weighted>
2.3516

> <Gold.Chemscore.Rot.Weighted>
7.6880

> <Gold.Chemscore.Internal.Correction.Weighted>
   9.000000E+99

> <Gold.Protein.RotatedTorsions>
[ 6907 6896 6895 6894 ] final   -9.17 input  -60.11 | X-H torsion
[ 7974 7965 7964 7962 ] final  113.51 input  175.53 | X-H torsion
[ 8008 7997 7996 7995 ] final  -45.50 input   59.86 | X-H torsion
[ 10167 10162 10161 10158 ] final   62.75 input  -65.29 | X-H torsion
[ 10718 10713 10712 10709 ] final   50.09 input   66.30 | X-H torsion
[ 10763 10752 10751 10750 ] final   49.12 input  -60.55 | X-H torsion
[ 11005 11000 10999 10996 ] final   58.36 input  -57.11 | X-H torsion

> <Gold.Protein.ActiveResidues>
 VAL166  LYS551  ARG553  GLY616  TRP617  ASP618  TYR619  PRO620  LYS621  CYS622 
 ASP623  PHE694  ASN695  SER759  ASP760  ASP761  ALA762  ILE779  LEU786  VAL792 
 PHE793  MET794  SER795  GLU796  ALA797  LYS798  CYS799  TRP800  GLU811  SER814 

> <Gold.Protein.RotatedAtoms>
  151.4219  135.0999  159.9616 H   0  0  0  0  0  0  0  0  0  0  0  0  # atno 6907 bound_to 6896
  152.4985  133.8699  159.7303 H   0  0  0  0  0  0  0  0  0  0  0  0  # atno 6908 bound_to 6896
  150.9217  133.6815  159.2858 H   0  0  0  0  0  0  0  0  0  0  0  0  # atno 6909 bound_to 6896
  145.2160  139.2884  143.4243 H   0  0  0  0  0  0  0  0  0  0  0  0  # atno 7974 bound_to 7965
  154.4001  140.1395  156.3857 H   0  0  0  0  0  0  0  0  0  0  0  0  # atno 8008 bound_to 7997
  155.7962  140.3477  155.5356 H   0  0  0  0  0  0  0  0  0  0  0  0  # atno 8009 bound_to 7997
  155.8530  140.0944  157.1653 H   0  0  0  0  0  0  0  0  0  0  0  0  # atno 8010 bound_to 7997
  140.1405  144.4558  150.6814 H   0  0  0  0  0  0  0  0  0  0  0  0  # atno 10167 bound_to 10162
  157.4850  130.8339  149.8137 H   0  0  0  0  0  0  0  0  0  0  0  0  # atno 10718 bound_to 10713
  152.9788  135.5922  154.4038 H   0  0  0  0  0  0  0  0  0  0  0  0  # atno 10763 bound_to 10752
  154.3680  135.2767  155.2284 H   0  0  0  0  0  0  0  0  0  0  0  0  # atno 10764 bound_to 10752
  154.4252  135.6049  153.6089 H   0  0  0  0  0  0  0  0  0  0  0  0  # atno 10765 bound_to 10752
  140.0383  134.5910  155.9414 H   0  0  0  0  0  0  0  0  0  0  0  0  # atno 11005 bound_to 11000
  146.3387  140.2451  142.8597 LP  0  0  0  0  0  0  0  0  0  0  0  0  # atno 17320 bound_to 7965
  144.9810  140.8459  143.5397 LP  0  0  0  0  0  0  0  0  0  0  0  0  # atno 17321 bound_to 7965
  140.6763  143.2306  151.5498 LP  0  0  0  0  0  0  0  0  0  0  0  0  # atno 17342 bound_to 10162
  139.5474  144.2484  152.1468 LP  0  0  0  0  0  0  0  0  0  0  0  0  # atno 17343 bound_to 10162
  156.0142  130.3820  150.2165 LP  0  0  0  0  0  0  0  0  0  0  0  0  # atno 17370 bound_to 10713
  157.0352  131.0019  151.3300 LP  0  0  0  0  0  0  0  0  0  0  0  0  # atno 17371 bound_to 10713
  141.1869  133.6558  156.5261 LP  0  0  0  0  0  0  0  0  0  0  0  0  # atno 17394 bound_to 11000
  140.4110  134.7272  157.4836 LP  0  0  0  0  0  0  0  0  0  0  0  0  # atno 17395 bound_to 11000

$$$$
