#       Name:                AV-unprocessed.smi:50
#       Creating user name   scv26
#       Creation time:       Thu Mar 26 16:36:50 2020


#       File generated by GOLD software.
#

@<TRIPOS>MOLECULE
AV-unprocessed.smi:50
    52    53     1
SMALL
NO_CHARGES


@<TRIPOS>ATOM
      1 ****        -4.2649   3.1909   2.3955 C.3            1 S1                 0.0000
      2 ****        -4.5276   1.8794   1.6349 C.3            1 S1                 0.0000
      3 ****        -3.9667   0.6810   2.4256 C.3            1 S1                 0.0000
      4 ****        -4.0537   1.9614   0.1568 C.3            1 S1                 0.0000
      5 ****        -4.6258   0.8709  -0.6344 N.3            1 S1                 0.0000
      6 ****        -2.5267   2.0836  -0.0125 C.2            1 S1                 0.0000
      7 ****        -1.9535   3.1496  -0.2387 O.2            1 S1                 0.0000
      8 ****        -1.9153   0.8924   0.1331 O.3            1 S1                 0.0000
      9 ****        -0.5038   0.8088   0.0304 C.3            1 S1                 0.0000
     10 ****        -0.0695  -0.6499   0.1914 C.3            1 S1                 0.0000
     11 ****         1.3447  -0.7132   0.1186 O.3            1 S1                 0.0000
     12 ****         1.8317  -2.0099   0.2117 C.3            1 S1                 0.0000
     13 ****         3.2786  -1.9428   0.1663 N.pl3          1 S1                 0.0000
     14 ****         4.1260  -1.9310   1.2134 C.2            1 S1                 0.0000
     15 ****         5.4195  -1.8643   0.9003 N.2            1 S1                 0.0000
     16 ****         5.3805  -1.8288  -0.4893 C.2            1 S1                 0.0000
     17 ****         6.4577  -1.7515  -1.5056 C.2            1 S1                 0.0000
     18 ****         7.6290  -1.7053  -1.1341 O.2            1 S1                 0.0000
     19 ****         6.0381  -1.7384  -2.8075 N.pl3          1 S1                -1.0000
     20 ****         4.6707  -1.7903  -3.1135 C.2            1 S1                 0.0000
     21 ****         4.4259  -1.7635  -4.4691 N.pl3          1 S1                 0.0000
     22 ****         3.6687  -1.8579  -2.2712 N.2            1 S1                 0.0000
     23 ****         4.0947  -1.8753  -0.9561 C.2            1 S1                 0.0000
     24 ****        -4.4845   2.8769  -0.2500 H              1 S1                 0.0000
     25 ****        -3.1980   3.3806   2.5168 H              1 S1                 0.0000
     26 ****        -4.7083   3.1605   3.3910 H              1 S1                 0.0000
     27 ****        -4.6971   4.0435   1.8713 H              1 S1                 0.0000
     28 ****        -5.6117   1.7571   1.6092 H              1 S1                 0.0000
     29 ****        -2.8951   0.7749   2.6014 H              1 S1                 0.0000
     30 ****        -4.1404  -0.2597   1.9027 H              1 S1                 0.0000
     31 ****        -4.4479   0.6027   3.4008 H              1 S1                 0.0000
     32 ****        -5.6285   0.8196  -0.5259 H              1 S1                 0.0000
     33 ****        -4.4518   0.9991  -1.6211 H              1 S1                 0.0000
     34 ****        -0.1773   1.1909  -0.9378 H              1 S1                 0.0000
     35 ****        -0.0417   1.4256   0.8024 H              1 S1                 0.0000
     36 ****        -0.4129  -1.0392   1.1513 H              1 S1                 0.0000
     37 ****        -0.5165  -1.2606  -0.5947 H              1 S1                 0.0000
     38 ****         1.5296  -2.4714   1.1533 H              1 S1                 0.0000
     39 ****         1.4793  -2.6184  -0.6227 H              1 S1                 0.0000
     40 ****         3.7835  -1.9724   2.2368 H              1 S1                 0.0000
     41 ****         5.1538  -1.7121  -5.1661 H              1 S1                 0.0000
     42 ****         3.4964  -1.7951  -4.8615 H              1 S1                 0.0000
     43 ****        -4.1887   0.0359  -0.3000 LP             1 S1                 0.0000
     44 ****        -2.4826   3.9941  -0.3215 LP             1 S1                 0.0000
     45 ****        -0.9588   3.1708  -0.3397 LP             1 S1                 0.0000
     46 ****         1.7275  -0.1738   0.8685 LP             1 S1                 0.0000
     47 ****         1.6372  -0.3242  -0.7550 LP             1 S1                 0.0000
     48 ****         6.2135  -1.8448   1.5079 LP             1 S1                 0.0000
     49 ****         7.8449  -1.7201  -0.1578 LP             1 S1                 0.0000
     50 ****         8.3657  -1.6530  -1.8083 LP             1 S1                 0.0000
     51 ****         6.7110  -1.6915  -3.5459 LP             1 S1                 0.0000
     52 ****         2.7083  -1.8929  -2.5476 LP             1 S1                 0.0000
@<TRIPOS>BOND
    1    1    2 1     
    2    1   25 1     
    3    1   26 1     
    4    1   27 1     
    5    2    3 1     
    6    2    4 1     
    7    2   28 1     
    8    3   29 1     
    9    3   30 1     
   10    3   31 1     
   11    4   24 1     
   12    4    5 1     
   13    4    6 1     
   14    5   32 1     
   15    5   33 1     
   16    6    7 2     
   17    6    8 1     
   18    8    9 1     
   19    9   10 1     
   20    9   34 1     
   21    9   35 1     
   22   10   11 1     
   23   10   36 1     
   24   10   37 1     
   25   11   12 1     
   26   12   13 1     
   27   12   38 1     
   28   12   39 1     
   29   13   23 1     
   30   13   14 1     
   31   14   15 2     
   32   14   40 1     
   33   15   16 1     
   34   16   23 2     
   35   16   17 1     
   36   17   18 2     
   37   17   19 1     
   38   19   20 1     
   39   20   21 1     
   40   20   22 2     
   41   21   41 1     
   42   21   42 1     
   43   22   23 1     
   44    5   43 1     
   45    7   44 1     
   46    7   45 1     
   47   11   46 1     
   48   11   47 1     
   49   15   48 1     
   50   18   49 1     
   51   18   50 1     
   52   19   51 1     
   53   22   52 1     
@<TRIPOS>SUBSTRUCTURE
      1 S1             1
@<TRIPOS>SET
LONE_PAIRS      STATIC     ATOMS    <user>   **** ""
10 43 44 45 46 47 48 49 50 51 52
DONOR_HYDROGENS      STATIC     ATOMS    <user>   **** ""
4 32 33 41 42
ATOM$BLUE        STATIC     ATOMS    COLORGROUP SYSTEM
10 43 44 45 46 47 48 49 50 51 52
ATOM$RED        STATIC     ATOMS    COLORGROUP SYSTEM
4 32 33 41 42
