AV-unprocessed.smi:3146|AV-procd|sdf|11985|dock2
  -GOLD-   2272017393D 1   1.00000     0.00000
 Structure written by MMmdl.
 35 36  0  0  0  0  0  0  0  0  2 V2000
  151.6761  145.9479  159.7285 O   0  0  0  0  0  0  0  0  0  0  0  0
  152.0205  144.8599  159.2639 C   0  0  0  0  0  0  0  0  0  0  0  0
  151.9172  144.6121  157.7521 C   0  0  0  0  0  0  0  0  0  0  0  0
  150.8500  143.6492  157.4117 N   0  3  0  0  0  0  0  0  0  0  0  0
  151.3433  142.3351  156.9526 C   0  0  0  0  0  0  0  0  0  0  0  0
  150.1881  141.3605  156.6720 C   0  0  0  0  0  0  0  0  0  0  0  0
  150.5707  140.3027  155.7541 N   0  0  0  0  0  0  0  0  0  0  0  0
  151.7185  139.5381  155.7581 C   0  0  0  0  0  0  0  0  0  0  0  0
  151.6311  138.6697  154.7078 C   0  0  0  0  0  0  0  0  0  0  0  0
  150.3782  138.9845  154.1109 C   0  0  0  0  0  0  0  0  0  0  0  0
  149.7450  139.9611  154.7409 N   0  0  0  0  0  0  0  0  0  0  0  0
  152.4942  143.8648  160.0418 N   0  0  0  0  0  0  0  0  0  0  0  0
  152.9298  142.5491  159.5742 C   0  0  0  0  0  0  0  0  0  0  0  0
  153.5853  141.8776  160.7815 C   0  0  0  0  0  0  0  0  0  0  0  0
  152.9393  142.5542  161.9828 C   0  0  0  0  0  0  0  0  0  0  0  0
  152.6316  143.9694  161.4933 C   0  0  0  0  0  0  0  0  0  0  0  0
  151.7172  145.5578  157.2468 H   0  0  0  0  0  0  0  0  0  0  0  0
  152.8694  144.2300  157.3816 H   0  0  0  0  0  0  0  0  0  0  0  0
  150.2752  143.5072  158.2305 H   0  0  0  0  0  0  0  0  0  0  0  0
  151.9271  142.4799  156.0430 H   0  0  0  0  0  0  0  0  0  0  0  0
  152.0165  141.9127  157.6998 H   0  0  0  0  0  0  0  0  0  0  0  0
  149.8208  140.9161  157.5984 H   0  0  0  0  0  0  0  0  0  0  0  0
  149.3491  141.9015  156.2329 H   0  0  0  0  0  0  0  0  0  0  0  0
  152.4931  139.6728  156.4990 H   0  0  0  0  0  0  0  0  0  0  0  0
  152.3531  137.9239  154.4098 H   0  0  0  0  0  0  0  0  0  0  0  0
  149.9133  138.5349  153.2457 H   0  0  0  0  0  0  0  0  0  0  0  0
  152.0581  141.9792  159.2492 H   0  0  0  0  0  0  0  0  0  0  0  0
  153.6274  142.6143  158.7382 H   0  0  0  0  0  0  0  0  0  0  0  0
  153.4566  140.7947  160.7852 H   0  0  0  0  0  0  0  0  0  0  0  0
  154.6561  142.0861  160.7794 H   0  0  0  0  0  0  0  0  0  0  0  0
  152.0084  142.0432  162.2325 H   0  0  0  0  0  0  0  0  0  0  0  0
  153.5752  142.5414  162.8685 H   0  0  0  0  0  0  0  0  0  0  0  0
  153.4586  144.6425  161.7237 H   0  0  0  0  0  0  0  0  0  0  0  0
  151.7306  144.3646  161.9652 H   0  0  0  0  0  0  0  0  0  0  0  0
  150.2738  144.0522  156.6864 H   0  0  0  0  0  0  0  0  0  0  0  0
  1  2  2  0  0  0  0
  2  3  1  0  0  0  0
  2 12  1  0  0  0  0
  3  4  1  0  0  0  0
  3 17  1  0  0  0  0
  3 18  1  0  0  0  0
  4  5  1  0  0  0  0
  4 19  1  0  0  0  0
  4 35  1  0  0  0  0
  5  6  1  0  0  0  0
  5 20  1  0  0  0  0
  5 21  1  0  0  0  0
  6  7  1  0  0  0  0
  6 22  1  0  0  0  0
  6 23  1  0  0  0  0
  7 11  1  0  0  0  0
  7  8  1  0  0  0  0
  8  9  2  0  0  0  0
  8 24  1  0  0  0  0
  9 10  1  0  0  0  0
  9 25  1  0  0  0  0
 10 11  2  0  0  0  0
 10 26  1  0  0  0  0
 12 16  1  0  0  0  0
 12 13  1  0  0  0  0
 13 14  1  0  0  0  0
 13 27  1  0  0  0  0
 13 28  1  0  0  0  0
 14 15  1  0  0  0  0
 14 29  1  0  0  0  0
 14 30  1  0  0  0  0
 15 16  1  0  0  0  0
 15 31  1  0  0  0  0
 15 32  1  0  0  0  0
 16 33  1  0  0  0  0
 16 34  1  0  0  0  0
M  CHG  1   4   1
M  END
> <s_m_source_file>
AV-unprocessed.smi

> <i_m_source_file_index>
3146

> <i_lp_mmshare_version>
43012

> <i_f3d_flags>
0

> <s_epik_input>
W0NIMl0xW0NIMl1bQ0gyXVtDSDJdTjFDKD1PKVtDSDJdW05IXVtDSDJdW0NIMl1uMltjSF1bY0hdW2NIXW4y

> <s_epik_cmdline>
J2VwaWtfcHl0aG9uJywgJy1waCcsICc3LjAnLCAnLXRuJywgJzgnLCAnLW1hJywgJzIwMCcsICctbWV0YWxfYmluZGluZycsICctaW1hZScsICc8aW5maWxlLm1hZT4nLCAnLW9tYWUnLCAnPG91dGZpbGUubWFlPic=

> <r_lp_tautomer_probability>
1

> <r_epik_Ionization_Penalty>
0.203171

> <r_epik_Ionization_Penalty_Charging>
0.203168

> <r_epik_Ionization_Penalty_Neutral>
2.33614e-06

> <r_epik_State_Penalty>
0.193072

> <r_epik_Charging_Adjusted_Penalty>
0.39624

> <i_epik_Tot_Q>
1

> <i_epik_Tot_abs_Q>
1

> <r_epik_Metal_State_Penalty>
0.193553

> <b_epik_Metal_Only>
0

> <s_lp_Force_Field>
OPLS_2005

> <r_lp_Energy>
25.7734

> <b_lp_Chiralities_Consistent>
1

> <s_lp_Variant>
AV-unprocessed.smi:3146-1

> <Gold.Version>
5.8.1

> <Gold.Id.Protein>
6NUR|6NUR_protein|mol2

> <Gold.PLP.Fitness>
55.9747

> <Gold.PLP.PLP>
-48.1965

> <Gold.PLP.part.hbond>
-2.3733

> <Gold.PLP.part.metal>
0.0000

> <Gold.PLP.part.buried>
-6.1537

> <Gold.PLP.part.nonpolar>
-38.7393

> <Gold.PLP.part.repulsive>
0.2840

> <Gold.PLP.ligand.clash>
0.0000

> <Gold.PLP.ligand.torsion>
0.7505

> <Gold.PLP.Chemscore.Hbond>
2.0000

> <Gold.PLP.Chemscore.CHOScore>
1.0740

> <Gold.PLP.Chemscore.Metal>
0.0000

> <Gold.Chemscore.Hbonds>
donor molecule, donor type, donor heavy atom, donor atom, acceptor molecule, acceptor atom, score
      L1  H     4    35       P1  8028  2.00
      L1  C    10    26       P1  7948  0.31
      L1  C    10    26       P1  7957  0.67

> <Gold.PLP.Chemscore.Internal.Correction>
0.0569

> <Gold.Rescore>
     Score         DG    S(hbond)    S(metal)    S(lipo)     H(rot)  DE(clash)    DE(int)     intcor
     14.57     -15.41       0.99        0.00      98.13       1.90       0.26       0.57       ----

> <Gold.Chemscore.Fitness>
14.5707

> <Gold.Chemscore.DG>
-15.4075

> <Gold.Chemscore.ZeroCoef>
-5.4800

> <Gold.Chemscore.Hbond>
0.9891

> <Gold.Chemscore.Metal>
0.0000

> <Gold.Chemscore.Lipo>
98.1279

> <Gold.Chemscore.Internal_Hbond>
0.0000

> <Gold.Chemscore.DEClash>
0.2631

> <Gold.Chemscore.DEInternal>
0.5736

> <Gold.Chemscore.Rot>
1.8974

> <Gold.Chemscore.Internal.Correction>
   9.000000E+99

> <Gold.Chemscore.Hbonds>
donor molecule, donor type, donor heavy atom, donor atom, acceptor molecule, acceptor atom, score
      L1  H     4    35       P1  8028  1.00

> <Gold.Chemscore.Hbond.Weighted>
-3.3037

> <Gold.Chemscore.Metal.Weighted>
-0.0000

> <Gold.Chemscore.Lipo.Weighted>
-11.4810

> <Gold.Chemscore.Internal_Hbond.Weighted>
0.0000

> <Gold.Chemscore.DEClash.Weighted>
0.2631

> <Gold.Chemscore.DEInternal.Weighted>
0.5736

> <Gold.Chemscore.Rot.Weighted>
4.8572

> <Gold.Chemscore.Internal.Correction.Weighted>
   9.000000E+99

> <Gold.Protein.RotatedTorsions>
[ 6907 6896 6895 6894 ] final  -54.98 input  -60.11 | X-H torsion
[ 7974 7965 7964 7962 ] final   98.75 input  175.53 | X-H torsion
[ 8008 7997 7996 7995 ] final  -96.53 input   59.86 | X-H torsion
[ 10167 10162 10161 10158 ] final -120.49 input  -65.29 | X-H torsion
[ 10718 10713 10712 10709 ] final  178.27 input   66.30 | X-H torsion
[ 10763 10752 10751 10750 ] final  174.33 input  -60.55 | X-H torsion
[ 11005 11000 10999 10996 ] final -112.28 input  -57.11 | X-H torsion

> <Gold.Protein.ActiveResidues>
 VAL166  LYS551  ARG553  GLY616  TRP617  ASP618  TYR619  PRO620  LYS621  CYS622 
 ASP623  PHE694  ASN695  SER759  ASP760  ASP761  ALA762  ILE779  LEU786  VAL792 
 PHE793  MET794  SER795  GLU796  ALA797  LYS798  CYS799  TRP800  GLU811  SER814 

> <Gold.Protein.RotatedAtoms>
  150.8291  134.7535  159.6837 H   0  0  0  0  0  0  0  0  0  0  0  0  # atno 6907 bound_to 6896
  152.4398  134.5611  159.9904 H   0  0  0  0  0  0  0  0  0  0  0  0  # atno 6908 bound_to 6896
  151.5776  133.3344  159.3038 H   0  0  0  0  0  0  0  0  0  0  0  0  # atno 6909 bound_to 6896
  145.4080  139.2338  143.3264 H   0  0  0  0  0  0  0  0  0  0  0  0  # atno 7974 bound_to 7965
  154.7757  140.0470  157.1087 H   0  0  0  0  0  0  0  0  0  0  0  0  # atno 8008 bound_to 7997
  154.9766  140.3096  155.4945 H   0  0  0  0  0  0  0  0  0  0  0  0  # atno 8009 bound_to 7997
  156.2928  140.2243  156.4862 H   0  0  0  0  0  0  0  0  0  0  0  0  # atno 8010 bound_to 7997
  140.0353  143.5207  152.2156 H   0  0  0  0  0  0  0  0  0  0  0  0  # atno 10167 bound_to 10162
  156.8931  130.9854  151.3046 H   0  0  0  0  0  0  0  0  0  0  0  0  # atno 10718 bound_to 10713
  154.4524  135.2765  155.1771 H   0  0  0  0  0  0  0  0  0  0  0  0  # atno 10763 bound_to 10752
  154.3593  135.6133  153.5686 H   0  0  0  0  0  0  0  0  0  0  0  0  # atno 10764 bound_to 10752
  152.9848  135.5830  154.4871 H   0  0  0  0  0  0  0  0  0  0  0  0  # atno 10765 bound_to 10752
  141.0684  133.9420  157.2533 H   0  0  0  0  0  0  0  0  0  0  0  0  # atno 11005 bound_to 11000
  146.2719  140.4787  142.8811 LP  0  0  0  0  0  0  0  0  0  0  0  0  # atno 17320 bound_to 7965
  144.8328  140.6735  143.6279 LP  0  0  0  0  0  0  0  0  0  0  0  0  # atno 17321 bound_to 7965
  139.6049  144.7593  151.3085 LP  0  0  0  0  0  0  0  0  0  0  0  0  # atno 17342 bound_to 10162
  140.7284  143.6936  150.7902 LP  0  0  0  0  0  0  0  0  0  0  0  0  # atno 17343 bound_to 10162
  157.6072  130.8556  149.8893 LP  0  0  0  0  0  0  0  0  0  0  0  0  # atno 17370 bound_to 10713
  156.0619  130.3698  150.0963 LP  0  0  0  0  0  0  0  0  0  0  0  0  # atno 17371 bound_to 10713
  139.9499  135.0177  156.8963 LP  0  0  0  0  0  0  0  0  0  0  0  0  # atno 17394 bound_to 11000
  140.5725  134.0430  155.7435 LP  0  0  0  0  0  0  0  0  0  0  0  0  # atno 17395 bound_to 11000

$$$$
