AV-unprocessed.smi:2878|AV-procd|sdf|11045|dock9
  -GOLD-   2272015513D 1   1.00000     0.00000
 Structure written by MMmdl.
 42 43  0  0  0  0  0  0  0  0  1 V2000
  150.9255  145.1753  159.5174 C   0  0  0  0  0  0  0  0  0  0  0  0
  151.4535  143.8201  158.4340 S   0  0  0  0  0  0  0  0  0  0  0  0
  151.9924  142.5798  159.6548 C   0  0  2  0  0  0  0  0  0  0  0  0
  152.9347  143.2439  160.6767 C   0  0  0  0  0  0  0  0  0  0  0  0
  153.4534  142.2393  161.7153 C   0  0  0  0  0  0  0  0  0  0  0  0
  154.1580  141.0607  161.0309 C   0  0  0  0  0  0  0  0  0  0  0  0
  153.2256  140.3731  160.0235 C   0  0  0  0  0  0  0  0  0  0  0  0
  152.6749  141.3648  158.9781 C   0  0  1  0  0  0  0  0  0  0  0  0
  151.7283  140.6629  158.1140 N   0  0  0  0  0  0  0  0  0  0  0  0
  152.0399  139.7065  157.2286 C   0  0  0  0  0  0  0  0  0  0  0  0
  153.1773  139.2721  157.0476 O   0  0  0  0  0  0  0  0  0  0  0  0
  150.9607  139.2857  156.5544 N   0  0  0  0  0  0  0  0  0  0  0  0
  150.9760  138.2722  155.5058 C   0  0  0  0  0  0  0  0  0  0  0  0
  149.6216  138.1846  154.7842 C   0  0  0  0  0  0  0  0  0  0  0  0
  149.0005  139.5250  154.5765 C   0  0  0  0  0  0  0  0  0  0  0  0
  147.7059  139.8293  154.6342 N   0  0  0  0  0  0  0  0  0  0  0  0
  147.7345  141.1510  154.3089 C   0  0  0  0  0  0  0  0  0  0  0  0
  146.5057  141.9915  154.2335 C   0  0  0  0  0  0  0  0  0  0  0  0
  148.9324  141.6583  154.0447 N   0  0  0  0  0  0  0  0  0  0  0  0
  149.7915  140.5628  154.2126 O   0  0  0  0  0  0  0  0  0  0  0  0
  150.5887  146.0209  158.9180 H   0  0  0  0  0  0  0  0  0  0  0  0
  151.7533  145.5068  160.1442 H   0  0  0  0  0  0  0  0  0  0  0  0
  150.1031  144.8651  160.1610 H   0  0  0  0  0  0  0  0  0  0  0  0
  151.1093  142.2377  160.1963 H   0  0  0  0  0  0  0  0  0  0  0  0
  153.7815  143.6945  160.1568 H   0  0  0  0  0  0  0  0  0  0  0  0
  152.4172  144.0584  161.1847 H   0  0  0  0  0  0  0  0  0  0  0  0
  154.1401  142.7354  162.4016 H   0  0  0  0  0  0  0  0  0  0  0  0
  152.6225  141.8722  162.3192 H   0  0  0  0  0  0  0  0  0  0  0  0
  155.0534  141.4147  160.5185 H   0  0  0  0  0  0  0  0  0  0  0  0
  154.4927  140.3416  161.7789 H   0  0  0  0  0  0  0  0  0  0  0  0
  153.7613  139.5649  159.5238 H   0  0  0  0  0  0  0  0  0  0  0  0
  152.3990  139.9072  160.5624 H   0  0  0  0  0  0  0  0  0  0  0  0
  153.5139  141.7397  158.3886 H   0  0  0  0  0  0  0  0  0  0  0  0
  150.7615  140.9445  158.1834 H   0  0  0  0  0  0  0  0  0  0  0  0
  150.0677  139.7015  156.7748 H   0  0  0  0  0  0  0  0  0  0  0  0
  151.7759  138.4827  154.7937 H   0  0  0  0  0  0  0  0  0  0  0  0
  151.2137  137.3121  155.9649 H   0  0  0  0  0  0  0  0  0  0  0  0
  149.7437  137.7026  153.8134 H   0  0  0  0  0  0  0  0  0  0  0  0
  148.9254  137.5679  155.3537 H   0  0  0  0  0  0  0  0  0  0  0  0
  146.7393  143.0368  154.4387 H   0  0  0  0  0  0  0  0  0  0  0  0
  145.7681  141.6559  154.9629 H   0  0  0  0  0  0  0  0  0  0  0  0
  146.0657  141.9233  153.2384 H   0  0  0  0  0  0  0  0  0  0  0  0
  1  2  1  0  0  0  0
  1 21  1  0  0  0  0
  1 22  1  0  0  0  0
  1 23  1  0  0  0  0
  2  3  1  0  0  0  0
  3  8  1  0  0  0  0
  3  4  1  0  0  0  0
  3 24  1  0  0  0  0
  4  5  1  0  0  0  0
  4 25  1  0  0  0  0
  4 26  1  0  0  0  0
  5  6  1  0  0  0  0
  5 27  1  0  0  0  0
  5 28  1  0  0  0  0
  6  7  1  0  0  0  0
  6 29  1  0  0  0  0
  6 30  1  0  0  0  0
  7  8  1  0  0  0  0
  7 31  1  0  0  0  0
  7 32  1  0  0  0  0
  8  9  1  0  0  0  0
  8 33  1  0  0  0  0
  9 10  1  0  0  0  0
  9 34  1  0  0  0  0
 10 11  2  0  0  0  0
 10 12  1  0  0  0  0
 12 13  1  0  0  0  0
 12 35  1  0  0  0  0
 13 14  1  0  0  0  0
 13 36  1  0  0  0  0
 13 37  1  0  0  0  0
 14 15  1  0  0  0  0
 14 38  1  0  0  0  0
 14 39  1  0  0  0  0
 15 20  1  0  0  0  0
 15 16  2  0  0  0  0
 16 17  1  0  0  0  0
 17 18  1  0  0  0  0
 17 19  2  0  0  0  0
 18 40  1  0  0  0  0
 18 41  1  0  0  0  0
 18 42  1  0  0  0  0
 19 20  1  0  0  0  0
M  END
> <s_m_source_file>
AV-unprocessed.smi

> <i_m_source_file_index>
2878

> <i_lp_mmshare_version>
43012

> <i_f3d_flags>
0

> <s_epik_input>
W0NIM11TW0NAQEhdMVtDSDJdW0NIMl1bQ0gyXVtDSDJdW0NASF0xW05IXUMoPU8pW05IXVtDSDJdW0NIMl1jMm5jKFtDSDNdKW5vMg==

> <s_epik_cmdline>
J2VwaWtfcHl0aG9uJywgJy1waCcsICc3LjAnLCAnLXRuJywgJzgnLCAnLW1hJywgJzIwMCcsICctbWV0YWxfYmluZGluZycsICctaW1hZScsICc8aW5maWxlLm1hZT4nLCAnLW9tYWUnLCAnPG91dGZpbGUubWFlPic=

> <r_lp_tautomer_probability>
1

> <r_epik_Ionization_Penalty>
4.9299e-05

> <r_epik_Ionization_Penalty_Charging>
0

> <r_epik_Ionization_Penalty_Neutral>
4.9299e-05

> <r_epik_State_Penalty>
-0

> <r_epik_Charging_Adjusted_Penalty>
0

> <i_epik_Tot_Q>
0

> <i_epik_Tot_abs_Q>
0

> <r_epik_Metal_State_Penalty>
-0

> <b_epik_Metal_Only>
0

> <s_lp_Force_Field>
OPLS_2005

> <r_lp_Energy>
1.6378

> <b_lp_Chiralities_Consistent>
1

> <s_lp_Variant>
AV-unprocessed.smi:2878-1

> <Gold.Version>
5.8.1

> <Gold.Id.Protein>
6NUR|6NUR_protein|mol2

> <Gold.PLP.Fitness>
48.8361

> <Gold.PLP.PLP>
-42.9498

> <Gold.PLP.part.hbond>
-4.0000

> <Gold.PLP.part.metal>
0.0000

> <Gold.PLP.part.buried>
-6.1612

> <Gold.PLP.part.nonpolar>
-33.6816

> <Gold.PLP.part.repulsive>
1.3842

> <Gold.PLP.ligand.clash>
0.0000

> <Gold.PLP.ligand.torsion>
0.5820

> <Gold.PLP.Chemscore.Hbond>
2.3440

> <Gold.PLP.Chemscore.CHOScore>
0.0000

> <Gold.PLP.Chemscore.Metal>
0.0000

> <Gold.Chemscore.Hbonds>
donor molecule, donor type, donor heavy atom, donor atom, acceptor molecule, acceptor atom, score
      P1  H  7989  7998       L1    20  0.72
      P1  H  7997  8008       L1    11  0.96
      P1  H  8011  8017       L1    19  0.49

> <Gold.PLP.Chemscore.Internal.Correction>
0.0183

> <Gold.Rescore>
     Score         DG    S(hbond)    S(metal)    S(lipo)     H(rot)  DE(clash)    DE(int)     intcor
     16.27     -18.13       1.81        0.00     102.20       2.09       0.15       1.71       ----

> <Gold.Chemscore.Fitness>
16.2705

> <Gold.Chemscore.DG>
-18.1250

> <Gold.Chemscore.ZeroCoef>
-5.4800

> <Gold.Chemscore.Hbond>
1.8094

> <Gold.Chemscore.Metal>
0.0000

> <Gold.Chemscore.Lipo>
102.2029

> <Gold.Chemscore.Internal_Hbond>
0.0000

> <Gold.Chemscore.DEClash>
0.1486

> <Gold.Chemscore.DEInternal>
1.7059

> <Gold.Chemscore.Rot>
2.0923

> <Gold.Chemscore.Internal.Correction>
   9.000000E+99

> <Gold.Chemscore.Hbonds>
donor molecule, donor type, donor heavy atom, donor atom, acceptor molecule, acceptor atom, score
      P1  H  7989  7998       L1    20  0.60
      P1  H  7997  8008       L1    11  0.90
      P1  H  8011  8017       L1    19  0.10

> <Gold.Chemscore.Hbond.Weighted>
-6.0435

> <Gold.Chemscore.Metal.Weighted>
-0.0000

> <Gold.Chemscore.Lipo.Weighted>
-11.9577

> <Gold.Chemscore.Internal_Hbond.Weighted>
0.0000

> <Gold.Chemscore.DEClash.Weighted>
0.1486

> <Gold.Chemscore.DEInternal.Weighted>
1.7059

> <Gold.Chemscore.Rot.Weighted>
5.3562

> <Gold.Chemscore.Internal.Correction.Weighted>
   9.000000E+99

> <Gold.Protein.RotatedTorsions>
[ 6907 6896 6895 6894 ] final  179.54 input  -60.11 | X-H torsion
[ 7974 7965 7964 7962 ] final   33.03 input  175.53 | X-H torsion
[ 8008 7997 7996 7995 ] final  -72.25 input   59.86 | X-H torsion
[ 10167 10162 10161 10158 ] final -142.91 input  -65.29 | X-H torsion
[ 10718 10713 10712 10709 ] final -141.95 input   66.30 | X-H torsion
[ 10763 10752 10751 10750 ] final  -64.94 input  -60.55 | X-H torsion
[ 11005 11000 10999 10996 ] final  -60.13 input  -57.11 | X-H torsion

> <Gold.Protein.ActiveResidues>
 VAL166  LYS551  ARG553  GLY616  TRP617  ASP618  TYR619  PRO620  LYS621  CYS622 
 ASP623  PHE694  ASN695  SER759  ASP760  ASP761  ALA762  ILE779  LEU786  VAL792 
 PHE793  MET794  SER795  GLU796  ALA797  LYS798  CYS799  TRP800  GLU811  SER814 

> <Gold.Protein.RotatedAtoms>
  151.6701  133.3314  159.3194 H   0  0  0  0  0  0  0  0  0  0  0  0  # atno 6907 bound_to 6896
  150.7872  134.6870  159.6485 H   0  0  0  0  0  0  0  0  0  0  0  0  # atno 6908 bound_to 6896
  152.3944  134.6393  160.0147 H   0  0  0  0  0  0  0  0  0  0  0  0  # atno 6909 bound_to 6896
  146.1448  139.6450  142.9139 H   0  0  0  0  0  0  0  0  0  0  0  0  # atno 7974 bound_to 7965
  154.5151  140.0801  156.8065 H   0  0  0  0  0  0  0  0  0  0  0  0  # atno 8008 bound_to 7997
  155.3698  140.3422  155.4225 H   0  0  0  0  0  0  0  0  0  0  0  0  # atno 8009 bound_to 7997
  156.1618  140.1591  156.8586 H   0  0  0  0  0  0  0  0  0  0  0  0  # atno 8010 bound_to 7997
  139.8044  143.7789  152.2660 H   0  0  0  0  0  0  0  0  0  0  0  0  # atno 10167 bound_to 10162
  156.3401  130.7633  151.1767 H   0  0  0  0  0  0  0  0  0  0  0  0  # atno 10718 bound_to 10713
  154.3377  135.6163  153.5581 H   0  0  0  0  0  0  0  0  0  0  0  0  # atno 10763 bound_to 10752
  152.9806  135.5762  154.4889 H   0  0  0  0  0  0  0  0  0  0  0  0  # atno 10764 bound_to 10752
  154.4587  135.2855  155.1705 H   0  0  0  0  0  0  0  0  0  0  0  0  # atno 10765 bound_to 10752
  141.1275  133.6620  156.5177 H   0  0  0  0  0  0  0  0  0  0  0  0  # atno 11005 bound_to 11000
  145.4963  141.0438  143.2565 LP  0  0  0  0  0  0  0  0  0  0  0  0  # atno 17320 bound_to 7965
  144.7833  139.6479  143.7145 LP  0  0  0  0  0  0  0  0  0  0  0  0  # atno 17321 bound_to 7965
  139.7919  144.7407  150.9943 LP  0  0  0  0  0  0  0  0  0  0  0  0  # atno 17342 bound_to 10162
  140.7819  143.4433  151.0519 LP  0  0  0  0  0  0  0  0  0  0  0  0  # atno 17343 bound_to 10162
  157.7445  131.0457  150.4856 LP  0  0  0  0  0  0  0  0  0  0  0  0  # atno 17370 bound_to 10713
  156.5035  130.4122  149.6340 LP  0  0  0  0  0  0  0  0  0  0  0  0  # atno 17371 bound_to 10713
  140.4318  134.7095  157.4945 LP  0  0  0  0  0  0  0  0  0  0  0  0  # atno 17394 bound_to 11000
  140.0289  134.6436  155.9134 LP  0  0  0  0  0  0  0  0  0  0  0  0  # atno 17395 bound_to 11000

$$$$
