AV-unprocessed.smi:837|AV-procd|sdf|3898|dock3
  -GOLD-   22720 1353D 1   1.00000     0.00000
 Structure written by MMmdl.
 50 52  0  0  0  0  0  0  0  0  2 V2000
  150.1042  137.7806  154.4106 C   0  0  0  0  0  0  0  0  0  0  0  0
  150.5116  139.1956  154.8740 C   0  0  2  0  0  0  0  0  0  0  0  0
  151.4136  139.1215  156.1253 C   0  0  0  0  0  0  0  0  0  0  0  0
  151.9091  140.5119  156.5520 C   0  0  0  0  0  0  0  0  0  0  0  0
  150.7397  141.4765  156.7936 C   0  0  0  0  0  0  0  0  0  0  0  0
  149.8285  141.5672  155.5568 C   0  0  0  0  0  0  0  0  0  0  0  0
  149.3199  140.1855  155.0737 C   0  0  1  0  0  0  0  0  0  0  0  0
  148.5625  140.3470  153.8445 N   0  0  0  0  0  0  0  0  0  0  0  0
  147.2795  139.9857  153.9632 C   0  0  0  0  0  0  0  0  0  0  0  0
  146.4461  140.0202  153.0587 O   0  0  0  0  0  0  0  0  0  0  0  0
  147.0718  139.5729  155.2257 N   0  0  0  0  0  0  0  0  0  0  0  0
  145.7918  139.0491  155.7186 C   0  0  0  0  0  0  0  0  0  0  0  0
  145.3460  137.7832  154.9743 C   0  0  0  0  0  0  0  0  0  0  0  0
  145.5607  136.6658  155.4456 O   0  0  0  0  0  0  0  0  0  0  0  0
  144.7217  137.9771  153.8032 N   0  0  0  0  0  0  0  0  0  0  0  0
  144.2439  136.9175  152.9192 C   0  0  0  0  0  0  0  0  0  0  0  0
  145.3594  135.9478  152.4765 C   0  0  0  0  0  0  0  0  0  0  0  0
  144.8430  134.7098  151.7629 C   0  0  0  0  0  0  0  0  0  0  0  0
  145.7162  133.6460  151.4426 C   0  0  0  0  0  0  0  0  0  0  0  0
  145.2109  132.5152  150.7686 C   0  0  0  0  0  0  0  0  0  0  0  0
  143.8425  132.4710  150.4331 C   0  0  0  0  0  0  0  0  0  0  0  0
  143.0367  133.5058  150.7583 N   0  3  0  0  0  0  0  0  0  0  0  0
  143.4824  134.6073  151.4019 C   0  0  0  0  0  0  0  0  0  0  0  0
  148.1929  139.6449  155.9566 C   0  0  0  0  0  0  0  0  0  0  0  0
  148.3223  139.3221  157.1375 O   0  0  0  0  0  0  0  0  0  0  0  0
  149.5181  137.2586  155.1675 H   0  0  0  0  0  0  0  0  0  0  0  0
  150.9851  137.1716  154.2067 H   0  0  0  0  0  0  0  0  0  0  0  0
  149.5152  137.8092  153.4938 H   0  0  0  0  0  0  0  0  0  0  0  0
  151.1266  139.6070  154.0719 H   0  0  0  0  0  0  0  0  0  0  0  0
  150.8801  138.6519  156.9519 H   0  0  0  0  0  0  0  0  0  0  0  0
  152.2743  138.4831  155.9227 H   0  0  0  0  0  0  0  0  0  0  0  0
  152.5134  140.4292  157.4558 H   0  0  0  0  0  0  0  0  0  0  0  0
  152.5635  140.9185  155.7799 H   0  0  0  0  0  0  0  0  0  0  0  0
  150.1675  141.1507  157.6623 H   0  0  0  0  0  0  0  0  0  0  0  0
  151.1240  142.4667  157.0401 H   0  0  0  0  0  0  0  0  0  0  0  0
  148.9887  142.2281  155.7775 H   0  0  0  0  0  0  0  0  0  0  0  0
  150.3805  142.0487  154.7483 H   0  0  0  0  0  0  0  0  0  0  0  0
  148.9781  140.6923  152.9917 H   0  0  0  0  0  0  0  0  0  0  0  0
  145.8548  138.8203  156.7838 H   0  0  0  0  0  0  0  0  0  0  0  0
  145.0238  139.8195  155.6252 H   0  0  0  0  0  0  0  0  0  0  0  0
  144.5766  138.9282  153.4963 H   0  0  0  0  0  0  0  0  0  0  0  0
  143.4299  136.3692  153.3956 H   0  0  0  0  0  0  0  0  0  0  0  0
  143.8158  137.4001  152.0404 H   0  0  0  0  0  0  0  0  0  0  0  0
  146.0606  136.4663  151.8215 H   0  0  0  0  0  0  0  0  0  0  0  0
  145.9402  135.6376  153.3458 H   0  0  0  0  0  0  0  0  0  0  0  0
  146.7641  133.6979  151.7014 H   0  0  0  0  0  0  0  0  0  0  0  0
  145.8657  131.6956  150.5101 H   0  0  0  0  0  0  0  0  0  0  0  0
  143.3720  131.6462  149.9178 H   0  0  0  0  0  0  0  0  0  0  0  0
  142.7431  135.3688  151.6034 H   0  0  0  0  0  0  0  0  0  0  0  0
  142.0493  133.4537  150.5062 H   0  0  0  0  0  0  0  0  0  0  0  0
  1  2  1  0  0  0  0
  1 26  1  0  0  0  0
  1 27  1  0  0  0  0
  1 28  1  0  0  0  0
  2  7  1  0  0  0  0
  2  3  1  0  0  0  0
  2 29  1  0  0  0  0
  3  4  1  0  0  0  0
  3 30  1  0  0  0  0
  3 31  1  0  0  0  0
  4  5  1  0  0  0  0
  4 32  1  0  0  0  0
  4 33  1  0  0  0  0
  5  6  1  0  0  0  0
  5 34  1  0  0  0  0
  5 35  1  0  0  0  0
  6  7  1  0  0  0  0
  6 36  1  0  0  0  0
  6 37  1  0  0  0  0
  7 24  1  0  0  0  0
  7  8  1  0  0  0  0
  8  9  1  0  0  0  0
  8 38  1  0  0  0  0
  9 10  2  0  0  0  0
  9 11  1  0  0  0  0
 11 12  1  0  0  0  0
 11 24  1  0  0  0  0
 12 13  1  0  0  0  0
 12 39  1  0  0  0  0
 12 40  1  0  0  0  0
 13 14  2  0  0  0  0
 13 15  1  0  0  0  0
 15 16  1  0  0  0  0
 15 41  1  0  0  0  0
 16 17  1  0  0  0  0
 16 42  1  0  0  0  0
 16 43  1  0  0  0  0
 17 18  1  0  0  0  0
 17 44  1  0  0  0  0
 17 45  1  0  0  0  0
 18 23  1  0  0  0  0
 18 19  2  0  0  0  0
 19 20  1  0  0  0  0
 19 46  1  0  0  0  0
 20 21  2  0  0  0  0
 20 47  1  0  0  0  0
 21 22  1  0  0  0  0
 21 48  1  0  0  0  0
 22 23  2  0  0  0  0
 22 50  1  0  0  0  0
 23 49  1  0  0  0  0
 24 25  2  0  0  0  0
M  CHG  1  22   1
M  END
> <s_m_source_file>
AV-unprocessed.smi

> <i_m_source_file_index>
837

> <i_lp_mmshare_version>
43012

> <i_f3d_flags>
0

> <s_epik_input>
W0NIMl0xW0NIMl1bQ0gyXVtDSDJdW0NAQEhdKFtDSDNdKVtDQEBdMTJbTkhdQyg9TylOKEMyPU8pW0NIMl1DKD1PKVtOSF1bQ0gyXVtDSDJdYzNbY0hdW2NIXVtjSF1uW2NIXTM=

> <s_epik_cmdline>
J2VwaWtfcHl0aG9uJywgJy1waCcsICc3LjAnLCAnLXRuJywgJzgnLCAnLW1hJywgJzIwMCcsICctbWV0YWxfYmluZGluZycsICctaW1hZScsICc8aW5maWxlLm1hZT4nLCAnLW9tYWUnLCAnPG91dGZpbGUubWFlPic=

> <r_lp_tautomer_probability>
1

> <r_epik_Ionization_Penalty>
2.28139

> <r_epik_Ionization_Penalty_Charging>
2.28135

> <r_epik_Ionization_Penalty_Neutral>
4.65525e-05

> <r_epik_State_Penalty>
2.43066

> <r_epik_Charging_Adjusted_Penalty>
4.71201

> <i_epik_Tot_Q>
1

> <i_epik_Tot_abs_Q>
1

> <r_epik_Metal_State_Penalty>
2.4646

> <b_epik_Metal_Only>
0

> <s_lp_Force_Field>
OPLS_2005

> <r_lp_Energy>
25.0324

> <b_lp_Chiralities_Consistent>
1

> <s_lp_Variant>
AV-unprocessed.smi:837-7

> <Gold.Version>
5.8.1

> <Gold.Id.Protein>
6NUR|6NUR_protein|mol2

> <Gold.PLP.Fitness>
46.4927

> <Gold.PLP.PLP>
-36.6959

> <Gold.PLP.part.hbond>
-3.0000

> <Gold.PLP.part.metal>
0.0000

> <Gold.PLP.part.buried>
-4.5286

> <Gold.PLP.part.nonpolar>
-30.4975

> <Gold.PLP.part.repulsive>
0.4727

> <Gold.PLP.ligand.clash>
0.0000

> <Gold.PLP.ligand.torsion>
0.4222

> <Gold.PLP.Chemscore.Hbond>
3.5360

> <Gold.PLP.Chemscore.CHOScore>
0.0000

> <Gold.PLP.Chemscore.Metal>
0.0000

> <Gold.Chemscore.Hbonds>
donor molecule, donor type, donor heavy atom, donor atom, acceptor molecule, acceptor atom, score
      L1  H     8    38       P1  7957  0.81
      L1  H    15    41       P1 10175  0.96
      L1  H    22    50       P1 10186  1.41

> <Gold.PLP.Chemscore.Internal.Correction>
0.0332

> <Gold.Rescore>
     Score         DG    S(hbond)    S(metal)    S(lipo)     H(rot)  DE(clash)    DE(int)     intcor
     16.23     -18.49       2.12        0.00      93.64       1.96       0.21       2.06       ----

> <Gold.Chemscore.Fitness>
16.2258

> <Gold.Chemscore.DG>
-18.4916

> <Gold.Chemscore.ZeroCoef>
-5.4800

> <Gold.Chemscore.Hbond>
2.1207

> <Gold.Chemscore.Metal>
0.0000

> <Gold.Chemscore.Lipo>
93.6411

> <Gold.Chemscore.Internal_Hbond>
0.0000

> <Gold.Chemscore.DEClash>
0.2060

> <Gold.Chemscore.DEInternal>
2.0598

> <Gold.Chemscore.Rot>
1.9638

> <Gold.Chemscore.Internal.Correction>
   9.000000E+99

> <Gold.Chemscore.Hbonds>
donor molecule, donor type, donor heavy atom, donor atom, acceptor molecule, acceptor atom, score
      L1  H     8    38       P1  7957  0.75
      L1  H    15    41       P1 10175  0.89
      L1  H    22    50       P1 10186  0.68

> <Gold.Chemscore.Hbond.Weighted>
-7.0830

> <Gold.Chemscore.Metal.Weighted>
-0.0000

> <Gold.Chemscore.Lipo.Weighted>
-10.9560

> <Gold.Chemscore.Internal_Hbond.Weighted>
0.0000

> <Gold.Chemscore.DEClash.Weighted>
0.2060

> <Gold.Chemscore.DEInternal.Weighted>
2.0598

> <Gold.Chemscore.Rot.Weighted>
5.0274

> <Gold.Chemscore.Internal.Correction.Weighted>
   9.000000E+99

> <Gold.Protein.RotatedTorsions>
[ 6907 6896 6895 6894 ] final  -49.53 input  -60.11 | X-H torsion
[ 7974 7965 7964 7962 ] final  -63.93 input  175.53 | X-H torsion
[ 8008 7997 7996 7995 ] final   48.77 input   59.86 | X-H torsion
[ 10167 10162 10161 10158 ] final   -6.75 input  -65.29 | X-H torsion
[ 10718 10713 10712 10709 ] final   -1.94 input   66.30 | X-H torsion
[ 10763 10752 10751 10750 ] final   66.85 input  -60.55 | X-H torsion
[ 11005 11000 10999 10996 ] final   -4.70 input  -57.11 | X-H torsion

> <Gold.Protein.ActiveResidues>
 VAL166  LYS551  ARG553  GLY616  TRP617  ASP618  TYR619  PRO620  LYS621  CYS622 
 ASP623  PHE694  ASN695  SER759  ASP760  ASP761  ALA762  ILE779  LEU786  VAL792 
 PHE793  MET794  SER795  GLU796  ALA797  LYS798  CYS799  TRP800  GLU811  SER814 

> <Gold.Protein.RotatedAtoms>
  150.8796  134.8184  159.7214 H   0  0  0  0  0  0  0  0  0  0  0  0  # atno 6907 bound_to 6896
  152.4769  134.4817  159.9677 H   0  0  0  0  0  0  0  0  0  0  0  0  # atno 6908 bound_to 6896
  151.4894  133.3489  159.2886 H   0  0  0  0  0  0  0  0  0  0  0  0  # atno 6909 bound_to 6896
  145.7730  140.8803  143.0370 H   0  0  0  0  0  0  0  0  0  0  0  0  # atno 7974 bound_to 7965
  155.3911  140.3433  155.4251 H   0  0  0  0  0  0  0  0  0  0  0  0  # atno 8008 bound_to 7997
  156.1557  140.1585  156.8730 H   0  0  0  0  0  0  0  0  0  0  0  0  # atno 8009 bound_to 7997
  154.5092  140.0794  156.7938 H   0  0  0  0  0  0  0  0  0  0  0  0  # atno 8010 bound_to 7997
  140.7007  143.6159  150.8659 H   0  0  0  0  0  0  0  0  0  0  0  0  # atno 10167 bound_to 10162
  156.7982  130.5384  149.5725 H   0  0  0  0  0  0  0  0  0  0  0  0  # atno 10718 bound_to 10713
  153.0159  135.5305  154.6889 H   0  0  0  0  0  0  0  0  0  0  0  0  # atno 10763 bound_to 10752
  154.6029  135.2870  155.0518 H   0  0  0  0  0  0  0  0  0  0  0  0  # atno 10764 bound_to 10752
  154.1569  135.6554  153.5029 H   0  0  0  0  0  0  0  0  0  0  0  0  # atno 10765 bound_to 10752
  140.6831  133.9136  155.8568 H   0  0  0  0  0  0  0  0  0  0  0  0  # atno 11005 bound_to 11000
  144.6809  139.9881  143.7484 LP  0  0  0  0  0  0  0  0  0  0  0  0  # atno 17320 bound_to 7965
  146.0151  139.3203  143.0847 LP  0  0  0  0  0  0  0  0  0  0  0  0  # atno 17321 bound_to 7965
  139.9880  143.5878  152.2920 LP  0  0  0  0  0  0  0  0  0  0  0  0  # atno 17342 bound_to 10162
  139.6523  144.7661  151.2124 LP  0  0  0  0  0  0  0  0  0  0  0  0  # atno 17343 bound_to 10162
  156.1117  130.6045  151.0058 LP  0  0  0  0  0  0  0  0  0  0  0  0  # atno 17370 bound_to 10713
  157.6567  131.0888  150.7931 LP  0  0  0  0  0  0  0  0  0  0  0  0  # atno 17371 bound_to 10713
  141.0301  134.0767  157.4023 LP  0  0  0  0  0  0  0  0  0  0  0  0  # atno 17394 bound_to 11000
  139.8946  135.0136  156.6957 LP  0  0  0  0  0  0  0  0  0  0  0  0  # atno 17395 bound_to 11000

$$$$
