AV-unprocessed.smi:1554|AV-procd|sdf|6247|dock10
  -GOLD-   22720 6433D 1   1.00000     0.00000
 Structure written by MMmdl.
 48 50  0  0  0  0  0  0  0  0  2 V2000
  151.5254  143.8868  160.1343 C   0  0  0  0  0  0  0  0  0  0  0  0
  151.5109  142.7426  159.1358 C   0  0  0  0  0  0  0  0  0  0  0  0
  150.6880  142.8397  157.9912 C   0  0  0  0  0  0  0  0  0  0  0  0
  150.6487  141.7997  157.0369 C   0  0  0  0  0  0  0  0  0  0  0  0
  149.9284  141.6865  155.8600 N   0  0  0  0  0  0  0  0  0  0  0  0
  150.3213  140.4956  155.4185 C   0  0  0  0  0  0  0  0  0  0  0  0
  151.2139  139.8229  156.1699 N   0  0  0  0  0  0  0  0  0  0  0  0
  151.7847  138.5184  155.8854 C   0  0  0  0  0  0  0  0  0  0  0  0
  150.9357  137.7105  154.8849 C   0  0  1  0  0  0  0  0  0  0  0  0
  151.7873  136.9289  154.0685 O   0  0  0  0  0  0  0  0  0  0  0  0
  149.9387  136.7773  155.5994 C   0  0  0  0  0  0  0  0  0  0  0  0
  149.3022  135.8092  154.6655 N   0  3  2  0  0  0  0  0  0  0  0  0
  147.8585  135.5624  154.9149 C   0  0  0  0  0  0  0  0  0  0  0  0
  147.6449  134.5938  156.0948 C   0  0  0  0  0  0  0  0  0  0  0  0
  148.3717  133.3915  155.8724 O   0  0  0  0  0  0  0  0  0  0  0  0
  149.7733  133.6133  155.7603 C   0  0  1  0  0  0  0  0  0  0  0  0
  150.4621  132.2515  155.6181 C   0  0  0  0  0  0  0  0  0  0  0  0
  150.0359  134.5258  154.5448 C   0  0  0  0  0  0  0  0  0  0  0  0
  151.4616  140.6499  157.2607 C   0  0  0  0  0  0  0  0  0  0  0  0
  152.2839  140.5414  158.3962 C   0  0  0  0  0  0  0  0  0  0  0  0
  152.3111  141.5898  159.3396 C   0  0  0  0  0  0  0  0  0  0  0  0
  153.2021  141.4628  160.5625 C   0  0  0  0  0  0  0  0  0  0  0  0
  150.8251  144.6729  159.8499 H   0  0  0  0  0  0  0  0  0  0  0  0
  152.5202  144.3292  160.1914 H   0  0  0  0  0  0  0  0  0  0  0  0
  151.2456  143.5338  161.1271 H   0  0  0  0  0  0  0  0  0  0  0  0
  150.0789  143.7180  157.8357 H   0  0  0  0  0  0  0  0  0  0  0  0
  149.9409  140.0885  154.4929 H   0  0  0  0  0  0  0  0  0  0  0  0
  152.7995  138.6537  155.5094 H   0  0  0  0  0  0  0  0  0  0  0  0
  151.8731  137.9752  156.8272 H   0  0  0  0  0  0  0  0  0  0  0  0
  150.4023  138.4098  154.2415 H   0  0  0  0  0  0  0  0  0  0  0  0
  151.3449  136.7475  153.2530 H   0  0  0  0  0  0  0  0  0  0  0  0
  150.4729  136.2389  156.3839 H   0  0  0  0  0  0  0  0  0  0  0  0
  149.1717  137.3611  156.1082 H   0  0  0  0  0  0  0  0  0  0  0  0
  147.3199  136.4942  155.0831 H   0  0  0  0  0  0  0  0  0  0  0  0
  147.4309  135.1232  154.0127 H   0  0  0  0  0  0  0  0  0  0  0  0
  147.9449  135.0436  157.0418 H   0  0  0  0  0  0  0  0  0  0  0  0
  146.5868  134.3491  156.1871 H   0  0  0  0  0  0  0  0  0  0  0  0
  150.1381  134.0886  156.6725 H   0  0  0  0  0  0  0  0  0  0  0  0
  151.5433  132.3655  155.5356 H   0  0  0  0  0  0  0  0  0  0  0  0
  150.1126  131.7219  154.7312 H   0  0  0  0  0  0  0  0  0  0  0  0
  150.2605  131.6202  156.4838 H   0  0  0  0  0  0  0  0  0  0  0  0
  149.6990  134.0267  153.6351 H   0  0  0  0  0  0  0  0  0  0  0  0
  151.1036  134.7065  154.4147 H   0  0  0  0  0  0  0  0  0  0  0  0
  152.8901  139.6596  158.5398 H   0  0  0  0  0  0  0  0  0  0  0  0
  153.7580  140.5248  160.5539 H   0  0  0  0  0  0  0  0  0  0  0  0
  152.6046  141.4890  161.4740 H   0  0  0  0  0  0  0  0  0  0  0  0
  153.9239  142.2791  160.5966 H   0  0  0  0  0  0  0  0  0  0  0  0
  149.3669  136.2487  153.7578 H   0  0  0  0  0  0  0  0  0  0  0  0
  1  2  1  0  0  0  0
  1 23  1  0  0  0  0
  1 24  1  0  0  0  0
  1 25  1  0  0  0  0
  2 21  1  0  0  0  0
  2  3  2  0  0  0  0
  3  4  1  0  0  0  0
  3 26  1  0  0  0  0
  4 19  2  0  0  0  0
  4  5  1  0  0  0  0
  5  6  2  0  0  0  0
  6  7  1  0  0  0  0
  6 27  1  0  0  0  0
  7  8  1  0  0  0  0
  7 19  1  0  0  0  0
  8  9  1  0  0  0  0
  8 28  1  0  0  0  0
  8 29  1  0  0  0  0
  9 10  1  0  0  0  0
  9 11  1  0  0  0  0
  9 30  1  0  0  0  0
 10 31  1  0  0  0  0
 11 12  1  0  0  0  0
 11 32  1  0  0  0  0
 11 33  1  0  0  0  0
 12 18  1  0  0  0  0
 12 13  1  0  0  0  0
 12 48  1  0  0  0  0
 13 14  1  0  0  0  0
 13 34  1  0  0  0  0
 13 35  1  0  0  0  0
 14 15  1  0  0  0  0
 14 36  1  0  0  0  0
 14 37  1  0  0  0  0
 15 16  1  0  0  0  0
 16 17  1  0  0  0  0
 16 18  1  0  0  0  0
 16 38  1  0  0  0  0
 17 39  1  0  0  0  0
 17 40  1  0  0  0  0
 17 41  1  0  0  0  0
 18 42  1  0  0  0  0
 18 43  1  0  0  0  0
 19 20  1  0  0  0  0
 20 21  2  0  0  0  0
 20 44  1  0  0  0  0
 21 22  1  0  0  0  0
 22 45  1  0  0  0  0
 22 46  1  0  0  0  0
 22 47  1  0  0  0  0
M  CHG  1  12   1
M  END
> <s_m_source_file>
AV-unprocessed.smi

> <i_m_source_file_index>
1554

> <i_lp_mmshare_version>
43012

> <i_f3d_flags>
0

> <s_epik_input>
W0NIM11jKFtjSF0xKWMoW0NIM10pW2NIXWMoYzEyKW4oW2NIXW4yKVtDSDJdW0NASF0oW09IXSlbQ0gyXU4zW0NIMl1bQ0gyXU9bQ0BASF0oW0NIM10pW0NIMl0z

> <s_epik_cmdline>
J2VwaWtfcHl0aG9uJywgJy1waCcsICc3LjAnLCAnLXRuJywgJzgnLCAnLW1hJywgJzIwMCcsICctbWV0YWxfYmluZGluZycsICctaW1hZScsICc8aW5maWxlLm1hZT4nLCAnLW9tYWUnLCAnPG91dGZpbGUubWFlPic=

> <r_epik_Ionization_Penalty>
0.695251

> <r_epik_Ionization_Penalty_Charging>
0.608065

> <r_epik_Ionization_Penalty_Neutral>
0.0871863

> <r_epik_State_Penalty>
0.731955

> <r_epik_Charging_Adjusted_Penalty>
1.34002

> <i_epik_Tot_Q>
1

> <i_epik_Tot_abs_Q>
1

> <r_epik_Metal_State_Penalty>
0.652186

> <b_epik_Metal_Only>
0

> <s_lp_Force_Field>
OPLS_2005

> <r_lp_Energy>
22.6642

> <b_lp_Chiralities_Consistent>
1

> <s_lp_Variant>
AV-unprocessed.smi:1554-8

> <Gold.Version>
5.8.1

> <Gold.Id.Protein>
6NUR|6NUR_protein|mol2

> <Gold.PLP.Fitness>
50.3473

> <Gold.PLP.PLP>
-40.8598

> <Gold.PLP.part.hbond>
-3.0000

> <Gold.PLP.part.metal>
0.0000

> <Gold.PLP.part.buried>
-4.6177

> <Gold.PLP.part.nonpolar>
-34.1055

> <Gold.PLP.part.repulsive>
0.2626

> <Gold.PLP.ligand.clash>
0.0000

> <Gold.PLP.ligand.torsion>
1.2740

> <Gold.PLP.Chemscore.Hbond>
4.0000

> <Gold.PLP.Chemscore.CHOScore>
0.0000

> <Gold.PLP.Chemscore.Metal>
0.0000

> <Gold.Chemscore.Hbonds>
donor molecule, donor type, donor heavy atom, donor atom, acceptor molecule, acceptor atom, score
      L1  H    10    31       P1  7949  1.00
      L1  H    12    48       P1  7948  1.98
      P1  H 10752 10763       L1    10  0.86

> <Gold.PLP.Chemscore.Internal.Correction>
0.0354

> <Gold.Rescore>
     Score         DG    S(hbond)    S(metal)    S(lipo)     H(rot)  DE(clash)    DE(int)     intcor
     17.44     -19.82       2.05        0.00     109.12       2.05       0.04       2.34       ----

> <Gold.Chemscore.Fitness>
17.4409

> <Gold.Chemscore.DG>
-19.8178

> <Gold.Chemscore.ZeroCoef>
-5.4800

> <Gold.Chemscore.Hbond>
2.0452

> <Gold.Chemscore.Metal>
0.0000

> <Gold.Chemscore.Lipo>
109.1159

> <Gold.Chemscore.Internal_Hbond>
0.0000

> <Gold.Chemscore.DEClash>
0.0416

> <Gold.Chemscore.DEInternal>
2.3354

> <Gold.Chemscore.Rot>
2.0546

> <Gold.Chemscore.Internal.Correction>
   9.000000E+99

> <Gold.Chemscore.Hbonds>
donor molecule, donor type, donor heavy atom, donor atom, acceptor molecule, acceptor atom, score
      L1  H    10    31       P1  7949  0.73
      L1  H    12    48       P1  7948  0.77
      P1  H 10752 10763       L1    10  0.16

> <Gold.Chemscore.Hbond.Weighted>
-6.8309

> <Gold.Chemscore.Metal.Weighted>
-0.0000

> <Gold.Chemscore.Lipo.Weighted>
-12.7666

> <Gold.Chemscore.Internal_Hbond.Weighted>
0.0000

> <Gold.Chemscore.DEClash.Weighted>
0.0416

> <Gold.Chemscore.DEInternal.Weighted>
2.3354

> <Gold.Chemscore.Rot.Weighted>
5.2597

> <Gold.Chemscore.Internal.Correction.Weighted>
   9.000000E+99

> <Gold.Protein.RotatedTorsions>
[ 6907 6896 6895 6894 ] final  148.54 input  -60.11 | X-H torsion
[ 7974 7965 7964 7962 ] final -168.10 input  175.53 | X-H torsion
[ 8008 7997 7996 7995 ] final  -58.13 input   59.86 | X-H torsion
[ 10167 10162 10161 10158 ] final  -60.90 input  -65.29 | X-H torsion
[ 10718 10713 10712 10709 ] final -105.58 input   66.30 | X-H torsion
[ 10763 10752 10751 10750 ] final   16.79 input  -60.55 | X-H torsion
[ 11005 11000 10999 10996 ] final   -2.05 input  -57.11 | X-H torsion

> <Gold.Protein.ActiveResidues>
 VAL166  LYS551  ARG553  GLY616  TRP617  ASP618  TYR619  PRO620  LYS621  CYS622 
 ASP623  PHE694  ASN695  SER759  ASP760  ASP761  ALA762  ILE779  LEU786  VAL792 
 PHE793  MET794  SER795  GLU796  ALA797  LYS798  CYS799  TRP800  GLU811  SER814 

> <Gold.Protein.RotatedAtoms>
  152.1401  133.4459  159.4762 H   0  0  0  0  0  0  0  0  0  0  0  0  # atno 6907 bound_to 6896
  150.6885  134.2316  159.4446 H   0  0  0  0  0  0  0  0  0  0  0  0  # atno 6908 bound_to 6896
  152.0206  134.9824  160.0621 H   0  0  0  0  0  0  0  0  0  0  0  0  # atno 6909 bound_to 6896
  144.7210  140.2420  143.6290 H   0  0  0  0  0  0  0  0  0  0  0  0  # atno 7974 bound_to 7965
  154.4296  140.1091  156.5908 H   0  0  0  0  0  0  0  0  0  0  0  0  # atno 8008 bound_to 7997
  155.6013  140.3493  155.4576 H   0  0  0  0  0  0  0  0  0  0  0  0  # atno 8009 bound_to 7997
  156.0171  140.1231  157.0385 H   0  0  0  0  0  0  0  0  0  0  0  0  # atno 8010 bound_to 7997
  140.6041  143.2369  151.5862 H   0  0  0  0  0  0  0  0  0  0  0  0  # atno 10167 bound_to 10162
  156.0352  130.5571  150.7559 H   0  0  0  0  0  0  0  0  0  0  0  0  # atno 10718 bound_to 10713
  153.1399  135.6757  153.9044 H   0  0  0  0  0  0  0  0  0  0  0  0  # atno 10763 bound_to 10752
  153.8504  135.3094  155.3433 H   0  0  0  0  0  0  0  0  0  0  0  0  # atno 10764 bound_to 10752
  154.7778  135.4905  153.9865 H   0  0  0  0  0  0  0  0  0  0  0  0  # atno 10765 bound_to 10752
  140.6540  133.9379  155.8397 H   0  0  0  0  0  0  0  0  0  0  0  0  # atno 11005 bound_to 11000
  145.8310  139.2086  143.1882 LP  0  0  0  0  0  0  0  0  0  0  0  0  # atno 17320 bound_to 7965
  146.0431  140.8145  142.9819 LP  0  0  0  0  0  0  0  0  0  0  0  0  # atno 17321 bound_to 7965
  139.5312  144.2911  152.1151 LP  0  0  0  0  0  0  0  0  0  0  0  0  # atno 17342 bound_to 10162
  140.2097  144.4575  150.6391 LP  0  0  0  0  0  0  0  0  0  0  0  0  # atno 17343 bound_to 10162
  157.5092  131.0924  151.0220 LP  0  0  0  0  0  0  0  0  0  0  0  0  # atno 17370 bound_to 10713
  157.0580  130.5814  149.5381 LP  0  0  0  0  0  0  0  0  0  0  0  0  # atno 17371 bound_to 10713
  141.0515  134.0478  157.3777 LP  0  0  0  0  0  0  0  0  0  0  0  0  # atno 17394 bound_to 11000
  139.9036  135.0172  156.7382 LP  0  0  0  0  0  0  0  0  0  0  0  0  # atno 17395 bound_to 11000

$$$$
