AV-unprocessed.smi:38|AV-procd|sdf|336|dock8
  -GOLD-   2262016173D 1   1.00000     0.00000
 Structure written by MMmdl.
 28 29  0  0  0  0  0  0  0  0  1 V2000
  154.6379  141.7982  161.4928 O   0  0  0  0  0  0  0  0  0  0  0  0
  153.8212  141.3970  160.6661 C   0  0  0  0  0  0  0  0  0  0  0  0
  153.7715  140.0416  160.3275 N   0  0  0  0  0  0  0  0  0  0  0  0
  152.8935  139.4660  159.4070 C   0  0  0  0  0  0  0  0  0  0  0  0
  152.9530  138.2592  159.1760 O   0  0  0  0  0  0  0  0  0  0  0  0
  151.9706  140.3268  158.7718 N   0  0  0  0  0  0  0  0  0  0  0  0
  150.9933  139.7619  157.7664 C   0  0  2  0  0  0  0  0  0  0  0  0
  151.7256  138.9845  156.6717 C   0  0  0  0  0  0  0  0  0  0  0  0
  150.9240  139.3707  155.4463 C   0  0  2  0  0  0  0  0  0  0  0  0
  151.6975  139.2388  154.2712 O   0  0  0  0  0  0  0  0  0  0  0  0
  150.5601  140.8264  155.7489 C   0  0  1  0  0  0  0  0  0  0  0  0
  149.3098  141.3131  155.0011 C   0  0  0  0  0  0  0  0  0  0  0  0
  149.4120  140.9967  153.6296 O   0  0  0  0  0  0  0  0  0  0  0  0
  150.3095  140.8163  157.1543 O   0  0  0  0  0  0  0  0  0  0  0  0
  151.9916  141.6831  159.0689 C   0  0  0  0  0  0  0  0  0  0  0  0
  152.8511  142.2298  159.9611 C   0  0  0  0  0  0  0  0  0  0  0  0
  152.8129  143.5525  160.1951 F   0  0  0  0  0  0  0  0  0  0  0  0
  154.4292  139.4275  160.7853 H   0  0  0  0  0  0  0  0  0  0  0  0
  150.2567  139.1645  158.3056 H   0  0  0  0  0  0  0  0  0  0  0  0
  150.0263  138.7545  155.3778 H   0  0  0  0  0  0  0  0  0  0  0  0
  151.4187  141.4671  155.5390 H   0  0  0  0  0  0  0  0  0  0  0  0
  152.7548  139.3395  156.5918 H   0  0  0  0  0  0  0  0  0  0  0  0
  151.7318  137.9142  156.8797 H   0  0  0  0  0  0  0  0  0  0  0  0
  151.5815  138.3650  153.9299 H   0  0  0  0  0  0  0  0  0  0  0  0
  148.4223  140.8105  155.3867 H   0  0  0  0  0  0  0  0  0  0  0  0
  149.1591  142.3847  155.1352 H   0  0  0  0  0  0  0  0  0  0  0  0
  149.4137  140.0561  153.5374 H   0  0  0  0  0  0  0  0  0  0  0  0
  151.2999  142.3449  158.5704 H   0  0  0  0  0  0  0  0  0  0  0  0
  1  2  2  0  0  0  0
  2 16  1  0  0  0  0
  2  3  1  0  0  0  0
  3 18  1  0  0  0  0
  3  4  1  0  0  0  0
  4  5  2  0  0  0  0
  4  6  1  0  0  0  0
  6  7  1  0  0  0  0
  6 15  1  0  0  0  0
  7 19  1  0  0  0  0
  7 14  1  0  0  0  0
  7  8  1  0  0  0  0
  8  9  1  0  0  0  0
  8 22  1  0  0  0  0
  8 23  1  0  0  0  0
  9 20  1  0  0  0  0
  9 10  1  0  0  0  0
  9 11  1  0  0  0  0
 10 24  1  0  0  0  0
 11 21  1  0  0  0  0
 11 12  1  0  0  0  0
 11 14  1  0  0  0  0
 12 13  1  0  0  0  0
 12 25  1  0  0  0  0
 12 26  1  0  0  0  0
 13 27  1  0  0  0  0
 15 16  2  0  0  0  0
 15 28  1  0  0  0  0
 16 17  1  0  0  0  0
M  END
> <s_m_source_file>
AV-unprocessed.smi

> <i_m_source_file_index>
38

> <i_lp_mmshare_version>
43012

> <i_f3d_flags>
0

> <s_epik_input>
Tz1jMVtuSF1jKD1PKW4oW2NIXWMxRilbQ0BIXTJbQ0gyXVtDQEhdKFtPSF0pW0NASF0oTzIpW0NIMl1bT0hd

> <s_epik_cmdline>
J2VwaWtfcHl0aG9uJywgJy1waCcsICc3LjAnLCAnLXRuJywgJzgnLCAnLW1hJywgJzIwMCcsICctbWV0YWxfYmluZGluZycsICctaW1hZScsICc8aW5maWxlLm1hZT4nLCAnLW9tYWUnLCAnPG91dGZpbGUubWFlPic=

> <r_lp_tautomer_probability>
0.999537

> <r_epik_Ionization_Penalty>
0.0357432

> <r_epik_Ionization_Penalty_Charging>
0.0357431

> <r_epik_Ionization_Penalty_Neutral>
1.19946e-07

> <r_epik_State_Penalty>
0.0298169

> <r_epik_Charging_Adjusted_Penalty>
0.06556

> <i_epik_Tot_Q>
0

> <i_epik_Tot_abs_Q>
0

> <r_epik_Metal_State_Penalty>
2.348

> <b_epik_Metal_Only>
0

> <s_epik_Chemistry_Notes>
This compound contains an acetal/aminal-like group ( X-CH(R)-Y where X, Y are N, S, or O) that may be acid/base labile, releasing an aldehyde.

> <s_lp_Force_Field>
OPLS_2005

> <r_lp_Energy>
26.798

> <b_lp_Chiralities_Consistent>
1

> <s_lp_Variant>
AV-unprocessed.smi:38-2

> <Gold.Version>
5.8.1

> <Gold.Id.Protein>
6NUR|6NUR_protein|mol2

> <Gold.PLP.Fitness>
37.9028

> <Gold.PLP.PLP>
-32.2462

> <Gold.PLP.part.hbond>
-5.0000

> <Gold.PLP.part.metal>
0.0000

> <Gold.PLP.part.buried>
-1.1525

> <Gold.PLP.part.nonpolar>
-25.2820

> <Gold.PLP.part.repulsive>
0.0923

> <Gold.PLP.ligand.clash>
0.0000

> <Gold.PLP.ligand.torsion>
0.1648

> <Gold.PLP.Chemscore.Hbond>
1.9920

> <Gold.PLP.Chemscore.CHOScore>
0.0000

> <Gold.PLP.Chemscore.Metal>
0.0000

> <Gold.Chemscore.Hbonds>
donor molecule, donor type, donor heavy atom, donor atom, acceptor molecule, acceptor atom, score
      P1  H  7989  7998       L1    10  0.99
      P1  H  8011  8017       L1    13  1.00

> <Gold.PLP.Chemscore.Internal.Correction>
0.0102

> <Gold.Rescore>
     Score         DG    S(hbond)    S(metal)    S(lipo)     H(rot)  DE(clash)    DE(int)     intcor
      7.00      -8.53       1.69        0.00      41.56       2.91       0.06       1.46       ----

> <Gold.Chemscore.Fitness>
6.9998

> <Gold.Chemscore.DG>
-8.5264

> <Gold.Chemscore.ZeroCoef>
-5.4800

> <Gold.Chemscore.Hbond>
1.6898

> <Gold.Chemscore.Metal>
0.0000

> <Gold.Chemscore.Lipo>
41.5603

> <Gold.Chemscore.Internal_Hbond>
0.0000

> <Gold.Chemscore.DEClash>
0.0624

> <Gold.Chemscore.DEInternal>
1.4642

> <Gold.Chemscore.Rot>
2.9141

> <Gold.Chemscore.Internal.Correction>
   9.000000E+99

> <Gold.Chemscore.Hbonds>
donor molecule, donor type, donor heavy atom, donor atom, acceptor molecule, acceptor atom, score
      P1  H  7989  7998       L1    10  0.52
      P1  H  8011  8017       L1    13  0.93

> <Gold.Chemscore.Hbond.Weighted>
-5.6439

> <Gold.Chemscore.Metal.Weighted>
-0.0000

> <Gold.Chemscore.Lipo.Weighted>
-4.8626

> <Gold.Chemscore.Internal_Hbond.Weighted>
0.0000

> <Gold.Chemscore.DEClash.Weighted>
0.0624

> <Gold.Chemscore.DEInternal.Weighted>
1.4642

> <Gold.Chemscore.Rot.Weighted>
7.4601

> <Gold.Chemscore.Internal.Correction.Weighted>
   9.000000E+99

> <Gold.Protein.RotatedTorsions>
[ 6907 6896 6895 6894 ] final  -40.97 input  -60.11 | X-H torsion
[ 7974 7965 7964 7962 ] final   52.41 input  175.53 | X-H torsion
[ 8008 7997 7996 7995 ] final -151.19 input   59.86 | X-H torsion
[ 10167 10162 10161 10158 ] final  -85.96 input  -65.29 | X-H torsion
[ 10718 10713 10712 10709 ] final   71.22 input   66.30 | X-H torsion
[ 10763 10752 10751 10750 ] final  -54.95 input  -60.55 | X-H torsion
[ 11005 11000 10999 10996 ] final  -70.96 input  -57.11 | X-H torsion

> <Gold.Protein.ActiveResidues>
 VAL166  LYS551  ARG553  GLY616  TRP617  ASP618  TYR619  PRO620  LYS621  CYS622 
 ASP623  PHE694  ASN695  SER759  ASP760  ASP761  ALA762  ILE779  LEU786  VAL792 
 PHE793  MET794  SER795  GLU796  ALA797  LYS798  CYS799  TRP800  GLU811  SER814 

> <Gold.Protein.RotatedAtoms>
  150.9721  134.9092  159.7794 H   0  0  0  0  0  0  0  0  0  0  0  0  # atno 6907 bound_to 6896
  152.5194  134.3526  159.9266 H   0  0  0  0  0  0  0  0  0  0  0  0  # atno 6908 bound_to 6896
  151.3535  133.3875  159.2717 H   0  0  0  0  0  0  0  0  0  0  0  0  # atno 6909 bound_to 6896
  145.9816  139.4248  143.0129 H   0  0  0  0  0  0  0  0  0  0  0  0  # atno 7974 bound_to 7965
  155.6354  140.0696  157.2635 H   0  0  0  0  0  0  0  0  0  0  0  0  # atno 8008 bound_to 7997
  154.4196  140.1760  156.1566 H   0  0  0  0  0  0  0  0  0  0  0  0  # atno 8009 bound_to 7997
  155.9899  140.3346  155.6746 H   0  0  0  0  0  0  0  0  0  0  0  0  # atno 8010 bound_to 7997
  140.3988  143.2672  151.9170 H   0  0  0  0  0  0  0  0  0  0  0  0  # atno 10167 bound_to 10162
  157.6440  130.9517  150.0759 H   0  0  0  0  0  0  0  0  0  0  0  0  # atno 10718 bound_to 10713
  154.1831  135.6440  153.5039 H   0  0  0  0  0  0  0  0  0  0  0  0  # atno 10763 bound_to 10752
  153.0054  135.5410  154.6494 H   0  0  0  0  0  0  0  0  0  0  0  0  # atno 10764 bound_to 10752
  154.5863  135.2930  155.0654 H   0  0  0  0  0  0  0  0  0  0  0  0  # atno 10765 bound_to 10752
  141.1584  133.6804  156.6832 H   0  0  0  0  0  0  0  0  0  0  0  0  # atno 11005 bound_to 11000
  145.7762  140.9876  143.1123 LP  0  0  0  0  0  0  0  0  0  0  0  0  # atno 17320 bound_to 7965
  144.6863  139.9507  143.7478 LP  0  0  0  0  0  0  0  0  0  0  0  0  # atno 17321 bound_to 7965
  139.4785  144.5655  151.8172 LP  0  0  0  0  0  0  0  0  0  0  0  0  # atno 17342 bound_to 10162
  140.4762  144.1515  150.5925 LP  0  0  0  0  0  0  0  0  0  0  0  0  # atno 17343 bound_to 10162
  156.1749  130.3648  149.9114 LP  0  0  0  0  0  0  0  0  0  0  0  0  # atno 17370 bound_to 10713
  156.7080  130.8959  151.3606 LP  0  0  0  0  0  0  0  0  0  0  0  0  # atno 17371 bound_to 10713
  140.3086  134.8104  157.4158 LP  0  0  0  0  0  0  0  0  0  0  0  0  # atno 17394 bound_to 11000
  140.1198  134.5234  155.8193 LP  0  0  0  0  0  0  0  0  0  0  0  0  # atno 17395 bound_to 11000

$$$$
