AV-unprocessed.smi:196|AV-procd|sdf|1528|dock2
  -GOLD-   2262019373D 1   1.00000     0.00000
 Structure written by MMmdl.
 47 50  0  0  0  0  0  0  0  0  1 V2000
  147.3059  138.2408  156.1187 C   0  0  0  0  0  0  0  0  0  0  0  0
  148.1036  138.8974  154.9812 C   0  0  2  0  0  0  0  0  0  0  0  0
  148.4510  140.2159  155.3946 O   0  0  0  0  0  0  0  0  0  0  0  0
  148.5715  141.0335  154.2447 C   0  0  0  0  0  0  0  0  0  0  0  0
  147.3950  140.5751  153.3973 C   0  0  0  0  0  0  0  0  0  0  0  0
  147.3778  139.0635  153.6157 C   0  0  1  0  0  0  0  0  0  0  0  0
  148.1956  138.4763  152.6174 O   0  0  0  0  0  0  0  0  0  0  0  0
  145.9602  138.4419  153.5089 C   0  0  0  0  0  0  0  0  0  0  0  0
  145.9589  137.0999  152.9473 N   0  0  0  0  0  0  0  0  0  0  0  0
  145.4959  136.7245  151.7071 C   0  0  0  0  0  0  0  0  0  0  0  0
  145.6145  135.4551  151.4306 N   0  0  0  0  0  0  0  0  0  0  0  0
  146.1914  134.9074  152.5713 C   0  0  0  0  0  0  0  0  0  0  0  0
  146.5989  133.5947  152.9497 C   0  0  0  0  0  0  0  0  0  0  0  0
  146.4646  132.5070  152.1441 N   0  0  0  0  0  0  0  0  0  0  0  0
  146.1390  132.6931  150.7350 C   0  0  0  0  0  0  0  0  0  0  0  0
  145.2681  131.4967  150.3520 C   0  0  2  0  0  0  0  0  0  0  0  0
  143.9837  131.8032  150.5428 F   0  0  0  0  0  0  0  0  0  0  0  0
  145.6881  130.4226  151.3504 C   0  0  0  0  0  0  0  0  0  0  0  0
  145.9854  131.2113  152.6365 C   0  0  1  0  0  0  0  0  0  0  0  0
  147.0234  130.4860  153.5076 C   0  0  0  0  0  0  0  0  0  0  0  0
  148.2093  130.2364  152.9480 N   0  0  0  0  0  0  0  0  0  0  0  0
  146.7675  130.1678  154.6680 O   0  0  0  0  0  0  0  0  0  0  0  0
  147.1569  133.4493  154.1812 N   0  0  0  0  0  0  0  0  0  0  0  0
  147.3000  134.5016  154.9912 C   0  0  0  0  0  0  0  0  0  0  0  0
  146.9632  135.7735  154.7729 N   0  0  0  0  0  0  0  0  0  0  0  0
  146.4123  135.9322  153.5357 C   0  0  0  0  0  0  0  0  0  0  0  0
  145.3837  131.1936  149.3110 H   0  0  0  0  0  0  0  0  0  0  0  0
  145.0567  131.3571  153.1915 H   0  0  0  0  0  0  0  0  0  0  0  0
  147.0200  137.2193  155.8682 H   0  0  0  0  0  0  0  0  0  0  0  0
  146.4012  138.8028  156.3509 H   0  0  0  0  0  0  0  0  0  0  0  0
  147.9036  138.1964  157.0293 H   0  0  0  0  0  0  0  0  0  0  0  0
  149.0345  138.3421  154.8507 H   0  0  0  0  0  0  0  0  0  0  0  0
  148.5246  142.0932  154.4959 H   0  0  0  0  0  0  0  0  0  0  0  0
  149.5204  140.8348  153.7441 H   0  0  0  0  0  0  0  0  0  0  0  0
  146.4842  141.0228  153.7965 H   0  0  0  0  0  0  0  0  0  0  0  0
  147.4784  140.8704  152.3503 H   0  0  0  0  0  0  0  0  0  0  0  0
  148.4428  139.1465  151.9986 H   0  0  0  0  0  0  0  0  0  0  0  0
  145.4864  138.4000  154.4902 H   0  0  0  0  0  0  0  0  0  0  0  0
  145.3182  139.0609  152.8817 H   0  0  0  0  0  0  0  0  0  0  0  0
  145.0710  137.4272  151.0053 H   0  0  0  0  0  0  0  0  0  0  0  0
  145.6261  133.6355  150.5359 H   0  0  0  0  0  0  0  0  0  0  0  0
  147.0685  132.6851  150.1645 H   0  0  0  0  0  0  0  0  0  0  0  0
  144.9218  129.6598  151.4925 H   0  0  0  0  0  0  0  0  0  0  0  0
  146.5864  129.9243  150.9809 H   0  0  0  0  0  0  0  0  0  0  0  0
  148.9297  129.7694  153.4792 H   0  0  0  0  0  0  0  0  0  0  0  0
  148.3832  130.5239  151.9958 H   0  0  0  0  0  0  0  0  0  0  0  0
  147.7485  134.2941  155.9514 H   0  0  0  0  0  0  0  0  0  0  0  0
  1  2  1  0  0  0  0
  1 29  1  0  0  0  0
  1 30  1  0  0  0  0
  1 31  1  0  0  0  0
  2  6  1  0  0  0  0
  2  3  1  0  0  0  0
  2 32  1  0  0  0  0
  3  4  1  0  0  0  0
  4  5  1  0  0  0  0
  4 33  1  0  0  0  0
  4 34  1  0  0  0  0
  5  6  1  0  0  0  0
  5 35  1  0  0  0  0
  5 36  1  0  0  0  0
  6  7  1  0  0  0  0
  6  8  1  0  0  0  0
  7 37  1  0  0  0  0
  8  9  1  0  0  0  0
  8 38  1  0  0  0  0
  8 39  1  0  0  0  0
  9 26  1  0  0  0  0
  9 10  1  0  0  0  0
 10 11  2  0  0  0  0
 10 40  1  0  0  0  0
 11 12  1  0  0  0  0
 12 26  2  0  0  0  0
 12 13  1  0  0  0  0
 13 14  1  0  0  0  0
 13 23  2  0  0  0  0
 14 19  1  0  0  0  0
 14 15  1  0  0  0  0
 15 16  1  0  0  0  0
 15 41  1  0  0  0  0
 15 42  1  0  0  0  0
 16 27  1  0  0  0  0
 16 17  1  0  0  0  0
 16 18  1  0  0  0  0
 18 19  1  0  0  0  0
 18 43  1  0  0  0  0
 18 44  1  0  0  0  0
 19 28  1  0  0  0  0
 19 20  1  0  0  0  0
 20 21  1  0  0  0  0
 20 22  2  0  0  0  0
 21 45  1  0  0  0  0
 21 46  1  0  0  0  0
 23 24  1  0  0  0  0
 24 25  2  0  0  0  0
 24 47  1  0  0  0  0
 25 26  1  0  0  0  0
M  END
> <s_m_source_file>
AV-unprocessed.smi

> <i_m_source_file_index>
196

> <i_lp_mmshare_version>
43012

> <i_f3d_flags>
0

> <s_epik_input>
W0NIMl0xW0NIMl1PW0NAQEhdKFtDSDNdKVtDQEBdMShbT0hdKVtDSDJdbihbY0hdbjIpYyhjMjMpbltjSF1uYzNONFtDSDJdW0NASF0oRilbQ0gyXVtDQEhdNEMoPU8pW05IMl0=

> <s_epik_cmdline>
J2VwaWtfcHl0aG9uJywgJy1waCcsICc3LjAnLCAnLXRuJywgJzgnLCAnLW1hJywgJzIwMCcsICctbWV0YWxfYmluZGluZycsICctaW1hZScsICc8aW5maWxlLm1hZT4nLCAnLW9tYWUnLCAnPG91dGZpbGUubWFlPic=

> <r_lp_tautomer_probability>
1

> <r_epik_Ionization_Penalty>
0.000857933

> <r_epik_Ionization_Penalty_Charging>
0

> <r_epik_Ionization_Penalty_Neutral>
0.000857933

> <r_epik_State_Penalty>
0.000462053

> <r_epik_Charging_Adjusted_Penalty>
0.000462053

> <i_epik_Tot_Q>
0

> <i_epik_Tot_abs_Q>
0

> <r_epik_Metal_State_Penalty>
-0

> <b_epik_Metal_Only>
0

> <s_lp_Force_Field>
OPLS_2005

> <r_lp_Energy>
42.3005

> <b_lp_Chiralities_Consistent>
1

> <s_lp_Variant>
AV-unprocessed.smi:196-1

> <Gold.Version>
5.8.1

> <Gold.Id.Protein>
6NUR|6NUR_protein|mol2

> <Gold.PLP.Fitness>
40.2995

> <Gold.PLP.PLP>
-33.3936

> <Gold.PLP.part.hbond>
-2.8458

> <Gold.PLP.part.metal>
0.0000

> <Gold.PLP.part.buried>
-3.0198

> <Gold.PLP.part.nonpolar>
-28.5366

> <Gold.PLP.part.repulsive>
0.5092

> <Gold.PLP.ligand.clash>
0.0000

> <Gold.PLP.ligand.torsion>
1.1836

> <Gold.PLP.Chemscore.Hbond>
2.0000

> <Gold.PLP.Chemscore.CHOScore>
1.0000

> <Gold.PLP.Chemscore.Metal>
0.0000

> <Gold.Chemscore.Hbonds>
donor molecule, donor type, donor heavy atom, donor atom, acceptor molecule, acceptor atom, score
      L1  H     7    37       P1  7957  1.00
      L1  H    21    46       P1 10747  1.00
      L1  C    10    40       P1 10171  1.00

> <Gold.PLP.Chemscore.Internal.Correction>
0.2731

> <Gold.Rescore>
     Score         DG    S(hbond)    S(metal)    S(lipo)     H(rot)  DE(clash)    DE(int)     intcor
      9.30     -13.22       1.95        0.00      67.40       2.60       0.46       3.45       ----

> <Gold.Chemscore.Fitness>
9.3032

> <Gold.Chemscore.DG>
-13.2172

> <Gold.Chemscore.ZeroCoef>
-5.4800

> <Gold.Chemscore.Hbond>
1.9458

> <Gold.Chemscore.Metal>
0.0000

> <Gold.Chemscore.Lipo>
67.4017

> <Gold.Chemscore.Internal_Hbond>
0.0000

> <Gold.Chemscore.DEClash>
0.4616

> <Gold.Chemscore.DEInternal>
3.4523

> <Gold.Chemscore.Rot>
2.5968

> <Gold.Chemscore.Internal.Correction>
   9.000000E+99

> <Gold.Chemscore.Hbonds>
donor molecule, donor type, donor heavy atom, donor atom, acceptor molecule, acceptor atom, score
      L1  H     7    37       P1  7957  0.95
      L1  H    21    46       P1 10747  0.93

> <Gold.Chemscore.Hbond.Weighted>
-6.4989

> <Gold.Chemscore.Metal.Weighted>
-0.0000

> <Gold.Chemscore.Lipo.Weighted>
-7.8860

> <Gold.Chemscore.Internal_Hbond.Weighted>
0.0000

> <Gold.Chemscore.DEClash.Weighted>
0.4616

> <Gold.Chemscore.DEInternal.Weighted>
3.4523

> <Gold.Chemscore.Rot.Weighted>
6.6477

> <Gold.Chemscore.Internal.Correction.Weighted>
   9.000000E+99

> <Gold.Protein.RotatedTorsions>
[ 6907 6896 6895 6894 ] final  -14.51 input  -60.11 | X-H torsion
[ 7974 7965 7964 7962 ] final   96.17 input  175.53 | X-H torsion
[ 8008 7997 7996 7995 ] final -170.90 input   59.86 | X-H torsion
[ 10167 10162 10161 10158 ] final  111.78 input  -65.29 | X-H torsion
[ 10718 10713 10712 10709 ] final   14.63 input   66.30 | X-H torsion
[ 10763 10752 10751 10750 ] final   -8.45 input  -60.55 | X-H torsion
[ 11005 11000 10999 10996 ] final   31.43 input  -57.11 | X-H torsion

> <Gold.Protein.ActiveResidues>
 VAL166  LYS551  ARG553  GLY616  TRP617  ASP618  TYR619  PRO620  LYS621  CYS622 
 ASP623  PHE694  ASN695  SER759  ASP760  ASP761  ALA762  ILE779  LEU786  VAL792 
 PHE793  MET794  SER795  GLU796  ALA797  LYS798  CYS799  TRP800  GLU811  SER814 

> <Gold.Protein.RotatedAtoms>
  151.3383  135.0857  159.9361 H   0  0  0  0  0  0  0  0  0  0  0  0  # atno 6907 bound_to 6896
  152.5218  133.9473  159.7665 H   0  0  0  0  0  0  0  0  0  0  0  0  # atno 6908 bound_to 6896
  150.9825  133.6178  159.2750 H   0  0  0  0  0  0  0  0  0  0  0  0  # atno 6909 bound_to 6896
  145.4424  139.2300  143.3084 H   0  0  0  0  0  0  0  0  0  0  0  0  # atno 7974 bound_to 7965
  155.9245  140.1080  157.1181 H   0  0  0  0  0  0  0  0  0  0  0  0  # atno 8008 bound_to 7997
  154.4060  140.1249  156.4788 H   0  0  0  0  0  0  0  0  0  0  0  0  # atno 8009 bound_to 7997
  155.7155  140.3470  155.4995 H   0  0  0  0  0  0  0  0  0  0  0  0  # atno 8010 bound_to 7997
  139.6585  144.7129  151.1911 H   0  0  0  0  0  0  0  0  0  0  0  0  # atno 10167 bound_to 10162
  157.0419  130.6234  149.5752 H   0  0  0  0  0  0  0  0  0  0  0  0  # atno 10718 bound_to 10713
  153.4406  135.7013  153.6171 H   0  0  0  0  0  0  0  0  0  0  0  0  # atno 10763 bound_to 10752
  153.4548  135.3750  155.2305 H   0  0  0  0  0  0  0  0  0  0  0  0  # atno 10764 bound_to 10752
  154.8727  135.4005  154.3804 H   0  0  0  0  0  0  0  0  0  0  0  0  # atno 10765 bound_to 10752
  140.2840  134.2941  155.7793 H   0  0  0  0  0  0  0  0  0  0  0  0  # atno 11005 bound_to 11000
  146.2549  140.5174  142.8878 LP  0  0  0  0  0  0  0  0  0  0  0  0  # atno 17320 bound_to 7965
  144.8113  140.6390  143.6413 LP  0  0  0  0  0  0  0  0  0  0  0  0  # atno 17321 bound_to 7965
  140.7570  143.6033  150.8678 LP  0  0  0  0  0  0  0  0  0  0  0  0  # atno 17342 bound_to 10162
  139.9688  143.6080  152.2980 LP  0  0  0  0  0  0  0  0  0  0  0  0  # atno 17343 bound_to 10162
  156.0035  130.5118  150.7749 LP  0  0  0  0  0  0  0  0  0  0  0  0  # atno 17370 bound_to 10713
  157.5098  131.0924  151.0212 LP  0  0  0  0  0  0  0  0  0  0  0  0  # atno 17371 bound_to 10713
  141.2158  133.7543  156.9523 LP  0  0  0  0  0  0  0  0  0  0  0  0  # atno 17394 bound_to 11000
  140.1257  134.9388  157.2267 LP  0  0  0  0  0  0  0  0  0  0  0  0  # atno 17395 bound_to 11000

$$$$
