#       Name:                AV-unprocessed.smi:2623
#       Creating user name   scv26
#       Creation time:       Fri Mar 27 14:23:52 2020


#       File generated by GOLD software.
#

@<TRIPOS>MOLECULE
AV-unprocessed.smi:2623
    47    49     1
SMALL
NO_CHARGES


@<TRIPOS>ATOM
      1 ****        -2.3072   1.1910   2.8259 O.3            1 S1                 0.0000
      2 ****        -1.1671   1.8872   2.3747 C.3            1 S1                 0.0000
      3 ****        -1.3145   2.3629   0.9674 C.2            1 S1                 0.0000
      4 ****        -1.7795   3.5843   0.5818 N.pl3          1 S1                 1.0000
      5 ****        -1.7903   3.6678  -0.8111 C.ar           1 S1                 0.0000
      6 ****        -2.1764   4.7022  -1.6582 C.ar           1 S1                 0.0000
      7 ****        -2.0619   4.4619  -3.0431 C.ar           1 S1                 0.0000
      8 ****        -1.5784   3.2331  -3.5375 C.ar           1 S1                 0.0000
      9 ****        -1.1900   2.1919  -2.6689 C.ar           1 S1                 0.0000
     10 ****        -1.3078   2.4362  -1.3004 C.ar           1 S1                 0.0000
     11 ****        -1.0269   1.6628  -0.1673 N.pl3          1 S1                 0.0000
     12 ****        -0.5078   0.2945  -0.3237 C.3            1 S1                 0.0000
     13 ****         1.0291   0.2228  -0.2242 C.3            1 S1                 0.0000
     14 ****         1.6175   0.9915  -1.2539 O.3            1 S1                 0.0000
     15 ****         1.5565  -1.2159  -0.3229 C.3            1 S1                 0.0000
     16 ****         1.1491  -1.9331   0.8349 O.3            1 S1                 0.0000
     17 ****         1.5126  -3.2580   0.9441 C.ar           1 S1                 0.0000
     18 ****         1.0750  -3.9484   2.0936 C.ar           1 S1                 0.0000
     19 ****         1.3992  -5.3049   2.2870 C.ar           1 S1                 0.0000
     20 ****         2.1692  -5.9877   1.3275 C.ar           1 S1                 0.0000
     21 ****         2.6137  -5.3110   0.1766 C.ar           1 S1                 0.0000
     22 ****         2.2890  -3.9541  -0.0172 C.ar           1 S1                 0.0000
     23 ****        -2.1488   0.8944   3.7093 H              1 S1                 0.0000
     24 ****        -0.9881   2.7404   3.0292 H              1 S1                 0.0000
     25 ****        -0.2969   1.2355   2.4530 H              1 S1                 0.0000
     26 ****        -2.5462   5.6448  -1.2819 H              1 S1                 0.0000
     27 ****        -2.3498   5.2355  -3.7403 H              1 S1                 0.0000
     28 ****        -1.5032   3.0857  -4.6053 H              1 S1                 0.0000
     29 ****        -0.8172   1.2570  -3.0603 H              1 S1                 0.0000
     30 ****        -0.9608  -0.3105   0.4626 H              1 S1                 0.0000
     31 ****        -0.8649  -0.1242  -1.2647 H              1 S1                 0.0000
     32 ****         1.3555   0.6505   0.7244 H              1 S1                 0.0000
     33 ****         1.3511   1.8913  -1.1439 H              1 S1                 0.0000
     34 ****         1.1788  -1.6936  -1.2288 H              1 S1                 0.0000
     35 ****         2.6468  -1.2034  -0.3748 H              1 S1                 0.0000
     36 ****         0.4835  -3.4326   2.8358 H              1 S1                 0.0000
     37 ****         1.0569  -5.8211   3.1718 H              1 S1                 0.0000
     38 ****         2.4185  -7.0285   1.4740 H              1 S1                 0.0000
     39 ****         3.2057  -5.8336  -0.5602 H              1 S1                 0.0000
     40 ****         2.6492  -3.4698  -0.9122 H              1 S1                 0.0000
     41 ****        -2.0730   4.3047   1.2291 H              1 S1                 0.0000
     42 ****        -2.4790   0.4049   2.2321 LP             1 S1                 0.0000
     43 ****        -3.1009   1.7991   2.8117 LP             1 S1                 0.0000
     44 ****         1.3106   0.6549  -2.1442 LP             1 S1                 0.0000
     45 ****         2.6137   0.9250  -1.1978 LP             1 S1                 0.0000
     46 ****         0.1504  -1.8962   0.8699 LP             1 S1                 0.0000
     47 ****         1.5283  -1.4557   1.6275 LP             1 S1                 0.0000
@<TRIPOS>BOND
    1    1    2 1     
    2    1   23 1     
    3    2    3 1     
    4    2   24 1     
    5    2   25 1     
    6    3   11 1     
    7    3    4 2     
    8    4    5 1     
    9    4   41 1     
   10    5   10 ar    
   11    5    6 ar    
   12    6    7 ar    
   13    6   26 1     
   14    7    8 ar    
   15    7   27 1     
   16    8    9 ar    
   17    8   28 1     
   18    9   10 ar    
   19    9   29 1     
   20   10   11 1     
   21   11   12 1     
   22   12   13 1     
   23   12   30 1     
   24   12   31 1     
   25   13   14 1     
   26   13   15 1     
   27   13   32 1     
   28   14   33 1     
   29   15   16 1     
   30   15   34 1     
   31   15   35 1     
   32   16   17 1     
   33   17   22 ar    
   34   17   18 ar    
   35   18   19 ar    
   36   18   36 1     
   37   19   20 ar    
   38   19   37 1     
   39   20   21 ar    
   40   20   38 1     
   41   21   22 ar    
   42   21   39 1     
   43   22   40 1     
   44    1   42 1     
   45    1   43 1     
   46   14   44 1     
   47   14   45 1     
   48   16   46 1     
   49   16   47 1     
@<TRIPOS>SUBSTRUCTURE
      1 S1             1
@<TRIPOS>SET
LONE_PAIRS      STATIC     ATOMS    <user>   **** ""
6 42 43 44 45 46 47
DONOR_HYDROGENS      STATIC     ATOMS    <user>   **** ""
3 23 41 33
ATOM$BLUE        STATIC     ATOMS    COLORGROUP SYSTEM
6 42 43 44 45 46 47
ATOM$RED        STATIC     ATOMS    COLORGROUP SYSTEM
3 23 41 33
