#       Name:                AV-unprocessed.smi:1058
#       Creating user name   scv26
#       Creation time:       Fri Mar 27 03:16:12 2020


#       File generated by GOLD software.
#

@<TRIPOS>MOLECULE
AV-unprocessed.smi:1058
    45    46     1
SMALL
NO_CHARGES


@<TRIPOS>ATOM
      1 ****        -1.4882  -1.8789  -1.1572 C.3            1 S1                 0.0000
      2 ****        -0.8773  -0.9296  -0.1035 C.3            1 S1                 0.0000
      3 ****         0.5847  -0.8187  -0.2007 N.am           1 S1                 0.0000
      4 ****         1.3451  -0.6497  -1.2965 C.2            1 S1                 0.0000
      5 ****         0.8960  -0.5259  -2.4357 O.2            1 S1                 0.0000
      6 ****         2.6500  -0.6202  -0.9730 N.am           1 S1                 0.0000
      7 ****         3.7664  -0.4581  -1.8361 C.ar           1 S1                 0.0000
      8 ****         5.0241  -0.4459  -1.1913 C.ar           1 S1                 0.0000
      9 ****         6.1948  -0.2908  -1.9588 C.ar           1 S1                 0.0000
     10 ****         6.0778  -0.1521  -3.3531 C.ar           1 S1                 0.0000
     11 ****         4.7883  -0.1754  -3.9158 C.ar           1 S1                 0.0000
     12 ****         3.6650  -0.3242  -3.1823 N.ar           1 S1                 0.0000
     13 ****        -1.5738   0.4466  -0.0157 C.2            1 S1                 0.0000
     14 ****        -1.0704   1.3946  -0.6210 O.2            1 S1                 0.0000
     15 ****        -2.7114   0.5913   0.7118 N.am           1 S1                 0.0000
     16 ****        -3.3467   1.9020   0.9046 C.3            1 S1                 0.0000
     17 ****        -2.9154   2.4719   2.2660 C.3            1 S1                 0.0000
     18 ****        -3.4673   1.3491   3.6261 S.o2           1 S1                 0.0000
     19 ****        -2.7118   1.6634   4.8479 O.2            1 S1                 0.0000
     20 ****        -4.9380   1.3563   3.6437 O.2            1 S1                 0.0000
     21 ****        -2.9211  -0.2951   2.9833 C.3            1 S1                 0.0000
     22 ****        -3.3567  -0.4534   1.5180 C.3            1 S1                 0.0000
     23 ****        -2.5337  -2.0962  -0.9408 H              1 S1                 0.0000
     24 ****        -0.9589  -2.8318  -1.1826 H              1 S1                 0.0000
     25 ****        -1.4604  -1.4522  -2.1597 H              1 S1                 0.0000
     26 ****        -0.9912  -1.4159   0.8639 H              1 S1                 0.0000
     27 ****         1.0772  -0.8899   0.6774 H              1 S1                 0.0000
     28 ****         2.8717  -0.7228   0.0061 H              1 S1                 0.0000
     29 ****         5.0960  -0.5535  -0.1187 H              1 S1                 0.0000
     30 ****         7.1653  -0.2783  -1.4852 H              1 S1                 0.0000
     31 ****         6.9524  -0.0308  -3.9747 H              1 S1                 0.0000
     32 ****         4.6546  -0.0717  -4.9823 H              1 S1                 0.0000
     33 ****        -3.0927   2.6053   0.1105 H              1 S1                 0.0000
     34 ****        -4.4326   1.8077   0.8643 H              1 S1                 0.0000
     35 ****        -1.8312   2.5750   2.3204 H              1 S1                 0.0000
     36 ****        -3.3504   3.4564   2.4371 H              1 S1                 0.0000
     37 ****        -1.8372  -0.3620   3.0812 H              1 S1                 0.0000
     38 ****        -3.3603  -1.0700   3.6116 H              1 S1                 0.0000
     39 ****        -4.4414  -0.3657   1.4433 H              1 S1                 0.0000
     40 ****        -3.1402  -1.4598   1.1664 H              1 S1                 0.0000
     41 ****        -0.0920  -0.5481  -2.5888 LP             1 S1                 0.0000
     42 ****         1.5190  -0.4031  -3.2081 LP             1 S1                 0.0000
     43 ****         2.7688  -0.3356  -3.6258 LP             1 S1                 0.0000
     44 ****        -0.2329   1.2614  -1.1509 LP             1 S1                 0.0000
     45 ****        -1.4994   2.2971  -0.5822 LP             1 S1                 0.0000
@<TRIPOS>BOND
    1    1    2 1     
    2    1   23 1     
    3    1   24 1     
    4    1   25 1     
    5    2    3 1     
    6    2   13 1     
    7    2   26 1     
    8    3    4 am    
    9    3   27 1     
   10    4    5 2     
   11    4    6 am    
   12    6    7 1     
   13    6   28 1     
   14    7   12 ar    
   15    7    8 ar    
   16    8    9 ar    
   17    8   29 1     
   18    9   10 ar    
   19    9   30 1     
   20   10   11 ar    
   21   10   31 1     
   22   11   12 ar    
   23   11   32 1     
   24   13   14 2     
   25   13   15 am    
   26   15   22 1     
   27   15   16 1     
   28   16   17 1     
   29   16   33 1     
   30   16   34 1     
   31   17   18 1     
   32   17   35 1     
   33   17   36 1     
   34   18   19 2     
   35   18   20 2     
   36   18   21 1     
   37   21   22 1     
   38   21   37 1     
   39   21   38 1     
   40   22   39 1     
   41   22   40 1     
   42    5   41 1     
   43    5   42 1     
   44   12   43 1     
   45   14   44 1     
   46   14   45 1     
@<TRIPOS>SUBSTRUCTURE
      1 S1             1
@<TRIPOS>SET
LONE_PAIRS      STATIC     ATOMS    <user>   **** ""
7 41 42 43 44 45 19 20
DONOR_HYDROGENS      STATIC     ATOMS    <user>   **** ""
2 27 28
ATOM$BLUE        STATIC     ATOMS    COLORGROUP SYSTEM
7 41 42 43 44 45 19 20
ATOM$RED        STATIC     ATOMS    COLORGROUP SYSTEM
2 27 28
