AV-unprocessed.smi:1810|AV-procd|sdf|7334|dock3
  -GOLD-   22720 8593D 1   1.00000     0.00000
 Structure written by MMmdl.
 39 40  0  0  0  0  0  0  0  0  2 V2000
  152.4960  143.9516  161.8995 C   0  0  0  0  0  0  0  0  0  0  0  0
  152.7214  142.8207  160.9323 C   0  0  0  0  0  0  0  0  0  0  0  0
  153.5756  141.9166  161.2840 N   0  0  0  0  0  0  0  0  0  0  0  0
  153.8542  140.8355  160.4711 N   0  0  0  0  0  0  0  0  0  0  0  0
  154.8561  139.9162  161.0213 C   0  0  0  0  0  0  0  0  0  0  0  0
  154.3211  138.4783  161.0978 C   0  0  0  0  0  0  0  0  0  0  0  0
  154.2303  138.0996  162.4642 O   0  0  0  0  0  0  0  0  0  0  0  0
  154.2557  136.7557  162.7716 C   0  0  0  0  0  0  0  0  0  0  0  0
  154.5778  135.7316  161.8439 C   0  0  0  0  0  0  0  0  0  0  0  0
  154.5781  134.3807  162.2427 C   0  0  0  0  0  0  0  0  0  0  0  0
  154.2569  134.0419  163.5717 C   0  0  0  0  0  0  0  0  0  0  0  0
  154.2625  132.3217  164.0769 S   0  0  0  0  0  0  0  0  0  0  0  0
  155.7593  132.2886  164.6799 N   0  5  0  0  0  0  0  0  0  0  0  0
  153.2274  132.1827  165.1131 O   0  0  0  0  0  0  0  0  0  0  0  0
  154.1244  131.5242  162.8480 O   0  0  0  0  0  0  0  0  0  0  0  0
  153.9365  135.0488  164.5033 C   0  0  0  0  0  0  0  0  0  0  0  0
  153.9373  136.3975  164.0986 C   0  0  0  0  0  0  0  0  0  0  0  0
  153.2831  140.6111  159.2535 C   0  0  0  0  0  0  0  0  0  0  0  0
  153.5645  139.6333  158.5591 O   0  0  0  0  0  0  0  0  0  0  0  0
  152.3172  141.6396  158.8603 C   0  0  0  0  0  0  0  0  0  0  0  0
  151.6949  141.4431  157.5909 C   0  0  0  0  0  0  0  0  0  0  0  0
  151.1818  141.2659  156.5683 N   0  0  0  0  0  0  0  0  0  0  0  0
  152.0347  142.7064  159.6496 C   0  0  0  0  0  0  0  0  0  0  0  0
  151.0401  143.8011  159.2878 C   0  0  0  0  0  0  0  0  0  0  0  0
  151.4452  144.0158  162.1826 H   0  0  0  0  0  0  0  0  0  0  0  0
  152.7857  144.9039  161.4548 H   0  0  0  0  0  0  0  0  0  0  0  0
  153.0752  143.8254  162.8156 H   0  0  0  0  0  0  0  0  0  0  0  0
  155.7557  139.9341  160.4034 H   0  0  0  0  0  0  0  0  0  0  0  0
  155.1775  140.2499  162.0097 H   0  0  0  0  0  0  0  0  0  0  0  0
  153.3388  138.4188  160.6265 H   0  0  0  0  0  0  0  0  0  0  0  0
  154.9967  137.8060  160.5663 H   0  0  0  0  0  0  0  0  0  0  0  0
  154.8273  135.9552  160.8180 H   0  0  0  0  0  0  0  0  0  0  0  0
  154.8212  133.6095  161.5268 H   0  0  0  0  0  0  0  0  0  0  0  0
  155.7062  132.5340  165.6757 H   0  0  0  0  0  0  0  0  0  0  0  0
  153.6872  134.7937  165.5225 H   0  0  0  0  0  0  0  0  0  0  0  0
  153.6897  137.1665  164.8155 H   0  0  0  0  0  0  0  0  0  0  0  0
  150.6062  143.6547  158.2990 H   0  0  0  0  0  0  0  0  0  0  0  0
  151.5260  144.7774  159.2892 H   0  0  0  0  0  0  0  0  0  0  0  0
  150.2197  143.8234  160.0061 H   0  0  0  0  0  0  0  0  0  0  0  0
  1  2  1  0  0  0  0
  1 25  1  0  0  0  0
  1 26  1  0  0  0  0
  1 27  1  0  0  0  0
  2 23  1  0  0  0  0
  2  3  2  0  0  0  0
  3  4  1  0  0  0  0
  4  5  1  0  0  0  0
  4 18  1  0  0  0  0
  5  6  1  0  0  0  0
  5 28  1  0  0  0  0
  5 29  1  0  0  0  0
  6  7  1  0  0  0  0
  6 30  1  0  0  0  0
  6 31  1  0  0  0  0
  7  8  1  0  0  0  0
  8 17  1  0  0  0  0
  8  9  2  0  0  0  0
  9 10  1  0  0  0  0
  9 32  1  0  0  0  0
 10 11  2  0  0  0  0
 10 33  1  0  0  0  0
 11 12  1  0  0  0  0
 11 16  1  0  0  0  0
 12 13  1  0  0  0  0
 12 14  2  0  0  0  0
 12 15  2  0  0  0  0
 13 34  1  0  0  0  0
 16 17  2  0  0  0  0
 16 35  1  0  0  0  0
 17 36  1  0  0  0  0
 18 19  2  0  0  0  0
 18 20  1  0  0  0  0
 20 21  1  0  0  0  0
 20 23  2  0  0  0  0
 21 22  3  0  0  0  0
 23 24  1  0  0  0  0
 24 37  1  0  0  0  0
 24 38  1  0  0  0  0
 24 39  1  0  0  0  0
M  CHG  1  13  -1
M  END
> <s_m_source_file>
AV-unprocessed.smi

> <i_m_source_file_index>
1810

> <i_lp_mmshare_version>
43012

> <i_f3d_flags>
0

> <s_epik_input>
TiNDYyhjMVtDSDNdKWMoPU8pbihuYzFbQ0gzXSlbQ0gyXVtDSDJdT2MyW2NIXVtjSF1jKFMoPU8pKD1PKVtOSDJdKVtjSF1bY0hdMg==

> <s_epik_cmdline>
J2VwaWtfcHl0aG9uJywgJy1waCcsICc3LjAnLCAnLXRuJywgJzgnLCAnLW1hJywgJzIwMCcsICctbWV0YWxfYmluZGluZycsICctaW1hZScsICc8aW5maWxlLm1hZT4nLCAnLW9tYWUnLCAnPG91dGZpbGUubWFlPic=

> <r_lp_tautomer_probability>
1

> <r_epik_Ionization_Penalty>
4.40921

> <r_epik_Ionization_Penalty_Charging>
4.40921

> <r_epik_Ionization_Penalty_Neutral>
1.83918e-13

> <r_epik_State_Penalty>
4.40908

> <r_epik_Charging_Adjusted_Penalty>
8.81829

> <i_epik_Tot_Q>
-1

> <i_epik_Tot_abs_Q>
1

> <r_epik_Metal_State_Penalty>
0.775711

> <b_epik_Metal_Only>
1

> <s_lp_Force_Field>
OPLS_2005

> <r_lp_Energy>
29.6197

> <b_lp_Chiralities_Consistent>
1

> <s_lp_Variant>
AV-unprocessed.smi:1810-2

> <Gold.Version>
5.8.1

> <Gold.Id.Protein>
6NUR|6NUR_protein|mol2

> <Gold.PLP.Fitness>
47.7332

> <Gold.PLP.PLP>
-45.9080

> <Gold.PLP.part.hbond>
-1.0000

> <Gold.PLP.part.metal>
0.0000

> <Gold.PLP.part.buried>
-6.2954

> <Gold.PLP.part.nonpolar>
-38.2750

> <Gold.PLP.part.repulsive>
0.1182

> <Gold.PLP.ligand.clash>
0.0000

> <Gold.PLP.ligand.torsion>
1.6619

> <Gold.PLP.Chemscore.Hbond>
1.0000

> <Gold.PLP.Chemscore.CHOScore>
0.0000

> <Gold.PLP.Chemscore.Metal>
0.0000

> <Gold.Chemscore.Hbonds>
donor molecule, donor type, donor heavy atom, donor atom, acceptor molecule, acceptor atom, score
      P1  H  7997  8009       L1    19  1.00

> <Gold.PLP.Chemscore.Internal.Correction>
2.1489

> <Gold.Rescore>
     Score         DG    S(hbond)    S(metal)    S(lipo)     H(rot)  DE(clash)    DE(int)     intcor
     14.09     -16.91       0.97        0.00     112.34       1.94       0.03       2.79       ----

> <Gold.Chemscore.Fitness>
14.0884

> <Gold.Chemscore.DG>
-16.9086

> <Gold.Chemscore.ZeroCoef>
-5.4800

> <Gold.Chemscore.Hbond>
0.9721

> <Gold.Chemscore.Metal>
0.0000

> <Gold.Chemscore.Lipo>
112.3416

> <Gold.Chemscore.Internal_Hbond>
0.0000

> <Gold.Chemscore.DEClash>
0.0258

> <Gold.Chemscore.DEInternal>
2.7944

> <Gold.Chemscore.Rot>
1.9384

> <Gold.Chemscore.Internal.Correction>
   9.000000E+99

> <Gold.Chemscore.Hbonds>
donor molecule, donor type, donor heavy atom, donor atom, acceptor molecule, acceptor atom, score
      P1  H  7997  8009       L1    19  0.85

> <Gold.Chemscore.Hbond.Weighted>
-3.2469

> <Gold.Chemscore.Metal.Weighted>
-0.0000

> <Gold.Chemscore.Lipo.Weighted>
-13.1440

> <Gold.Chemscore.Internal_Hbond.Weighted>
0.0000

> <Gold.Chemscore.DEClash.Weighted>
0.0258

> <Gold.Chemscore.DEInternal.Weighted>
2.7944

> <Gold.Chemscore.Rot.Weighted>
4.9622

> <Gold.Chemscore.Internal.Correction.Weighted>
   9.000000E+99

> <Gold.Protein.RotatedTorsions>
[ 6907 6896 6895 6894 ] final   18.07 input  -60.11 | X-H torsion
[ 7974 7965 7964 7962 ] final  158.83 input  175.53 | X-H torsion
[ 8008 7997 7996 7995 ] final  136.76 input   59.86 | X-H torsion
[ 10167 10162 10161 10158 ] final   32.33 input  -65.29 | X-H torsion
[ 10718 10713 10712 10709 ] final  -33.27 input   66.30 | X-H torsion
[ 10763 10752 10751 10750 ] final -177.06 input  -60.55 | X-H torsion
[ 11005 11000 10999 10996 ] final   60.75 input  -57.11 | X-H torsion

> <Gold.Protein.ActiveResidues>
 VAL166  LYS551  ARG553  GLY616  TRP617  ASP618  TYR619  PRO620  LYS621  CYS622 
 ASP623  PHE694  ASN695  SER759  ASP760  ASP761  ALA762  ILE779  LEU786  VAL792 
 PHE793  MET794  SER795  GLU796  ALA797  LYS798  CYS799  TRP800  GLU811  SER814 

> <Gold.Protein.RotatedAtoms>
  151.8595  135.0529  160.0467 H   0  0  0  0  0  0  0  0  0  0  0  0  # atno 6907 bound_to 6896
  152.2674  133.5347  159.5427 H   0  0  0  0  0  0  0  0  0  0  0  0  # atno 6908 bound_to 6896
  150.7139  134.0661  159.3890 H   0  0  0  0  0  0  0  0  0  0  0  0  # atno 6909 bound_to 6896
  144.7823  139.7533  143.6254 H   0  0  0  0  0  0  0  0  0  0  0  0  # atno 7974 bound_to 7965
  156.3003  140.2437  156.3799 H   0  0  0  0  0  0  0  0  0  0  0  0  # atno 8008 bound_to 7997
  154.8711  140.0416  157.1744 H   0  0  0  0  0  0  0  0  0  0  0  0  # atno 8009 bound_to 7997
  154.8795  140.2947  155.5437 H   0  0  0  0  0  0  0  0  0  0  0  0  # atno 8010 bound_to 7997
  140.4508  144.1051  150.6191 H   0  0  0  0  0  0  0  0  0  0  0  0  # atno 10167 bound_to 10162
  156.3646  130.4329  149.7595 H   0  0  0  0  0  0  0  0  0  0  0  0  # atno 10718 bound_to 10713
  154.5648  135.2823  155.0885 H   0  0  0  0  0  0  0  0  0  0  0  0  # atno 10763 bound_to 10752
  154.2280  135.6379  153.5169 H   0  0  0  0  0  0  0  0  0  0  0  0  # atno 10764 bound_to 10752
  153.0039  135.5530  154.6253 H   0  0  0  0  0  0  0  0  0  0  0  0  # atno 10765 bound_to 10752
  140.0210  134.6153  155.9640 H   0  0  0  0  0  0  0  0  0  0  0  0  # atno 11005 bound_to 11000
  146.2038  139.5349  142.9726 LP  0  0  0  0  0  0  0  0  0  0  0  0  # atno 17320 bound_to 7965
  145.6015  141.0354  143.2015 LP  0  0  0  0  0  0  0  0  0  0  0  0  # atno 17321 bound_to 7965
  140.4209  143.2612  151.9716 LP  0  0  0  0  0  0  0  0  0  0  0  0  # atno 17342 bound_to 10162
  139.4796  144.5831  151.7898 LP  0  0  0  0  0  0  0  0  0  0  0  0  # atno 17343 bound_to 10162
  156.4745  130.8012  151.3029 LP  0  0  0  0  0  0  0  0  0  0  0  0  # atno 17370 bound_to 10713
  157.7477  131.0025  150.3003 LP  0  0  0  0  0  0  0  0  0  0  0  0  # atno 17371 bound_to 10713
  141.1773  133.6542  156.4880 LP  0  0  0  0  0  0  0  0  0  0  0  0  # atno 17394 bound_to 11000
  140.4388  134.7035  157.4981 LP  0  0  0  0  0  0  0  0  0  0  0  0  # atno 17395 bound_to 11000

$$$$
