AV-unprocessed.smi:1738|AV-procd|sdf|7003|dock4
  -GOLD-   22720 8213D 1   1.00000     0.00000
 Structure written by MMmdl.
 46 48  0  0  0  0  0  0  0  0  2 V2000
  151.3011  141.1784  156.9552 C   0  0  0  0  0  0  0  0  0  0  0  0
  151.5272  139.6436  155.9679 S   0  0  0  0  0  0  0  0  0  0  0  0
  152.5976  139.8784  154.9863 O   0  0  0  0  0  0  0  0  0  0  0  0
  151.6366  138.5152  156.9060 O   0  0  0  0  0  0  0  0  0  0  0  0
  149.9849  139.4849  155.0752 C   0  0  0  0  0  0  0  0  0  0  0  0
  149.2787  140.6330  154.6640 C   0  0  0  0  0  0  0  0  0  0  0  0
  148.0966  140.4542  153.9205 C   0  0  0  0  0  0  0  0  0  0  0  0
  147.6793  139.1382  153.6030 C   0  0  0  0  0  0  0  0  0  0  0  0
  146.4971  138.8289  152.8777 N   0  0  0  0  0  0  0  0  0  0  0  0
  145.7458  137.7166  152.9432 C   0  0  0  0  0  0  0  0  0  0  0  0
  145.9433  136.7665  153.7000 O   0  0  0  0  0  0  0  0  0  0  0  0
  144.7144  137.7726  152.0884 N   0  0  0  0  0  0  0  0  0  0  0  0
  143.7164  136.7182  151.9271 C   0  0  2  0  0  0  0  0  0  0  0  0
  143.2363  136.1260  153.2458 C   0  0  0  0  0  0  0  0  0  0  0  0
  142.6015  134.7993  152.8149 C   0  0  0  0  0  0  0  0  0  0  0  0
  143.2742  134.3888  151.5573 N   0  3  2  0  0  0  0  0  0  0  0  0
  143.8720  133.0274  151.6066 C   0  0  0  0  0  0  0  0  0  0  0  0
  144.8813  132.8280  150.4662 C   0  0  0  0  0  0  0  0  0  0  0  0
  146.0573  133.8171  150.5748 C   0  0  0  0  0  0  0  0  0  0  0  0
  145.6851  135.0917  151.3562 C   0  0  0  0  0  0  0  0  0  0  0  0
  144.2012  135.4818  151.1463 C   0  0  2  0  0  0  0  0  0  0  0  0
  148.4687  138.0648  154.0694 C   0  0  0  0  0  0  0  0  0  0  0  0
  149.6060  138.2237  154.7782 N   0  0  0  0  0  0  0  0  0  0  0  0
  152.2030  141.3742  157.5345 H   0  0  0  0  0  0  0  0  0  0  0  0
  150.4553  141.0543  157.6309 H   0  0  0  0  0  0  0  0  0  0  0  0
  151.1107  142.0169  156.2855 H   0  0  0  0  0  0  0  0  0  0  0  0
  149.6259  141.6251  154.9117 H   0  0  0  0  0  0  0  0  0  0  0  0
  147.5329  141.3237  153.6207 H   0  0  0  0  0  0  0  0  0  0  0  0
  146.1559  139.5632  152.2745 H   0  0  0  0  0  0  0  0  0  0  0  0
  144.6185  138.5917  151.5059 H   0  0  0  0  0  0  0  0  0  0  0  0
  142.8453  137.1349  151.4166 H   0  0  0  0  0  0  0  0  0  0  0  0
  144.0834  135.9331  153.9056 H   0  0  0  0  0  0  0  0  0  0  0  0
  142.5383  136.7753  153.7753 H   0  0  0  0  0  0  0  0  0  0  0  0
  142.6684  134.0487  153.6036 H   0  0  0  0  0  0  0  0  0  0  0  0
  141.5432  134.9444  152.5953 H   0  0  0  0  0  0  0  0  0  0  0  0
  144.3769  132.8710  152.5614 H   0  0  0  0  0  0  0  0  0  0  0  0
  143.0738  132.2868  151.5474 H   0  0  0  0  0  0  0  0  0  0  0  0
  145.2551  131.8036  150.4596 H   0  0  0  0  0  0  0  0  0  0  0  0
  144.3709  132.9713  149.5127 H   0  0  0  0  0  0  0  0  0  0  0  0
  146.9061  133.3382  151.0643 H   0  0  0  0  0  0  0  0  0  0  0  0
  146.3948  134.0783  149.5712 H   0  0  0  0  0  0  0  0  0  0  0  0
  145.8680  134.9283  152.4193 H   0  0  0  0  0  0  0  0  0  0  0  0
  146.3531  135.8990  151.0552 H   0  0  0  0  0  0  0  0  0  0  0  0
  144.0578  135.6619  150.0798 H   0  0  0  0  0  0  0  0  0  0  0  0
  148.1842  137.0439  153.8595 H   0  0  0  0  0  0  0  0  0  0  0  0
  142.5543  134.3615  150.8490 H   0  0  0  0  0  0  0  0  0  0  0  0
  1  2  1  0  0  0  0
  1 24  1  0  0  0  0
  1 25  1  0  0  0  0
  1 26  1  0  0  0  0
  2  3  2  0  0  0  0
  2  4  2  0  0  0  0
  2  5  1  0  0  0  0
  5 23  1  0  0  0  0
  5  6  2  0  0  0  0
  6  7  1  0  0  0  0
  6 27  1  0  0  0  0
  7  8  2  0  0  0  0
  7 28  1  0  0  0  0
  8  9  1  0  0  0  0
  8 22  1  0  0  0  0
  9 10  1  0  0  0  0
  9 29  1  0  0  0  0
 10 11  2  0  0  0  0
 10 12  1  0  0  0  0
 12 13  1  0  0  0  0
 12 30  1  0  0  0  0
 13 21  1  0  0  0  0
 13 14  1  0  0  0  0
 13 31  1  0  0  0  0
 14 15  1  0  0  0  0
 14 32  1  0  0  0  0
 14 33  1  0  0  0  0
 15 16  1  0  0  0  0
 15 34  1  0  0  0  0
 15 35  1  0  0  0  0
 16 21  1  0  0  0  0
 16 17  1  0  0  0  0
 16 46  1  0  0  0  0
 17 18  1  0  0  0  0
 17 36  1  0  0  0  0
 17 37  1  0  0  0  0
 18 19  1  0  0  0  0
 18 38  1  0  0  0  0
 18 39  1  0  0  0  0
 19 20  1  0  0  0  0
 19 40  1  0  0  0  0
 19 41  1  0  0  0  0
 20 21  1  0  0  0  0
 20 42  1  0  0  0  0
 20 43  1  0  0  0  0
 21 44  1  0  0  0  0
 22 23  2  0  0  0  0
 22 45  1  0  0  0  0
M  CHG  1  16   1
M  END
> <s_m_source_file>
AV-unprocessed.smi

> <i_m_source_file_index>
1738

> <i_lp_mmshare_version>
43012

> <i_f3d_flags>
0

> <s_epik_input>
W0NIM11TKD1PKSg9TyljMVtjSF1bY0hdYyhbY0hdbjEpW05IXUMoPU8pW05IXVtDQEhdKFtDSDJdW0NIMl0yKVtDQEBIXShOMjMpW0NIMl1bQ0gyXVtDSDJdW0NIMl0z

> <s_epik_cmdline>
J2VwaWtfcHl0aG9uJywgJy1waCcsICc3LjAnLCAnLXRuJywgJzgnLCAnLW1hJywgJzIwMCcsICctbWV0YWxfYmluZGluZycsICctaW1hZScsICc8aW5maWxlLm1hZT4nLCAnLW9tYWUnLCAnPG91dGZpbGUubWFlPic=

> <r_epik_Ionization_Penalty>
0.00100042

> <r_epik_Ionization_Penalty_Charging>
0.000974069

> <r_epik_Ionization_Penalty_Neutral>
2.63543e-05

> <r_epik_State_Penalty>
0.000633842

> <r_epik_Charging_Adjusted_Penalty>
0.00160791

> <i_epik_Tot_Q>
1

> <i_epik_Tot_abs_Q>
1

> <r_epik_Metal_State_Penalty>
-0

> <b_epik_Metal_Only>
0

> <s_lp_Force_Field>
OPLS_2005

> <r_lp_Energy>
44.1137

> <b_lp_Chiralities_Consistent>
1

> <s_lp_Variant>
AV-unprocessed.smi:1738-7

> <Gold.Version>
5.8.1

> <Gold.Id.Protein>
6NUR|6NUR_protein|mol2

> <Gold.PLP.Fitness>
48.0148

> <Gold.PLP.PLP>
-35.1359

> <Gold.PLP.part.hbond>
-4.9590

> <Gold.PLP.part.metal>
0.0000

> <Gold.PLP.part.buried>
-0.2157

> <Gold.PLP.part.nonpolar>
-30.3529

> <Gold.PLP.part.repulsive>
0.3448

> <Gold.PLP.ligand.clash>
0.0000

> <Gold.PLP.ligand.torsion>
1.5435

> <Gold.PLP.Chemscore.Hbond>
3.9818

> <Gold.PLP.Chemscore.CHOScore>
0.6659

> <Gold.PLP.Chemscore.Metal>
0.0000

> <Gold.Chemscore.Hbonds>
donor molecule, donor type, donor heavy atom, donor atom, acceptor molecule, acceptor atom, score
      L1  H    12    30       P1 10171  0.51
      L1  H    16    46       P1 10186  2.00
      P1  H  7989  7998       L1     3  0.56
      P1  H  7997  8010       L1     3  0.86
      L1  C    22    45       P1  7948  0.68

> <Gold.PLP.Chemscore.Internal.Correction>
2.0231

> <Gold.Rescore>
     Score         DG    S(hbond)    S(metal)    S(lipo)     H(rot)  DE(clash)    DE(int)     intcor
     11.82     -18.31       2.01        0.00      74.30       1.00       1.09       5.41       ----

> <Gold.Chemscore.Fitness>
11.8202

> <Gold.Chemscore.DG>
-18.3147

> <Gold.Chemscore.ZeroCoef>
-5.4800

> <Gold.Chemscore.Hbond>
2.0066

> <Gold.Chemscore.Metal>
0.0000

> <Gold.Chemscore.Lipo>
74.2957

> <Gold.Chemscore.Internal_Hbond>
0.0000

> <Gold.Chemscore.DEClash>
1.0853

> <Gold.Chemscore.DEInternal>
5.4092

> <Gold.Chemscore.Rot>
1.0000

> <Gold.Chemscore.Internal.Correction>
   9.000000E+99

> <Gold.Chemscore.Hbonds>
donor molecule, donor type, donor heavy atom, donor atom, acceptor molecule, acceptor atom, score
      L1  H    12    30       P1 10171  0.50
      L1  H    16    46       P1 10186  0.24
      P1  H  7989  7998       L1     3  0.24
      P1  H  7997  8010       L1     3  0.74

> <Gold.Chemscore.Hbond.Weighted>
-6.7021

> <Gold.Chemscore.Metal.Weighted>
-0.0000

> <Gold.Chemscore.Lipo.Weighted>
-8.6926

> <Gold.Chemscore.Internal_Hbond.Weighted>
0.0000

> <Gold.Chemscore.DEClash.Weighted>
1.0853

> <Gold.Chemscore.DEInternal.Weighted>
5.4092

> <Gold.Chemscore.Rot.Weighted>
2.5600

> <Gold.Chemscore.Internal.Correction.Weighted>
   9.000000E+99

> <Gold.Protein.RotatedTorsions>
[ 6907 6896 6895 6894 ] final  -66.16 input  -60.11 | X-H torsion
[ 7974 7965 7964 7962 ] final  -47.17 input  175.53 | X-H torsion
[ 8008 7997 7996 7995 ] final  106.99 input   59.86 | X-H torsion
[ 10167 10162 10161 10158 ] final  -75.85 input  -65.29 | X-H torsion
[ 10718 10713 10712 10709 ] final  124.21 input   66.30 | X-H torsion
[ 10763 10752 10751 10750 ] final   67.21 input  -60.55 | X-H torsion
[ 11005 11000 10999 10996 ] final -152.66 input  -57.11 | X-H torsion

> <Gold.Protein.ActiveResidues>
 VAL166  LYS551  ARG553  GLY616  TRP617  ASP618  TYR619  PRO620  LYS621  CYS622 
 ASP623  PHE694  ASN695  SER759  ASP760  ASP761  ALA762  ILE779  LEU786  VAL792 
 PHE793  MET794  SER795  GLU796  ALA797  LYS798  CYS799  TRP800  GLU811  SER814 

> <Gold.Protein.RotatedAtoms>
  150.7481  134.6060  159.6060 H   0  0  0  0  0  0  0  0  0  0  0  0  # atno 6907 bound_to 6896
  152.3407  134.7135  160.0273 H   0  0  0  0  0  0  0  0  0  0  0  0  # atno 6908 bound_to 6896
  151.7588  133.3296  159.3448 H   0  0  0  0  0  0  0  0  0  0  0  0  # atno 6909 bound_to 6896
  145.9643  140.7447  142.9442 H   0  0  0  0  0  0  0  0  0  0  0  0  # atno 7974 bound_to 7965
  156.1788  140.3103  155.9110 H   0  0  0  0  0  0  0  0  0  0  0  0  # atno 8008 bound_to 7997
  155.3428  140.0467  157.3062 H   0  0  0  0  0  0  0  0  0  0  0  0  # atno 8009 bound_to 7997
  154.5320  140.2233  155.8798 H   0  0  0  0  0  0  0  0  0  0  0  0  # atno 8010 bound_to 7997
  140.4907  143.2381  151.7912 H   0  0  0  0  0  0  0  0  0  0  0  0  # atno 10167 bound_to 10162
  157.5603  131.1090  150.8550 H   0  0  0  0  0  0  0  0  0  0  0  0  # atno 10718 bound_to 10713
  153.0175  135.5292  154.6943 H   0  0  0  0  0  0  0  0  0  0  0  0  # atno 10763 bound_to 10752
  154.6069  135.2874  155.0477 H   0  0  0  0  0  0  0  0  0  0  0  0  # atno 10764 bound_to 10752
  154.1513  135.6562  153.5016 H   0  0  0  0  0  0  0  0  0  0  0  0  # atno 10765 bound_to 10752
  140.7165  134.3775  157.5190 H   0  0  0  0  0  0  0  0  0  0  0  0  # atno 11005 bound_to 11000
  144.6822  140.2643  143.7314 LP  0  0  0  0  0  0  0  0  0  0  0  0  # atno 17320 bound_to 7965
  145.7995  139.1959  143.2056 LP  0  0  0  0  0  0  0  0  0  0  0  0  # atno 17321 bound_to 7965
  139.4851  144.4653  151.9492 LP  0  0  0  0  0  0  0  0  0  0  0  0  # atno 17342 bound_to 10162
  140.3740  144.2820  150.5916 LP  0  0  0  0  0  0  0  0  0  0  0  0  # atno 17343 bound_to 10162
  156.9049  130.5260  149.5281 LP  0  0  0  0  0  0  0  0  0  0  0  0  # atno 17370 bound_to 10713
  156.0657  130.5700  150.9283 LP  0  0  0  0  0  0  0  0  0  0  0  0  # atno 17371 bound_to 10713
  139.8858  134.8926  156.2619 LP  0  0  0  0  0  0  0  0  0  0  0  0  # atno 17394 bound_to 11000
  141.0040  133.7134  156.1005 LP  0  0  0  0  0  0  0  0  0  0  0  0  # atno 17395 bound_to 11000

$$$$
