#       Name:                AV-unprocessed.smi:1060
#       Creating user name   scv26
#       Creation time:       Fri Mar 27 03:17:04 2020


#       File generated by GOLD software.
#

@<TRIPOS>MOLECULE
AV-unprocessed.smi:1060
    45    46     1
SMALL
NO_CHARGES


@<TRIPOS>ATOM
      1 ****        -1.3356   1.5742  -1.9707 O.2            1 S1                 0.0000
      2 ****        -0.6509   0.6008  -1.6585 C.2            1 S1                 0.0000
      3 ****         0.8685   0.7441  -1.6116 C.3            1 S1                 0.0000
      4 ****         1.3061   0.5579  -0.2752 O.3            1 S1                 0.0000
      5 ****         2.7159   0.6399  -0.1490 C.3            1 S1                 0.0000
      6 ****         3.1007   0.4620   1.3251 C.3            1 S1                 0.0000
      7 ****         4.5948   0.2496   1.5473 C.3            1 S1                 0.0000
      8 ****         4.7660   0.6297   3.0055 C.3            1 S1                 0.0000
      9 ****         3.6242   1.6196   3.2570 C.3            1 S1                 0.0000
     10 ****         2.8622   1.6565   2.0545 O.3            1 S1                 0.0000
     11 ****        -1.1219  -0.6297  -1.3750 N.am           1 S1                 0.0000
     12 ****        -2.4481  -1.0947  -1.3440 C.2            1 S1                 0.0000
     13 ****        -3.5504  -0.2980  -1.2721 C.2            1 S1                 0.0000
     14 ****        -4.9035  -0.8387  -1.2391 C.2            1 S1                 0.0000
     15 ****        -6.1482   0.0175  -1.0846 C.3            1 S1                 0.0000
     16 ****        -7.0890  -0.6221  -0.3895 F              1 S1                 0.0000
     17 ****        -5.8666   1.1600  -0.4580 F              1 S1                 0.0000
     18 ****        -6.6466   0.3139  -2.2839 F              1 S1                 0.0000
     19 ****        -4.9166  -2.2201  -1.2568 C.2            1 S1                 0.0000
     20 ****        -3.8772  -3.0797  -1.3317 N.pl3          1 S1                -1.0000
     21 ****        -2.6165  -2.5627  -1.3699 C.2            1 S1                 0.0000
     22 ****        -1.6241  -3.2897  -1.4266 O.2            1 S1                 0.0000
     23 ****         1.3202   0.0021  -2.2722 H              1 S1                 0.0000
     24 ****         1.1597   1.7323  -1.9722 H              1 S1                 0.0000
     25 ****         3.1697  -0.1539  -0.7446 H              1 S1                 0.0000
     26 ****         3.0899   1.5917  -0.5300 H              1 S1                 0.0000
     27 ****         2.5415  -0.3608   1.7744 H              1 S1                 0.0000
     28 ****         4.9172  -0.7696   1.3318 H              1 S1                 0.0000
     29 ****         5.1711   0.9296   0.9179 H              1 S1                 0.0000
     30 ****         4.6456  -0.2479   3.6420 H              1 S1                 0.0000
     31 ****         5.7473   1.0607   3.2065 H              1 S1                 0.0000
     32 ****         2.9966   1.2855   4.0840 H              1 S1                 0.0000
     33 ****         3.9929   2.6181   3.4928 H              1 S1                 0.0000
     34 ****        -0.4280  -1.3424  -1.2011 H              1 S1                 0.0000
     35 ****        -3.4559   0.7741  -1.2235 H              1 S1                 0.0000
     36 ****        -5.9127  -2.7084  -1.1973 H              1 S1                 0.0000
     37 ****        -0.8959   2.4452  -2.1898 LP             1 S1                 0.0000
     38 ****        -2.3318   1.4943  -2.0054 LP             1 S1                 0.0000
     39 ****         1.0082  -0.3442   0.0370 LP             1 S1                 0.0000
     40 ****         0.8912   1.2633   0.2993 LP             1 S1                 0.0000
     41 ****         1.8894   1.7271   2.2750 LP             1 S1                 0.0000
     42 ****         3.1378   2.4459   1.5060 LP             1 S1                 0.0000
     43 ****        -4.0284  -4.0679  -1.3584 LP             1 S1                 0.0000
     44 ****        -0.7095  -2.8862  -1.4549 LP             1 S1                 0.0000
     45 ****        -1.7327  -4.2837  -1.4444 LP             1 S1                 0.0000
@<TRIPOS>BOND
    1    1    2 2     
    2    2    3 1     
    3    2   11 am    
    4    3    4 1     
    5    3   23 1     
    6    3   24 1     
    7    4    5 1     
    8    5    6 1     
    9    5   25 1     
   10    5   26 1     
   11    6   10 1     
   12    6    7 1     
   13    6   27 1     
   14    7    8 1     
   15    7   28 1     
   16    7   29 1     
   17    8    9 1     
   18    8   30 1     
   19    8   31 1     
   20    9   10 1     
   21    9   32 1     
   22    9   33 1     
   23   11   12 1     
   24   11   34 1     
   25   12   21 1     
   26   12   13 2     
   27   13   14 1     
   28   13   35 1     
   29   14   15 1     
   30   14   19 2     
   31   15   16 1     
   32   15   17 1     
   33   15   18 1     
   34   19   20 1     
   35   19   36 1     
   36   20   21 1     
   37   21   22 2     
   38    1   37 1     
   39    1   38 1     
   40    4   39 1     
   41    4   40 1     
   42   10   41 1     
   43   10   42 1     
   44   20   43 1     
   45   22   44 1     
   46   22   45 1     
@<TRIPOS>SUBSTRUCTURE
      1 S1             1
@<TRIPOS>SET
LONE_PAIRS      STATIC     ATOMS    <user>   **** ""
9 37 38 39 40 41 42 43 44 45
DONOR_HYDROGENS      STATIC     ATOMS    <user>   **** ""
1 34
ATOM$BLUE        STATIC     ATOMS    COLORGROUP SYSTEM
9 37 38 39 40 41 42 43 44 45
ATOM$RED        STATIC     ATOMS    COLORGROUP SYSTEM
1 34
