AV-unprocessed.smi:2562|AV-procd|sdf|10047|dock6
  -GOLD-   2272014 93D 1   1.00000     0.00000
 Structure written by MMmdl.
 30 31  0  0  0  0  0  0  0  0  1 V2000
  152.1907  144.0946  161.4210 C   0  0  0  0  0  0  0  0  0  0  0  0
  152.4979  143.3434  160.1207 C   0  0  0  0  0  0  0  0  0  0  0  0
  151.6702  143.8573  158.9340 C   0  0  0  0  0  0  0  0  0  0  0  0
  151.3993  142.7967  157.9174 C   0  0  0  0  0  0  0  0  0  0  0  0
  150.6555  143.0214  156.8326 N   0  0  0  0  0  0  0  0  0  0  0  0
  150.5939  141.8950  156.0918 N   0  0  0  0  0  0  0  0  0  0  0  0
  151.3199  141.0440  156.8165 C   0  0  0  0  0  0  0  0  0  0  0  0
  151.5559  139.6428  156.3433 C   0  0  1  0  0  0  0  0  0  0  0  0
  150.2544  138.8191  156.2895 C   0  0  0  0  0  0  0  0  0  0  0  0
  150.5185  137.4924  155.7340 N   0  0  0  0  0  0  0  0  0  0  0  0
  151.1641  137.5867  154.4252 C   0  0  0  0  0  0  0  0  0  0  0  0
  152.4368  138.4483  154.5145 C   0  0  0  0  0  0  0  0  0  0  0  0
  152.1108  139.7335  155.0328 O   0  0  0  0  0  0  0  0  0  0  0  0
  151.8723  141.5561  157.9602 N   0  0  0  0  0  0  0  0  0  0  0  0
  150.1984  143.8822  156.5676 H   0  0  0  0  0  0  0  0  0  0  0  0
  152.7954  143.7118  162.2434 H   0  0  0  0  0  0  0  0  0  0  0  0
  151.1425  143.9852  161.7006 H   0  0  0  0  0  0  0  0  0  0  0  0
  152.4021  145.1594  161.3199 H   0  0  0  0  0  0  0  0  0  0  0  0
  153.5605  143.4382  159.8937 H   0  0  0  0  0  0  0  0  0  0  0  0
  152.3067  142.2798  160.2678 H   0  0  0  0  0  0  0  0  0  0  0  0
  150.7152  144.2485  159.2870 H   0  0  0  0  0  0  0  0  0  0  0  0
  152.1855  144.6877  158.4494 H   0  0  0  0  0  0  0  0  0  0  0  0
  152.2775  139.1651  157.0094 H   0  0  0  0  0  0  0  0  0  0  0  0
  149.8243  138.7288  157.2873 H   0  0  0  0  0  0  0  0  0  0  0  0
  149.5161  139.3359  155.6751 H   0  0  0  0  0  0  0  0  0  0  0  0
  149.6461  136.9809  155.6466 H   0  0  0  0  0  0  0  0  0  0  0  0
  151.4109  136.5907  154.0567 H   0  0  0  0  0  0  0  0  0  0  0  0
  150.4752  138.0266  153.7032 H   0  0  0  0  0  0  0  0  0  0  0  0
  153.1907  137.9688  155.1409 H   0  0  0  0  0  0  0  0  0  0  0  0
  152.8764  138.5704  153.5245 H   0  0  0  0  0  0  0  0  0  0  0  0
  1  2  1  0  0  0  0
  1 16  1  0  0  0  0
  1 17  1  0  0  0  0
  1 18  1  0  0  0  0
  2  3  1  0  0  0  0
  2 19  1  0  0  0  0
  2 20  1  0  0  0  0
  3 21  1  0  0  0  0
  3 22  1  0  0  0  0
  3  4  1  0  0  0  0
  4 14  2  0  0  0  0
  4  5  1  0  0  0  0
  5  6  1  0  0  0  0
  5 15  1  0  0  0  0
  6  7  2  0  0  0  0
  7 14  1  0  0  0  0
  7  8  1  0  0  0  0
  8 13  1  0  0  0  0
  8  9  1  0  0  0  0
  8 23  1  0  0  0  0
  9 10  1  0  0  0  0
  9 24  1  0  0  0  0
  9 25  1  0  0  0  0
 10 11  1  0  0  0  0
 10 26  1  0  0  0  0
 11 12  1  0  0  0  0
 11 27  1  0  0  0  0
 11 28  1  0  0  0  0
 12 13  1  0  0  0  0
 12 29  1  0  0  0  0
 12 30  1  0  0  0  0
M  END
> <s_m_source_file>
AV-unprocessed.smi

> <i_m_source_file_index>
2562

> <i_lp_mmshare_version>
43012

> <i_f3d_flags>
0

> <s_epik_input>
W0NIM11bQ0gyXVtDSDJdYzFuW25IXWMobjEpW0NAQEhdMltDSDJdW05IXVtDSDJdW0NIMl1PMg==

> <s_epik_cmdline>
J2VwaWtfcHl0aG9uJywgJy1waCcsICc3LjAnLCAnLXRuJywgJzgnLCAnLW1hJywgJzIwMCcsICctbWV0YWxfYmluZGluZycsICctaW1hZScsICc8aW5maWxlLm1hZT4nLCAnLW9tYWUnLCAnPG91dGZpbGUubWFlPic=

> <r_epik_Ionization_Penalty>
1.10136

> <r_epik_Ionization_Penalty_Charging>
0

> <r_epik_Ionization_Penalty_Neutral>
1.10136

> <r_epik_State_Penalty>
1.43987

> <r_epik_Charging_Adjusted_Penalty>
1.43987

> <i_epik_Tot_Q>
0

> <i_epik_Tot_abs_Q>
0

> <r_epik_Metal_State_Penalty>
1.55976

> <b_epik_Metal_Only>
0

> <s_lp_Force_Field>
OPLS_2005

> <r_lp_Energy>
12.0534

> <b_lp_Chiralities_Consistent>
1

> <s_lp_Variant>
AV-unprocessed.smi:2562-6

> <Gold.Version>
5.8.1

> <Gold.Id.Protein>
6NUR|6NUR_protein|mol2

> <Gold.PLP.Fitness>
34.2032

> <Gold.PLP.PLP>
-29.0586

> <Gold.PLP.part.hbond>
-2.0000

> <Gold.PLP.part.metal>
0.0000

> <Gold.PLP.part.buried>
-5.7542

> <Gold.PLP.part.nonpolar>
-22.0015

> <Gold.PLP.part.repulsive>
0.1557

> <Gold.PLP.ligand.clash>
0.0000

> <Gold.PLP.ligand.torsion>
0.2299

> <Gold.PLP.Chemscore.Hbond>
1.8640

> <Gold.PLP.Chemscore.CHOScore>
0.0000

> <Gold.PLP.Chemscore.Metal>
0.0000

> <Gold.Chemscore.Hbonds>
donor molecule, donor type, donor heavy atom, donor atom, acceptor molecule, acceptor atom, score
      L1  H     5    15       P1  8028  1.00
      P1  H  7989  7998       L1    13  0.83

> <Gold.PLP.Chemscore.Internal.Correction>
0.0124

> <Gold.Rescore>
     Score         DG    S(hbond)    S(metal)    S(lipo)     H(rot)  DE(clash)    DE(int)     intcor
     15.01     -15.20       1.85        0.00      62.62       1.48       0.01       0.19       ----

> <Gold.Chemscore.Fitness>
15.0078

> <Gold.Chemscore.DG>
-15.2036

> <Gold.Chemscore.ZeroCoef>
-5.4800

> <Gold.Chemscore.Hbond>
1.8497

> <Gold.Chemscore.Metal>
0.0000

> <Gold.Chemscore.Lipo>
62.6198

> <Gold.Chemscore.Internal_Hbond>
0.0000

> <Gold.Chemscore.DEClash>
0.0063

> <Gold.Chemscore.DEInternal>
0.1895

> <Gold.Chemscore.Rot>
1.4769

> <Gold.Chemscore.Internal.Correction>
   9.000000E+99

> <Gold.Chemscore.Hbonds>
donor molecule, donor type, donor heavy atom, donor atom, acceptor molecule, acceptor atom, score
      L1  H     5    15       P1  8028  0.94
      P1  H  7989  7998       L1    13  0.50

> <Gold.Chemscore.Hbond.Weighted>
-6.1779

> <Gold.Chemscore.Metal.Weighted>
-0.0000

> <Gold.Chemscore.Lipo.Weighted>
-7.3265

> <Gold.Chemscore.Internal_Hbond.Weighted>
0.0000

> <Gold.Chemscore.DEClash.Weighted>
0.0063

> <Gold.Chemscore.DEInternal.Weighted>
0.1895

> <Gold.Chemscore.Rot.Weighted>
3.7808

> <Gold.Chemscore.Internal.Correction.Weighted>
   9.000000E+99

> <Gold.Protein.RotatedTorsions>
[ 6907 6896 6895 6894 ] final -103.52 input  -60.11 | X-H torsion
[ 7974 7965 7964 7962 ] final  -30.05 input  175.53 | X-H torsion
[ 8008 7997 7996 7995 ] final   -1.66 input   59.86 | X-H torsion
[ 10167 10162 10161 10158 ] final  -48.47 input  -65.29 | X-H torsion
[ 10718 10713 10712 10709 ] final -162.02 input   66.30 | X-H torsion
[ 10763 10752 10751 10750 ] final  117.19 input  -60.55 | X-H torsion
[ 11005 11000 10999 10996 ] final   85.30 input  -57.11 | X-H torsion

> <Gold.Protein.ActiveResidues>
 VAL166  LYS551  ARG553  GLY616  TRP617  ASP618  TYR619  PRO620  LYS621  CYS622 
 ASP623  PHE694  ASN695  SER759  ASP760  ASP761  ALA762  ILE779  LEU786  VAL792 
 PHE793  MET794  SER795  GLU796  ALA797  LYS798  CYS799  TRP800  GLU811  SER814 

> <Gold.Protein.RotatedAtoms>
  150.7244  134.0416  159.3767 H   0  0  0  0  0  0  0  0  0  0  0  0  # atno 6907 bound_to 6896
  151.8390  135.0594  160.0455 H   0  0  0  0  0  0  0  0  0  0  0  0  # atno 6908 bound_to 6896
  152.2877  133.5495  159.5574 H   0  0  0  0  0  0  0  0  0  0  0  0  # atno 6909 bound_to 6896
  146.1171  140.5491  142.8752 H   0  0  0  0  0  0  0  0  0  0  0  0  # atno 7974 bound_to 7965
  154.6444  140.2554  155.7285 H   0  0  0  0  0  0  0  0  0  0  0  0  # atno 8008 bound_to 7997
  156.2544  140.2881  156.0772 H   0  0  0  0  0  0  0  0  0  0  0  0  # atno 8009 bound_to 7997
  155.1547  140.0383  157.2819 H   0  0  0  0  0  0  0  0  0  0  0  0  # atno 8010 bound_to 7997
  140.6729  143.2739  151.4075 H   0  0  0  0  0  0  0  0  0  0  0  0  # atno 10167 bound_to 10162
  156.6044  130.8824  151.2921 H   0  0  0  0  0  0  0  0  0  0  0  0  # atno 10718 bound_to 10713
  153.5486  135.3544  155.2749 H   0  0  0  0  0  0  0  0  0  0  0  0  # atno 10763 bound_to 10752
  154.8709  135.4108  154.2963 H   0  0  0  0  0  0  0  0  0  0  0  0  # atno 10764 bound_to 10752
  153.3684  135.7063  153.6725 H   0  0  0  0  0  0  0  0  0  0  0  0  # atno 10765 bound_to 10752
  139.8975  134.8277  156.2563 H   0  0  0  0  0  0  0  0  0  0  0  0  # atno 11005 bound_to 11000
  144.7563  140.5316  143.6766 LP  0  0  0  0  0  0  0  0  0  0  0  0  # atno 17320 bound_to 7965
  145.5543  139.1477  143.3377 LP  0  0  0  0  0  0  0  0  0  0  0  0  # atno 17321 bound_to 7965
  139.6007  144.1302  152.2194 LP  0  0  0  0  0  0  0  0  0  0  0  0  # atno 17342 bound_to 10162
  140.0686  144.5798  150.7209 LP  0  0  0  0  0  0  0  0  0  0  0  0  # atno 17343 bound_to 10162
  157.7271  130.9638  150.1684 LP  0  0  0  0  0  0  0  0  0  0  0  0  # atno 17370 bound_to 10713
  156.2442  130.3694  149.8304 LP  0  0  0  0  0  0  0  0  0  0  0  0  # atno 17371 bound_to 10713
  141.0191  133.7051  156.1238 LP  0  0  0  0  0  0  0  0  0  0  0  0  # atno 17394 bound_to 11000
  140.7259  134.4308  157.5570 LP  0  0  0  0  0  0  0  0  0  0  0  0  # atno 17395 bound_to 11000

$$$$
