AV-unprocessed.smi:784|AV-procd|sdf|3719|dock2
  -GOLD-   22720 1143D 1   1.00000     0.00000
 Structure written by MMmdl.
 37 38  0  0  0  0  0  0  0  0  2 V2000
  147.8385  140.8202  153.8082 C   0  0  0  0  0  0  0  0  0  0  0  0
  149.1482  140.6012  154.5061 C   0  0  0  0  0  0  0  0  0  0  0  0
  149.9712  139.4425  154.4957 C   0  0  0  0  0  0  0  0  0  0  0  0
  151.0231  139.7856  155.2973 C   0  0  0  0  0  0  0  0  0  0  0  0
  152.2524  139.0568  155.7317 C   0  0  0  0  0  0  0  0  0  0  0  0
  152.1242  138.5769  157.5094 S   0  0  0  0  0  0  0  0  0  0  0  0
  150.7435  138.8919  157.9102 O   0  0  0  0  0  0  0  0  0  0  0  0
  152.5429  137.1675  157.5934 O   0  0  0  0  0  0  0  0  0  0  0  0
  153.1974  139.5958  158.1765 N   0  5  0  0  0  0  0  0  0  0  0  0
  152.7379  140.6273  159.0963 C   0  0  0  0  0  0  0  0  0  0  0  0
  151.9746  141.6998  158.2819 C   0  0  0  0  0  0  0  0  0  0  0  0
  151.2633  142.8090  159.0888 C   0  0  0  0  0  0  0  0  0  0  0  0
  152.1691  143.6986  159.9660 C   0  0  0  0  0  0  0  0  0  0  0  0
  152.5756  143.0099  161.2792 C   0  0  0  0  0  0  0  0  0  0  0  0
  153.7003  141.9524  161.1768 C   0  0  0  0  0  0  0  0  0  0  0  0
  153.9582  141.2491  159.8206 C   0  0  0  0  0  0  0  0  0  0  0  0
  150.8654  141.0540  155.7576 O   0  0  0  0  0  0  0  0  0  0  0  0
  149.6668  141.5659  155.2477 N   0  0  0  0  0  0  0  0  0  0  0  0
  147.6873  140.0851  153.0176 H   0  0  0  0  0  0  0  0  0  0  0  0
  147.7922  141.8097  153.3526 H   0  0  0  0  0  0  0  0  0  0  0  0
  147.0058  140.7335  154.5063 H   0  0  0  0  0  0  0  0  0  0  0  0
  149.8131  138.5020  153.9892 H   0  0  0  0  0  0  0  0  0  0  0  0
  152.4205  138.1625  155.1327 H   0  0  0  0  0  0  0  0  0  0  0  0
  153.1263  139.6990  155.6237 H   0  0  0  0  0  0  0  0  0  0  0  0
  152.0582  140.2126  159.8420 H   0  0  0  0  0  0  0  0  0  0  0  0
  152.6545  142.1665  157.5676 H   0  0  0  0  0  0  0  0  0  0  0  0
  151.2146  141.2029  157.6767 H   0  0  0  0  0  0  0  0  0  0  0  0
  150.7605  143.4570  158.3702 H   0  0  0  0  0  0  0  0  0  0  0  0
  150.4604  142.3836  159.6939 H   0  0  0  0  0  0  0  0  0  0  0  0
  153.0446  144.0397  159.4122 H   0  0  0  0  0  0  0  0  0  0  0  0
  151.6074  144.5980  160.2203 H   0  0  0  0  0  0  0  0  0  0  0  0
  152.8862  143.7693  161.9976 H   0  0  0  0  0  0  0  0  0  0  0  0
  151.6915  142.5483  161.7210 H   0  0  0  0  0  0  0  0  0  0  0  0
  154.6358  142.4341  161.4633 H   0  0  0  0  0  0  0  0  0  0  0  0
  153.5302  141.1981  161.9470 H   0  0  0  0  0  0  0  0  0  0  0  0
  154.6981  140.4718  160.0176 H   0  0  0  0  0  0  0  0  0  0  0  0
  154.4606  141.9432  159.1455 H   0  0  0  0  0  0  0  0  0  0  0  0
  1  2  1  0  0  0  0
  1 19  1  0  0  0  0
  1 20  1  0  0  0  0
  1 21  1  0  0  0  0
  2 18  2  0  0  0  0
  2  3  1  0  0  0  0
  3  4  2  0  0  0  0
  3 22  1  0  0  0  0
  4  5  1  0  0  0  0
  4 17  1  0  0  0  0
  5  6  1  0  0  0  0
  5 23  1  0  0  0  0
  5 24  1  0  0  0  0
  6  7  2  0  0  0  0
  6  8  2  0  0  0  0
  6  9  1  0  0  0  0
  9 10  1  0  0  0  0
 10 16  1  0  0  0  0
 10 11  1  0  0  0  0
 10 25  1  0  0  0  0
 11 12  1  0  0  0  0
 11 26  1  0  0  0  0
 11 27  1  0  0  0  0
 12 13  1  0  0  0  0
 12 28  1  0  0  0  0
 12 29  1  0  0  0  0
 13 14  1  0  0  0  0
 13 30  1  0  0  0  0
 13 31  1  0  0  0  0
 14 15  1  0  0  0  0
 14 32  1  0  0  0  0
 14 33  1  0  0  0  0
 15 16  1  0  0  0  0
 15 34  1  0  0  0  0
 15 35  1  0  0  0  0
 16 36  1  0  0  0  0
 16 37  1  0  0  0  0
 17 18  1  0  0  0  0
M  CHG  1   9  -1
M  END
> <s_m_source_file>
AV-unprocessed.smi

> <i_m_source_file_index>
784

> <i_lp_mmshare_version>
43012

> <i_f3d_flags>
0

> <s_epik_input>
W0NIM11jMVtjSF1jKG9uMSlbQ0gyXVMoPU8pKD1PKVtOSF1bQ0hdMltDSDJdW0NIMl1bQ0gyXVtDSDJdW0NIMl1bQ0gyXTI=

> <s_epik_cmdline>
J2VwaWtfcHl0aG9uJywgJy1waCcsICc3LjAnLCAnLXRuJywgJzgnLCAnLW1hJywgJzIwMCcsICctbWV0YWxfYmluZGluZycsICctaW1hZScsICc8aW5maWxlLm1hZT4nLCAnLW9tYWUnLCAnPG91dGZpbGUubWFlPic=

> <r_lp_tautomer_probability>
1

> <r_epik_Ionization_Penalty>
5.56674

> <r_epik_Ionization_Penalty_Charging>
5.56674

> <r_epik_Ionization_Penalty_Neutral>
9.19761e-10

> <r_epik_State_Penalty>
5.56669

> <r_epik_Charging_Adjusted_Penalty>
11.1334

> <i_epik_Tot_Q>
-1

> <i_epik_Tot_abs_Q>
1

> <r_epik_Metal_State_Penalty>
1.56499

> <b_epik_Metal_Only>
1

> <s_lp_Force_Field>
OPLS_2005

> <r_lp_Energy>
11.8728

> <b_lp_Chiralities_Consistent>
1

> <s_lp_Variant>
AV-unprocessed.smi:784-2

> <Gold.Version>
5.8.1

> <Gold.Id.Protein>
6NUR|6NUR_protein|mol2

> <Gold.PLP.Fitness>
42.9095

> <Gold.PLP.PLP>
-37.8159

> <Gold.PLP.part.hbond>
-1.7837

> <Gold.PLP.part.metal>
0.0000

> <Gold.PLP.part.buried>
-2.6815

> <Gold.PLP.part.nonpolar>
-33.2382

> <Gold.PLP.part.repulsive>
0.1882

> <Gold.PLP.ligand.clash>
0.0000

> <Gold.PLP.ligand.torsion>
0.9559

> <Gold.PLP.Chemscore.Hbond>
2.0000

> <Gold.PLP.Chemscore.CHOScore>
0.0000

> <Gold.PLP.Chemscore.Metal>
0.0000

> <Gold.Chemscore.Hbonds>
donor molecule, donor type, donor heavy atom, donor atom, acceptor molecule, acceptor atom, score
      P1  H  7997  8010       L1     9  2.00

> <Gold.PLP.Chemscore.Internal.Correction>
1.0054

> <Gold.Rescore>
     Score         DG    S(hbond)    S(metal)    S(lipo)     H(rot)  DE(clash)    DE(int)     intcor
     16.10     -17.15       0.87        0.00     104.34       1.34       0.00       1.04       ----

> <Gold.Chemscore.Fitness>
16.0993

> <Gold.Chemscore.DG>
-17.1465

> <Gold.Chemscore.ZeroCoef>
-5.4800

> <Gold.Chemscore.Hbond>
0.8653

> <Gold.Chemscore.Metal>
0.0000

> <Gold.Chemscore.Lipo>
104.3436

> <Gold.Chemscore.Internal_Hbond>
0.0000

> <Gold.Chemscore.DEClash>
0.0029

> <Gold.Chemscore.DEInternal>
1.0444

> <Gold.Chemscore.Rot>
1.3405

> <Gold.Chemscore.Internal.Correction>
   9.000000E+99

> <Gold.Chemscore.Hbonds>
donor molecule, donor type, donor heavy atom, donor atom, acceptor molecule, acceptor atom, score
      P1  H  7997  8010       L1     9  0.71

> <Gold.Chemscore.Hbond.Weighted>
-2.8901

> <Gold.Chemscore.Metal.Weighted>
-0.0000

> <Gold.Chemscore.Lipo.Weighted>
-12.2082

> <Gold.Chemscore.Internal_Hbond.Weighted>
0.0000

> <Gold.Chemscore.DEClash.Weighted>
0.0029

> <Gold.Chemscore.DEInternal.Weighted>
1.0444

> <Gold.Chemscore.Rot.Weighted>
3.4318

> <Gold.Chemscore.Internal.Correction.Weighted>
   9.000000E+99

> <Gold.Protein.RotatedTorsions>
[ 6907 6896 6895 6894 ] final -130.44 input  -60.11 | X-H torsion
[ 7974 7965 7964 7962 ] final   97.59 input  175.53 | X-H torsion
[ 8008 7997 7996 7995 ] final   44.14 input   59.86 | X-H torsion
[ 10167 10162 10161 10158 ] final -119.49 input  -65.29 | X-H torsion
[ 10718 10713 10712 10709 ] final -138.01 input   66.30 | X-H torsion
[ 10763 10752 10751 10750 ] final   58.37 input  -60.55 | X-H torsion
[ 11005 11000 10999 10996 ] final   96.08 input  -57.11 | X-H torsion

> <Gold.Protein.ActiveResidues>
 VAL166  LYS551  ARG553  GLY616  TRP617  ASP618  TYR619  PRO620  LYS621  CYS622 
 ASP623  PHE694  ASN695  SER759  ASP760  ASP761  ALA762  ILE779  LEU786  VAL792 
 PHE793  MET794  SER795  GLU796  ALA797  LYS798  CYS799  TRP800  GLU811  SER814 

> <Gold.Protein.RotatedAtoms>
  150.9398  133.6670  159.2792 H   0  0  0  0  0  0  0  0  0  0  0  0  # atno 6907 bound_to 6896
  151.4063  135.0977  159.9581 H   0  0  0  0  0  0  0  0  0  0  0  0  # atno 6908 bound_to 6896
  152.5064  133.8880  159.7434 H   0  0  0  0  0  0  0  0  0  0  0  0  # atno 6909 bound_to 6896
  145.4235  139.2318  143.3183 H   0  0  0  0  0  0  0  0  0  0  0  0  # atno 7974 bound_to 7965
  155.3143  140.3393  155.4243 H   0  0  0  0  0  0  0  0  0  0  0  0  # atno 8008 bound_to 7997
  156.1940  140.1708  156.8073 H   0  0  0  0  0  0  0  0  0  0  0  0  # atno 8009 bound_to 7997
  154.5476  140.0712  156.8599 H   0  0  0  0  0  0  0  0  0  0  0  0  # atno 8010 bound_to 7997
  140.0461  143.5105  152.2105 H   0  0  0  0  0  0  0  0  0  0  0  0  # atno 10167 bound_to 10162
  156.2945  130.7394  151.1429 H   0  0  0  0  0  0  0  0  0  0  0  0  # atno 10718 bound_to 10713
  152.9869  135.5609  154.5541 H   0  0  0  0  0  0  0  0  0  0  0  0  # atno 10763 bound_to 10752
  154.4972  135.2795  155.1451 H   0  0  0  0  0  0  0  0  0  0  0  0  # atno 10764 bound_to 10752
  154.2896  135.6329  153.5433 H   0  0  0  0  0  0  0  0  0  0  0  0  # atno 10765 bound_to 10752
  139.8784  134.8932  156.4105 H   0  0  0  0  0  0  0  0  0  0  0  0  # atno 11005 bound_to 11000
  146.2644  140.4962  142.8840 LP  0  0  0  0  0  0  0  0  0  0  0  0  # atno 17320 bound_to 7965
  144.8230  140.6581  143.6341 LP  0  0  0  0  0  0  0  0  0  0  0  0  # atno 17321 bound_to 7965
  139.5982  144.7574  151.3234 LP  0  0  0  0  0  0  0  0  0  0  0  0  # atno 17342 bound_to 10162
  140.7238  143.7061  150.7806 LP  0  0  0  0  0  0  0  0  0  0  0  0  # atno 17343 bound_to 10162
  157.7351  131.0575  150.5485 LP  0  0  0  0  0  0  0  0  0  0  0  0  # atno 17370 bound_to 10713
  156.5605  130.4254  149.6065 LP  0  0  0  0  0  0  0  0  0  0  0  0  # atno 17371 bound_to 10713
  140.9204  133.7649  155.9899 LP  0  0  0  0  0  0  0  0  0  0  0  0  # atno 17394 bound_to 11000
  140.8446  134.3026  157.5300 LP  0  0  0  0  0  0  0  0  0  0  0  0  # atno 17395 bound_to 11000

$$$$
