#       Name:                AV-unprocessed.smi:2829
#       Creating user name   scv26
#       Creation time:       Fri Mar 27 15:34:52 2020


#       File generated by GOLD software.
#

@<TRIPOS>MOLECULE
AV-unprocessed.smi:2829
    56    59     1
SMALL
NO_CHARGES


@<TRIPOS>ATOM
      1 ****        -5.7333   0.9710  -1.4175 C.3            1 S1                 0.0000
      2 ****        -5.2875   0.8919   0.0574 C.3            1 S1                 0.0000
      3 ****        -5.7801   2.1383   0.8219 C.3            1 S1                 0.0000
      4 ****        -5.9769  -0.3408   0.6851 C.3            1 S1                 0.0000
      5 ****        -3.7522   0.8096   0.1318 C.ar           1 S1                 0.0000
      6 ****        -3.0624  -0.2823   0.7054 C.ar           1 S1                 0.0000
      7 ****        -1.6580  -0.2403   0.7080 C.ar           1 S1                 0.0000
      8 ****        -1.0185   0.8807   0.1422 C.ar           1 S1                 0.0000
      9 ****         0.3991   0.8484   0.1706 N.am           1 S1                 0.0000
     10 ****         1.2655   1.7469  -0.3372 C.2            1 S1                 0.0000
     11 ****         0.9465   2.8218  -0.8417 O.2            1 S1                 0.0000
     12 ****         2.5543   1.3739  -0.2463 N.am           1 S1                 0.0000
     13 ****         3.7288   2.1196  -0.7009 C.3            1 S1                 0.0000
     14 ****         5.0275   1.3006  -0.5746 C.3            1 S1                 0.0000
     15 ****         5.8056   0.9321  -1.8092 C.3            1 S1                 0.0000
     16 ****         6.8914   2.0107  -1.8639 C.3            1 S1                 0.0000
     17 ****         6.3603   3.0949  -1.1059 O.3            1 S1                 0.0000
     18 ****         5.6865   2.5401   0.0197 C.3            1 S1                 0.0000
     19 ****         4.3017   3.1256   0.3218 C.3            1 S1                 0.0000
     20 ****         3.8124   3.2158   1.7801 C.3            1 S1                 0.0000
     21 ****         3.1425   4.5490   1.4378 C.3            1 S1                 0.0000
     22 ****         4.0344   4.6323   0.1954 C.3            1 S1                 0.0000
     23 ****        -1.7438   1.8956  -0.3904 N.ar           1 S1                 0.0000
     24 ****        -3.0796   1.8615  -0.3962 N.ar           1 S1                 0.0000
     25 ****        -6.8196   1.0116  -1.5030 H              1 S1                 0.0000
     26 ****        -5.3914   0.1020  -1.9810 H              1 S1                 0.0000
     27 ****        -5.3396   1.8593  -1.9130 H              1 S1                 0.0000
     28 ****        -5.3895   3.0599   0.3891 H              1 S1                 0.0000
     29 ****        -5.4698   2.1092   1.8672 H              1 S1                 0.0000
     30 ****        -6.8679   2.2120   0.8038 H              1 S1                 0.0000
     31 ****        -7.0629  -0.2608   0.6218 H              1 S1                 0.0000
     32 ****        -5.7268  -0.4486   1.7412 H              1 S1                 0.0000
     33 ****        -5.6965  -1.2633   0.1753 H              1 S1                 0.0000
     34 ****        -3.5675  -1.1345   1.1328 H              1 S1                 0.0000
     35 ****        -1.0879  -1.0541   1.1324 H              1 S1                 0.0000
     36 ****         0.8069   0.0195   0.5772 H              1 S1                 0.0000
     37 ****         2.7381   0.4819   0.1903 H              1 S1                 0.0000
     38 ****         3.6291   2.5565  -1.6968 H              1 S1                 0.0000
     39 ****         4.9486   0.5034   0.1671 H              1 S1                 0.0000
     40 ****         6.2361  -0.0680  -1.7516 H              1 S1                 0.0000
     41 ****         5.1726   0.9735  -2.6961 H              1 S1                 0.0000
     42 ****         7.8061   1.6584  -1.3847 H              1 S1                 0.0000
     43 ****         7.1342   2.3135  -2.8826 H              1 S1                 0.0000
     44 ****         6.3308   2.3397   0.8770 H              1 S1                 0.0000
     45 ****         3.1262   2.4346   2.1066 H              1 S1                 0.0000
     46 ****         4.6326   3.3387   2.4887 H              1 S1                 0.0000
     47 ****         2.0847   4.4423   1.1965 H              1 S1                 0.0000
     48 ****         3.3093   5.3402   2.1690 H              1 S1                 0.0000
     49 ****         4.9299   5.2332   0.3604 H              1 S1                 0.0000
     50 ****         3.5132   4.9284  -0.7154 H              1 S1                 0.0000
     51 ****        -0.0175   3.0820  -0.8964 LP             1 S1                 0.0000
     52 ****         1.6511   3.4359  -1.1973 LP             1 S1                 0.0000
     53 ****         5.7175   3.6195  -1.6642 LP             1 S1                 0.0000
     54 ****         7.1011   3.6929  -0.7999 LP             1 S1                 0.0000
     55 ****        -1.2707   2.6830  -0.7856 LP             1 S1                 0.0000
     56 ****        -3.5904   2.6228  -0.7957 LP             1 S1                 0.0000
@<TRIPOS>BOND
    1    1    2 1     
    2    1   25 1     
    3    1   26 1     
    4    1   27 1     
    5    2    3 1     
    6    2    4 1     
    7    2    5 1     
    8    3   28 1     
    9    3   29 1     
   10    3   30 1     
   11    4   31 1     
   12    4   32 1     
   13    4   33 1     
   14    5   24 ar    
   15    5    6 ar    
   16    6    7 ar    
   17    6   34 1     
   18    7    8 ar    
   19    7   35 1     
   20    8    9 1     
   21    8   23 ar    
   22    9   10 am    
   23    9   36 1     
   24   10   11 2     
   25   10   12 am    
   26   12   13 1     
   27   12   37 1     
   28   13   19 1     
   29   13   14 1     
   30   13   38 1     
   31   14   18 1     
   32   14   15 1     
   33   14   39 1     
   34   15   16 1     
   35   15   40 1     
   36   15   41 1     
   37   16   17 1     
   38   16   42 1     
   39   16   43 1     
   40   17   18 1     
   41   18   19 1     
   42   18   44 1     
   43   19   22 1     
   44   19   20 1     
   45   20   21 1     
   46   20   45 1     
   47   20   46 1     
   48   21   22 1     
   49   21   47 1     
   50   21   48 1     
   51   22   49 1     
   52   22   50 1     
   53   23   24 ar    
   54   11   51 1     
   55   11   52 1     
   56   17   53 1     
   57   17   54 1     
   58   23   55 1     
   59   24   56 1     
@<TRIPOS>SUBSTRUCTURE
      1 S1             1
@<TRIPOS>SET
LONE_PAIRS      STATIC     ATOMS    <user>   **** ""
6 51 52 53 54 55 56
DONOR_HYDROGENS      STATIC     ATOMS    <user>   **** ""
2 36 37
ATOM$BLUE        STATIC     ATOMS    COLORGROUP SYSTEM
6 51 52 53 54 55 56
ATOM$RED        STATIC     ATOMS    COLORGROUP SYSTEM
2 36 37
