AV-unprocessed.smi:287|AV-procd|sdf|2179|dock5
  -GOLD-   2262021543D 1   1.00000     0.00000
 Structure written by MMmdl.
 55 58  0  0  0  0  0  0  0  0  1 V2000
  151.6635  143.0910  158.0022 C   0  0  0  0  0  0  0  0  0  0  0  0
  151.0327  142.1941  156.9931 C   0  0  0  0  0  0  0  0  0  0  0  0
  149.8502  142.2219  156.3134 C   0  0  0  0  0  0  0  0  0  0  0  0
  149.8110  141.0659  155.4778 C   0  0  0  0  0  0  0  0  0  0  0  0
  148.6841  140.6808  154.5291 C   0  0  1  0  0  0  0  0  0  0  0  0
  147.6068  141.7775  154.5339 C   0  0  0  0  0  0  0  0  0  0  0  0
  149.1119  140.5765  153.1849 O   0  0  0  0  0  0  0  0  0  0  0  0
  148.0538  139.3137  154.8794 C   0  0  0  0  0  0  0  0  0  0  0  0
  147.3586  138.7037  153.7504 N   0  0  0  0  0  0  0  0  0  0  0  0
  146.8358  137.4650  153.8639 C   0  0  0  0  0  0  0  0  0  0  0  0
  146.7785  136.8358  155.0672 N   0  0  0  0  0  0  0  0  0  0  0  0
  146.2627  135.6054  155.1533 C   0  0  0  0  0  0  0  0  0  0  0  0
  145.7605  134.8403  154.1810 N   0  0  0  0  0  0  0  0  0  0  0  0
  145.8152  135.4723  152.9728 C   0  0  0  0  0  0  0  0  0  0  0  0
  146.3318  136.7745  152.7320 C   0  0  0  0  0  0  0  0  0  0  0  0
  146.2193  137.0823  151.3824 N   0  0  0  0  0  0  0  0  0  0  0  0
  145.6701  136.0183  150.8598 C   0  0  0  0  0  0  0  0  0  0  0  0
  145.4050  134.9959  151.7476 N   0  0  0  0  0  0  0  0  0  0  0  0
  144.8032  133.6456  151.4989 C   0  0  1  0  0  0  0  0  0  0  0  0
  144.0486  133.7094  150.3255 O   0  0  0  0  0  0  0  0  0  0  0  0
  144.7704  133.1125  149.2536 C   0  0  2  0  0  0  0  0  0  0  0  0
  143.7994  132.6985  148.1377 C   0  0  0  0  0  0  0  0  0  0  0  0
  143.4813  133.8175  147.3384 O   0  0  0  0  0  0  0  0  0  0  0  0
  145.4368  131.9342  149.9630 C   0  0  1  0  0  0  0  0  0  0  0  0
  146.5030  131.3746  149.2186 O   0  0  0  0  0  0  0  0  0  0  0  0
  145.8756  132.5479  151.2909 C   0  0  1  0  0  0  0  0  0  0  0  0
  147.2067  133.0423  151.2419 O   0  0  0  0  0  0  0  0  0  0  0  0
  151.0040  140.4247  155.7112 C   0  0  0  0  0  0  0  0  0  0  0  0
  151.6351  139.1820  155.1749 C   0  0  0  0  0  0  0  0  0  0  0  0
  151.7477  141.0990  156.6322 O   0  0  0  0  0  0  0  0  0  0  0  0
  144.1525  133.4699  152.3565 H   0  0  0  0  0  0  0  0  0  0  0  0
  145.5332  133.7990  148.8811 H   0  0  0  0  0  0  0  0  0  0  0  0
  144.6941  131.1584  150.1561 H   0  0  0  0  0  0  0  0  0  0  0  0
  145.8107  131.8197  152.0998 H   0  0  0  0  0  0  0  0  0  0  0  0
  150.9677  143.8671  158.3221 H   0  0  0  0  0  0  0  0  0  0  0  0
  152.5461  143.5783  157.5878 H   0  0  0  0  0  0  0  0  0  0  0  0
  151.9691  142.5277  158.8839 H   0  0  0  0  0  0  0  0  0  0  0  0
  149.0926  142.9860  156.4074 H   0  0  0  0  0  0  0  0  0  0  0  0
  147.1853  141.9121  155.5308 H   0  0  0  0  0  0  0  0  0  0  0  0
  146.7837  141.5342  153.8609 H   0  0  0  0  0  0  0  0  0  0  0  0
  148.0177  142.7380  154.2198 H   0  0  0  0  0  0  0  0  0  0  0  0
  148.8578  139.7284  152.8551 H   0  0  0  0  0  0  0  0  0  0  0  0
  148.8488  138.6296  155.1800 H   0  0  0  0  0  0  0  0  0  0  0  0
  147.3800  139.4043  155.7329 H   0  0  0  0  0  0  0  0  0  0  0  0
  147.3012  139.2597  152.9089 H   0  0  0  0  0  0  0  0  0  0  0  0
  146.2532  135.1710  156.1419 H   0  0  0  0  0  0  0  0  0  0  0  0
  145.4483  135.9556  149.8046 H   0  0  0  0  0  0  0  0  0  0  0  0
  144.2658  131.9561  147.4895 H   0  0  0  0  0  0  0  0  0  0  0  0
  142.8926  132.2502  148.5446 H   0  0  0  0  0  0  0  0  0  0  0  0
  144.2610  134.3403  147.2291 H   0  0  0  0  0  0  0  0  0  0  0  0
  147.2979  131.4604  149.7226 H   0  0  0  0  0  0  0  0  0  0  0  0
  147.7663  132.3596  150.9037 H   0  0  0  0  0  0  0  0  0  0  0  0
  151.6087  139.1736  154.0851 H   0  0  0  0  0  0  0  0  0  0  0  0
  151.1093  138.2971  155.5338 H   0  0  0  0  0  0  0  0  0  0  0  0
  152.6776  139.1028  155.4841 H   0  0  0  0  0  0  0  0  0  0  0  0
  1  2  1  0  0  0  0
  1 35  1  0  0  0  0
  1 36  1  0  0  0  0
  1 37  1  0  0  0  0
  2 30  1  0  0  0  0
  2  3  2  0  0  0  0
  3  4  1  0  0  0  0
  3 38  1  0  0  0  0
  4  5  1  0  0  0  0
  4 28  2  0  0  0  0
  5  6  1  0  0  0  0
  5  7  1  0  0  0  0
  5  8  1  0  0  0  0
  6 39  1  0  0  0  0
  6 40  1  0  0  0  0
  6 41  1  0  0  0  0
  7 42  1  0  0  0  0
  8  9  1  0  0  0  0
  8 43  1  0  0  0  0
  8 44  1  0  0  0  0
  9 10  1  0  0  0  0
  9 45  1  0  0  0  0
 10 15  1  0  0  0  0
 10 11  2  0  0  0  0
 11 12  1  0  0  0  0
 12 13  2  0  0  0  0
 12 46  1  0  0  0  0
 13 14  1  0  0  0  0
 14 18  1  0  0  0  0
 14 15  2  0  0  0  0
 15 16  1  0  0  0  0
 16 17  2  0  0  0  0
 17 18  1  0  0  0  0
 17 47  1  0  0  0  0
 18 19  1  0  0  0  0
 19 31  1  0  0  0  0
 19 26  1  0  0  0  0
 19 20  1  0  0  0  0
 20 21  1  0  0  0  0
 21 32  1  0  0  0  0
 21 22  1  0  0  0  0
 21 24  1  0  0  0  0
 22 23  1  0  0  0  0
 22 48  1  0  0  0  0
 22 49  1  0  0  0  0
 23 50  1  0  0  0  0
 24 33  1  0  0  0  0
 24 25  1  0  0  0  0
 24 26  1  0  0  0  0
 25 51  1  0  0  0  0
 26 34  1  0  0  0  0
 26 27  1  0  0  0  0
 27 52  1  0  0  0  0
 28 29  1  0  0  0  0
 28 30  1  0  0  0  0
 29 53  1  0  0  0  0
 29 54  1  0  0  0  0
 29 55  1  0  0  0  0
M  END
> <s_m_source_file>
AV-unprocessed.smi

> <i_m_source_file_index>
287

> <i_lp_mmshare_version>
43012

> <i_f3d_flags>
0

> <s_epik_input>
W0NIM11jMVtjSF1jKGMobzEpW0NIM10pW0NAQF0oW0NIM10pKFtPSF0pW0NIMl1bTkhdYyhuW2NIXW4yKWMoYzIzKW5bY0hdbjNbQ0BASF00T1tDQEhdKFtDSDJdW09IXSlbQ0BASF0oW09IXSlbQ0BIXTRbT0hd

> <s_epik_cmdline>
J2VwaWtfcHl0aG9uJywgJy1waCcsICc3LjAnLCAnLXRuJywgJzgnLCAnLW1hJywgJzIwMCcsICctbWV0YWxfYmluZGluZycsICctaW1hZScsICc8aW5maWxlLm1hZT4nLCAnLW9tYWUnLCAnPG91dGZpbGUubWFlPic=

> <r_lp_tautomer_probability>
1

> <r_epik_Ionization_Penalty>
0.000992612

> <r_epik_Ionization_Penalty_Charging>
0

> <r_epik_Ionization_Penalty_Neutral>
0.000992612

> <r_epik_State_Penalty>
-0

> <r_epik_Charging_Adjusted_Penalty>
0

> <i_epik_Tot_Q>
0

> <i_epik_Tot_abs_Q>
0

> <r_epik_Metal_State_Penalty>
-0

> <b_epik_Metal_Only>
0

> <s_epik_Chemistry_Notes>
This compound contains an acetal/aminal-like group ( X-CH(R)-Y where X, Y are N, S, or O) that may be acid/base labile, releasing an aldehyde.

> <s_lp_Force_Field>
OPLS_2005

> <r_lp_Energy>
45.8532

> <b_lp_Chiralities_Consistent>
1

> <s_lp_Variant>
AV-unprocessed.smi:287-3

> <Gold.Version>
5.8.1

> <Gold.Id.Protein>
6NUR|6NUR_protein|mol2

> <Gold.PLP.Fitness>
58.3007

> <Gold.PLP.PLP>
-43.4028

> <Gold.PLP.part.hbond>
-6.6016

> <Gold.PLP.part.metal>
0.0000

> <Gold.PLP.part.buried>
2.6247

> <Gold.PLP.part.nonpolar>
-40.0793

> <Gold.PLP.part.repulsive>
2.1034

> <Gold.PLP.ligand.clash>
0.0000

> <Gold.PLP.ligand.torsion>
1.2213

> <Gold.PLP.Chemscore.Hbond>
4.7388

> <Gold.PLP.Chemscore.CHOScore>
0.9857

> <Gold.PLP.Chemscore.Metal>
0.0000

> <Gold.Chemscore.Hbonds>
donor molecule, donor type, donor heavy atom, donor atom, acceptor molecule, acceptor atom, score
      L1  H    23    50       P1  7921  1.00
      L1  H    25    51       P1 10747  1.00
      L1  H    27    52       P1 10747  1.00
      P1  H  8011  8017       L1     7  0.75
      P1  H 10192 10197       L1    23  1.00
      L1  C    17    47       P1  7921  0.99

> <Gold.PLP.Chemscore.Internal.Correction>
0.1670

> <Gold.Rescore>
     Score         DG    S(hbond)    S(metal)    S(lipo)     H(rot)  DE(clash)    DE(int)     intcor
     12.59     -19.01       4.19        0.00     111.24       5.27       5.15       1.27       ----

> <Gold.Chemscore.Fitness>
12.5925

> <Gold.Chemscore.DG>
-19.0081

> <Gold.Chemscore.ZeroCoef>
-5.4800

> <Gold.Chemscore.Hbond>
4.1906

> <Gold.Chemscore.Metal>
0.0000

> <Gold.Chemscore.Lipo>
111.2422

> <Gold.Chemscore.Internal_Hbond>
0.0000

> <Gold.Chemscore.DEClash>
5.1455

> <Gold.Chemscore.DEInternal>
1.2701

> <Gold.Chemscore.Rot>
5.2672

> <Gold.Chemscore.Internal.Correction>
   9.000000E+99

> <Gold.Chemscore.Hbonds>
donor molecule, donor type, donor heavy atom, donor atom, acceptor molecule, acceptor atom, score
      L1  H     7    42       P1  7957  0.01
      L1  H    23    50       P1  7921  0.97
      L1  H    25    51       P1 10747  0.95
      L1  H    27    52       P1 10747  0.93
      P1  H  8011  8017       L1     7  0.66
      P1  H 10192 10197       L1    23  0.39

> <Gold.Chemscore.Hbond.Weighted>
-13.9967

> <Gold.Chemscore.Metal.Weighted>
-0.0000

> <Gold.Chemscore.Lipo.Weighted>
-13.0153

> <Gold.Chemscore.Internal_Hbond.Weighted>
0.0000

> <Gold.Chemscore.DEClash.Weighted>
5.1455

> <Gold.Chemscore.DEInternal.Weighted>
1.2701

> <Gold.Chemscore.Rot.Weighted>
13.4839

> <Gold.Chemscore.Internal.Correction.Weighted>
   9.000000E+99

> <Gold.Protein.RotatedTorsions>
[ 6907 6896 6895 6894 ] final  106.79 input  -60.11 | X-H torsion
[ 7974 7965 7964 7962 ] final  -79.03 input  175.53 | X-H torsion
[ 8008 7997 7996 7995 ] final   70.92 input   59.86 | X-H torsion
[ 10167 10162 10161 10158 ] final    9.93 input  -65.29 | X-H torsion
[ 10718 10713 10712 10709 ] final -160.51 input   66.30 | X-H torsion
[ 10763 10752 10751 10750 ] final  176.37 input  -60.55 | X-H torsion
[ 11005 11000 10999 10996 ] final    4.00 input  -57.11 | X-H torsion

> <Gold.Protein.ActiveResidues>
 VAL166  LYS551  ARG553  GLY616  TRP617  ASP618  TYR619  PRO620  LYS621  CYS622 
 ASP623  PHE694  ASN695  SER759  ASP760  ASP761  ALA762  ILE779  LEU786  VAL792 
 PHE793  MET794  SER795  GLU796  ALA797  LYS798  CYS799  TRP800  GLU811  SER814 

> <Gold.Protein.RotatedAtoms>
  152.5180  133.9329  159.7588 H   0  0  0  0  0  0  0  0  0  0  0  0  # atno 6907 bound_to 6896
  150.9676  133.6370  159.2750 H   0  0  0  0  0  0  0  0  0  0  0  0  # atno 6908 bound_to 6896
  151.3593  135.0906  159.9482 H   0  0  0  0  0  0  0  0  0  0  0  0  # atno 6909 bound_to 6896
  145.5786  140.9452  143.1356 H   0  0  0  0  0  0  0  0  0  0  0  0  # atno 7974 bound_to 7965
  155.7461  140.3489  155.5127 H   0  0  0  0  0  0  0  0  0  0  0  0  # atno 8008 bound_to 7997
  155.9049  140.1040  157.1344 H   0  0  0  0  0  0  0  0  0  0  0  0  # atno 8009 bound_to 7997
  154.4048  140.1279  156.4470 H   0  0  0  0  0  0  0  0  0  0  0  0  # atno 8010 bound_to 7997
  140.6225  143.8173  150.7193 H   0  0  0  0  0  0  0  0  0  0  0  0  # atno 10167 bound_to 10162
  156.5831  130.8738  151.2870 H   0  0  0  0  0  0  0  0  0  0  0  0  # atno 10718 bound_to 10713
  154.4801  135.2774  155.1577 H   0  0  0  0  0  0  0  0  0  0  0  0  # atno 10763 bound_to 10752
  154.3290  135.6194  153.5546 H   0  0  0  0  0  0  0  0  0  0  0  0  # atno 10764 bound_to 10752
  152.9874  135.5761  154.5201 H   0  0  0  0  0  0  0  0  0  0  0  0  # atno 10765 bound_to 10752
  140.5869  133.9961  155.8071 H   0  0  0  0  0  0  0  0  0  0  0  0  # atno 11005 bound_to 11000
  144.7404  139.7465  143.7313 LP  0  0  0  0  0  0  0  0  0  0  0  0  # atno 17320 bound_to 7965
  146.1732  139.4892  142.9914 LP  0  0  0  0  0  0  0  0  0  0  0  0  # atno 17321 bound_to 7965
  140.1766  143.4149  152.1963 LP  0  0  0  0  0  0  0  0  0  0  0  0  # atno 17342 bound_to 10162
  139.5451  144.7291  151.4609 LP  0  0  0  0  0  0  0  0  0  0  0  0  # atno 17343 bound_to 10162
  157.7322  130.9711  150.1915 LP  0  0  0  0  0  0  0  0  0  0  0  0  # atno 17370 bound_to 10713
  156.2614  130.3711  149.8127 LP  0  0  0  0  0  0  0  0  0  0  0  0  # atno 17371 bound_to 10713
  141.0960  133.9842  157.3159 LP  0  0  0  0  0  0  0  0  0  0  0  0  # atno 17394 bound_to 11000
  139.9292  135.0200  156.8341 LP  0  0  0  0  0  0  0  0  0  0  0  0  # atno 17395 bound_to 11000

$$$$
