AV-unprocessed.smi:2978|AV-procd|sdf|11369|dock6
  -GOLD-   2272016283D 1   1.00000     0.00000
 Structure written by MMmdl.
 32 33  0  0  0  0  0  0  0  0  1 V2000
  151.0917  137.1315  159.9318 O   0  0  0  0  0  0  0  0  0  0  0  0
  150.4914  137.7776  159.0717 C   0  0  0  0  0  0  0  0  0  0  0  0
  149.0440  137.4291  158.6944 C   0  0  0  0  0  0  0  0  0  0  0  0
  148.3585  136.6161  159.7098 N   0  0  0  0  0  0  0  0  0  0  0  0
  147.6408  137.3547  160.6344 N   0  0  0  0  0  0  0  0  0  0  0  0
  146.9861  136.7457  161.5619 C   0  0  0  0  0  0  0  0  0  0  0  0
  146.9751  135.3043  161.6782 C   0  0  0  0  0  0  0  0  0  0  0  0
  146.0775  134.5432  162.9442 Cl  0  0  0  0  0  0  0  0  0  0  0  0
  147.6872  134.5897  160.7709 C   0  0  0  0  0  0  0  0  0  0  0  0
  147.7240  132.8613  160.8465 Cl  0  0  0  0  0  0  0  0  0  0  0  0
  148.4464  135.2499  159.6997 C   0  0  0  0  0  0  0  0  0  0  0  0
  149.1065  134.6376  158.8593 O   0  0  0  0  0  0  0  0  0  0  0  0
  151.0442  138.8007  158.4034 N   0  0  0  0  0  0  0  0  0  0  0  0
  152.3917  139.3131  158.6209 C   0  0  0  0  0  0  0  0  0  0  0  0
  152.3869  140.5144  159.5806 C   0  0  1  0  0  0  0  0  0  0  0  0
  153.7785  140.9910  159.9814 C   0  0  0  0  0  0  0  0  0  0  0  0
  153.5019  142.4021  160.4601 C   0  0  0  0  0  0  0  0  0  0  0  0
  152.2892  142.8300  159.6279 C   0  0  0  0  0  0  0  0  0  0  0  0
  151.8376  141.6618  158.9485 O   0  0  0  0  0  0  0  0  0  0  0  0
  148.4805  138.3467  158.5138 H   0  0  0  0  0  0  0  0  0  0  0  0
  149.0626  136.9044  157.7376 H   0  0  0  0  0  0  0  0  0  0  0  0
  146.4048  137.2853  162.3097 H   0  0  0  0  0  0  0  0  0  0  0  0
  150.4823  139.2768  157.7126 H   0  0  0  0  0  0  0  0  0  0  0  0
  153.0314  138.5197  159.0109 H   0  0  0  0  0  0  0  0  0  0  0  0
  152.8109  139.6035  157.6573 H   0  0  0  0  0  0  0  0  0  0  0  0
  151.8066  140.2930  160.4785 H   0  0  0  0  0  0  0  0  0  0  0  0
  154.2397  140.3643  160.7454 H   0  0  0  0  0  0  0  0  0  0  0  0
  154.4386  141.0148  159.1129 H   0  0  0  0  0  0  0  0  0  0  0  0
  153.2405  142.3920  161.5189 H   0  0  0  0  0  0  0  0  0  0  0  0
  154.3591  143.0635  160.3301 H   0  0  0  0  0  0  0  0  0  0  0  0
  151.4972  143.2252  160.2649 H   0  0  0  0  0  0  0  0  0  0  0  0
  152.5500  143.5960  158.8972 H   0  0  0  0  0  0  0  0  0  0  0  0
  1  2  2  0  0  0  0
  2  3  1  0  0  0  0
  2 13  1  0  0  0  0
  3  4  1  0  0  0  0
  3 20  1  0  0  0  0
  3 21  1  0  0  0  0
  4 11  1  0  0  0  0
  4  5  1  0  0  0  0
  5  6  2  0  0  0  0
  6  7  1  0  0  0  0
  6 22  1  0  0  0  0
  7  8  1  0  0  0  0
  7  9  2  0  0  0  0
  9 10  1  0  0  0  0
  9 11  1  0  0  0  0
 11 12  2  0  0  0  0
 13 14  1  0  0  0  0
 13 23  1  0  0  0  0
 14 15  1  0  0  0  0
 14 24  1  0  0  0  0
 14 25  1  0  0  0  0
 15 19  1  0  0  0  0
 15 16  1  0  0  0  0
 15 26  1  0  0  0  0
 16 17  1  0  0  0  0
 16 27  1  0  0  0  0
 16 28  1  0  0  0  0
 17 18  1  0  0  0  0
 17 29  1  0  0  0  0
 17 30  1  0  0  0  0
 18 19  1  0  0  0  0
 18 31  1  0  0  0  0
 18 32  1  0  0  0  0
M  END
> <s_m_source_file>
AV-unprocessed.smi

> <i_m_source_file_index>
2978

> <i_lp_mmshare_version>
43012

> <i_f3d_flags>
0

> <s_epik_input>
TzFbQ0gyXVtDSDJdW0NIMl1bQ0BIXTFbQ0gyXVtOSF1DKD1PKVtDSDJdbjJuW2NIXWMoQ2wpYyhDbCljMj1P

> <s_epik_cmdline>
J2VwaWtfcHl0aG9uJywgJy1waCcsICc3LjAnLCAnLXRuJywgJzgnLCAnLW1hJywgJzIwMCcsICctbWV0YWxfYmluZGluZycsICctaW1hZScsICc8aW5maWxlLm1hZT4nLCAnLW9tYWUnLCAnPG91dGZpbGUubWFlPic=

> <r_lp_tautomer_probability>
1

> <r_epik_Ionization_Penalty>
2.68881e-08

> <r_epik_Ionization_Penalty_Charging>
2.90862e-11

> <r_epik_Ionization_Penalty_Neutral>
2.6859e-08

> <r_epik_State_Penalty>
-0

> <r_epik_Charging_Adjusted_Penalty>
2.90862e-11

> <i_epik_Tot_Q>
0

> <i_epik_Tot_abs_Q>
0

> <r_epik_Metal_State_Penalty>
-0

> <b_epik_Metal_Only>
0

> <s_lp_Force_Field>
OPLS_2005

> <r_lp_Energy>
30.853

> <b_lp_Chiralities_Consistent>
1

> <s_lp_Variant>
AV-unprocessed.smi:2978-2

> <Gold.Version>
5.8.1

> <Gold.Id.Protein>
6NUR|6NUR_protein|mol2

> <Gold.PLP.Fitness>
44.1839

> <Gold.PLP.PLP>
-35.1541

> <Gold.PLP.part.hbond>
-4.0000

> <Gold.PLP.part.metal>
0.0000

> <Gold.PLP.part.buried>
-2.8509

> <Gold.PLP.part.nonpolar>
-29.3594

> <Gold.PLP.part.repulsive>
0.0963

> <Gold.PLP.ligand.clash>
0.0000

> <Gold.PLP.ligand.torsion>
0.8395

> <Gold.PLP.Chemscore.Hbond>
3.5604

> <Gold.PLP.Chemscore.CHOScore>
0.0000

> <Gold.PLP.Chemscore.Metal>
0.0000

> <Gold.Chemscore.Hbonds>
donor molecule, donor type, donor heavy atom, donor atom, acceptor molecule, acceptor atom, score
      P1  H  6896  6907       L1    12  0.78
      P1  H  6896  6908       L1     1  0.93
      P1  H  6931  6943       L1     5  0.53
      P1  H  6934  6947       L1     5  0.93

> <Gold.PLP.Chemscore.Internal.Correction>
0.0275

> <Gold.Rescore>
     Score         DG    S(hbond)    S(metal)    S(lipo)     H(rot)  DE(clash)    DE(int)     intcor
     18.14     -18.93       2.62        0.00      80.16       1.83       0.05       0.74       ----

> <Gold.Chemscore.Fitness>
18.1373

> <Gold.Chemscore.DG>
-18.9260

> <Gold.Chemscore.ZeroCoef>
-5.4800

> <Gold.Chemscore.Hbond>
2.6218

> <Gold.Chemscore.Metal>
0.0000

> <Gold.Chemscore.Lipo>
80.1626

> <Gold.Chemscore.Internal_Hbond>
0.0000

> <Gold.Chemscore.DEClash>
0.0515

> <Gold.Chemscore.DEInternal>
0.7372

> <Gold.Chemscore.Rot>
1.8320

> <Gold.Chemscore.Internal.Correction>
   9.000000E+99

> <Gold.Chemscore.Hbonds>
donor molecule, donor type, donor heavy atom, donor atom, acceptor molecule, acceptor atom, score
      P1  H  6896  6907       L1    12  0.76
      P1  H  6896  6908       L1     1  0.86
      P1  H  6931  6943       L1     5  0.05
      P1  H  6934  6947       L1     5  0.32

> <Gold.Chemscore.Hbond.Weighted>
-8.7569

> <Gold.Chemscore.Metal.Weighted>
-0.0000

> <Gold.Chemscore.Lipo.Weighted>
-9.3790

> <Gold.Chemscore.Internal_Hbond.Weighted>
0.0000

> <Gold.Chemscore.DEClash.Weighted>
0.0515

> <Gold.Chemscore.DEInternal.Weighted>
0.7372

> <Gold.Chemscore.Rot.Weighted>
4.6900

> <Gold.Chemscore.Internal.Correction.Weighted>
   9.000000E+99

> <Gold.Protein.RotatedTorsions>
[ 6907 6896 6895 6894 ] final -112.56 input  -60.11 | X-H torsion
[ 7974 7965 7964 7962 ] final  -25.38 input  175.53 | X-H torsion
[ 8008 7997 7996 7995 ] final -166.50 input   59.86 | X-H torsion
[ 10167 10162 10161 10158 ] final  -52.58 input  -65.29 | X-H torsion
[ 10718 10713 10712 10709 ] final    5.10 input   66.30 | X-H torsion
[ 10763 10752 10751 10750 ] final   58.81 input  -60.55 | X-H torsion
[ 11005 11000 10999 10996 ] final   40.49 input  -57.11 | X-H torsion

> <Gold.Protein.ActiveResidues>
 VAL166  LYS551  ARG553  GLY616  TRP617  ASP618  TYR619  PRO620  LYS621  CYS622 
 ASP623  PHE694  ASN695  SER759  ASP760  ASP761  ALA762  ILE779  LEU786  VAL792 
 PHE793  MET794  SER795  GLU796  ALA797  LYS798  CYS799  TRP800  GLU811  SER814 

> <Gold.Protein.RotatedAtoms>
  150.7767  133.9071  159.3358 H   0  0  0  0  0  0  0  0  0  0  0  0  # atno 6907 bound_to 6896
  151.6944  135.0939  160.0249 H   0  0  0  0  0  0  0  0  0  0  0  0  # atno 6908 bound_to 6896
  152.3805  133.6502  159.6193 H   0  0  0  0  0  0  0  0  0  0  0  0  # atno 6909 bound_to 6896
  146.1495  140.4879  142.8617 H   0  0  0  0  0  0  0  0  0  0  0  0  # atno 7974 bound_to 7965
  155.8648  140.0984  157.1590 H   0  0  0  0  0  0  0  0  0  0  0  0  # atno 8008 bound_to 7997
  154.3993  140.1358  156.4067 H   0  0  0  0  0  0  0  0  0  0  0  0  # atno 8009 bound_to 7997
  155.7817  140.3458  155.5303 H   0  0  0  0  0  0  0  0  0  0  0  0  # atno 8010 bound_to 7997
  140.6530  143.2579  151.4668 H   0  0  0  0  0  0  0  0  0  0  0  0  # atno 10167 bound_to 10162
  156.9024  130.5726  149.5648 H   0  0  0  0  0  0  0  0  0  0  0  0  # atno 10718 bound_to 10713
  152.9879  135.5593  154.5612 H   0  0  0  0  0  0  0  0  0  0  0  0  # atno 10763 bound_to 10752
  154.5031  135.2798  155.1407 H   0  0  0  0  0  0  0  0  0  0  0  0  # atno 10764 bound_to 10752
  154.2829  135.6341  153.5407 H   0  0  0  0  0  0  0  0  0  0  0  0  # atno 10765 bound_to 10752
  140.1926  134.3968  155.8138 H   0  0  0  0  0  0  0  0  0  0  0  0  # atno 11005 bound_to 11000
  144.7886  140.5987  143.6557 LP  0  0  0  0  0  0  0  0  0  0  0  0  # atno 17320 bound_to 7965
  145.4858  139.1492  143.3737 LP  0  0  0  0  0  0  0  0  0  0  0  0  # atno 17321 bound_to 7965
  139.5748  144.1845  152.1887 LP  0  0  0  0  0  0  0  0  0  0  0  0  # atno 17342 bound_to 10162
  140.1152  144.5422  150.6898 LP  0  0  0  0  0  0  0  0  0  0  0  0  # atno 17343 bound_to 10162
  156.0575  130.5634  150.9123 LP  0  0  0  0  0  0  0  0  0  0  0  0  # atno 17370 bound_to 10713
  157.6018  131.0941  150.8947 LP  0  0  0  0  0  0  0  0  0  0  0  0  # atno 17371 bound_to 10713
  141.2226  133.7054  156.8121 LP  0  0  0  0  0  0  0  0  0  0  0  0  # atno 17394 bound_to 11000
  140.2143  134.8804  157.3309 LP  0  0  0  0  0  0  0  0  0  0  0  0  # atno 17395 bound_to 11000

$$$$
