AV-unprocessed.smi:1033|AV-procd|sdf|4501|dock3
  -GOLD-   22720 2493D 1   1.00000     0.00000
 Structure written by MMmdl.
 57 59  0  0  0  0  0  0  0  0  3 V2000
  152.5306  140.0089  155.8406 C   0  0  0  0  0  0  0  0  0  0  0  0
  151.1789  140.0810  155.1505 C   0  0  0  0  0  0  0  0  0  0  0  0
  150.4230  141.2691  155.2711 C   0  0  0  0  0  0  0  0  0  0  0  0
  149.1916  141.3052  154.6277 C   0  0  0  0  0  0  0  0  0  0  0  0
  148.2233  142.3092  154.5589 N   0  3  0  0  0  0  0  0  0  0  0  0
  147.1727  141.8770  153.8078 C   0  0  0  0  0  0  0  0  0  0  0  0
  147.4621  140.6156  153.3854 N   0  0  0  0  0  0  0  0  0  0  0  0
  146.6782  139.6914  152.5558 C   0  0  0  0  0  0  0  0  0  0  0  0
  146.1698  138.4573  153.3297 C   0  0  1  0  0  0  0  0  0  0  0  0
  145.3856  138.9339  154.4044 O   0  0  0  0  0  0  0  0  0  0  0  0
  145.3181  137.5024  152.4636 C   0  0  0  0  0  0  0  0  0  0  0  0
  146.0407  136.2621  152.0815 N   0  3  0  0  0  0  0  0  0  0  0  0
  145.6737  135.7493  150.7336 C   0  0  0  0  0  0  0  0  0  0  0  0
  146.4979  134.4897  150.3964 C   0  0  0  0  0  0  0  0  0  0  0  0
  146.3554  133.4191  151.3866 N   0  0  0  0  0  0  0  0  0  0  0  0
  145.0465  132.7551  151.3890 C   0  0  0  0  0  0  0  0  0  0  0  0
  144.8893  131.5939  150.3874 C   0  0  1  0  0  0  0  0  0  0  0  0
  145.2379  130.2271  150.9940 C   0  0  0  0  0  0  0  0  0  0  0  0
  143.5422  131.5569  149.9670 O   0  0  0  0  0  0  0  0  0  0  0  0
  146.7222  133.9502  152.6986 C   0  0  0  0  0  0  0  0  0  0  0  0
  145.9025  135.1923  153.1035 C   0  0  0  0  0  0  0  0  0  0  0  0
  148.7062  140.2132  153.8826 C   0  0  0  0  0  0  0  0  0  0  0  0
  149.4354  139.0333  153.7577 C   0  0  0  0  0  0  0  0  0  0  0  0
  150.6904  138.9766  154.4050 C   0  0  0  0  0  0  0  0  0  0  0  0
  151.5097  137.7027  154.2864 C   0  0  0  0  0  0  0  0  0  0  0  0
  152.7750  140.9476  156.3391 H   0  0  0  0  0  0  0  0  0  0  0  0
  153.3200  139.8015  155.1178 H   0  0  0  0  0  0  0  0  0  0  0  0
  152.5339  139.2209  156.5939 H   0  0  0  0  0  0  0  0  0  0  0  0
  150.7870  142.1115  155.8412 H   0  0  0  0  0  0  0  0  0  0  0  0
  146.2749  142.4360  153.5852 H   0  0  0  0  0  0  0  0  0  0  0  0
  145.8482  140.2486  152.1184 H   0  0  0  0  0  0  0  0  0  0  0  0
  147.3144  139.3817  151.7251 H   0  0  0  0  0  0  0  0  0  0  0  0
  147.0272  137.9328  153.7485 H   0  0  0  0  0  0  0  0  0  0  0  0
  144.6888  139.4737  154.0642 H   0  0  0  0  0  0  0  0  0  0  0  0
  144.4163  137.2450  153.0216 H   0  0  0  0  0  0  0  0  0  0  0  0
  144.9778  137.9974  151.5535 H   0  0  0  0  0  0  0  0  0  0  0  0
  144.6048  135.5364  150.6910 H   0  0  0  0  0  0  0  0  0  0  0  0
  145.8686  136.5074  149.9761 H   0  0  0  0  0  0  0  0  0  0  0  0
  146.2390  134.1300  149.4016 H   0  0  0  0  0  0  0  0  0  0  0  0
  147.5502  134.7706  150.3334 H   0  0  0  0  0  0  0  0  0  0  0  0
  144.8548  132.3606  152.3879 H   0  0  0  0  0  0  0  0  0  0  0  0
  144.2578  133.4852  151.2089 H   0  0  0  0  0  0  0  0  0  0  0  0
  145.4937  131.7662  149.4977 H   0  0  0  0  0  0  0  0  0  0  0  0
  146.2817  130.1909  151.3067 H   0  0  0  0  0  0  0  0  0  0  0  0
  145.0858  129.4255  150.2706 H   0  0  0  0  0  0  0  0  0  0  0  0
  144.6222  130.0092  151.8672 H   0  0  0  0  0  0  0  0  0  0  0  0
  143.0118  131.2340  150.6797 H   0  0  0  0  0  0  0  0  0  0  0  0
  146.6162  133.1728  153.4561 H   0  0  0  0  0  0  0  0  0  0  0  0
  147.7810  134.2129  152.6918 H   0  0  0  0  0  0  0  0  0  0  0  0
  146.2621  135.5590  154.0658 H   0  0  0  0  0  0  0  0  0  0  0  0
  144.8501  134.9391  153.2382 H   0  0  0  0  0  0  0  0  0  0  0  0
  149.0618  138.1915  153.1935 H   0  0  0  0  0  0  0  0  0  0  0  0
  150.9820  136.9398  153.7132 H   0  0  0  0  0  0  0  0  0  0  0  0
  151.7210  137.2897  155.2730 H   0  0  0  0  0  0  0  0  0  0  0  0
  152.4561  137.9021  153.7831 H   0  0  0  0  0  0  0  0  0  0  0  0
  147.0233  136.4937  152.0540 H   0  0  0  0  0  0  0  0  0  0  0  0
  148.2710  143.2206  154.9967 H   0  0  0  0  0  0  0  0  0  0  0  0
  1  2  1  0  0  0  0
  1 26  1  0  0  0  0
  1 27  1  0  0  0  0
  1 28  1  0  0  0  0
  2 24  1  0  0  0  0
  2  3  2  0  0  0  0
  3  4  1  0  0  0  0
  3 29  1  0  0  0  0
  4 22  2  0  0  0  0
  4  5  1  0  0  0  0
  5  6  2  0  0  0  0
  5 57  1  0  0  0  0
  6  7  1  0  0  0  0
  6 30  1  0  0  0  0
  7  8  1  0  0  0  0
  7 22  1  0  0  0  0
  8  9  1  0  0  0  0
  8 31  1  0  0  0  0
  8 32  1  0  0  0  0
  9 10  1  0  0  0  0
  9 11  1  0  0  0  0
  9 33  1  0  0  0  0
 10 34  1  0  0  0  0
 11 12  1  0  0  0  0
 11 35  1  0  0  0  0
 11 36  1  0  0  0  0
 12 21  1  0  0  0  0
 12 13  1  0  0  0  0
 12 56  1  0  0  0  0
 13 14  1  0  0  0  0
 13 37  1  0  0  0  0
 13 38  1  0  0  0  0
 14 15  1  0  0  0  0
 14 39  1  0  0  0  0
 14 40  1  0  0  0  0
 15 16  1  0  0  0  0
 15 20  1  0  0  0  0
 16 17  1  0  0  0  0
 16 41  1  0  0  0  0
 16 42  1  0  0  0  0
 17 18  1  0  0  0  0
 17 19  1  0  0  0  0
 17 43  1  0  0  0  0
 18 44  1  0  0  0  0
 18 45  1  0  0  0  0
 18 46  1  0  0  0  0
 19 47  1  0  0  0  0
 20 21  1  0  0  0  0
 20 48  1  0  0  0  0
 20 49  1  0  0  0  0
 21 50  1  0  0  0  0
 21 51  1  0  0  0  0
 22 23  1  0  0  0  0
 23 24  2  0  0  0  0
 23 52  1  0  0  0  0
 24 25  1  0  0  0  0
 25 53  1  0  0  0  0
 25 54  1  0  0  0  0
 25 55  1  0  0  0  0
M  CHG  1   5   1
M  CHG  1  12   1
M  END
> <s_m_source_file>
AV-unprocessed.smi

> <i_m_source_file_index>
1033

> <i_lp_mmshare_version>
43012

> <i_f3d_flags>
0

> <s_epik_input>
W0NIM11jKFtjSF0xKWMoW0NIM10pW2NIXWMoYzEyKW4oW2NIXW4yKVtDSDJdW0NASF0oW09IXSlbQ0gyXU4zW0NIMl1bQ0gyXU4oW0NIMl1bQ0gyXTMpW0NIMl1bQ0BIXShbQ0gzXSlbT0hd

> <s_epik_cmdline>
J2VwaWtfcHl0aG9uJywgJy1waCcsICc3LjAnLCAnLXRuJywgJzgnLCAnLW1hJywgJzIwMCcsICctbWV0YWxfYmluZGluZycsICctaW1hZScsICc8aW5maWxlLm1hZT4nLCAnLW9tYWUnLCAnPG91dGZpbGUubWFlPic=

> <r_epik_Ionization_Penalty>
1.22049

> <r_epik_Ionization_Penalty_Charging>
1.17952

> <r_epik_Ionization_Penalty_Neutral>
0.0409743

> <r_epik_State_Penalty>
1.61468

> <r_epik_Charging_Adjusted_Penalty>
2.7942

> <i_epik_Tot_Q>
2

> <i_epik_Tot_abs_Q>
2

> <r_epik_Metal_State_Penalty>
5.63169

> <b_epik_Metal_Only>
0

> <s_lp_Force_Field>
OPLS_2005

> <r_lp_Energy>
46.1755

> <b_lp_Chiralities_Consistent>
1

> <s_lp_Variant>
AV-unprocessed.smi:1033-12

> <Gold.Version>
5.8.1

> <Gold.Id.Protein>
6NUR|6NUR_protein|mol2

> <Gold.PLP.Fitness>
59.9303

> <Gold.PLP.PLP>
-45.5099

> <Gold.PLP.part.hbond>
-5.0000

> <Gold.PLP.part.metal>
0.0000

> <Gold.PLP.part.buried>
-1.4867

> <Gold.PLP.part.nonpolar>
-37.8648

> <Gold.PLP.part.repulsive>
0.3570

> <Gold.PLP.ligand.clash>
0.0000

> <Gold.PLP.ligand.torsion>
1.8410

> <Gold.PLP.Chemscore.Hbond>
5.9440

> <Gold.PLP.Chemscore.CHOScore>
0.0000

> <Gold.PLP.Chemscore.Metal>
0.0000

> <Gold.Chemscore.Hbonds>
donor molecule, donor type, donor heavy atom, donor atom, acceptor molecule, acceptor atom, score
      L1  H     5    57       P1  8028  2.00
      L1  H    10    34       P1 10175  0.76
      L1  H    12    56       P1  7948  2.00
      P1  H 10785 10796       L1    19  0.80

> <Gold.PLP.Chemscore.Internal.Correction>
0.2704

> <Gold.Rescore>
     Score         DG    S(hbond)    S(metal)    S(lipo)     H(rot)  DE(clash)    DE(int)     intcor
     19.42     -22.88       3.41        0.00     120.12       3.15       1.86       1.60       ----

> <Gold.Chemscore.Fitness>
19.4232

> <Gold.Chemscore.DG>
-22.8783

> <Gold.Chemscore.ZeroCoef>
-5.4800

> <Gold.Chemscore.Hbond>
3.4144

> <Gold.Chemscore.Metal>
0.0000

> <Gold.Chemscore.Lipo>
120.1183

> <Gold.Chemscore.Internal_Hbond>
0.0000

> <Gold.Chemscore.DEClash>
1.8591

> <Gold.Chemscore.DEInternal>
1.5961

> <Gold.Chemscore.Rot>
3.1483

> <Gold.Chemscore.Internal.Correction>
   9.000000E+99

> <Gold.Chemscore.Hbonds>
donor molecule, donor type, donor heavy atom, donor atom, acceptor molecule, acceptor atom, score
      L1  H     5    57       P1  8028  0.98
      L1  H    10    34       P1 10175  0.72
      L1  H    12    56       P1  7948  0.99
      P1  H 10785 10796       L1    19  0.11

> <Gold.Chemscore.Hbond.Weighted>
-11.4042

> <Gold.Chemscore.Metal.Weighted>
-0.0000

> <Gold.Chemscore.Lipo.Weighted>
-14.0538

> <Gold.Chemscore.Internal_Hbond.Weighted>
0.0000

> <Gold.Chemscore.DEClash.Weighted>
1.8591

> <Gold.Chemscore.DEInternal.Weighted>
1.5961

> <Gold.Chemscore.Rot.Weighted>
8.0597

> <Gold.Chemscore.Internal.Correction.Weighted>
   9.000000E+99

> <Gold.Protein.RotatedTorsions>
[ 6907 6896 6895 6894 ] final -176.21 input  -60.11 | X-H torsion
[ 7974 7965 7964 7962 ] final -136.81 input  175.53 | X-H torsion
[ 8008 7997 7996 7995 ] final  -79.73 input   59.86 | X-H torsion
[ 10167 10162 10161 10158 ] final  -94.58 input  -65.29 | X-H torsion
[ 10718 10713 10712 10709 ] final -114.31 input   66.30 | X-H torsion
[ 10763 10752 10751 10750 ] final -168.42 input  -60.55 | X-H torsion
[ 11005 11000 10999 10996 ] final  129.96 input  -57.11 | X-H torsion

> <Gold.Protein.ActiveResidues>
 VAL166  LYS551  ARG553  GLY616  TRP617  ASP618  TYR619  PRO620  LYS621  CYS622 
 ASP623  PHE694  ASN695  SER759  ASP760  ASP761  ALA762  ILE779  LEU786  VAL792 
 PHE793  MET794  SER795  GLU796  ALA797  LYS798  CYS799  TRP800  GLU811  SER814 

> <Gold.Protein.RotatedAtoms>
  151.6010  133.3356  159.3047 H   0  0  0  0  0  0  0  0  0  0  0  0  # atno 6907 bound_to 6896
  150.8208  134.7417  159.6781 H   0  0  0  0  0  0  0  0  0  0  0  0  # atno 6908 bound_to 6896
  152.4301  134.5799  159.9996 H   0  0  0  0  0  0  0  0  0  0  0  0  # atno 6909 bound_to 6896
  144.8895  140.6622  143.5154 H   0  0  0  0  0  0  0  0  0  0  0  0  # atno 7974 bound_to 7965
  154.5814  140.0674  156.9109 H   0  0  0  0  0  0  0  0  0  0  0  0  # atno 8008 bound_to 7997
  155.2456  140.3348  155.4269 H   0  0  0  0  0  0  0  0  0  0  0  0  # atno 8009 bound_to 7997
  156.2192  140.1791  156.7503 H   0  0  0  0  0  0  0  0  0  0  0  0  # atno 8010 bound_to 7997
  140.3129  143.3094  152.0129 H   0  0  0  0  0  0  0  0  0  0  0  0  # atno 10167 bound_to 10162
  156.0822  130.6020  150.8758 H   0  0  0  0  0  0  0  0  0  0  0  0  # atno 10718 bound_to 10713
  154.6630  135.2928  154.9841 H   0  0  0  0  0  0  0  0  0  0  0  0  # atno 10763 bound_to 10752
  154.0894  135.6593  153.4854 H   0  0  0  0  0  0  0  0  0  0  0  0  # atno 10764 bound_to 10752
  153.0441  135.5216  154.7590 H   0  0  0  0  0  0  0  0  0  0  0  0  # atno 10765 bound_to 10752
  139.9645  134.9594  156.9224 H   0  0  0  0  0  0  0  0  0  0  0  0  # atno 11005 bound_to 11000
  145.3809  139.1637  143.4281 LP  0  0  0  0  0  0  0  0  0  0  0  0  # atno 17320 bound_to 7965
  146.3045  140.3889  142.8692 LP  0  0  0  0  0  0  0  0  0  0  0  0  # atno 17321 bound_to 7965
  139.4890  144.6370  151.6954 LP  0  0  0  0  0  0  0  0  0  0  0  0  # atno 17342 bound_to 10162
  140.5552  144.0360  150.6144 LP  0  0  0  0  0  0  0  0  0  0  0  0  # atno 17343 bound_to 10162
  157.5943  131.0943  150.9067 LP  0  0  0  0  0  0  0  0  0  0  0  0  # atno 17370 bound_to 10713
  156.9237  130.5324  149.5279 LP  0  0  0  0  0  0  0  0  0  0  0  0  # atno 17371 bound_to 10713
  140.5428  134.0704  155.7346 LP  0  0  0  0  0  0  0  0  0  0  0  0  # atno 17394 bound_to 11000
  141.1324  133.9280  157.2508 LP  0  0  0  0  0  0  0  0  0  0  0  0  # atno 17395 bound_to 11000

$$$$
