#       Name:                AV-unprocessed.smi:2751
#       Creating user name   scv26
#       Creation time:       Fri Mar 27 15:05:35 2020


#       File generated by GOLD software.
#

@<TRIPOS>MOLECULE
AV-unprocessed.smi:2751
    41    42     1
SMALL
NO_CHARGES


@<TRIPOS>ATOM
      1 ****        -1.8494   1.8294   0.7557 O.2            1 S1                 0.0000
      2 ****        -2.3164   0.7755   1.1945 C.2            1 S1                 0.0000
      3 ****        -1.5024  -0.2565   1.4609 N.am           1 S1                 0.0000
      4 ****        -0.0547  -0.2727   1.2793 C.3            1 S1                 0.0000
      5 ****         0.3296  -0.5471  -0.1849 C.3            1 S1                 0.0000
      6 ****         1.8497  -0.5664  -0.4100 C.3            1 S1                 0.0000
      7 ****         2.2096  -0.6994  -1.9027 C.3            1 S1                 0.0000
      8 ****         3.7290  -0.7892  -2.0856 C.3            1 S1                 0.0000
      9 ****         4.2906  -1.9083  -1.2023 C.3            1 S1                 0.0000
     10 ****         3.8252  -1.7260   0.2510 C.3            1 S1                 0.0000
     11 ****         2.4028  -1.6727   0.3016 O.3            1 S1                 0.0000
     12 ****        -3.6199   0.5223   1.4507 N.pl3          1 S1                -1.0000
     13 ****        -4.5424   1.4713   1.2235 C.2            1 S1                 0.0000
     14 ****        -5.1142   2.2541   2.1402 N.2            1 S1                 0.0000
     15 ****        -5.9996   3.0652   1.4471 C.2            1 S1                 0.0000
     16 ****        -5.9278   2.7292   0.1228 C.2            1 S1                 0.0000
     17 ****        -5.0163   1.7215  -0.0302 O.3            1 S1                 0.0000
     18 ****        -1.9263  -1.0998   1.8193 H              1 S1                 0.0000
     19 ****         0.3768   0.6699   1.6201 H              1 S1                 0.0000
     20 ****         0.3541  -1.0505   1.9245 H              1 S1                 0.0000
     21 ****        -0.1020  -1.4952  -0.5084 H              1 S1                 0.0000
     22 ****        -0.1116   0.2223  -0.8198 H              1 S1                 0.0000
     23 ****         2.2733   0.3606  -0.0190 H              1 S1                 0.0000
     24 ****         1.7390  -1.5922  -2.3170 H              1 S1                 0.0000
     25 ****         1.8175   0.1495  -2.4639 H              1 S1                 0.0000
     26 ****         3.9772  -0.9685  -3.1318 H              1 S1                 0.0000
     27 ****         4.1883   0.1613  -1.8113 H              1 S1                 0.0000
     28 ****         3.9492  -2.8750  -1.5744 H              1 S1                 0.0000
     29 ****         5.3797  -1.9194  -1.2525 H              1 S1                 0.0000
     30 ****         4.1677  -2.5614   0.8615 H              1 S1                 0.0000
     31 ****         4.2496  -0.8196   0.6853 H              1 S1                 0.0000
     32 ****        -6.6037   3.8084   1.9457 H              1 S1                 0.0000
     33 ****        -6.4208   3.0804  -0.7711 H              1 S1                 0.0000
     34 ****        -2.4551   2.5993   0.5550 LP             1 S1                 0.0000
     35 ****        -0.8651   1.9138   0.6007 LP             1 S1                 0.0000
     36 ****         2.0400  -2.5167  -0.0935 LP             1 S1                 0.0000
     37 ****         2.1223  -1.6055   1.2591 LP             1 S1                 0.0000
     38 ****        -3.8962  -0.3697   1.8086 LP             1 S1                 0.0000
     39 ****        -4.9400   2.2555   3.1249 LP             1 S1                 0.0000
     40 ****        -5.4556   0.9063  -0.4077 LP             1 S1                 0.0000
     41 ****        -4.2735   2.0099  -0.6343 LP             1 S1                 0.0000
@<TRIPOS>BOND
    1    1    2 2     
    2    2   12 1     
    3    2    3 am    
    4    3    4 1     
    5    3   18 1     
    6    4    5 1     
    7    4   19 1     
    8    4   20 1     
    9    5    6 1     
   10    5   21 1     
   11    5   22 1     
   12    6   11 1     
   13    6    7 1     
   14    6   23 1     
   15    7    8 1     
   16    7   24 1     
   17    7   25 1     
   18    8    9 1     
   19    8   26 1     
   20    8   27 1     
   21    9   10 1     
   22    9   28 1     
   23    9   29 1     
   24   10   11 1     
   25   10   30 1     
   26   10   31 1     
   27   12   13 1     
   28   13   17 1     
   29   13   14 2     
   30   14   15 1     
   31   15   32 1     
   32   15   16 2     
   33   16   33 1     
   34   16   17 1     
   35    1   34 1     
   36    1   35 1     
   37   11   36 1     
   38   11   37 1     
   39   12   38 1     
   40   14   39 1     
   41   17   40 1     
   42   17   41 1     
@<TRIPOS>SUBSTRUCTURE
      1 S1             1
@<TRIPOS>SET
LONE_PAIRS      STATIC     ATOMS    <user>   **** ""
8 34 35 36 37 38 39 40 41
DONOR_HYDROGENS      STATIC     ATOMS    <user>   **** ""
1 18
ATOM$BLUE        STATIC     ATOMS    COLORGROUP SYSTEM
8 34 35 36 37 38 39 40 41
ATOM$RED        STATIC     ATOMS    COLORGROUP SYSTEM
1 18
