#       Name:                AV-unprocessed.smi:3096
#       Creating user name   scv26
#       Creation time:       Fri Mar 27 17:17:11 2020


#       File generated by GOLD software.
#

@<TRIPOS>MOLECULE
AV-unprocessed.smi:3096
    34    34     1
SMALL
NO_CHARGES


@<TRIPOS>ATOM
      1 ****        -4.6491  -1.7661   0.6617 C.2            1 S1                 0.0000
      2 ****        -3.8025  -1.1758  -0.1947 C.2            1 S1                 0.0000
      3 ****        -3.3112   0.2487  -0.0630 C.3            1 S1                 0.0000
      4 ****        -1.8435   0.2478  -0.0589 N.pl3          1 S1                 0.0000
      5 ****        -1.0553   1.3404  -0.0345 C.cat          1 S1                 0.0000
      6 ****        -1.6060   2.5701  -0.0186 N.pl3          1 S1                 1.0000
      7 ****        -0.8658   3.8374   0.0073 C.3            1 S1                 0.0000
      8 ****         0.2851   1.2021  -0.0256 N.pl3          1 S1                 0.0000
      9 ****         1.0113  -0.0746  -0.0273 C.3            1 S1                 0.0000
     10 ****         2.5293   0.1476  -0.0480 C.3            1 S1                 0.0000
     11 ****         3.2517  -1.1086  -0.0024 N.pl3          1 S1                 0.0000
     12 ****         3.9163  -1.7556  -1.0232 C.2            1 S1                 0.0000
     13 ****         4.4420  -2.9028  -0.5016 C.2            1 S1                 0.0000
     14 ****         4.0422  -2.8683   0.8637 C.2            1 S1                 0.0000
     15 ****         3.3300  -1.7928   1.1593 N.2            1 S1                 0.0000
     16 ****        -5.0351  -1.2405   1.5227 H              1 S1                 0.0000
     17 ****        -4.9675  -2.7873   0.5110 H              1 S1                 0.0000
     18 ****        -3.4405  -1.7335  -1.0466 H              1 S1                 0.0000
     19 ****        -3.6770   0.8369  -0.9049 H              1 S1                 0.0000
     20 ****        -3.6862   0.7013   0.8557 H              1 S1                 0.0000
     21 ****        -1.3979  -0.6586  -0.0681 H              1 S1                 0.0000
     22 ****        -1.5598   4.6781   0.0101 H              1 S1                 0.0000
     23 ****        -0.2247   3.9219  -0.8702 H              1 S1                 0.0000
     24 ****        -0.2451   3.8988   0.9013 H              1 S1                 0.0000
     25 ****         0.8496   2.0394  -0.0008 H              1 S1                 0.0000
     26 ****         0.7242  -0.6391   0.8605 H              1 S1                 0.0000
     27 ****         0.7051  -0.6586  -0.8957 H              1 S1                 0.0000
     28 ****         2.8225   0.6848  -0.9510 H              1 S1                 0.0000
     29 ****         2.8407   0.7587   0.8006 H              1 S1                 0.0000
     30 ****         3.9590  -1.3516  -2.0242 H              1 S1                 0.0000
     31 ****         5.0243  -3.6528  -1.0163 H              1 S1                 0.0000
     32 ****         4.2463  -3.5879   1.6431 H              1 S1                 0.0000
     33 ****        -2.6137   2.6404  -0.0225 H              1 S1                 0.0000
     34 ****         2.9378  -1.5428   2.0445 LP             1 S1                 0.0000
@<TRIPOS>BOND
    1    1    2 2     
    2    1   16 1     
    3    1   17 1     
    4    2    3 1     
    5    2   18 1     
    6    3    4 1     
    7    3   19 1     
    8    3   20 1     
    9    4    5 ar    
   10    4   21 1     
   11    5    6 ar    
   12    5    8 ar    
   13    6    7 1     
   14    6   33 1     
   15    7   22 1     
   16    7   23 1     
   17    7   24 1     
   18    8    9 1     
   19    8   25 1     
   20    9   10 1     
   21    9   26 1     
   22    9   27 1     
   23   10   11 1     
   24   10   28 1     
   25   10   29 1     
   26   11   15 1     
   27   11   12 1     
   28   12   13 2     
   29   12   30 1     
   30   13   14 1     
   31   13   31 1     
   32   14   15 2     
   33   14   32 1     
   34   15   34 1     
@<TRIPOS>SUBSTRUCTURE
      1 S1             1
@<TRIPOS>SET
LONE_PAIRS      STATIC     ATOMS    <user>   **** ""
1 34
DONOR_HYDROGENS      STATIC     ATOMS    <user>   **** ""
3 21 33 25
ATOM$BLUE        STATIC     ATOMS    COLORGROUP SYSTEM
1 34
ATOM$RED        STATIC     ATOMS    COLORGROUP SYSTEM
3 21 33 25
