AV-unprocessed.smi:1753|AV-procd|sdf|7062|dock9
  -GOLD-   22720 8283D 1   1.00000     0.00000
 Structure written by MMmdl.
 37 38  0  0  0  0  0  0  0  0  1 V2000
  143.7938  132.1294  150.2045 C   0  0  0  0  0  0  0  0  0  0  0  0
  144.2518  133.3312  150.9767 C   0  0  0  0  0  0  0  0  0  0  0  0
  145.3749  134.1682  150.7131 C   0  0  0  0  0  0  0  0  0  0  0  0
  145.3074  135.0890  151.7227 C   0  0  0  0  0  0  0  0  0  0  0  0
  146.1321  136.1390  151.9794 N   0  0  0  0  0  0  0  0  0  0  0  0
  145.8092  137.3903  152.3495 C   0  0  0  0  0  0  0  0  0  0  0  0
  144.6666  137.8085  152.5375 O   0  0  0  0  0  0  0  0  0  0  0  0
  146.9044  138.1505  152.4903 N   0  0  0  0  0  0  0  0  0  0  0  0
  146.9038  139.5593  152.8710 C   0  0  0  0  0  0  0  0  0  0  0  0
  147.6400  139.8113  154.2025 C   0  0  2  0  0  0  0  0  0  0  0  0
  148.1589  141.2565  154.3570 C   0  0  0  0  0  0  0  0  0  0  0  0
  149.1102  141.3076  155.5558 C   0  0  0  0  0  0  0  0  0  0  0  0
  149.9752  139.6944  155.5639 S   0  0  0  0  0  0  0  0  0  0  0  0
  151.2880  139.8402  154.9173 O   0  0  0  0  0  0  0  0  0  0  0  0
  149.8515  139.0898  156.8990 O   0  0  0  0  0  0  0  0  0  0  0  0
  148.8307  138.8591  154.3997 C   0  0  0  0  0  0  0  0  0  0  0  0
  144.2179  134.8023  152.5146 N   0  0  0  0  0  0  0  0  0  0  0  0
  143.7349  135.4857  153.6986 C   0  0  0  0  0  0  0  0  0  0  0  0
  143.5679  133.7138  152.0493 N   0  0  0  0  0  0  0  0  0  0  0  0
  144.4696  131.9116  149.3773 H   0  0  0  0  0  0  0  0  0  0  0  0
  142.7991  132.2872  149.7871 H   0  0  0  0  0  0  0  0  0  0  0  0
  143.7535  131.2450  150.8408 H   0  0  0  0  0  0  0  0  0  0  0  0
  146.0949  134.0870  149.9128 H   0  0  0  0  0  0  0  0  0  0  0  0
  147.1170  135.9473  151.8699 H   0  0  0  0  0  0  0  0  0  0  0  0
  147.8044  137.7263  152.3197 H   0  0  0  0  0  0  0  0  0  0  0  0
  147.3504  140.1555  152.0734 H   0  0  0  0  0  0  0  0  0  0  0  0
  145.8660  139.8836  152.9514 H   0  0  0  0  0  0  0  0  0  0  0  0
  146.9472  139.6289  155.0255 H   0  0  0  0  0  0  0  0  0  0  0  0
  148.7078  141.5388  153.4577 H   0  0  0  0  0  0  0  0  0  0  0  0
  147.3442  141.9722  154.4720 H   0  0  0  0  0  0  0  0  0  0  0  0
  149.8301  142.1243  155.4997 H   0  0  0  0  0  0  0  0  0  0  0  0
  148.5516  141.3954  156.4880 H   0  0  0  0  0  0  0  0  0  0  0  0
  148.5341  137.8884  154.7972 H   0  0  0  0  0  0  0  0  0  0  0  0
  149.3690  138.6998  153.4649 H   0  0  0  0  0  0  0  0  0  0  0  0
  143.5548  136.5361  153.4677 H   0  0  0  0  0  0  0  0  0  0  0  0
  144.4814  135.4170  154.4904 H   0  0  0  0  0  0  0  0  0  0  0  0
  142.8041  135.0368  154.0488 H   0  0  0  0  0  0  0  0  0  0  0  0
  1  2  1  0  0  0  0
  1 20  1  0  0  0  0
  1 21  1  0  0  0  0
  1 22  1  0  0  0  0
  2 19  2  0  0  0  0
  2  3  1  0  0  0  0
  3  4  2  0  0  0  0
  3 23  1  0  0  0  0
  4  5  1  0  0  0  0
  4 17  1  0  0  0  0
  5  6  1  0  0  0  0
  5 24  1  0  0  0  0
  6  7  2  0  0  0  0
  6  8  1  0  0  0  0
  8  9  1  0  0  0  0
  8 25  1  0  0  0  0
  9 10  1  0  0  0  0
  9 26  1  0  0  0  0
  9 27  1  0  0  0  0
 10 16  1  0  0  0  0
 10 11  1  0  0  0  0
 10 28  1  0  0  0  0
 11 12  1  0  0  0  0
 11 29  1  0  0  0  0
 11 30  1  0  0  0  0
 12 13  1  0  0  0  0
 12 31  1  0  0  0  0
 12 32  1  0  0  0  0
 13 14  2  0  0  0  0
 13 15  2  0  0  0  0
 13 16  1  0  0  0  0
 16 33  1  0  0  0  0
 16 34  1  0  0  0  0
 17 18  1  0  0  0  0
 17 19  1  0  0  0  0
 18 35  1  0  0  0  0
 18 36  1  0  0  0  0
 18 37  1  0  0  0  0
M  END
> <s_m_source_file>
AV-unprocessed.smi

> <i_m_source_file_index>
1753

> <i_lp_mmshare_version>
43012

> <i_f3d_flags>
0

> <s_epik_input>
W0NIM11jMVtjSF1jKG4objEpW0NIM10pW05IXUMoPU8pW05IXVtDSDJdW0NAQEhdKFtDSDJdMilbQ0gyXVtDSDJdUzIoPU8pPU8=

> <s_epik_cmdline>
J2VwaWtfcHl0aG9uJywgJy1waCcsICc3LjAnLCAnLXRuJywgJzgnLCAnLW1hJywgJzIwMCcsICctbWV0YWxfYmluZGluZycsICctaW1hZScsICc8aW5maWxlLm1hZT4nLCAnLW9tYWUnLCAnPG91dGZpbGUubWFlPic=

> <r_lp_tautomer_probability>
1

> <r_epik_Ionization_Penalty>
9.06651e-05

> <r_epik_Ionization_Penalty_Charging>
0

> <r_epik_Ionization_Penalty_Neutral>
9.06651e-05

> <r_epik_State_Penalty>
-0

> <r_epik_Charging_Adjusted_Penalty>
0

> <i_epik_Tot_Q>
0

> <i_epik_Tot_abs_Q>
0

> <r_epik_Metal_State_Penalty>
-0

> <b_epik_Metal_Only>
0

> <s_lp_Force_Field>
OPLS_2005

> <r_lp_Energy>
5.34898

> <b_lp_Chiralities_Consistent>
1

> <s_lp_Variant>
AV-unprocessed.smi:1753-1

> <Gold.Version>
5.8.1

> <Gold.Id.Protein>
6NUR|6NUR_protein|mol2

> <Gold.PLP.Fitness>
37.6893

> <Gold.PLP.PLP>
-29.9225

> <Gold.PLP.part.hbond>
-3.0000

> <Gold.PLP.part.metal>
0.0000

> <Gold.PLP.part.buried>
-5.8061

> <Gold.PLP.part.nonpolar>
-24.4990

> <Gold.PLP.part.repulsive>
2.8772

> <Gold.PLP.ligand.clash>
0.0000

> <Gold.PLP.ligand.torsion>
0.6185

> <Gold.PLP.Chemscore.Hbond>
3.0000

> <Gold.PLP.Chemscore.CHOScore>
0.0000

> <Gold.PLP.Chemscore.Metal>
0.0000

> <Gold.Chemscore.Hbonds>
donor molecule, donor type, donor heavy atom, donor atom, acceptor molecule, acceptor atom, score
      L1  H     5    24       P1  7948  1.00
      L1  H     8    25       P1  7948  1.00
      P1  H  7989  7998       L1    14  1.00

> <Gold.PLP.Chemscore.Internal.Correction>
0.0039

> <Gold.Rescore>
     Score         DG    S(hbond)    S(metal)    S(lipo)     H(rot)  DE(clash)    DE(int)     intcor
     17.38     -18.57       2.93        0.00      56.87       1.31       0.56       0.64       ----

> <Gold.Chemscore.Fitness>
17.3756

> <Gold.Chemscore.DG>
-18.5736

> <Gold.Chemscore.ZeroCoef>
-5.4800

> <Gold.Chemscore.Hbond>
2.9306

> <Gold.Chemscore.Metal>
0.0000

> <Gold.Chemscore.Lipo>
56.8708

> <Gold.Chemscore.Internal_Hbond>
0.0000

> <Gold.Chemscore.DEClash>
0.5595

> <Gold.Chemscore.DEInternal>
0.6384

> <Gold.Chemscore.Rot>
1.3080

> <Gold.Chemscore.Internal.Correction>
   9.000000E+99

> <Gold.Chemscore.Hbonds>
donor molecule, donor type, donor heavy atom, donor atom, acceptor molecule, acceptor atom, score
      L1  H     5    24       P1  7948  1.00
      L1  H     8    25       P1  7948  0.97
      P1  H  7989  7998       L1    14  1.00

> <Gold.Chemscore.Hbond.Weighted>
-9.7882

> <Gold.Chemscore.Metal.Weighted>
-0.0000

> <Gold.Chemscore.Lipo.Weighted>
-6.6539

> <Gold.Chemscore.Internal_Hbond.Weighted>
0.0000

> <Gold.Chemscore.DEClash.Weighted>
0.5595

> <Gold.Chemscore.DEInternal.Weighted>
0.6384

> <Gold.Chemscore.Rot.Weighted>
3.3485

> <Gold.Chemscore.Internal.Correction.Weighted>
   9.000000E+99

> <Gold.Protein.RotatedTorsions>
[ 6907 6896 6895 6894 ] final  100.04 input  -60.11 | X-H torsion
[ 7974 7965 7964 7962 ] final   32.61 input  175.53 | X-H torsion
[ 8008 7997 7996 7995 ] final  -99.66 input   59.86 | X-H torsion
[ 10167 10162 10161 10158 ] final -144.10 input  -65.29 | X-H torsion
[ 10718 10713 10712 10709 ] final   -8.81 input   66.30 | X-H torsion
[ 10763 10752 10751 10750 ] final   89.10 input  -60.55 | X-H torsion
[ 11005 11000 10999 10996 ] final  -86.80 input  -57.11 | X-H torsion

> <Gold.Protein.ActiveResidues>
 VAL166  LYS551  ARG553  GLY616  TRP617  ASP618  TYR619  PRO620  LYS621  CYS622 
 ASP623  PHE694  ASN695  SER759  ASP760  ASP761  ALA762  ILE779  LEU786  VAL792 
 PHE793  MET794  SER795  GLU796  ALA797  LYS798  CYS799  TRP800  GLU811  SER814 

> <Gold.Protein.RotatedAtoms>
  152.5380  134.0337  159.8035 H   0  0  0  0  0  0  0  0  0  0  0  0  # atno 6907 bound_to 6896
  151.0504  133.5622  159.2650 H   0  0  0  0  0  0  0  0  0  0  0  0  # atno 6908 bound_to 6896
  151.2558  135.0645  159.9133 H   0  0  0  0  0  0  0  0  0  0  0  0  # atno 6909 bound_to 6896
  146.1475  139.6504  142.9121 H   0  0  0  0  0  0  0  0  0  0  0  0  # atno 7974 bound_to 7965
  154.8179  140.0446  157.1390 H   0  0  0  0  0  0  0  0  0  0  0  0  # atno 8008 bound_to 7997
  154.9293  140.3037  155.5156 H   0  0  0  0  0  0  0  0  0  0  0  0  # atno 8009 bound_to 7997
  156.2977  140.2326  156.4351 H   0  0  0  0  0  0  0  0  0  0  0  0  # atno 8010 bound_to 7997
  139.7930  143.7939  152.2652 H   0  0  0  0  0  0  0  0  0  0  0  0  # atno 10167 bound_to 10162
  156.6971  130.5082  149.5927 H   0  0  0  0  0  0  0  0  0  0  0  0  # atno 10718 bound_to 10713
  153.1836  135.4483  155.0059 H   0  0  0  0  0  0  0  0  0  0  0  0  # atno 10763 bound_to 10752
  154.8046  135.3269  154.7467 H   0  0  0  0  0  0  0  0  0  0  0  0  # atno 10764 bound_to 10752
  153.7929  135.6969  153.4923 H   0  0  0  0  0  0  0  0  0  0  0  0  # atno 10765 bound_to 10752
  141.1625  133.7475  156.9213 H   0  0  0  0  0  0  0  0  0  0  0  0  # atno 11005 bound_to 11000
  145.4902  141.0438  143.2597 LP  0  0  0  0  0  0  0  0  0  0  0  0  # atno 17320 bound_to 7965
  144.7864  139.6418  143.7132 LP  0  0  0  0  0  0  0  0  0  0  0  0  # atno 17321 bound_to 7965
  139.8036  144.7364  150.9791 LP  0  0  0  0  0  0  0  0  0  0  0  0  # atno 17342 bound_to 10162
  140.7820  143.4320  151.0680 LP  0  0  0  0  0  0  0  0  0  0  0  0  # atno 17343 bound_to 10162
  156.1755  130.6465  151.0889 LP  0  0  0  0  0  0  0  0  0  0  0  0  # atno 17370 bound_to 10713
  157.6987  131.0784  150.6889 LP  0  0  0  0  0  0  0  0  0  0  0  0  # atno 17371 bound_to 10713
  140.1449  134.9269  157.2516 LP  0  0  0  0  0  0  0  0  0  0  0  0  # atno 17394 bound_to 11000
  140.2792  134.3370  155.7348 LP  0  0  0  0  0  0  0  0  0  0  0  0  # atno 17395 bound_to 11000

$$$$
