AV-unprocessed.smi:3216|AV-procd|sdf|12287|dock1
  -GOLD-   2272018123D 1   1.00000     0.00000
 Structure written by MMmdl.
 37 37  0  0  0  0  0  0  0  0  2 V2000
  150.5007  136.9752  155.2405 C   0  0  0  0  0  0  0  0  0  0  0  0
  151.0315  138.0096  154.2328 C   0  0  0  0  0  0  0  0  0  0  0  0
  152.3689  138.5944  154.7100 C   0  0  0  0  0  0  0  0  0  0  0  0
  150.0122  139.1348  153.9543 C   0  0  0  0  0  0  0  0  0  0  0  0
  148.8072  138.6484  153.2887 N   0  0  0  0  0  0  0  0  0  0  0  0
  147.5592  139.0597  153.5581 C   0  0  0  0  0  0  0  0  0  0  0  0
  147.2970  139.9094  154.4104 O   0  0  0  0  0  0  0  0  0  0  0  0
  146.4463  138.4178  152.7279 C   0  0  0  0  0  0  0  0  0  0  0  0
  146.9773  137.6153  151.6070 N   0  3  0  0  0  0  0  0  0  0  0  0
  145.9549  136.8254  150.8950 C   0  0  0  0  0  0  0  0  0  0  0  0
  145.1923  135.9098  151.8638 C   0  0  0  0  0  0  0  0  0  0  0  0
  145.2343  134.5232  151.4410 N   0  0  0  0  0  0  0  0  0  0  0  0
  144.2131  133.7497  150.9302 C   0  0  0  0  0  0  0  0  0  0  0  0
  144.7280  132.5091  150.6843 C   0  0  0  0  0  0  0  0  0  0  0  0
  146.0882  132.6210  151.0872 C   0  0  0  0  0  0  0  0  0  0  0  0
  146.3875  133.8276  151.5417 N   0  0  0  0  0  0  0  0  0  0  0  0
  150.2733  137.4396  156.2006 H   0  0  0  0  0  0  0  0  0  0  0  0
  151.2356  136.1896  155.4186 H   0  0  0  0  0  0  0  0  0  0  0  0
  149.5926  136.4916  154.8803 H   0  0  0  0  0  0  0  0  0  0  0  0
  151.2266  137.4869  153.2953 H   0  0  0  0  0  0  0  0  0  0  0  0
  152.2503  139.1465  155.6431 H   0  0  0  0  0  0  0  0  0  0  0  0
  152.7857  139.2779  153.9695 H   0  0  0  0  0  0  0  0  0  0  0  0
  153.1048  137.8078  154.8797 H   0  0  0  0  0  0  0  0  0  0  0  0
  149.7131  139.6044  154.8920 H   0  0  0  0  0  0  0  0  0  0  0  0
  150.4702  139.9225  153.3533 H   0  0  0  0  0  0  0  0  0  0  0  0
  148.9366  137.9507  152.5698 H   0  0  0  0  0  0  0  0  0  0  0  0
  145.8446  137.7817  153.3784 H   0  0  0  0  0  0  0  0  0  0  0  0
  145.7925  139.1982  152.3355 H   0  0  0  0  0  0  0  0  0  0  0  0
  147.4189  138.2420  150.9494 H   0  0  0  0  0  0  0  0  0  0  0  0
  145.2601  137.5024  150.3959 H   0  0  0  0  0  0  0  0  0  0  0  0
  146.4419  136.2319  150.1196 H   0  0  0  0  0  0  0  0  0  0  0  0
  145.6132  135.9777  152.8682 H   0  0  0  0  0  0  0  0  0  0  0  0
  144.1484  136.2186  151.9356 H   0  0  0  0  0  0  0  0  0  0  0  0
  143.2170  134.1409  150.7849 H   0  0  0  0  0  0  0  0  0  0  0  0
  144.2114  131.6510  150.2805 H   0  0  0  0  0  0  0  0  0  0  0  0
  146.8610  131.8667  151.0636 H   0  0  0  0  0  0  0  0  0  0  0  0
  147.6795  136.9869  151.9712 H   0  0  0  0  0  0  0  0  0  0  0  0
  1  2  1  0  0  0  0
  1 17  1  0  0  0  0
  1 18  1  0  0  0  0
  1 19  1  0  0  0  0
  2  3  1  0  0  0  0
  2  4  1  0  0  0  0
  2 20  1  0  0  0  0
  3 21  1  0  0  0  0
  3 22  1  0  0  0  0
  3 23  1  0  0  0  0
  4  5  1  0  0  0  0
  4 24  1  0  0  0  0
  4 25  1  0  0  0  0
  5  6  1  0  0  0  0
  5 26  1  0  0  0  0
  6  7  2  0  0  0  0
  6  8  1  0  0  0  0
  8  9  1  0  0  0  0
  8 27  1  0  0  0  0
  8 28  1  0  0  0  0
  9 10  1  0  0  0  0
  9 29  1  0  0  0  0
  9 37  1  0  0  0  0
 10 11  1  0  0  0  0
 10 30  1  0  0  0  0
 10 31  1  0  0  0  0
 11 12  1  0  0  0  0
 11 32  1  0  0  0  0
 11 33  1  0  0  0  0
 12 16  1  0  0  0  0
 12 13  1  0  0  0  0
 13 14  2  0  0  0  0
 13 34  1  0  0  0  0
 14 15  1  0  0  0  0
 14 35  1  0  0  0  0
 15 16  2  0  0  0  0
 15 36  1  0  0  0  0
M  CHG  1   9   1
M  END
> <s_m_source_file>
AV-unprocessed.smi

> <i_m_source_file_index>
3216

> <i_lp_mmshare_version>
43012

> <i_f3d_flags>
0

> <s_epik_input>
W0NIM11bQ0hdKFtDSDNdKVtDSDJdW05IXUMoPU8pW0NIMl1bTkhdW0NIMl1bQ0gyXW4xW2NIXVtjSF1bY0hdbjE=

> <s_epik_cmdline>
J2VwaWtfcHl0aG9uJywgJy1waCcsICc3LjAnLCAnLXRuJywgJzgnLCAnLW1hJywgJzIwMCcsICctbWV0YWxfYmluZGluZycsICctaW1hZScsICc8aW5maWxlLm1hZT4nLCAnLW9tYWUnLCAnPG91dGZpbGUubWFlPic=

> <r_lp_tautomer_probability>
1

> <r_epik_Ionization_Penalty>
0.20724

> <r_epik_Ionization_Penalty_Charging>
0.207237

> <r_epik_Ionization_Penalty_Neutral>
3.19342e-06

> <r_epik_State_Penalty>
0.197611

> <r_epik_Charging_Adjusted_Penalty>
0.404848

> <i_epik_Tot_Q>
1

> <i_epik_Tot_abs_Q>
1

> <r_epik_Metal_State_Penalty>
0.197786

> <b_epik_Metal_Only>
0

> <s_lp_Force_Field>
OPLS_2005

> <r_lp_Energy>
2.0828

> <b_lp_Chiralities_Consistent>
1

> <s_lp_Variant>
AV-unprocessed.smi:3216-1

> <Gold.Version>
5.8.1

> <Gold.Id.Protein>
6NUR|6NUR_protein|mol2

> <Gold.PLP.Fitness>
45.7997

> <Gold.PLP.PLP>
-32.2175

> <Gold.PLP.part.hbond>
-2.9617

> <Gold.PLP.part.metal>
0.0000

> <Gold.PLP.part.buried>
-1.7304

> <Gold.PLP.part.nonpolar>
-29.6371

> <Gold.PLP.part.repulsive>
0.9620

> <Gold.PLP.ligand.clash>
0.0000

> <Gold.PLP.ligand.torsion>
0.7728

> <Gold.PLP.Chemscore.Hbond>
2.9760

> <Gold.PLP.Chemscore.CHOScore>
2.0000

> <Gold.PLP.Chemscore.Metal>
0.0000

> <Gold.Chemscore.Hbonds>
donor molecule, donor type, donor heavy atom, donor atom, acceptor molecule, acceptor atom, score
      L1  H     5    26       P1  7948  1.00
      L1  H     9    37       P1  7948  1.66
      L1  C    13    34       P1 10186  0.97
      L1  C    15    36       P1 10747  1.00

> <Gold.PLP.Chemscore.Internal.Correction>
0.1998

> <Gold.Rescore>
     Score         DG    S(hbond)    S(metal)    S(lipo)     H(rot)  DE(clash)    DE(int)     intcor
     12.13     -14.05       1.97        0.00      67.73       2.32       0.94       0.98       ----

> <Gold.Chemscore.Fitness>
12.1288

> <Gold.Chemscore.DG>
-14.0517

> <Gold.Chemscore.ZeroCoef>
-5.4800

> <Gold.Chemscore.Hbond>
1.9712

> <Gold.Chemscore.Metal>
0.0000

> <Gold.Chemscore.Lipo>
67.7281

> <Gold.Chemscore.Internal_Hbond>
0.0000

> <Gold.Chemscore.DEClash>
0.9401

> <Gold.Chemscore.DEInternal>
0.9829

> <Gold.Chemscore.Rot>
2.3189

> <Gold.Chemscore.Internal.Correction>
   9.000000E+99

> <Gold.Chemscore.Hbonds>
donor molecule, donor type, donor heavy atom, donor atom, acceptor molecule, acceptor atom, score
      L1  H     5    26       P1  7948  0.98
      L1  H     9    37       P1  7948  0.78

> <Gold.Chemscore.Hbond.Weighted>
-6.5838

> <Gold.Chemscore.Metal.Weighted>
-0.0000

> <Gold.Chemscore.Lipo.Weighted>
-7.9242

> <Gold.Chemscore.Internal_Hbond.Weighted>
0.0000

> <Gold.Chemscore.DEClash.Weighted>
0.9401

> <Gold.Chemscore.DEInternal.Weighted>
0.9829

> <Gold.Chemscore.Rot.Weighted>
5.9363

> <Gold.Chemscore.Internal.Correction.Weighted>
   9.000000E+99

> <Gold.Protein.RotatedTorsions>
[ 6907 6896 6895 6894 ] final  178.14 input  -60.11 | X-H torsion
[ 7974 7965 7964 7962 ] final  -30.56 input  175.53 | X-H torsion
[ 8008 7997 7996 7995 ] final  124.32 input   59.86 | X-H torsion
[ 10167 10162 10161 10158 ] final  -80.27 input  -65.29 | X-H torsion
[ 10718 10713 10712 10709 ] final   68.67 input   66.30 | X-H torsion
[ 10763 10752 10751 10750 ] final -162.37 input  -60.55 | X-H torsion
[ 11005 11000 10999 10996 ] final  -41.71 input  -57.11 | X-H torsion

> <Gold.Protein.ActiveResidues>
 VAL166  LYS551  ARG553  GLY616  TRP617  ASP618  TYR619  PRO620  LYS621  CYS622 
 ASP623  PHE694  ASN695  SER759  ASP760  ASP761  ALA762  ILE779  LEU786  VAL792 
 PHE793  MET794  SER795  GLU796  ALA797  LYS798  CYS799  TRP800  GLU811  SER814 

> <Gold.Protein.RotatedAtoms>
  151.6927  133.3311  159.3246 H   0  0  0  0  0  0  0  0  0  0  0  0  # atno 6907 bound_to 6896
  150.7772  134.6685  159.6388 H   0  0  0  0  0  0  0  0  0  0  0  0  # atno 6908 bound_to 6896
  152.3817  134.6582  160.0192 H   0  0  0  0  0  0  0  0  0  0  0  0  # atno 6909 bound_to 6896
  146.1133  140.5556  142.8768 H   0  0  0  0  0  0  0  0  0  0  0  0  # atno 7974 bound_to 7965
  156.2797  140.2742  156.1769 H   0  0  0  0  0  0  0  0  0  0  0  0  # atno 8008 bound_to 7997
  155.0596  140.0386  157.2590 H   0  0  0  0  0  0  0  0  0  0  0  0  # atno 8009 bound_to 7997
  154.7128  140.2672  155.6619 H   0  0  0  0  0  0  0  0  0  0  0  0  # atno 8010 bound_to 7997
  140.4518  143.2481  151.8478 H   0  0  0  0  0  0  0  0  0  0  0  0  # atno 10167 bound_to 10162
  157.6303  130.9386  150.0409 H   0  0  0  0  0  0  0  0  0  0  0  0  # atno 10718 bound_to 10713
  154.7220  135.3027  154.9032 H   0  0  0  0  0  0  0  0  0  0  0  0  # atno 10763 bound_to 10752
  153.9901  135.6719  153.4758 H   0  0  0  0  0  0  0  0  0  0  0  0  # atno 10764 bound_to 10752
  153.0842  135.4993  154.8481 H   0  0  0  0  0  0  0  0  0  0  0  0  # atno 10765 bound_to 10752
  141.0265  133.6839  156.2495 H   0  0  0  0  0  0  0  0  0  0  0  0  # atno 11005 bound_to 11000
  144.7531  140.5240  143.6788 LP  0  0  0  0  0  0  0  0  0  0  0  0  # atno 17320 bound_to 7965
  145.5618  139.1479  143.3337 LP  0  0  0  0  0  0  0  0  0  0  0  0  # atno 17321 bound_to 7965
  139.4797  144.5111  151.8931 LP  0  0  0  0  0  0  0  0  0  0  0  0  # atno 17342 bound_to 10162
  140.4198  144.2258  150.5887 LP  0  0  0  0  0  0  0  0  0  0  0  0  # atno 17343 bound_to 10162
  156.1501  130.3642  149.9450 LP  0  0  0  0  0  0  0  0  0  0  0  0  # atno 17370 bound_to 10713
  156.7472  130.9101  151.3635 LP  0  0  0  0  0  0  0  0  0  0  0  0  # atno 17371 bound_to 10713
  140.6482  134.5095  157.5575 LP  0  0  0  0  0  0  0  0  0  0  0  0  # atno 17394 bound_to 11000
  139.9179  134.8208  156.1305 LP  0  0  0  0  0  0  0  0  0  0  0  0  # atno 17395 bound_to 11000

$$$$
