AV-unprocessed.smi:3352|AV-procd|sdf|12951|dock7
  -GOLD-   2272019393D 1   1.00000     0.00000
 Structure written by MMmdl.
 38 39  0  0  0  0  0  0  0  0  1 V2000
  149.7212  135.8873  157.4028 C   0  0  0  0  0  0  0  0  0  0  0  0
  150.8223  136.9568  157.4260 C   0  0  0  0  0  0  0  0  0  0  0  0
  151.0529  137.5322  158.8309 C   0  0  0  0  0  0  0  0  0  0  0  0
  150.5703  138.0301  156.4133 C   0  0  0  0  0  0  0  0  0  0  0  0
  150.3289  139.3024  156.7401 N   0  0  0  0  0  0  0  0  0  0  0  0
  150.1714  140.1306  155.6232 C   0  0  0  0  0  0  0  0  0  0  0  0
  149.9416  141.6035  155.8063 C   0  0  0  0  0  0  0  0  0  0  0  0
  151.0545  142.1854  156.6788 C   0  0  0  0  0  0  0  0  0  0  0  0
  151.8275  141.4375  157.2772 O   0  0  0  0  0  0  0  0  0  0  0  0
  151.0980  143.5234  156.7693 N   0  0  0  0  0  0  0  0  0  0  0  0
  151.9380  144.2772  157.6907 C   0  0  0  0  0  0  0  0  0  0  0  0
  151.7555  143.7908  159.1398 C   0  0  2  0  0  0  0  0  0  0  0  0
  152.0070  144.8540  160.2111 C   0  0  0  0  0  0  0  0  0  0  0  0
  152.4216  144.0446  161.4299 C   0  0  0  0  0  0  0  0  0  0  0  0
  152.7006  142.6442  160.8748 C   0  0  0  0  0  0  0  0  0  0  0  0
  152.7146  142.7980  159.4622 O   0  0  0  0  0  0  0  0  0  0  0  0
  150.2778  139.4555  154.4324 C   0  0  0  0  0  0  0  0  0  0  0  0
  150.6074  137.7621  154.6721 S   0  0  0  0  0  0  0  0  0  0  0  0
  149.6279  135.4426  156.4116 H   0  0  0  0  0  0  0  0  0  0  0  0
  148.7521  136.3083  157.6719 H   0  0  0  0  0  0  0  0  0  0  0  0
  149.9405  135.0827  158.1050 H   0  0  0  0  0  0  0  0  0  0  0  0
  151.7491  136.4588  157.1364 H   0  0  0  0  0  0  0  0  0  0  0  0
  151.8815  138.2412  158.8332 H   0  0  0  0  0  0  0  0  0  0  0  0
  151.2933  136.7422  159.5428 H   0  0  0  0  0  0  0  0  0  0  0  0
  150.1681  138.0514  159.2005 H   0  0  0  0  0  0  0  0  0  0  0  0
  149.9288  142.1152  154.8431 H   0  0  0  0  0  0  0  0  0  0  0  0
  148.9746  141.7952  156.2736 H   0  0  0  0  0  0  0  0  0  0  0  0
  150.4250  144.0527  156.2335 H   0  0  0  0  0  0  0  0  0  0  0  0
  152.9857  144.2116  157.3932 H   0  0  0  0  0  0  0  0  0  0  0  0
  151.6583  145.3282  157.6146 H   0  0  0  0  0  0  0  0  0  0  0  0
  150.7587  143.3654  159.2719 H   0  0  0  0  0  0  0  0  0  0  0  0
  152.8272  145.5074  159.9107 H   0  0  0  0  0  0  0  0  0  0  0  0
  151.1314  145.4781  160.3949 H   0  0  0  0  0  0  0  0  0  0  0  0
  153.3077  144.4759  161.8968 H   0  0  0  0  0  0  0  0  0  0  0  0
  151.6299  144.0121  162.1790 H   0  0  0  0  0  0  0  0  0  0  0  0
  153.6427  142.2306  161.2352 H   0  0  0  0  0  0  0  0  0  0  0  0
  151.8999  141.9566  161.1511 H   0  0  0  0  0  0  0  0  0  0  0  0
  150.2002  139.8549  153.4320 H   0  0  0  0  0  0  0  0  0  0  0  0
  1  2  1  0  0  0  0
  1 19  1  0  0  0  0
  1 20  1  0  0  0  0
  1 21  1  0  0  0  0
  2  3  1  0  0  0  0
  2  4  1  0  0  0  0
  2 22  1  0  0  0  0
  3 23  1  0  0  0  0
  3 24  1  0  0  0  0
  3 25  1  0  0  0  0
  4 18  1  0  0  0  0
  4  5  2  0  0  0  0
  5  6  1  0  0  0  0
  6  7  1  0  0  0  0
  6 17  2  0  0  0  0
  7  8  1  0  0  0  0
  7 26  1  0  0  0  0
  7 27  1  0  0  0  0
  8  9  2  0  0  0  0
  8 10  1  0  0  0  0
 10 11  1  0  0  0  0
 10 28  1  0  0  0  0
 11 12  1  0  0  0  0
 11 29  1  0  0  0  0
 11 30  1  0  0  0  0
 12 16  1  0  0  0  0
 12 13  1  0  0  0  0
 12 31  1  0  0  0  0
 13 14  1  0  0  0  0
 13 32  1  0  0  0  0
 13 33  1  0  0  0  0
 14 15  1  0  0  0  0
 14 34  1  0  0  0  0
 14 35  1  0  0  0  0
 15 16  1  0  0  0  0
 15 36  1  0  0  0  0
 15 37  1  0  0  0  0
 17 18  1  0  0  0  0
 17 38  1  0  0  0  0
M  END
> <s_m_source_file>
AV-unprocessed.smi

> <i_m_source_file_index>
3352

> <i_lp_mmshare_version>
43012

> <i_f3d_flags>
0

> <s_epik_input>
W0NIM11bQ0hdKFtDSDNdKWMxbmMoW2NIXXMxKVtDSDJdQyg9TylbTkhdW0NIMl1bQ0BASF0yW0NIMl1bQ0gyXVtDSDJdTzI=

> <s_epik_cmdline>
J2VwaWtfcHl0aG9uJywgJy1waCcsICc3LjAnLCAnLXRuJywgJzgnLCAnLW1hJywgJzIwMCcsICctbWV0YWxfYmluZGluZycsICctaW1hZScsICc8aW5maWxlLm1hZT4nLCAnLW9tYWUnLCAnPG91dGZpbGUubWFlPic=

> <r_lp_tautomer_probability>
1

> <r_epik_Ionization_Penalty>
4.66014e-05

> <r_epik_Ionization_Penalty_Charging>
0

> <r_epik_Ionization_Penalty_Neutral>
4.66014e-05

> <r_epik_State_Penalty>
-0

> <r_epik_Charging_Adjusted_Penalty>
0

> <i_epik_Tot_Q>
0

> <i_epik_Tot_abs_Q>
0

> <r_epik_Metal_State_Penalty>
-0

> <b_epik_Metal_Only>
0

> <s_lp_Force_Field>
OPLS_2005

> <r_lp_Energy>
7.75536

> <b_lp_Chiralities_Consistent>
1

> <s_lp_Variant>
AV-unprocessed.smi:3352-1

> <Gold.Version>
5.8.1

> <Gold.Id.Protein>
6NUR|6NUR_protein|mol2

> <Gold.PLP.Fitness>
42.4780

> <Gold.PLP.PLP>
-37.8125

> <Gold.PLP.part.hbond>
-1.0000

> <Gold.PLP.part.metal>
0.0000

> <Gold.PLP.part.buried>
-4.0955

> <Gold.PLP.part.nonpolar>
-32.3600

> <Gold.PLP.part.repulsive>
0.0470

> <Gold.PLP.ligand.clash>
0.0000

> <Gold.PLP.ligand.torsion>
0.7087

> <Gold.PLP.Chemscore.Hbond>
1.0000

> <Gold.PLP.Chemscore.CHOScore>
1.0000

> <Gold.PLP.Chemscore.Metal>
0.0000

> <Gold.Chemscore.Hbonds>
donor molecule, donor type, donor heavy atom, donor atom, acceptor molecule, acceptor atom, score
      L1  H    10    28       P1  8028  1.00
      L1  C    17    38       P1  7957  1.00

> <Gold.PLP.Chemscore.Internal.Correction>
0.0828

> <Gold.Rescore>
     Score         DG    S(hbond)    S(metal)    S(lipo)     H(rot)  DE(clash)    DE(int)     intcor
     13.28     -16.35       0.99        0.00      98.56       1.55       0.00       3.07       ----

> <Gold.Chemscore.Fitness>
13.2762

> <Gold.Chemscore.DG>
-16.3471

> <Gold.Chemscore.ZeroCoef>
-5.4800

> <Gold.Chemscore.Hbond>
0.9903

> <Gold.Chemscore.Metal>
0.0000

> <Gold.Chemscore.Lipo>
98.5650

> <Gold.Chemscore.Internal_Hbond>
0.0000

> <Gold.Chemscore.DEClash>
0.0048

> <Gold.Chemscore.DEInternal>
3.0661

> <Gold.Chemscore.Rot>
1.5518

> <Gold.Chemscore.Internal.Correction>
   9.000000E+99

> <Gold.Chemscore.Hbonds>
donor molecule, donor type, donor heavy atom, donor atom, acceptor molecule, acceptor atom, score
      L1  H    10    28       P1  8028  1.00

> <Gold.Chemscore.Hbond.Weighted>
-3.3076

> <Gold.Chemscore.Metal.Weighted>
-0.0000

> <Gold.Chemscore.Lipo.Weighted>
-11.5321

> <Gold.Chemscore.Internal_Hbond.Weighted>
0.0000

> <Gold.Chemscore.DEClash.Weighted>
0.0048

> <Gold.Chemscore.DEInternal.Weighted>
3.0661

> <Gold.Chemscore.Rot.Weighted>
3.9727

> <Gold.Chemscore.Internal.Correction.Weighted>
   9.000000E+99

> <Gold.Protein.RotatedTorsions>
[ 6907 6896 6895 6894 ] final   59.94 input  -60.11 | X-H torsion
[ 7974 7965 7964 7962 ] final  119.73 input  175.53 | X-H torsion
[ 8008 7997 7996 7995 ] final  -78.00 input   59.86 | X-H torsion
[ 10167 10162 10161 10158 ] final -147.35 input  -65.29 | X-H torsion
[ 10718 10713 10712 10709 ] final  133.09 input   66.30 | X-H torsion
[ 10763 10752 10751 10750 ] final -141.52 input  -60.55 | X-H torsion
[ 11005 11000 10999 10996 ] final -174.29 input  -57.11 | X-H torsion

> <Gold.Protein.ActiveResidues>
 VAL166  LYS551  ARG553  GLY616  TRP617  ASP618  TYR619  PRO620  LYS621  CYS622 
 ASP623  PHE694  ASN695  SER759  ASP760  ASP761  ALA762  ILE779  LEU786  VAL792 
 PHE793  MET794  SER795  GLU796  ALA797  LYS798  CYS799  TRP800  GLU811  SER814 

> <Gold.Protein.RotatedAtoms>
  152.3959  134.6366  160.0089 H   0  0  0  0  0  0  0  0  0  0  0  0  # atno 6907 bound_to 6896
  151.6586  133.3312  159.3176 H   0  0  0  0  0  0  0  0  0  0  0  0  # atno 6908 bound_to 6896
  150.7867  134.6900  159.6536 H   0  0  0  0  0  0  0  0  0  0  0  0  # atno 6909 bound_to 6896
  145.1397  139.3276  143.4622 H   0  0  0  0  0  0  0  0  0  0  0  0  # atno 7974 bound_to 7965
  154.5648  140.0701  156.8875 H   0  0  0  0  0  0  0  0  0  0  0  0  # atno 8008 bound_to 7997
  155.2743  140.3367  155.4244 H   0  0  0  0  0  0  0  0  0  0  0  0  # atno 8009 bound_to 7997
  156.2072  140.1744  156.7760 H   0  0  0  0  0  0  0  0  0  0  0  0  # atno 8010 bound_to 7997
  139.7630  143.8349  152.2610 H   0  0  0  0  0  0  0  0  0  0  0  0  # atno 10167 bound_to 10162
  157.4807  131.1085  150.9685 H   0  0  0  0  0  0  0  0  0  0  0  0  # atno 10718 bound_to 10713
  154.8542  135.3522  154.5882 H   0  0  0  0  0  0  0  0  0  0  0  0  # atno 10763 bound_to 10752
  153.6491  135.6995  153.5219 H   0  0  0  0  0  0  0  0  0  0  0  0  # atno 10764 bound_to 10752
  153.2908  135.4235  155.1123 H   0  0  0  0  0  0  0  0  0  0  0  0  # atno 10765 bound_to 10752
  140.4762  134.6119  157.4901 H   0  0  0  0  0  0  0  0  0  0  0  0  # atno 11005 bound_to 11000
  146.3506  140.1429  142.8594 LP  0  0  0  0  0  0  0  0  0  0  0  0  # atno 17320 bound_to 7965
  145.0546  140.9043  143.4975 LP  0  0  0  0  0  0  0  0  0  0  0  0  # atno 17321 bound_to 7965
  139.8361  144.7231  150.9389 LP  0  0  0  0  0  0  0  0  0  0  0  0  # atno 17342 bound_to 10162
  140.7808  143.4025  151.1125 LP  0  0  0  0  0  0  0  0  0  0  0  0  # atno 17343 bound_to 10162
  157.0419  130.5752  149.5357 LP  0  0  0  0  0  0  0  0  0  0  0  0  # atno 17370 bound_to 10713
  156.0120  130.5212  150.8018 LP  0  0  0  0  0  0  0  0  0  0  0  0  # atno 17371 bound_to 10713
  139.9854  134.7069  155.9783 LP  0  0  0  0  0  0  0  0  0  0  0  0  # atno 17394 bound_to 11000
  141.1553  133.6543  156.4142 LP  0  0  0  0  0  0  0  0  0  0  0  0  # atno 17395 bound_to 11000

$$$$
