AV-unprocessed.smi:1756|AV-procd|sdf|7074|dock7
  -GOLD-   22720 8293D 1   1.00000     0.00000
 Structure written by MMmdl.
 37 38  0  0  0  0  0  0  0  0  2 V2000
  151.4221  137.1944  159.8738 O   0  0  0  0  0  0  0  0  0  0  0  0
  150.6658  137.7125  159.0525 C   0  0  0  0  0  0  0  0  0  0  0  0
  150.9720  138.8266  158.3725 N   0  0  0  0  0  0  0  0  0  0  0  0
  152.2160  139.5803  158.4935 C   0  0  0  0  0  0  0  0  0  0  0  0
  151.9697  141.0464  158.8941 C   0  0  1  0  0  0  0  0  0  0  0  0
  153.2107  141.7373  159.4994 C   0  0  0  0  0  0  0  0  0  0  0  0
  152.9268  143.2178  159.7762 C   0  0  0  0  0  0  0  0  0  0  0  0
  152.3881  143.8886  158.5091 C   0  0  0  0  0  0  0  0  0  0  0  0
  151.1925  143.0981  157.9560 C   0  0  0  0  0  0  0  0  0  0  0  0
  151.5739  141.7467  157.7163 O   0  0  0  0  0  0  0  0  0  0  0  0
  149.4357  137.2789  158.7239 N   0  0  0  0  0  0  0  0  0  0  0  0
  148.7279  136.1544  159.1823 C   0  0  0  0  0  0  0  0  0  0  0  0
  148.4958  135.8573  160.4912 C   0  0  0  0  0  0  0  0  0  0  0  0
  147.7649  134.6654  160.9031 C   0  0  0  0  0  0  0  0  0  0  0  0
  147.4038  134.3568  162.3455 C   0  0  0  0  0  0  0  0  0  0  0  0
  146.0829  134.2622  162.5011 F   0  0  0  0  0  0  0  0  0  0  0  0
  147.9493  133.1978  162.7114 F   0  0  0  0  0  0  0  0  0  0  0  0
  147.8570  135.3063  163.1641 F   0  0  0  0  0  0  0  0  0  0  0  0
  147.3447  133.9095  159.8259 C   0  0  0  0  0  0  0  0  0  0  0  0
  147.5538  134.1178  158.5076 N   0  5  0  0  0  0  0  0  0  0  0  0
  148.2397  135.2345  158.1339 C   0  0  0  0  0  0  0  0  0  0  0  0
  148.4590  135.4883  156.9488 O   0  0  0  0  0  0  0  0  0  0  0  0
  150.2879  139.1848  157.7224 H   0  0  0  0  0  0  0  0  0  0  0  0
  152.9035  139.1025  159.1936 H   0  0  0  0  0  0  0  0  0  0  0  0
  152.7072  139.5502  157.5206 H   0  0  0  0  0  0  0  0  0  0  0  0
  151.1473  141.0787  159.6111 H   0  0  0  0  0  0  0  0  0  0  0  0
  153.5112  141.2477  160.4257 H   0  0  0  0  0  0  0  0  0  0  0  0
  154.0526  141.6478  158.8119 H   0  0  0  0  0  0  0  0  0  0  0  0
  152.1940  143.3061  160.5794 H   0  0  0  0  0  0  0  0  0  0  0  0
  153.8313  143.7205  160.1194 H   0  0  0  0  0  0  0  0  0  0  0  0
  152.0964  144.9175  158.7208 H   0  0  0  0  0  0  0  0  0  0  0  0
  153.1747  143.9336  157.7550 H   0  0  0  0  0  0  0  0  0  0  0  0
  150.3485  143.1328  158.6465 H   0  0  0  0  0  0  0  0  0  0  0  0
  150.8536  143.5390  157.0183 H   0  0  0  0  0  0  0  0  0  0  0  0
  148.9186  137.8531  158.0742 H   0  0  0  0  0  0  0  0  0  0  0  0
  148.8654  136.4920  161.2790 H   0  0  0  0  0  0  0  0  0  0  0  0
  146.7459  133.0029  160.0579 H   0  0  0  0  0  0  0  0  0  0  0  0
  1  2  2  0  0  0  0
  2  3  1  0  0  0  0
  2 11  1  0  0  0  0
  3  4  1  0  0  0  0
  3 23  1  0  0  0  0
  4  5  1  0  0  0  0
  4 24  1  0  0  0  0
  4 25  1  0  0  0  0
  5 10  1  0  0  0  0
  5  6  1  0  0  0  0
  5 26  1  0  0  0  0
  6  7  1  0  0  0  0
  6 27  1  0  0  0  0
  6 28  1  0  0  0  0
  7  8  1  0  0  0  0
  7 29  1  0  0  0  0
  7 30  1  0  0  0  0
  8  9  1  0  0  0  0
  8 31  1  0  0  0  0
  8 32  1  0  0  0  0
  9 10  1  0  0  0  0
  9 33  1  0  0  0  0
  9 34  1  0  0  0  0
 11 12  1  0  0  0  0
 11 35  1  0  0  0  0
 12 21  1  0  0  0  0
 12 13  2  0  0  0  0
 13 14  1  0  0  0  0
 13 36  1  0  0  0  0
 14 15  1  0  0  0  0
 14 19  2  0  0  0  0
 15 16  1  0  0  0  0
 15 17  1  0  0  0  0
 15 18  1  0  0  0  0
 19 20  1  0  0  0  0
 19 37  1  0  0  0  0
 20 21  1  0  0  0  0
 21 22  2  0  0  0  0
M  CHG  1  20  -1
M  END
> <s_m_source_file>
AV-unprocessed.smi

> <i_m_source_file_index>
1756

> <i_lp_mmshare_version>
43012

> <i_f3d_flags>
0

> <s_epik_input>
Tz1jMVtuSF1bY0hdYyhDKEYpKEYpRilbY0hdYzFbTkhdQyg9TylbTkhdW0NIMl1bQ0BASF0yW0NIMl1bQ0gyXVtDSDJdW0NIMl1PMg==

> <s_epik_cmdline>
J2VwaWtfcHl0aG9uJywgJy1waCcsICc3LjAnLCAnLXRuJywgJzgnLCAnLW1hJywgJzIwMCcsICctbWV0YWxfYmluZGluZycsICctaW1hZScsICc8aW5maWxlLm1hZT4nLCAnLW9tYWUnLCAnPG91dGZpbGUubWFlPic=

> <r_lp_tautomer_probability>
1

> <r_epik_Ionization_Penalty>
3.16985

> <r_epik_Ionization_Penalty_Charging>
0.174782

> <r_epik_Ionization_Penalty_Neutral>
2.99507

> <r_epik_State_Penalty>
2.99125

> <r_epik_Charging_Adjusted_Penalty>
3.16603

> <i_epik_Tot_Q>
-1

> <i_epik_Tot_abs_Q>
1

> <r_epik_Metal_State_Penalty>
0.453096

> <b_epik_Metal_Only>
1

> <s_lp_Force_Field>
OPLS_2005

> <r_lp_Energy>
20.8362

> <b_lp_Chiralities_Consistent>
1

> <s_lp_Variant>
AV-unprocessed.smi:1756-4

> <Gold.Version>
5.8.1

> <Gold.Id.Protein>
6NUR|6NUR_protein|mol2

> <Gold.PLP.Fitness>
42.3537

> <Gold.PLP.PLP>
-40.8547

> <Gold.PLP.part.hbond>
-0.9164

> <Gold.PLP.part.metal>
0.0000

> <Gold.PLP.part.buried>
-5.5410

> <Gold.PLP.part.nonpolar>
-35.7461

> <Gold.PLP.part.repulsive>
0.2745

> <Gold.PLP.ligand.clash>
0.0000

> <Gold.PLP.ligand.torsion>
0.7189

> <Gold.PLP.Chemscore.Hbond>
0.9588

> <Gold.PLP.Chemscore.CHOScore>
0.0000

> <Gold.PLP.Chemscore.Metal>
0.0000

> <Gold.Chemscore.Hbonds>
donor molecule, donor type, donor heavy atom, donor atom, acceptor molecule, acceptor atom, score
      P1  H  6896  6908       L1     1  0.99

> <Gold.PLP.Chemscore.Internal.Correction>
0.0604

> <Gold.Rescore>
     Score         DG    S(hbond)    S(metal)    S(lipo)     H(rot)  DE(clash)    DE(int)     intcor
     14.78     -15.37       1.00        0.00      85.12       1.32       0.03       0.56       ----

> <Gold.Chemscore.Fitness>
14.7814

> <Gold.Chemscore.DG>
-15.3744

> <Gold.Chemscore.ZeroCoef>
-5.4800

> <Gold.Chemscore.Hbond>
0.9961

> <Gold.Chemscore.Metal>
0.0000

> <Gold.Chemscore.Lipo>
85.1202

> <Gold.Chemscore.Internal_Hbond>
0.0000

> <Gold.Chemscore.DEClash>
0.0288

> <Gold.Chemscore.DEInternal>
0.5643

> <Gold.Chemscore.Rot>
1.3248

> <Gold.Chemscore.Internal.Correction>
   9.000000E+99

> <Gold.Chemscore.Hbonds>
donor molecule, donor type, donor heavy atom, donor atom, acceptor molecule, acceptor atom, score
      P1  H  6896  6908       L1     1  0.84

> <Gold.Chemscore.Hbond.Weighted>
-3.3268

> <Gold.Chemscore.Metal.Weighted>
-0.0000

> <Gold.Chemscore.Lipo.Weighted>
-9.9591

> <Gold.Chemscore.Internal_Hbond.Weighted>
0.0000

> <Gold.Chemscore.DEClash.Weighted>
0.0288

> <Gold.Chemscore.DEInternal.Weighted>
0.5643

> <Gold.Chemscore.Rot.Weighted>
3.3915

> <Gold.Chemscore.Internal.Correction.Weighted>
   9.000000E+99

> <Gold.Protein.RotatedTorsions>
[ 6907 6896 6895 6894 ] final -133.08 input  -60.11 | X-H torsion
[ 7974 7965 7964 7962 ] final -108.73 input  175.53 | X-H torsion
[ 8008 7997 7996 7995 ] final  101.91 input   59.86 | X-H torsion
[ 10167 10162 10161 10158 ] final   -8.91 input  -65.29 | X-H torsion
[ 10718 10713 10712 10709 ] final  -78.50 input   66.30 | X-H torsion
[ 10763 10752 10751 10750 ] final   -1.35 input  -60.55 | X-H torsion
[ 11005 11000 10999 10996 ] final  118.19 input  -57.11 | X-H torsion

> <Gold.Protein.ActiveResidues>
 VAL166  LYS551  ARG553  GLY616  TRP617  ASP618  TYR619  PRO620  LYS621  CYS622 
 ASP623  PHE694  ASN695  SER759  ASP760  ASP761  ALA762  ILE779  LEU786  VAL792 
 PHE793  MET794  SER795  GLU796  ALA797  LYS798  CYS799  TRP800  GLU811  SER814 

> <Gold.Protein.RotatedAtoms>
  150.9698  133.6355  159.2739 H   0  0  0  0  0  0  0  0  0  0  0  0  # atno 6907 bound_to 6896
  151.3648  135.0910  159.9456 H   0  0  0  0  0  0  0  0  0  0  0  0  # atno 6908 bound_to 6896
  152.5179  133.9265  159.7614 H   0  0  0  0  0  0  0  0  0  0  0  0  # atno 6909 bound_to 6896
  145.1893  140.9007  143.3434 H   0  0  0  0  0  0  0  0  0  0  0  0  # atno 7974 bound_to 7965
  156.1344  140.3190  155.8398 H   0  0  0  0  0  0  0  0  0  0  0  0  # atno 8008 bound_to 7997
  155.4272  140.0516  157.3038 H   0  0  0  0  0  0  0  0  0  0  0  0  # atno 8009 bound_to 7997
  154.4925  140.2098  155.9531 H   0  0  0  0  0  0  0  0  0  0  0  0  # atno 8010 bound_to 7997
  140.7072  143.5917  150.8887 H   0  0  0  0  0  0  0  0  0  0  0  0  # atno 10167 bound_to 10162
  156.0116  130.4520  150.3506 H   0  0  0  0  0  0  0  0  0  0  0  0  # atno 10718 bound_to 10713
  153.3438  135.6982  153.6845 H   0  0  0  0  0  0  0  0  0  0  0  0  # atno 10763 bound_to 10752
  153.5599  135.3537  155.2795 H   0  0  0  0  0  0  0  0  0  0  0  0  # atno 10764 bound_to 10752
  154.8641  135.4247  154.2657 H   0  0  0  0  0  0  0  0  0  0  0  0  # atno 10765 bound_to 10752
  139.9101  134.9618  156.7466 H   0  0  0  0  0  0  0  0  0  0  0  0  # atno 11005 bound_to 11000
  145.0058  139.3556  143.6145 LP  0  0  0  0  0  0  0  0  0  0  0  0  # atno 17320 bound_to 7965
  146.3439  139.9300  142.8755 LP  0  0  0  0  0  0  0  0  0  0  0  0  # atno 17321 bound_to 7965
  139.9642  143.6129  152.2993 LP  0  0  0  0  0  0  0  0  0  0  0  0  # atno 17342 bound_to 10162
  139.6693  144.7661  151.1814 LP  0  0  0  0  0  0  0  0  0  0  0  0  # atno 17343 bound_to 10162
  157.1598  131.0342  151.2846 LP  0  0  0  0  0  0  0  0  0  0  0  0  # atno 17370 bound_to 10713
  157.4320  130.7496  149.6998 LP  0  0  0  0  0  0  0  0  0  0  0  0  # atno 17371 bound_to 10713
  140.6807  133.9477  155.7909 LP  0  0  0  0  0  0  0  0  0  0  0  0  # atno 17394 bound_to 11000
  141.0512  134.0482  157.3781 LP  0  0  0  0  0  0  0  0  0  0  0  0  # atno 17395 bound_to 11000

$$$$
