AV-unprocessed.smi:1809|AV-procd|sdf|7320|dock3
  -GOLD-   22720 8573D 1   1.00000     0.00000
 Structure written by MMmdl.
 39 41  0  0  0  0  0  0  0  0  1 V2000
  150.9848  142.3131  156.5898 C   0  0  0  0  0  0  0  0  0  0  0  0
  150.6332  141.1785  155.6891 C   0  0  0  0  0  0  0  0  0  0  0  0
  151.5438  140.3223  155.2098 N   0  0  0  0  0  0  0  0  0  0  0  0
  150.9760  139.3523  154.3955 N   0  0  0  0  0  0  0  0  0  0  0  0
  149.6492  139.5063  154.2851 C   0  0  0  0  0  0  0  0  0  0  0  0
  148.8166  138.6530  153.5140 N   0  0  0  0  0  0  0  0  0  0  0  0
  147.4755  138.5576  153.5341 C   0  0  0  0  0  0  0  0  0  0  0  0
  146.7266  139.2079  154.2637 O   0  0  0  0  0  0  0  0  0  0  0  0
  147.0412  137.6549  152.6429 N   0  0  0  0  0  0  0  0  0  0  0  0
  145.6409  137.3404  152.3792 C   0  0  0  0  0  0  0  0  0  0  0  0
  145.5018  136.1733  151.3869 C   0  0  1  0  0  0  0  0  0  0  0  0
  146.0836  134.8596  151.9586 C   0  0  0  0  0  0  0  0  0  0  0  0
  145.8297  133.7654  151.0408 N   0  0  0  0  0  0  0  0  0  0  0  0
  146.2406  132.4468  151.4641 C   0  0  0  0  0  0  0  0  0  0  0  0
  145.4905  131.4944  150.5162 C   0  0  0  0  0  0  0  0  0  0  0  0
  144.3165  132.3384  149.9714 C   0  0  0  0  0  0  0  0  0  0  0  0
  144.4208  133.6278  150.7875 C   0  0  2  0  0  0  0  0  0  0  0  0
  143.8521  134.9124  150.1694 C   0  0  0  0  0  0  0  0  0  0  0  0
  144.1150  135.9862  151.0754 O   0  0  0  0  0  0  0  0  0  0  0  0
  148.9807  140.8649  155.1731 S   0  0  0  0  0  0  0  0  0  0  0  0
  152.0380  142.2715  156.8697 H   0  0  0  0  0  0  0  0  0  0  0  0
  150.3812  142.2699  157.4964 H   0  0  0  0  0  0  0  0  0  0  0  0
  150.7939  143.2607  156.0863 H   0  0  0  0  0  0  0  0  0  0  0  0
  149.2982  138.0559  152.8583 H   0  0  0  0  0  0  0  0  0  0  0  0
  147.7275  137.1665  152.0869 H   0  0  0  0  0  0  0  0  0  0  0  0
  145.1832  137.0682  153.3305 H   0  0  0  0  0  0  0  0  0  0  0  0
  145.1014  138.2185  152.0194 H   0  0  0  0  0  0  0  0  0  0  0  0
  146.0321  136.4236  150.4661 H   0  0  0  0  0  0  0  0  0  0  0  0
  147.1564  134.9629  152.1239 H   0  0  0  0  0  0  0  0  0  0  0  0
  145.6313  134.6454  152.9281 H   0  0  0  0  0  0  0  0  0  0  0  0
  147.3227  132.3250  151.4134 H   0  0  0  0  0  0  0  0  0  0  0  0
  145.9273  132.2677  152.4941 H   0  0  0  0  0  0  0  0  0  0  0  0
  146.1351  131.1699  149.6984 H   0  0  0  0  0  0  0  0  0  0  0  0
  145.1454  130.6050  151.0443 H   0  0  0  0  0  0  0  0  0  0  0  0
  144.4590  132.5396  148.9087 H   0  0  0  0  0  0  0  0  0  0  0  0
  143.3509  131.8481  150.0985 H   0  0  0  0  0  0  0  0  0  0  0  0
  143.9076  133.4586  151.7369 H   0  0  0  0  0  0  0  0  0  0  0  0
  144.3071  135.1218  149.2001 H   0  0  0  0  0  0  0  0  0  0  0  0
  142.7768  134.8245  150.0148 H   0  0  0  0  0  0  0  0  0  0  0  0
  1  2  1  0  0  0  0
  1 21  1  0  0  0  0
  1 22  1  0  0  0  0
  1 23  1  0  0  0  0
  2 20  1  0  0  0  0
  2  3  2  0  0  0  0
  3  4  1  0  0  0  0
  4  5  2  0  0  0  0
  5  6  1  0  0  0  0
  5 20  1  0  0  0  0
  6  7  1  0  0  0  0
  6 24  1  0  0  0  0
  7  8  2  0  0  0  0
  7  9  1  0  0  0  0
  9 10  1  0  0  0  0
  9 25  1  0  0  0  0
 10 11  1  0  0  0  0
 10 26  1  0  0  0  0
 10 27  1  0  0  0  0
 11 19  1  0  0  0  0
 11 12  1  0  0  0  0
 11 28  1  0  0  0  0
 12 13  1  0  0  0  0
 12 29  1  0  0  0  0
 12 30  1  0  0  0  0
 13 17  1  0  0  0  0
 13 14  1  0  0  0  0
 14 15  1  0  0  0  0
 14 31  1  0  0  0  0
 14 32  1  0  0  0  0
 15 16  1  0  0  0  0
 15 33  1  0  0  0  0
 15 34  1  0  0  0  0
 16 17  1  0  0  0  0
 16 35  1  0  0  0  0
 16 36  1  0  0  0  0
 17 18  1  0  0  0  0
 17 37  1  0  0  0  0
 18 19  1  0  0  0  0
 18 38  1  0  0  0  0
 18 39  1  0  0  0  0
M  END
> <s_m_source_file>
AV-unprocessed.smi

> <i_m_source_file_index>
1809

> <i_lp_mmshare_version>
43012

> <i_f3d_flags>
0

> <s_epik_input>
W0NIM11jMW5uYyhzMSlbTkhdQyg9TylbTkhdW0NIMl1bQ0BIXShbQ0gyXTIpT1tDSDJdW0NAQEhdKE4yMylbQ0gyXVtDSDJdW0NIMl0z

> <s_epik_cmdline>
J2VwaWtfcHl0aG9uJywgJy1waCcsICc3LjAnLCAnLXRuJywgJzgnLCAnLW1hJywgJzIwMCcsICctbWV0YWxfYmluZGluZycsICctaW1hZScsICc8aW5maWxlLm1hZT4nLCAnLW9tYWUnLCAnPG91dGZpbGUubWFlPic=

> <r_lp_tautomer_probability>
1

> <r_epik_Ionization_Penalty>
1.05954

> <r_epik_Ionization_Penalty_Charging>
0

> <r_epik_Ionization_Penalty_Neutral>
1.05954

> <r_epik_State_Penalty>
1.4238

> <r_epik_Charging_Adjusted_Penalty>
1.4238

> <i_epik_Tot_Q>
0

> <i_epik_Tot_abs_Q>
0

> <r_epik_Metal_State_Penalty>
1.7901

> <b_epik_Metal_Only>
0

> <s_lp_Force_Field>
OPLS_2005

> <r_lp_Energy>
46.7621

> <b_lp_Chiralities_Consistent>
1

> <s_lp_Variant>
AV-unprocessed.smi:1809-12

> <Gold.Version>
5.8.1

> <Gold.Id.Protein>
6NUR|6NUR_protein|mol2

> <Gold.PLP.Fitness>
38.4226

> <Gold.PLP.PLP>
-33.3562

> <Gold.PLP.part.hbond>
-4.8595

> <Gold.PLP.part.metal>
0.0000

> <Gold.PLP.part.buried>
-2.7787

> <Gold.PLP.part.nonpolar>
-27.8609

> <Gold.PLP.part.repulsive>
2.2940

> <Gold.PLP.ligand.clash>
0.0000

> <Gold.PLP.ligand.torsion>
0.0662

> <Gold.PLP.Chemscore.Hbond>
1.7323

> <Gold.PLP.Chemscore.CHOScore>
0.0000

> <Gold.PLP.Chemscore.Metal>
0.0000

> <Gold.Chemscore.Hbonds>
donor molecule, donor type, donor heavy atom, donor atom, acceptor molecule, acceptor atom, score
      L1  H     6    24       P1  7948  0.70
      L1  H     9    25       P1  7948  1.00

> <Gold.PLP.Chemscore.Internal.Correction>
0.0020

> <Gold.Rescore>
     Score         DG    S(hbond)    S(metal)    S(lipo)     H(rot)  DE(clash)    DE(int)     intcor
     15.12     -17.52       1.66        0.00      84.32       1.32       1.65       0.75       ----

> <Gold.Chemscore.Fitness>
15.1185

> <Gold.Chemscore.DG>
-17.5207

> <Gold.Chemscore.ZeroCoef>
-5.4800

> <Gold.Chemscore.Hbond>
1.6627

> <Gold.Chemscore.Metal>
0.0000

> <Gold.Chemscore.Lipo>
84.3220

> <Gold.Chemscore.Internal_Hbond>
0.0000

> <Gold.Chemscore.DEClash>
1.6481

> <Gold.Chemscore.DEInternal>
0.7542

> <Gold.Chemscore.Rot>
1.3196

> <Gold.Chemscore.Internal.Correction>
   9.000000E+99

> <Gold.Chemscore.Hbonds>
donor molecule, donor type, donor heavy atom, donor atom, acceptor molecule, acceptor atom, score
      L1  H     6    24       P1  7948  0.64
      L1  H     9    25       P1  7948  0.93

> <Gold.Chemscore.Hbond.Weighted>
-5.5534

> <Gold.Chemscore.Metal.Weighted>
-0.0000

> <Gold.Chemscore.Lipo.Weighted>
-9.8657

> <Gold.Chemscore.Internal_Hbond.Weighted>
0.0000

> <Gold.Chemscore.DEClash.Weighted>
1.6481

> <Gold.Chemscore.DEInternal.Weighted>
0.7542

> <Gold.Chemscore.Rot.Weighted>
3.3783

> <Gold.Chemscore.Internal.Correction.Weighted>
   9.000000E+99

> <Gold.Protein.RotatedTorsions>
[ 6907 6896 6895 6894 ] final -179.96 input  -60.11 | X-H torsion
[ 7974 7965 7964 7962 ] final  -15.80 input  175.53 | X-H torsion
[ 8008 7997 7996 7995 ] final  -65.29 input   59.86 | X-H torsion
[ 10167 10162 10161 10158 ] final  111.66 input  -65.29 | X-H torsion
[ 10718 10713 10712 10709 ] final  112.88 input   66.30 | X-H torsion
[ 10763 10752 10751 10750 ] final   83.20 input  -60.55 | X-H torsion
[ 11005 11000 10999 10996 ] final  -94.97 input  -57.11 | X-H torsion

> <Gold.Protein.ActiveResidues>
 VAL166  LYS551  ARG553  GLY616  TRP617  ASP618  TYR619  PRO620  LYS621  CYS622 
 ASP623  PHE694  ASN695  SER759  ASP760  ASP761  ALA762  ILE779  LEU786  VAL792 
 PHE793  MET794  SER795  GLU796  ALA797  LYS798  CYS799  TRP800  GLU811  SER814 

> <Gold.Protein.RotatedAtoms>
  151.6618  133.3316  159.3175 H   0  0  0  0  0  0  0  0  0  0  0  0  # atno 6907 bound_to 6896
  150.7910  134.6937  159.6520 H   0  0  0  0  0  0  0  0  0  0  0  0  # atno 6908 bound_to 6896
  152.3989  134.6323  160.0130 H   0  0  0  0  0  0  0  0  0  0  0  0  # atno 6909 bound_to 6896
  146.2016  140.3544  142.8421 H   0  0  0  0  0  0  0  0  0  0  0  0  # atno 7974 bound_to 7965
  154.4663  140.0936  156.7028 H   0  0  0  0  0  0  0  0  0  0  0  0  # atno 8008 bound_to 7997
  155.4850  140.3469  155.4327 H   0  0  0  0  0  0  0  0  0  0  0  0  # atno 8009 bound_to 7997
  156.0961  140.1410  156.9517 H   0  0  0  0  0  0  0  0  0  0  0  0  # atno 8010 bound_to 7997
  139.6594  144.7129  151.1894 H   0  0  0  0  0  0  0  0  0  0  0  0  # atno 10167 bound_to 10162
  157.6369  131.0975  150.6959 H   0  0  0  0  0  0  0  0  0  0  0  0  # atno 10718 bound_to 10713
  153.1270  135.4700  154.9287 H   0  0  0  0  0  0  0  0  0  0  0  0  # atno 10763 bound_to 10752
  154.7629  135.3136  154.8346 H   0  0  0  0  0  0  0  0  0  0  0  0  # atno 10764 bound_to 10752
  153.8897  135.6886  153.4815 H   0  0  0  0  0  0  0  0  0  0  0  0  # atno 10765 bound_to 10752
  141.1455  133.7993  157.0371 H   0  0  0  0  0  0  0  0  0  0  0  0  # atno 11005 bound_to 11000
  144.8697  140.7255  143.6055 LP  0  0  0  0  0  0  0  0  0  0  0  0  # atno 17320 bound_to 7965
  145.3464  139.1718  143.4458 LP  0  0  0  0  0  0  0  0  0  0  0  0  # atno 17321 bound_to 7965
  140.7573  143.6019  150.8691 LP  0  0  0  0  0  0  0  0  0  0  0  0  # atno 17342 bound_to 10162
  139.9675  143.6094  152.2984 LP  0  0  0  0  0  0  0  0  0  0  0  0  # atno 17343 bound_to 10162
  156.7289  130.4703  149.5504 LP  0  0  0  0  0  0  0  0  0  0  0  0  # atno 17370 bound_to 10713
  156.1615  130.6377  151.0725 LP  0  0  0  0  0  0  0  0  0  0  0  0  # atno 17371 bound_to 10713
  140.0716  134.9699  157.1477 LP  0  0  0  0  0  0  0  0  0  0  0  0  # atno 17394 bound_to 11000
  140.3702  134.2398  155.7178 LP  0  0  0  0  0  0  0  0  0  0  0  0  # atno 17395 bound_to 11000

$$$$
