AV-unprocessed.smi:3128|AV-procd|sdf|11920|dock4
  -GOLD-   2272017303D 1   1.00000     0.00000
 Structure written by MMmdl.
 39 39  0  0  0  0  0  0  0  0  1 V2000
  155.3497  137.6890  163.2138 C   0  0  0  0  0  0  0  0  0  0  0  0
  154.3838  137.0062  162.2287 C   0  0  0  0  0  0  0  0  0  0  0  0
  154.7069  135.5008  162.1573 C   0  0  0  0  0  0  0  0  0  0  0  0
  154.3934  137.6776  160.8299 C   0  0  2  0  0  0  0  0  0  0  0  0
  155.6848  137.4064  160.0327 C   0  0  0  0  0  0  0  0  0  0  0  0
  154.2206  139.1230  160.9640 N   0  0  0  0  0  0  0  0  0  0  0  0
  154.0353  139.9841  159.9514 C   0  0  0  0  0  0  0  0  0  0  0  0
  153.9577  139.6399  158.7725 O   0  0  0  0  0  0  0  0  0  0  0  0
  153.9494  141.4683  160.3194 C   0  0  0  0  0  0  0  0  0  0  0  0
  152.8683  141.7562  161.2716 N   0  0  0  0  0  0  0  0  0  0  0  0
  153.1344  142.9135  162.1209 C   0  0  0  0  0  0  0  0  0  0  0  0
  152.1946  144.0688  161.7424 C   0  0  0  0  0  0  0  0  0  0  0  0
  151.9123  144.0828  160.3178 N   0  0  0  0  0  0  0  0  0  0  0  0
  152.1362  145.0948  159.4082 C   0  0  0  0  0  0  0  0  0  0  0  0
  151.6854  144.6578  158.1956 C   0  0  0  0  0  0  0  0  0  0  0  0
  151.1965  143.3496  158.4681 C   0  0  0  0  0  0  0  0  0  0  0  0
  151.3345  143.0076  159.7389 N   0  0  0  0  0  0  0  0  0  0  0  0
  156.3710  137.6888  162.8314 H   0  0  0  0  0  0  0  0  0  0  0  0
  155.3567  137.1750  164.1756 H   0  0  0  0  0  0  0  0  0  0  0  0
  155.0656  138.7219  163.4123 H   0  0  0  0  0  0  0  0  0  0  0  0
  153.3784  137.1002  162.6413 H   0  0  0  0  0  0  0  0  0  0  0  0
  155.6862  135.3287  161.7095 H   0  0  0  0  0  0  0  0  0  0  0  0
  153.9708  134.9519  161.5702 H   0  0  0  0  0  0  0  0  0  0  0  0
  154.7152  135.0538  163.1517 H   0  0  0  0  0  0  0  0  0  0  0  0
  153.5507  137.2787  160.2620 H   0  0  0  0  0  0  0  0  0  0  0  0
  155.8015  136.3491  159.7979 H   0  0  0  0  0  0  0  0  0  0  0  0
  156.5680  137.7284  160.5853 H   0  0  0  0  0  0  0  0  0  0  0  0
  155.6813  137.9390  159.0809 H   0  0  0  0  0  0  0  0  0  0  0  0
  154.2759  139.5007  161.8986 H   0  0  0  0  0  0  0  0  0  0  0  0
  154.8970  141.7535  160.7772 H   0  0  0  0  0  0  0  0  0  0  0  0
  153.8381  142.0874  159.4276 H   0  0  0  0  0  0  0  0  0  0  0  0
  152.6514  140.9582  161.8510 H   0  0  0  0  0  0  0  0  0  0  0  0
  152.9795  142.6223  163.1600 H   0  0  0  0  0  0  0  0  0  0  0  0
  154.1652  143.2585  162.0438 H   0  0  0  0  0  0  0  0  0  0  0  0
  151.2547  144.0075  162.2926 H   0  0  0  0  0  0  0  0  0  0  0  0
  152.6521  145.0221  162.0104 H   0  0  0  0  0  0  0  0  0  0  0  0
  152.5856  146.0330  159.6986 H   0  0  0  0  0  0  0  0  0  0  0  0
  151.6990  145.1930  157.2578 H   0  0  0  0  0  0  0  0  0  0  0  0
  150.7473  142.6436  157.7854 H   0  0  0  0  0  0  0  0  0  0  0  0
  1  2  1  0  0  0  0
  1 18  1  0  0  0  0
  1 19  1  0  0  0  0
  1 20  1  0  0  0  0
  2  3  1  0  0  0  0
  2  4  1  0  0  0  0
  2 21  1  0  0  0  0
  3 22  1  0  0  0  0
  3 23  1  0  0  0  0
  3 24  1  0  0  0  0
  4  5  1  0  0  0  0
  4  6  1  0  0  0  0
  4 25  1  0  0  0  0
  5 26  1  0  0  0  0
  5 27  1  0  0  0  0
  5 28  1  0  0  0  0
  6  7  1  0  0  0  0
  6 29  1  0  0  0  0
  7  8  2  0  0  0  0
  7  9  1  0  0  0  0
  9 10  1  0  0  0  0
  9 30  1  0  0  0  0
  9 31  1  0  0  0  0
 10 11  1  0  0  0  0
 10 32  1  0  0  0  0
 11 12  1  0  0  0  0
 11 33  1  0  0  0  0
 11 34  1  0  0  0  0
 12 13  1  0  0  0  0
 12 35  1  0  0  0  0
 12 36  1  0  0  0  0
 13 17  1  0  0  0  0
 13 14  1  0  0  0  0
 14 15  2  0  0  0  0
 14 37  1  0  0  0  0
 15 16  1  0  0  0  0
 15 38  1  0  0  0  0
 16 17  2  0  0  0  0
 16 39  1  0  0  0  0
M  END
> <s_m_source_file>
AV-unprocessed.smi

> <i_m_source_file_index>
3128

> <i_lp_mmshare_version>
43012

> <i_f3d_flags>
0

> <s_epik_input>
W0NIM11bQ0hdKFtDSDNdKVtDQEhdKFtDSDNdKVtOSF1DKD1PKVtDSDJdW05IXVtDSDJdW0NIMl1uMVtjSF1bY0hdW2NIXW4x

> <s_epik_cmdline>
J2VwaWtfcHl0aG9uJywgJy1waCcsICc3LjAnLCAnLXRuJywgJzgnLCAnLW1hJywgJzIwMCcsICctbWV0YWxfYmluZGluZycsICctaW1hZScsICc8aW5maWxlLm1hZT4nLCAnLW9tYWUnLCAnPG91dGZpbGUubWFlPic=

> <r_lp_tautomer_probability>
1

> <r_epik_Ionization_Penalty>
0.724947

> <r_epik_Ionization_Penalty_Charging>
0

> <r_epik_Ionization_Penalty_Neutral>
0.724947

> <r_epik_State_Penalty>
0.747959

> <r_epik_Charging_Adjusted_Penalty>
0.747959

> <i_epik_Tot_Q>
0

> <i_epik_Tot_abs_Q>
0

> <r_epik_Metal_State_Penalty>
0.746178

> <b_epik_Metal_Only>
0

> <s_lp_Force_Field>
OPLS_2005

> <r_lp_Energy>
7.88811

> <b_lp_Chiralities_Consistent>
1

> <s_lp_Variant>
AV-unprocessed.smi:3128-3

> <Gold.Version>
5.8.1

> <Gold.Id.Protein>
6NUR|6NUR_protein|mol2

> <Gold.PLP.Fitness>
41.8727

> <Gold.PLP.PLP>
-40.2946

> <Gold.PLP.part.hbond>
-1.0000

> <Gold.PLP.part.metal>
0.0000

> <Gold.PLP.part.buried>
-5.3149

> <Gold.PLP.part.nonpolar>
-34.2254

> <Gold.PLP.part.repulsive>
0.0211

> <Gold.PLP.ligand.clash>
0.0000

> <Gold.PLP.ligand.torsion>
0.7987

> <Gold.PLP.Chemscore.Hbond>
1.0000

> <Gold.PLP.Chemscore.CHOScore>
0.0000

> <Gold.PLP.Chemscore.Metal>
0.0000

> <Gold.Chemscore.Hbonds>
donor molecule, donor type, donor heavy atom, donor atom, acceptor molecule, acceptor atom, score
      P1  H  7997  8010       L1     8  1.00

> <Gold.PLP.Chemscore.Internal.Correction>
0.1755

> <Gold.Rescore>
     Score         DG    S(hbond)    S(metal)    S(lipo)     H(rot)  DE(clash)    DE(int)     intcor
     13.17     -15.75       1.00        0.00     106.36       2.15       0.02       2.57       ----

> <Gold.Chemscore.Fitness>
13.1658

> <Gold.Chemscore.DG>
-15.7542

> <Gold.Chemscore.ZeroCoef>
-5.4800

> <Gold.Chemscore.Hbond>
0.9972

> <Gold.Chemscore.Metal>
0.0000

> <Gold.Chemscore.Lipo>
106.3633

> <Gold.Chemscore.Internal_Hbond>
0.0000

> <Gold.Chemscore.DEClash>
0.0186

> <Gold.Chemscore.DEInternal>
2.5698

> <Gold.Chemscore.Rot>
2.1488

> <Gold.Chemscore.Internal.Correction>
   9.000000E+99

> <Gold.Chemscore.Hbonds>
donor molecule, donor type, donor heavy atom, donor atom, acceptor molecule, acceptor atom, score
      P1  H  7997  8010       L1     8  1.00

> <Gold.Chemscore.Hbond.Weighted>
-3.3307

> <Gold.Chemscore.Metal.Weighted>
-0.0000

> <Gold.Chemscore.Lipo.Weighted>
-12.4445

> <Gold.Chemscore.Internal_Hbond.Weighted>
0.0000

> <Gold.Chemscore.DEClash.Weighted>
0.0186

> <Gold.Chemscore.DEInternal.Weighted>
2.5698

> <Gold.Chemscore.Rot.Weighted>
5.5010

> <Gold.Chemscore.Internal.Correction.Weighted>
   9.000000E+99

> <Gold.Protein.RotatedTorsions>
[ 6907 6896 6895 6894 ] final  105.87 input  -60.11 | X-H torsion
[ 7974 7965 7964 7962 ] final  -92.33 input  175.53 | X-H torsion
[ 8008 7997 7996 7995 ] final    8.27 input   59.86 | X-H torsion
[ 10167 10162 10161 10158 ] final  157.46 input  -65.29 | X-H torsion
[ 10718 10713 10712 10709 ] final  119.10 input   66.30 | X-H torsion
[ 10763 10752 10751 10750 ] final  -87.58 input  -60.55 | X-H torsion
[ 11005 11000 10999 10996 ] final  171.38 input  -57.11 | X-H torsion

> <Gold.Protein.ActiveResidues>
 VAL166  LYS551  ARG553  GLY616  TRP617  ASP618  TYR619  PRO620  LYS621  CYS622 
 ASP623  PHE694  ASN695  SER759  ASP760  ASP761  ALA762  ILE779  LEU786  VAL792 
 PHE793  MET794  SER795  GLU796  ALA797  LYS798  CYS799  TRP800  GLU811  SER814 

> <Gold.Protein.RotatedAtoms>
  152.5215  133.9464  159.7650 H   0  0  0  0  0  0  0  0  0  0  0  0  # atno 6907 bound_to 6896
  150.9783  133.6263  159.2733 H   0  0  0  0  0  0  0  0  0  0  0  0  # atno 6908 bound_to 6896
  151.3450  135.0878  159.9437 H   0  0  0  0  0  0  0  0  0  0  0  0  # atno 6909 bound_to 6896
  145.4013  140.9537  143.2285 H   0  0  0  0  0  0  0  0  0  0  0  0  # atno 7974 bound_to 7965
  154.7647  140.2791  155.6186 H   0  0  0  0  0  0  0  0  0  0  0  0  # atno 8008 bound_to 7997
  156.2922  140.2653  156.2361 H   0  0  0  0  0  0  0  0  0  0  0  0  # atno 8009 bound_to 7997
  154.9974  140.0373  157.2335 H   0  0  0  0  0  0  0  0  0  0  0  0  # atno 8010 bound_to 7997
  139.4823  144.4915  151.8301 H   0  0  0  0  0  0  0  0  0  0  0  0  # atno 10167 bound_to 10162
  157.5985  131.1054  150.7848 H   0  0  0  0  0  0  0  0  0  0  0  0  # atno 10718 bound_to 10713
  154.6352  135.5408  153.7726 H   0  0  0  0  0  0  0  0  0  0  0  0  # atno 10763 bound_to 10752
  153.0305  135.6445  154.1242 H   0  0  0  0  0  0  0  0  0  0  0  0  # atno 10764 bound_to 10752
  154.1170  135.2923  155.3197 H   0  0  0  0  0  0  0  0  0  0  0  0  # atno 10765 bound_to 10752
  140.3184  134.7458  157.4045 H   0  0  0  0  0  0  0  0  0  0  0  0  # atno 11005 bound_to 11000
  144.8372  139.5531  143.6917 LP  0  0  0  0  0  0  0  0  0  0  0  0  # atno 17320 bound_to 7965
  146.2750  139.6730  142.9269 LP  0  0  0  0  0  0  0  0  0  0  0  0  # atno 17321 bound_to 7965
  140.4400  144.2000  150.5891 LP  0  0  0  0  0  0  0  0  0  0  0  0  # atno 17342 bound_to 10162
  140.4693  143.2419  151.9111 LP  0  0  0  0  0  0  0  0  0  0  0  0  # atno 17343 bound_to 10162
  156.8253  130.4997  149.5338 LP  0  0  0  0  0  0  0  0  0  0  0  0  # atno 17370 bound_to 10713
  156.1053  130.6000  150.9960 LP  0  0  0  0  0  0  0  0  0  0  0  0  # atno 17371 bound_to 10713
  140.0963  134.5533  155.8395 LP  0  0  0  0  0  0  0  0  0  0  0  0  # atno 17394 bound_to 11000
  141.2092  133.6681  156.6424 LP  0  0  0  0  0  0  0  0  0  0  0  0  # atno 17395 bound_to 11000

$$$$
