AV-unprocessed.smi:1973|AV-procd|sdf|7977|dock8
  -GOLD-   2272010153D 1   1.00000     0.00000
 Structure written by MMmdl.
 48 50  0  0  0  0  0  0  0  0  2 V2000
  151.4735  143.6649  157.8210 C   0  0  0  0  0  0  0  0  0  0  0  0
  151.7648  142.2946  158.0319 O   0  0  0  0  0  0  0  0  0  0  0  0
  150.7172  141.4446  157.5970 C   0  0  0  0  0  0  0  0  0  0  0  0
  150.4751  141.6794  156.0987 C   0  0  0  0  0  0  0  0  0  0  0  0
  150.2873  140.4132  155.3840 N   0  0  0  0  0  0  0  0  0  0  0  0
  148.9783  140.1718  155.0020 N   0  0  0  0  0  0  0  0  0  0  0  0
  148.6737  139.0786  154.3804 C   0  0  0  0  0  0  0  0  0  0  0  0
  147.2753  138.7745  153.9681 C   0  0  0  0  0  0  0  0  0  0  0  0
  146.3143  139.4095  154.4052 O   0  0  0  0  0  0  0  0  0  0  0  0
  147.1410  137.7710  153.0822 N   0  0  0  0  0  0  0  0  0  0  0  0
  145.8776  137.3184  152.5112 C   0  0  0  0  0  0  0  0  0  0  0  0
  146.0737  136.1158  151.5686 C   0  0  1  0  0  0  0  0  0  0  0  0
  146.4526  134.8096  152.2671 C   0  0  0  0  0  0  0  0  0  0  0  0
  146.0278  133.7151  151.2802 C   0  0  0  0  0  0  0  0  0  0  0  0
  145.0761  134.3396  150.3313 N   0  3  1  0  0  0  0  0  0  0  0  0
  143.8536  133.5462  150.0841 C   0  0  0  0  0  0  0  0  0  0  0  0
  144.0664  132.0565  150.2091 C   0  0  0  0  0  0  0  0  0  0  0  0
  143.9295  132.6910  148.8420 C   0  0  0  0  0  0  0  0  0  0  0  0
  144.8158  135.7157  150.8003 C   0  0  0  0  0  0  0  0  0  0  0  0
  149.6934  138.0922  154.0658 C   0  0  0  0  0  0  0  0  0  0  0  0
  150.9647  138.3392  154.4508 C   0  0  0  0  0  0  0  0  0  0  0  0
  151.3342  139.5611  155.1671 C   0  0  0  0  0  0  0  0  0  0  0  0
  152.4806  139.7986  155.5462 O   0  0  0  0  0  0  0  0  0  0  0  0
  152.3050  144.2748  158.1738 H   0  0  0  0  0  0  0  0  0  0  0  0
  150.5788  143.9669  158.3668 H   0  0  0  0  0  0  0  0  0  0  0  0
  151.3261  143.8777  156.7614 H   0  0  0  0  0  0  0  0  0  0  0  0
  150.9828  140.4022  157.7803 H   0  0  0  0  0  0  0  0  0  0  0  0
  149.8077  141.6574  158.1614 H   0  0  0  0  0  0  0  0  0  0  0  0
  149.5941  142.3106  155.9682 H   0  0  0  0  0  0  0  0  0  0  0  0
  151.3032  142.2462  155.6696 H   0  0  0  0  0  0  0  0  0  0  0  0
  147.9788  137.2962  152.7766 H   0  0  0  0  0  0  0  0  0  0  0  0
  145.2128  137.0488  153.3325 H   0  0  0  0  0  0  0  0  0  0  0  0
  145.3936  138.1408  151.9815 H   0  0  0  0  0  0  0  0  0  0  0  0
  146.8507  136.3526  150.8394 H   0  0  0  0  0  0  0  0  0  0  0  0
  147.5125  134.7586  152.5191 H   0  0  0  0  0  0  0  0  0  0  0  0
  145.8860  134.7040  153.1934 H   0  0  0  0  0  0  0  0  0  0  0  0
  146.8847  133.3460  150.7160 H   0  0  0  0  0  0  0  0  0  0  0  0
  145.5895  132.8662  151.8076 H   0  0  0  0  0  0  0  0  0  0  0  0
  142.9108  133.9980  150.3881 H   0  0  0  0  0  0  0  0  0  0  0  0
  145.0524  131.6992  150.5015 H   0  0  0  0  0  0  0  0  0  0  0  0
  143.2307  131.4579  150.5662 H   0  0  0  0  0  0  0  0  0  0  0  0
  143.0037  132.5096  148.2995 H   0  0  0  0  0  0  0  0  0  0  0  0
  144.8244  132.7551  148.2254 H   0  0  0  0  0  0  0  0  0  0  0  0
  143.9528  135.7191  151.4688 H   0  0  0  0  0  0  0  0  0  0  0  0
  144.6007  136.3868  149.9681 H   0  0  0  0  0  0  0  0  0  0  0  0
  149.4495  137.1820  153.5377 H   0  0  0  0  0  0  0  0  0  0  0  0
  151.7331  137.6147  154.2239 H   0  0  0  0  0  0  0  0  0  0  0  0
  145.5679  134.4241  149.4530 H   0  0  0  0  0  0  0  0  0  0  0  0
  1  2  1  0  0  0  0
  1 24  1  0  0  0  0
  1 25  1  0  0  0  0
  1 26  1  0  0  0  0
  2  3  1  0  0  0  0
  3  4  1  0  0  0  0
  3 27  1  0  0  0  0
  3 28  1  0  0  0  0
  4  5  1  0  0  0  0
  4 29  1  0  0  0  0
  4 30  1  0  0  0  0
  5 22  1  0  0  0  0
  5  6  1  0  0  0  0
  6  7  2  0  0  0  0
  7  8  1  0  0  0  0
  7 20  1  0  0  0  0
  8  9  2  0  0  0  0
  8 10  1  0  0  0  0
 10 11  1  0  0  0  0
 10 31  1  0  0  0  0
 11 12  1  0  0  0  0
 11 32  1  0  0  0  0
 11 33  1  0  0  0  0
 12 19  1  0  0  0  0
 12 13  1  0  0  0  0
 12 34  1  0  0  0  0
 13 14  1  0  0  0  0
 13 35  1  0  0  0  0
 13 36  1  0  0  0  0
 14 15  1  0  0  0  0
 14 37  1  0  0  0  0
 14 38  1  0  0  0  0
 15 16  1  0  0  0  0
 15 19  1  0  0  0  0
 15 48  1  0  0  0  0
 16 18  1  0  0  0  0
 16 17  1  0  0  0  0
 16 39  1  0  0  0  0
 17 18  1  0  0  0  0
 17 40  1  0  0  0  0
 17 41  1  0  0  0  0
 18 42  1  0  0  0  0
 18 43  1  0  0  0  0
 19 44  1  0  0  0  0
 19 45  1  0  0  0  0
 20 21  2  0  0  0  0
 20 46  1  0  0  0  0
 21 22  1  0  0  0  0
 21 47  1  0  0  0  0
 22 23  2  0  0  0  0
M  CHG  1  15   1
M  END
> <s_m_source_file>
AV-unprocessed.smi

> <i_m_source_file_index>
1973

> <i_lp_mmshare_version>
43012

> <i_f3d_flags>
0

> <s_epik_input>
W0NIM11PW0NIMl1bQ0gyXW4xbmMoW2NIXVtjSF1jMT1PKUMoPU8pW05IXVtDSDJdW0NAQEhdMltDSDJdW0NIMl1OKFtDSDJdMilbQ0hdM1tDSDJdW0NIMl0z

> <s_epik_cmdline>
J2VwaWtfcHl0aG9uJywgJy1waCcsICc3LjAnLCAnLXRuJywgJzgnLCAnLW1hJywgJzIwMCcsICctbWV0YWxfYmluZGluZycsICctaW1hZScsICc8aW5maWxlLm1hZT4nLCAnLW9tYWUnLCAnPG91dGZpbGUubWFlPic=

> <r_lp_tautomer_probability>
1

> <r_epik_Ionization_Penalty>
0.000225706

> <r_epik_Ionization_Penalty_Charging>
0.000223776

> <r_epik_Ionization_Penalty_Neutral>
1.93004e-06

> <r_epik_State_Penalty>
-0

> <r_epik_Charging_Adjusted_Penalty>
0.000223776

> <i_epik_Tot_Q>
1

> <i_epik_Tot_abs_Q>
1

> <r_epik_Metal_State_Penalty>
-0

> <b_epik_Metal_Only>
0

> <s_lp_Force_Field>
OPLS_2005

> <r_lp_Energy>
57.2407

> <b_lp_Chiralities_Consistent>
1

> <s_lp_Variant>
AV-unprocessed.smi:1973-2

> <Gold.Version>
5.8.1

> <Gold.Id.Protein>
6NUR|6NUR_protein|mol2

> <Gold.PLP.Fitness>
46.4656

> <Gold.PLP.PLP>
-39.0909

> <Gold.PLP.part.hbond>
-3.5738

> <Gold.PLP.part.metal>
0.0000

> <Gold.PLP.part.buried>
5.1099

> <Gold.PLP.part.nonpolar>
-40.3626

> <Gold.PLP.part.repulsive>
0.3114

> <Gold.PLP.ligand.clash>
0.0000

> <Gold.PLP.ligand.torsion>
1.4447

> <Gold.PLP.Chemscore.Hbond>
3.0000

> <Gold.PLP.Chemscore.CHOScore>
0.0000

> <Gold.PLP.Chemscore.Metal>
0.0000

> <Gold.Chemscore.Hbonds>
donor molecule, donor type, donor heavy atom, donor atom, acceptor molecule, acceptor atom, score
      L1  H    10    31       P1  7948  1.00
      L1  H    15    48       P1  7921  1.00
      P1  H  7997  8010       L1    23  1.00

> <Gold.PLP.Chemscore.Internal.Correction>
1.2641

> <Gold.Rescore>
     Score         DG    S(hbond)    S(metal)    S(lipo)     H(rot)  DE(clash)    DE(int)     intcor
     18.12     -22.14       2.86        0.00     103.81       1.97       2.52       1.50       ----

> <Gold.Chemscore.Fitness>
18.1163

> <Gold.Chemscore.DG>
-22.1402

> <Gold.Chemscore.ZeroCoef>
-5.4800

> <Gold.Chemscore.Hbond>
2.8625

> <Gold.Chemscore.Metal>
0.0000

> <Gold.Chemscore.Lipo>
103.8074

> <Gold.Chemscore.Internal_Hbond>
0.0000

> <Gold.Chemscore.DEClash>
2.5200

> <Gold.Chemscore.DEInternal>
1.5039

> <Gold.Chemscore.Rot>
1.9711

> <Gold.Chemscore.Internal.Correction>
   9.000000E+99

> <Gold.Chemscore.Hbonds>
donor molecule, donor type, donor heavy atom, donor atom, acceptor molecule, acceptor atom, score
      L1  H    10    31       P1  7948  0.99
      L1  H    15    48       P1  7921  0.90
      P1  H  7997  8010       L1    23  0.95

> <Gold.Chemscore.Hbond.Weighted>
-9.5607

> <Gold.Chemscore.Metal.Weighted>
-0.0000

> <Gold.Chemscore.Lipo.Weighted>
-12.1455

> <Gold.Chemscore.Internal_Hbond.Weighted>
0.0000

> <Gold.Chemscore.DEClash.Weighted>
2.5200

> <Gold.Chemscore.DEInternal.Weighted>
1.5039

> <Gold.Chemscore.Rot.Weighted>
5.0460

> <Gold.Chemscore.Internal.Correction.Weighted>
   9.000000E+99

> <Gold.Protein.RotatedTorsions>
[ 6907 6896 6895 6894 ] final  -94.06 input  -60.11 | X-H torsion
[ 7974 7965 7964 7962 ] final -172.41 input  175.53 | X-H torsion
[ 8008 7997 7996 7995 ] final   84.55 input   59.86 | X-H torsion
[ 10167 10162 10161 10158 ] final   92.52 input  -65.29 | X-H torsion
[ 10718 10713 10712 10709 ] final -153.91 input   66.30 | X-H torsion
[ 10763 10752 10751 10750 ] final   -9.80 input  -60.55 | X-H torsion
[ 11005 11000 10999 10996 ] final   88.91 input  -57.11 | X-H torsion

> <Gold.Protein.ActiveResidues>
 VAL166  LYS551  ARG553  GLY616  TRP617  ASP618  TYR619  PRO620  LYS621  CYS622 
 ASP623  PHE694  ASN695  SER759  ASP760  ASP761  ALA762  ILE779  LEU786  VAL792 
 PHE793  MET794  SER795  GLU796  ALA797  LYS798  CYS799  TRP800  GLU811  SER814 

> <Gold.Protein.RotatedAtoms>
  150.6934  134.1870  159.4270 H   0  0  0  0  0  0  0  0  0  0  0  0  # atno 6907 bound_to 6896
  151.9842  135.0010  160.0568 H   0  0  0  0  0  0  0  0  0  0  0  0  # atno 6908 bound_to 6896
  152.1727  133.4619  159.4954 H   0  0  0  0  0  0  0  0  0  0  0  0  # atno 6909 bound_to 6896
  144.7146  140.1776  143.6361 H   0  0  0  0  0  0  0  0  0  0  0  0  # atno 7974 bound_to 7965
  155.9385  140.3410  155.6307 H   0  0  0  0  0  0  0  0  0  0  0  0  # atno 8008 bound_to 7997
  155.7069  140.0767  157.2405 H   0  0  0  0  0  0  0  0  0  0  0  0  # atno 8009 bound_to 7997
  154.4098  140.1630  156.2241 H   0  0  0  0  0  0  0  0  0  0  0  0  # atno 8010 bound_to 7997
  139.8268  144.6705  150.9449 H   0  0  0  0  0  0  0  0  0  0  0  0  # atno 10167 bound_to 10162
  156.4922  130.8352  151.2575 H   0  0  0  0  0  0  0  0  0  0  0  0  # atno 10718 bound_to 10713
  153.4599  135.7016  153.6056 H   0  0  0  0  0  0  0  0  0  0  0  0  # atno 10763 bound_to 10752
  153.4355  135.3792  155.2197 H   0  0  0  0  0  0  0  0  0  0  0  0  # atno 10764 bound_to 10752
  154.8727  135.3961  154.4024 H   0  0  0  0  0  0  0  0  0  0  0  0  # atno 10765 bound_to 10752
  139.8886  134.8518  156.3067 H   0  0  0  0  0  0  0  0  0  0  0  0  # atno 11005 bound_to 11000
  145.8886  139.2363  143.1563 LP  0  0  0  0  0  0  0  0  0  0  0  0  # atno 17320 bound_to 7965
  145.9926  140.8590  143.0059 LP  0  0  0  0  0  0  0  0  0  0  0  0  # atno 17321 bound_to 7965
  140.7809  143.4038  151.1104 LP  0  0  0  0  0  0  0  0  0  0  0  0  # atno 17342 bound_to 10162
  139.7695  143.8516  152.3117 LP  0  0  0  0  0  0  0  0  0  0  0  0  # atno 17343 bound_to 10162
  157.7472  131.0010  150.2946 LP  0  0  0  0  0  0  0  0  0  0  0  0  # atno 17370 bound_to 10713
  156.3416  130.3816  149.7404 LP  0  0  0  0  0  0  0  0  0  0  0  0  # atno 17371 bound_to 10713
  140.9877  133.7228  156.0767 LP  0  0  0  0  0  0  0  0  0  0  0  0  # atno 17394 bound_to 11000
  140.7666  134.3879  157.5516 LP  0  0  0  0  0  0  0  0  0  0  0  0  # atno 17395 bound_to 11000

$$$$
