AV-unprocessed.smi:1809|AV-procd|sdf|7313|dock10
  -GOLD-   22720 8573D 1   1.00000     0.00000
 Structure written by MMmdl.
 40 42  0  0  0  0  0  0  0  0  2 V2000
  136.3303  141.5480  153.5931 C   0  0  0  0  0  0  0  0  0  0  0  0
  137.7872  141.2394  153.6505 C   0  0  0  0  0  0  0  0  0  0  0  0
  138.7036  142.1433  154.0181 N   0  0  0  0  0  0  0  0  0  0  0  0
  139.9912  141.6257  153.9974 N   0  0  0  0  0  0  0  0  0  0  0  0
  140.0077  140.3417  153.6139 C   0  0  0  0  0  0  0  0  0  0  0  0
  141.1918  139.5646  153.5108 N   0  0  0  0  0  0  0  0  0  0  0  0
  141.3361  138.2402  153.6916 C   0  0  0  0  0  0  0  0  0  0  0  0
  140.4372  137.4628  154.0138 O   0  0  0  0  0  0  0  0  0  0  0  0
  142.6008  137.8533  153.4705 N   0  0  0  0  0  0  0  0  0  0  0  0
  143.1005  136.4876  153.6042 C   0  0  0  0  0  0  0  0  0  0  0  0
  143.3279  135.8022  152.2430 C   0  0  2  0  0  0  0  0  0  0  0  0
  143.2224  134.2657  152.2982 C   0  0  0  0  0  0  0  0  0  0  0  0
  143.5371  133.6431  150.9876 N   0  3  2  0  0  0  0  0  0  0  0  0
  143.7440  132.1824  151.0990 C   0  0  0  0  0  0  0  0  0  0  0  0
  145.2639  131.9606  151.2046 C   0  0  0  0  0  0  0  0  0  0  0  0
  145.9007  133.3407  151.0004 C   0  0  0  0  0  0  0  0  0  0  0  0
  144.7767  134.1684  150.3766 C   0  0  2  0  0  0  0  0  0  0  0  0
  144.9135  135.6985  150.5001 C   0  0  0  0  0  0  0  0  0  0  0  0
  144.6470  136.1308  151.8261 O   0  0  0  0  0  0  0  0  0  0  0  0
  138.4348  139.6533  153.2486 S   0  0  0  0  0  0  0  0  0  0  0  0
  136.1730  142.5926  153.3228 H   0  0  0  0  0  0  0  0  0  0  0  0
  135.8727  141.3635  154.5650 H   0  0  0  0  0  0  0  0  0  0  0  0
  135.8404  140.9190  152.8495 H   0  0  0  0  0  0  0  0  0  0  0  0
  142.0254  140.0785  153.2663 H   0  0  0  0  0  0  0  0  0  0  0  0
  143.2747  138.5587  153.2103 H   0  0  0  0  0  0  0  0  0  0  0  0
  144.0479  136.5426  154.1412 H   0  0  0  0  0  0  0  0  0  0  0  0
  142.4360  135.8875  154.2283 H   0  0  0  0  0  0  0  0  0  0  0  0
  142.6090  136.2014  151.5249 H   0  0  0  0  0  0  0  0  0  0  0  0
  143.9024  133.8856  153.0627 H   0  0  0  0  0  0  0  0  0  0  0  0
  142.2176  133.9572  152.5867 H   0  0  0  0  0  0  0  0  0  0  0  0
  143.1967  131.7434  151.9348 H   0  0  0  0  0  0  0  0  0  0  0  0
  143.3695  131.7147  150.1876 H   0  0  0  0  0  0  0  0  0  0  0  0
  145.5423  131.5447  152.1735 H   0  0  0  0  0  0  0  0  0  0  0  0
  145.5972  131.2597  150.4382 H   0  0  0  0  0  0  0  0  0  0  0  0
  146.1891  133.7612  151.9651 H   0  0  0  0  0  0  0  0  0  0  0  0
  146.7926  133.3051  150.3738 H   0  0  0  0  0  0  0  0  0  0  0  0
  144.7402  133.9175  149.3149 H   0  0  0  0  0  0  0  0  0  0  0  0
  145.9182  136.0123  150.2158 H   0  0  0  0  0  0  0  0  0  0  0  0
  144.2267  136.1965  149.8138 H   0  0  0  0  0  0  0  0  0  0  0  0
  142.7612  133.8301  150.3686 H   0  0  0  0  0  0  0  0  0  0  0  0
  1  2  1  0  0  0  0
  1 21  1  0  0  0  0
  1 22  1  0  0  0  0
  1 23  1  0  0  0  0
  2 20  1  0  0  0  0
  2  3  2  0  0  0  0
  3  4  1  0  0  0  0
  4  5  2  0  0  0  0
  5  6  1  0  0  0  0
  5 20  1  0  0  0  0
  6  7  1  0  0  0  0
  6 24  1  0  0  0  0
  7  8  2  0  0  0  0
  7  9  1  0  0  0  0
  9 10  1  0  0  0  0
  9 25  1  0  0  0  0
 10 11  1  0  0  0  0
 10 26  1  0  0  0  0
 10 27  1  0  0  0  0
 11 19  1  0  0  0  0
 11 12  1  0  0  0  0
 11 28  1  0  0  0  0
 12 13  1  0  0  0  0
 12 29  1  0  0  0  0
 12 30  1  0  0  0  0
 13 17  1  0  0  0  0
 13 14  1  0  0  0  0
 13 40  1  0  0  0  0
 14 15  1  0  0  0  0
 14 31  1  0  0  0  0
 14 32  1  0  0  0  0
 15 16  1  0  0  0  0
 15 33  1  0  0  0  0
 15 34  1  0  0  0  0
 16 17  1  0  0  0  0
 16 35  1  0  0  0  0
 16 36  1  0  0  0  0
 17 18  1  0  0  0  0
 17 37  1  0  0  0  0
 18 19  1  0  0  0  0
 18 38  1  0  0  0  0
 18 39  1  0  0  0  0
M  CHG  1  13   1
M  END
> <s_m_source_file>
AV-unprocessed.smi

> <i_m_source_file_index>
1809

> <i_lp_mmshare_version>
43012

> <i_f3d_flags>
0

> <s_epik_input>
W0NIM11jMW5uYyhzMSlbTkhdQyg9TylbTkhdW0NIMl1bQ0BIXShbQ0gyXTIpT1tDSDJdW0NAQEhdKE4yMylbQ0gyXVtDSDJdW0NIMl0z

> <s_epik_cmdline>
J2VwaWtfcHl0aG9uJywgJy1waCcsICc3LjAnLCAnLXRuJywgJzgnLCAnLW1hJywgJzIwMCcsICctbWV0YWxfYmluZGluZycsICctaW1hZScsICc8aW5maWxlLm1hZT4nLCAnLW9tYWUnLCAnPG91dGZpbGUubWFlPic=

> <r_lp_tautomer_probability>
1

> <r_epik_Ionization_Penalty>
0.112474

> <r_epik_Ionization_Penalty_Charging>
0.108916

> <r_epik_Ionization_Penalty_Neutral>
0.00355844

> <r_epik_State_Penalty>
0.0565397

> <r_epik_Charging_Adjusted_Penalty>
0.165456

> <i_epik_Tot_Q>
1

> <i_epik_Tot_abs_Q>
1

> <r_epik_Metal_State_Penalty>
0.422831

> <b_epik_Metal_Only>
0

> <s_lp_Force_Field>
OPLS_2005

> <r_lp_Energy>
35.4297

> <b_lp_Chiralities_Consistent>
1

> <s_lp_Variant>
AV-unprocessed.smi:1809-5

> <Gold.Version>
5.8.1

> <Gold.Id.Protein>
6NUR|6NUR_protein|mol2

> <Gold.PLP.Fitness>
43.1098

> <Gold.PLP.PLP>
-32.3842

> <Gold.PLP.part.hbond>
-4.1739

> <Gold.PLP.part.metal>
0.0000

> <Gold.PLP.part.buried>
-0.7976

> <Gold.PLP.part.nonpolar>
-27.1329

> <Gold.PLP.part.repulsive>
0.6327

> <Gold.PLP.ligand.clash>
0.0000

> <Gold.PLP.ligand.torsion>
0.6015

> <Gold.PLP.Chemscore.Hbond>
3.9760

> <Gold.PLP.Chemscore.CHOScore>
0.0000

> <Gold.PLP.Chemscore.Metal>
0.0000

> <Gold.Chemscore.Hbonds>
donor molecule, donor type, donor heavy atom, donor atom, acceptor molecule, acceptor atom, score
      L1  H     6    24       P1 10175  1.00
      L1  H     9    25       P1 10175  0.92
      L1  H    13    40       P1 10186  2.00

> <Gold.PLP.Chemscore.Internal.Correction>
0.0006

> <Gold.Rescore>
     Score         DG    S(hbond)    S(metal)    S(lipo)     H(rot)  DE(clash)    DE(int)     intcor
     17.54     -18.52       2.43        0.00      71.30       1.34       0.24       0.74       ----

> <Gold.Chemscore.Fitness>
17.5364

> <Gold.Chemscore.DG>
-18.5203

> <Gold.Chemscore.ZeroCoef>
-5.4800

> <Gold.Chemscore.Hbond>
2.4329

> <Gold.Chemscore.Metal>
0.0000

> <Gold.Chemscore.Lipo>
71.3021

> <Gold.Chemscore.Internal_Hbond>
0.0000

> <Gold.Chemscore.DEClash>
0.2419

> <Gold.Chemscore.DEInternal>
0.7419

> <Gold.Chemscore.Rot>
1.3391

> <Gold.Chemscore.Internal.Correction>
   9.000000E+99

> <Gold.Chemscore.Hbonds>
donor molecule, donor type, donor heavy atom, donor atom, acceptor molecule, acceptor atom, score
      L1  H     6    24       P1 10175  0.39
      L1  H     9    25       P1 10175  0.83
      L1  H    13    40       P1 10186  0.92

> <Gold.Chemscore.Hbond.Weighted>
-8.1260

> <Gold.Chemscore.Metal.Weighted>
-0.0000

> <Gold.Chemscore.Lipo.Weighted>
-8.3423

> <Gold.Chemscore.Internal_Hbond.Weighted>
0.0000

> <Gold.Chemscore.DEClash.Weighted>
0.2419

> <Gold.Chemscore.DEInternal.Weighted>
0.7419

> <Gold.Chemscore.Rot.Weighted>
3.4281

> <Gold.Chemscore.Internal.Correction.Weighted>
   9.000000E+99

> <Gold.Protein.RotatedTorsions>
[ 6907 6896 6895 6894 ] final   79.27 input  -60.11 | X-H torsion
[ 7974 7965 7964 7962 ] final  106.30 input  175.53 | X-H torsion
[ 8008 7997 7996 7995 ] final -101.08 input   59.86 | X-H torsion
[ 10167 10162 10161 10158 ] final   90.60 input  -65.29 | X-H torsion
[ 10718 10713 10712 10709 ] final  153.63 input   66.30 | X-H torsion
[ 10763 10752 10751 10750 ] final   26.52 input  -60.55 | X-H torsion
[ 11005 11000 10999 10996 ] final   46.64 input  -57.11 | X-H torsion

> <Gold.Protein.ActiveResidues>
 VAL166  LYS551  ARG553  GLY616  TRP617  ASP618  TYR619  PRO620  LYS621  CYS622 
 ASP623  PHE694  ASN695  SER759  ASP760  ASP761  ALA762  ILE779  LEU786  VAL792 
 PHE793  MET794  SER795  GLU796  ALA797  LYS798  CYS799  TRP800  GLU811  SER814 

> <Gold.Protein.RotatedAtoms>
  152.5192  134.3537  159.9259 H   0  0  0  0  0  0  0  0  0  0  0  0  # atno 6907 bound_to 6896
  151.3488  133.3927  159.2686 H   0  0  0  0  0  0  0  0  0  0  0  0  # atno 6908 bound_to 6896
  150.9743  134.9129  159.7865 H   0  0  0  0  0  0  0  0  0  0  0  0  # atno 6909 bound_to 6896
  145.3084  139.2548  143.3776 H   0  0  0  0  0  0  0  0  0  0  0  0  # atno 7974 bound_to 7965
  154.8376  140.0436  157.1519 H   0  0  0  0  0  0  0  0  0  0  0  0  # atno 8008 bound_to 7997
  154.9083  140.3010  155.5260 H   0  0  0  0  0  0  0  0  0  0  0  0  # atno 8009 bound_to 7997
  156.2990  140.2363  156.4119 H   0  0  0  0  0  0  0  0  0  0  0  0  # atno 8010 bound_to 7997
  139.8457  144.6619  150.9230 H   0  0  0  0  0  0  0  0  0  0  0  0  # atno 10167 bound_to 10162
  157.2423  131.0761  151.1784 H   0  0  0  0  0  0  0  0  0  0  0  0  # atno 10718 bound_to 10713
  153.0617  135.6558  154.0447 H   0  0  0  0  0  0  0  0  0  0  0  0  # atno 10763 bound_to 10752
  154.0113  135.2928  155.3393 H   0  0  0  0  0  0  0  0  0  0  0  0  # atno 10764 bound_to 10752
  154.6958  135.5264  153.8524 H   0  0  0  0  0  0  0  0  0  0  0  0  # atno 10765 bound_to 10752
  140.1351  134.4656  155.8492 H   0  0  0  0  0  0  0  0  0  0  0  0  # atno 11005 bound_to 11000
  146.3127  140.3614  142.8665 LP  0  0  0  0  0  0  0  0  0  0  0  0  # atno 17320 bound_to 7965
  144.9036  140.7673  143.5851 LP  0  0  0  0  0  0  0  0  0  0  0  0  # atno 17321 bound_to 7965
  140.7793  143.3872  151.1372 LP  0  0  0  0  0  0  0  0  0  0  0  0  # atno 17342 bound_to 10162
  139.7515  143.8772  152.3078 LP  0  0  0  0  0  0  0  0  0  0  0  0  # atno 17343 bound_to 10162
  157.3366  130.7012  149.6356 LP  0  0  0  0  0  0  0  0  0  0  0  0  # atno 17370 bound_to 10713
  155.9669  130.4292  150.4822 LP  0  0  0  0  0  0  0  0  0  0  0  0  # atno 17371 bound_to 10713
  141.2177  133.6811  156.7141 LP  0  0  0  0  0  0  0  0  0  0  0  0  # atno 17394 bound_to 11000
  140.2793  134.8329  157.3919 LP  0  0  0  0  0  0  0  0  0  0  0  0  # atno 17395 bound_to 11000

$$$$
