AV-unprocessed.smi:472|AV-procd|sdf|2660|dock5
  -GOLD-   2262023 73D 1   1.00000     0.00000
 Structure written by MMmdl.
 35 36  0  0  0  0  0  0  0  0  1 V2000
  150.6743  138.3721  154.1404 C   0  0  0  0  0  0  0  0  0  0  0  0
  151.3828  139.5841  154.3273 O   0  0  0  0  0  0  0  0  0  0  0  0
  152.4061  139.4737  155.3029 C   0  0  0  0  0  0  0  0  0  0  0  0
  151.7894  139.4234  156.7085 C   0  0  0  0  0  0  0  0  0  0  0  0
  151.4717  140.7549  157.2174 N   0  0  0  0  0  0  0  0  0  0  0  0
  150.6903  141.6931  156.6276 C   0  0  0  0  0  0  0  0  0  0  0  0
  150.0892  141.4360  155.4000 N   0  0  0  0  0  0  0  0  0  0  0  0
  149.2648  142.3133  154.6888 N   0  0  0  0  0  0  0  0  0  0  0  0
  150.5699  142.8336  157.3113 N   0  0  0  0  0  0  0  0  0  0  0  0
  151.3511  142.6010  158.4350 C   0  0  0  0  0  0  0  0  0  0  0  0
  151.9033  141.3648  158.3977 C   0  0  0  0  0  0  0  0  0  0  0  0
  152.7898  140.8605  159.4536 C   0  0  0  0  0  0  0  0  0  0  0  0
  153.2890  139.7356  159.3962 O   0  0  0  0  0  0  0  0  0  0  0  0
  153.0018  141.7459  160.4766 N   0  0  0  0  0  0  0  0  0  0  0  0
  153.8876  141.2748  161.5583 C   0  0  0  0  0  0  0  0  0  0  0  0
  152.4654  143.0203  160.5526 C   0  0  0  0  0  0  0  0  0  0  0  0
  152.7177  143.7722  161.4978 O   0  0  0  0  0  0  0  0  0  0  0  0
  151.6366  143.4408  159.5425 N   0  0  0  0  0  0  0  0  0  0  0  0
  151.0424  144.7798  159.5930 C   0  0  0  0  0  0  0  0  0  0  0  0
  149.9006  138.5139  153.3859 H   0  0  0  0  0  0  0  0  0  0  0  0
  150.1900  138.0521  155.0637 H   0  0  0  0  0  0  0  0  0  0  0  0
  151.3377  137.5769  153.7978 H   0  0  0  0  0  0  0  0  0  0  0  0
  152.9931  138.5719  155.1224 H   0  0  0  0  0  0  0  0  0  0  0  0
  153.0853  140.3243  155.2300 H   0  0  0  0  0  0  0  0  0  0  0  0
  150.8801  138.8219  156.6936 H   0  0  0  0  0  0  0  0  0  0  0  0
  152.4572  138.9162  157.4025 H   0  0  0  0  0  0  0  0  0  0  0  0
  150.2781  140.5418  154.9702 H   0  0  0  0  0  0  0  0  0  0  0  0
  149.3385  143.2429  155.0975 H   0  0  0  0  0  0  0  0  0  0  0  0
  149.5881  142.3597  153.7241 H   0  0  0  0  0  0  0  0  0  0  0  0
  153.9626  141.9424  162.4169 H   0  0  0  0  0  0  0  0  0  0  0  0
  154.9010  141.1327  161.1792 H   0  0  0  0  0  0  0  0  0  0  0  0
  153.5406  140.3177  161.9523 H   0  0  0  0  0  0  0  0  0  0  0  0
  150.4778  144.9164  160.5167 H   0  0  0  0  0  0  0  0  0  0  0  0
  150.3564  144.9694  158.7674 H   0  0  0  0  0  0  0  0  0  0  0  0
  151.8206  145.5434  159.5531 H   0  0  0  0  0  0  0  0  0  0  0  0
  1  2  1  0  0  0  0
  1 20  1  0  0  0  0
  1 21  1  0  0  0  0
  1 22  1  0  0  0  0
  2  3  1  0  0  0  0
  3  4  1  0  0  0  0
  3 23  1  0  0  0  0
  3 24  1  0  0  0  0
  4  5  1  0  0  0  0
  4 25  1  0  0  0  0
  4 26  1  0  0  0  0
  5 11  1  0  0  0  0
  5  6  1  0  0  0  0
  6  7  1  0  0  0  0
  6  9  2  0  0  0  0
  7  8  1  0  0  0  0
  7 27  1  0  0  0  0
  8 28  1  0  0  0  0
  8 29  1  0  0  0  0
  9 10  1  0  0  0  0
 10 18  1  0  0  0  0
 10 11  2  0  0  0  0
 11 12  1  0  0  0  0
 12 13  2  0  0  0  0
 12 14  1  0  0  0  0
 14 15  1  0  0  0  0
 14 16  1  0  0  0  0
 15 30  1  0  0  0  0
 15 31  1  0  0  0  0
 15 32  1  0  0  0  0
 16 17  2  0  0  0  0
 16 18  1  0  0  0  0
 18 19  1  0  0  0  0
 19 33  1  0  0  0  0
 19 34  1  0  0  0  0
 19 35  1  0  0  0  0
M  END
> <s_m_source_file>
AV-unprocessed.smi

> <i_m_source_file_index>
472

> <i_lp_mmshare_version>
43012

> <i_f3d_flags>
0

> <s_epik_input>
W0NIM11PW0NIMl1bQ0gyXW4oYyhuMSlbTkhdW05IMl0pYyhjMTIpYyg9TyluKFtDSDNdKWMoPU8pbjJbQ0gzXQ==

> <s_epik_cmdline>
J2VwaWtfcHl0aG9uJywgJy1waCcsICc3LjAnLCAnLXRuJywgJzgnLCAnLW1hJywgJzIwMCcsICctbWV0YWxfYmluZGluZycsICctaW1hZScsICc8aW5maWxlLm1hZT4nLCAnLW9tYWUnLCAnPG91dGZpbGUubWFlPic=

> <r_lp_tautomer_probability>
1

> <r_epik_Ionization_Penalty>
0.000822794

> <r_epik_Ionization_Penalty_Charging>
3.05595e-09

> <r_epik_Ionization_Penalty_Neutral>
0.000822791

> <r_epik_State_Penalty>
-0

> <r_epik_Charging_Adjusted_Penalty>
3.05595e-09

> <i_epik_Tot_Q>
0

> <i_epik_Tot_abs_Q>
0

> <r_epik_Metal_State_Penalty>
-0

> <b_epik_Metal_Only>
0

> <s_lp_Force_Field>
OPLS_2005

> <r_lp_Energy>
30.834

> <b_lp_Chiralities_Consistent>
1

> <s_lp_Variant>
AV-unprocessed.smi:472-1

> <Gold.Version>
5.8.1

> <Gold.Id.Protein>
6NUR|6NUR_protein|mol2

> <Gold.PLP.Fitness>
44.4435

> <Gold.PLP.PLP>
-38.7932

> <Gold.PLP.part.hbond>
-3.0000

> <Gold.PLP.part.metal>
0.0000

> <Gold.PLP.part.buried>
-3.9766

> <Gold.PLP.part.nonpolar>
-32.6470

> <Gold.PLP.part.repulsive>
1.2802

> <Gold.PLP.ligand.clash>
0.0000

> <Gold.PLP.ligand.torsion>
0.1760

> <Gold.PLP.Chemscore.Hbond>
2.0000

> <Gold.PLP.Chemscore.CHOScore>
0.0000

> <Gold.PLP.Chemscore.Metal>
0.0000

> <Gold.Chemscore.Hbonds>
donor molecule, donor type, donor heavy atom, donor atom, acceptor molecule, acceptor atom, score
      L1  H     8    28       P1  8028  1.00
      P1  H  7989  7998       L1     2  1.00

> <Gold.PLP.Chemscore.Internal.Correction>
0.0023

> <Gold.Rescore>
     Score         DG    S(hbond)    S(metal)    S(lipo)     H(rot)  DE(clash)    DE(int)     intcor
     13.10     -13.36       1.96        0.00      48.51       1.70       0.04       0.22       ----

> <Gold.Chemscore.Fitness>
13.1002

> <Gold.Chemscore.DG>
-13.3594

> <Gold.Chemscore.ZeroCoef>
-5.4800

> <Gold.Chemscore.Hbond>
1.9620

> <Gold.Chemscore.Metal>
0.0000

> <Gold.Chemscore.Lipo>
48.5057

> <Gold.Chemscore.Internal_Hbond>
0.0000

> <Gold.Chemscore.DEClash>
0.0409

> <Gold.Chemscore.DEInternal>
0.2183

> <Gold.Chemscore.Rot>
1.6988

> <Gold.Chemscore.Internal.Correction>
   9.000000E+99

> <Gold.Chemscore.Hbonds>
donor molecule, donor type, donor heavy atom, donor atom, acceptor molecule, acceptor atom, score
      L1  H     8    28       P1  8028  0.99
      P1  H  7989  7998       L1     2  0.62

> <Gold.Chemscore.Hbond.Weighted>
-6.5532

> <Gold.Chemscore.Metal.Weighted>
-0.0000

> <Gold.Chemscore.Lipo.Weighted>
-5.6752

> <Gold.Chemscore.Internal_Hbond.Weighted>
0.0000

> <Gold.Chemscore.DEClash.Weighted>
0.0409

> <Gold.Chemscore.DEInternal.Weighted>
0.2183

> <Gold.Chemscore.Rot.Weighted>
4.3490

> <Gold.Chemscore.Internal.Correction.Weighted>
   9.000000E+99

> <Gold.Protein.RotatedTorsions>
[ 6907 6896 6895 6894 ] final -153.82 input  -60.11 | X-H torsion
[ 7974 7965 7964 7962 ] final  -31.68 input  175.53 | X-H torsion
[ 8008 7997 7996 7995 ] final   36.17 input   59.86 | X-H torsion
[ 10167 10162 10161 10158 ] final -163.94 input  -65.29 | X-H torsion
[ 10718 10713 10712 10709 ] final   -8.41 input   66.30 | X-H torsion
[ 10763 10752 10751 10750 ] final  140.89 input  -60.55 | X-H torsion
[ 11005 11000 10999 10996 ] final  139.95 input  -57.11 | X-H torsion

> <Gold.Protein.ActiveResidues>
 VAL166  LYS551  ARG553  GLY616  TRP617  ASP618  TYR619  PRO620  LYS621  CYS622 
 ASP623  PHE694  ASN695  SER759  ASP760  ASP761  ALA762  ILE779  LEU786  VAL792 
 PHE793  MET794  SER795  GLU796  ALA797  LYS798  CYS799  TRP800  GLU811  SER814 

> <Gold.Protein.RotatedAtoms>
  151.2483  133.4363  159.2610 H   0  0  0  0  0  0  0  0  0  0  0  0  # atno 6907 bound_to 6896
  151.0641  134.9756  159.8286 H   0  0  0  0  0  0  0  0  0  0  0  0  # atno 6908 bound_to 6896
  152.5403  134.2431  159.8922 H   0  0  0  0  0  0  0  0  0  0  0  0  # atno 6909 bound_to 6896
  146.1049  140.5697  142.8804 H   0  0  0  0  0  0  0  0  0  0  0  0  # atno 7974 bound_to 7965
  155.1830  140.3301  155.4372 H   0  0  0  0  0  0  0  0  0  0  0  0  # atno 8008 bound_to 7997
  156.2470  140.1923  156.6877 H   0  0  0  0  0  0  0  0  0  0  0  0  # atno 8009 bound_to 7997
  154.6258  140.0589  156.9657 H   0  0  0  0  0  0  0  0  0  0  0  0  # atno 8010 bound_to 7997
  139.6285  144.0485  152.1996 H   0  0  0  0  0  0  0  0  0  0  0  0  # atno 10167 bound_to 10162
  156.7029  130.5099  149.5912 H   0  0  0  0  0  0  0  0  0  0  0  0  # atno 10718 bound_to 10713
  153.9302  135.2991  155.3446 H   0  0  0  0  0  0  0  0  0  0  0  0  # atno 10763 bound_to 10752
  154.7531  135.4971  153.9327 H   0  0  0  0  0  0  0  0  0  0  0  0  # atno 10764 bound_to 10752
  153.1096  135.6755  153.9630 H   0  0  0  0  0  0  0  0  0  0  0  0  # atno 10765 bound_to 10752
  140.0292  134.9360  157.0628 H   0  0  0  0  0  0  0  0  0  0  0  0  # atno 11005 bound_to 11000
  144.7462  140.5075  143.6834 LP  0  0  0  0  0  0  0  0  0  0  0  0  # atno 17320 bound_to 7965
  145.5781  139.1487  143.3251 LP  0  0  0  0  0  0  0  0  0  0  0  0  # atno 17321 bound_to 7965
  140.0145  144.6199  150.7619 LP  0  0  0  0  0  0  0  0  0  0  0  0  # atno 17342 bound_to 10162
  140.7425  143.2833  151.3535 LP  0  0  0  0  0  0  0  0  0  0  0  0  # atno 17343 bound_to 10162
  156.1715  130.6440  151.0843 LP  0  0  0  0  0  0  0  0  0  0  0  0  # atno 17370 bound_to 10713
  157.6966  131.0792  150.6950 LP  0  0  0  0  0  0  0  0  0  0  0  0  # atno 17371 bound_to 10713
  140.4255  134.1836  155.7166 LP  0  0  0  0  0  0  0  0  0  0  0  0  # atno 17394 bound_to 11000
  141.1821  133.8392  157.1221 LP  0  0  0  0  0  0  0  0  0  0  0  0  # atno 17395 bound_to 11000

$$$$
