#       Name:                AV-unprocessed.smi:2427
#       Creating user name   scv26
#       Creation time:       Fri Mar 27 13:21:19 2020


#       File generated by GOLD software.
#

@<TRIPOS>MOLECULE
AV-unprocessed.smi:2427
    43    44     1
SMALL
NO_CHARGES


@<TRIPOS>ATOM
      1 ****        -0.5781   1.0467  -0.3239 O.2            1 S1                 0.0000
      2 ****         0.1407   0.2585  -0.9404 C.2            1 S1                 0.0000
      3 ****         1.6568   0.4809  -1.0430 C.3            1 S1                 0.0000
      4 ****         2.0979   1.7815  -0.5112 N.am           1 S1                 0.0000
      5 ****         2.5378   1.8073   0.8270 C.2            1 S1                 0.0000
      6 ****         2.9579   2.9414   1.4209 C.2            1 S1                 0.0000
      7 ****         3.4012   2.9502   2.7977 N.pl3          1 S1                 1.0000
      8 ****         3.7874   4.0079   3.2849 O.2            1 S1                 0.0000
      9 ****         3.3791   1.9027   3.4373 O.2            1 S1                -1.0000
     10 ****         2.9467   4.1588   0.6331 C.2            1 S1                 0.0000
     11 ****         2.5224   4.1417  -0.6459 C.2            1 S1                 0.0000
     12 ****         2.0625   2.9066  -1.2890 C.2            1 S1                 0.0000
     13 ****         1.6695   2.8853  -2.4556 O.2            1 S1                 0.0000
     14 ****        -0.3299  -0.8407  -1.5482 N.am           1 S1                 0.0000
     15 ****        -1.7280  -1.2547  -1.5720 C.3            1 S1                 0.0000
     16 ****        -2.1466  -1.9245  -0.2522 C.3            1 S1                 0.0000
     17 ****        -3.6081  -2.3698  -0.2210 C.3            1 S1                 0.0000
     18 ****        -3.6114  -3.5372   0.7558 C.3            1 S1                 0.0000
     19 ****        -2.1284  -3.8516   0.9708 C.3            1 S1                 0.0000
     20 ****        -1.4529  -3.1472  -0.0606 O.3            1 S1                 0.0000
     21 ****         2.1579  -0.3326  -0.5163 H              1 S1                 0.0000
     22 ****         1.9618   0.3734  -2.0856 H              1 S1                 0.0000
     23 ****         2.5008   0.8510   1.3290 H              1 S1                 0.0000
     24 ****         3.2766   5.0930   1.0633 H              1 S1                 0.0000
     25 ****         2.5204   5.0607  -1.2136 H              1 S1                 0.0000
     26 ****         0.3291  -1.4390  -2.0251 H              1 S1                 0.0000
     27 ****        -2.3637  -0.3913  -1.7754 H              1 S1                 0.0000
     28 ****        -1.8672  -1.9448  -2.4047 H              1 S1                 0.0000
     29 ****        -1.9482  -1.2668   0.5963 H              1 S1                 0.0000
     30 ****        -4.2819  -1.5657   0.0765 H              1 S1                 0.0000
     31 ****        -3.9196  -2.7202  -1.2060 H              1 S1                 0.0000
     32 ****        -4.0941  -3.2767   1.6983 H              1 S1                 0.0000
     33 ****        -4.1421  -4.3903   0.3316 H              1 S1                 0.0000
     34 ****        -1.7934  -3.4763   1.9391 H              1 S1                 0.0000
     35 ****        -1.9141  -4.9197   0.9272 H              1 S1                 0.0000
     36 ****        -0.1761   1.8475   0.1203 LP             1 S1                 0.0000
     37 ****        -1.5634   0.8857  -0.2676 LP             1 S1                 0.0000
     38 ****         3.7914   4.8412   2.7320 LP             1 S1                 0.0000
     39 ****         4.0983   4.0368   4.2349 LP             1 S1                 0.0000
     40 ****         1.3624   2.0258  -2.8641 LP             1 S1                 0.0000
     41 ****         1.6574   3.7276  -2.9946 LP             1 S1                 0.0000
     42 ****        -0.5071  -2.9666   0.2096 LP             1 S1                 0.0000
     43 ****        -1.4618  -3.6829  -0.9049 LP             1 S1                 0.0000
@<TRIPOS>BOND
    1    1    2 2     
    2    2    3 1     
    3    2   14 am    
    4    3    4 1     
    5    3   21 1     
    6    3   22 1     
    7    4   12 am    
    8    4    5 1     
    9    5    6 2     
   10    5   23 1     
   11    6    7 1     
   12    6   10 1     
   13    7    8 2     
   14    7    9 1     
   15   10   11 2     
   16   10   24 1     
   17   11   12 1     
   18   11   25 1     
   19   12   13 2     
   20   14   15 1     
   21   14   26 1     
   22   15   16 1     
   23   15   27 1     
   24   15   28 1     
   25   16   20 1     
   26   16   17 1     
   27   16   29 1     
   28   17   18 1     
   29   17   30 1     
   30   17   31 1     
   31   18   19 1     
   32   18   32 1     
   33   18   33 1     
   34   19   20 1     
   35   19   34 1     
   36   19   35 1     
   37    1   36 1     
   38    1   37 1     
   39    8   38 1     
   40    8   39 1     
   41   13   40 1     
   42   13   41 1     
   43   20   42 1     
   44   20   43 1     
@<TRIPOS>SUBSTRUCTURE
      1 S1             1
@<TRIPOS>SET
LONE_PAIRS      STATIC     ATOMS    <user>   **** ""
9 36 37 38 39 9 40 41 42 43
DONOR_HYDROGENS      STATIC     ATOMS    <user>   **** ""
1 26
ATOM$BLUE        STATIC     ATOMS    COLORGROUP SYSTEM
9 36 37 38 39 9 40 41 42 43
ATOM$RED        STATIC     ATOMS    COLORGROUP SYSTEM
1 26
