#       Name:                AV-unprocessed.smi:2814
#       Creating user name   scv26
#       Creation time:       Fri Mar 27 15:28:09 2020


#       File generated by GOLD software.
#

@<TRIPOS>MOLECULE
AV-unprocessed.smi:2814
    42    43     1
SMALL
NO_CHARGES


@<TRIPOS>ATOM
      1 ****        -3.8044   4.0090   0.4777 C.3            1 S1                 0.0000
      2 ****        -3.8571   2.5247   0.7736 C.ar           1 S1                 0.0000
      3 ****        -2.6920   1.7311   0.7073 C.ar           1 S1                 0.0000
      4 ****        -2.7966   0.3489   0.9959 C.ar           1 S1                 0.0000
      5 ****        -1.7062  -0.5611   0.9453 N.am           1 S1                 0.0000
      6 ****        -0.3915  -0.3027   1.0529 C.2            1 S1                 0.0000
      7 ****         0.1030   0.8071   1.2504 O.2            1 S1                 0.0000
      8 ****         0.3318  -1.4252   0.9312 N.am           1 S1                 0.0000
      9 ****         1.7891  -1.5155   0.9955 C.3            1 S1                 0.0000
     10 ****         2.4411  -1.5564  -0.4053 C.3            1 S1                 0.0000
     11 ****         2.1247  -2.8009  -1.0041 O.3            1 S1                 0.0000
     12 ****         2.0453  -0.4146  -1.3534 C.3            1 S1                 0.0000
     13 ****         3.1748  -0.3178  -2.3868 C.3            1 S1                 0.0000
     14 ****         4.4018  -0.9909  -1.7536 C.3            1 S1                 0.0000
     15 ****         3.9706  -1.4455  -0.3533 C.3            1 S1                 0.0000
     16 ****        -4.0695  -0.1691   1.3110 C.ar           1 S1                 0.0000
     17 ****        -5.1695   0.7100   1.3514 C.ar           1 S1                 0.0000
     18 ****        -5.0730   2.0308   1.0928 N.ar           1 S1                 0.0000
     19 ****        -2.7956   4.3247   0.2103 H              1 S1                 0.0000
     20 ****        -4.1197   4.5804   1.3511 H              1 S1                 0.0000
     21 ****        -4.4681   4.2542  -0.3519 H              1 S1                 0.0000
     22 ****        -1.7542   2.1860   0.4281 H              1 S1                 0.0000
     23 ****        -1.9607  -1.5349   0.8695 H              1 S1                 0.0000
     24 ****        -0.1620  -2.2907   0.7691 H              1 S1                 0.0000
     25 ****         2.1866  -0.6760   1.5685 H              1 S1                 0.0000
     26 ****         2.0548  -2.4101   1.5599 H              1 S1                 0.0000
     27 ****         2.5435  -2.8393  -1.8504 H              1 S1                 0.0000
     28 ****         1.0669  -0.5588  -1.8138 H              1 S1                 0.0000
     29 ****         2.0048   0.5217  -0.7953 H              1 S1                 0.0000
     30 ****         2.8954  -0.8435  -3.3006 H              1 S1                 0.0000
     31 ****         3.3747   0.7197  -2.6569 H              1 S1                 0.0000
     32 ****         4.6980  -1.8527  -2.3529 H              1 S1                 0.0000
     33 ****         5.2585  -0.3177  -1.7074 H              1 S1                 0.0000
     34 ****         4.2569  -0.6765   0.3658 H              1 S1                 0.0000
     35 ****         4.4583  -2.3708  -0.0427 H              1 S1                 0.0000
     36 ****        -4.2045  -1.2193   1.5252 H              1 S1                 0.0000
     37 ****        -6.1542   0.3415   1.5973 H              1 S1                 0.0000
     38 ****        -0.4880   1.6083   1.3443 LP             1 S1                 0.0000
     39 ****         1.0957   0.9075   1.3169 LP             1 S1                 0.0000
     40 ****         1.1339  -2.8810  -1.1135 LP             1 S1                 0.0000
     41 ****         2.4578  -3.5474  -0.4281 LP             1 S1                 0.0000
     42 ****        -5.8762   2.6250   1.1361 LP             1 S1                 0.0000
@<TRIPOS>BOND
    1    1    2 1     
    2    1   19 1     
    3    1   20 1     
    4    1   21 1     
    5    2   18 ar    
    6    2    3 ar    
    7    3    4 ar    
    8    3   22 1     
    9    4    5 1     
   10    4   16 ar    
   11    5    6 am    
   12    5   23 1     
   13    6    7 2     
   14    6    8 am    
   15    8    9 1     
   16    8   24 1     
   17    9   10 1     
   18    9   25 1     
   19    9   26 1     
   20   10   15 1     
   21   10   11 1     
   22   10   12 1     
   23   11   27 1     
   24   12   13 1     
   25   12   28 1     
   26   12   29 1     
   27   13   14 1     
   28   13   30 1     
   29   13   31 1     
   30   14   15 1     
   31   14   32 1     
   32   14   33 1     
   33   15   34 1     
   34   15   35 1     
   35   16   17 ar    
   36   16   36 1     
   37   17   18 ar    
   38   17   37 1     
   39    7   38 1     
   40    7   39 1     
   41   11   40 1     
   42   11   41 1     
   43   18   42 1     
@<TRIPOS>SUBSTRUCTURE
      1 S1             1
@<TRIPOS>SET
LONE_PAIRS      STATIC     ATOMS    <user>   **** ""
5 38 39 40 41 42
DONOR_HYDROGENS      STATIC     ATOMS    <user>   **** ""
3 23 24 27
ATOM$BLUE        STATIC     ATOMS    COLORGROUP SYSTEM
5 38 39 40 41 42
ATOM$RED        STATIC     ATOMS    COLORGROUP SYSTEM
3 23 24 27
