AV-unprocessed.smi:1277|AV-procd|sdf|5345|dock7
  -GOLD-   22720 4473D 1   1.00000     0.00000
 Structure written by MMmdl.
 43 44  0  0  0  0  0  0  0  0  1 V2000
  145.5659  135.8749  152.2396 C   0  0  0  0  0  0  0  0  0  0  0  0
  145.9473  136.7920  153.2498 O   0  0  0  0  0  0  0  0  0  0  0  0
  146.2529  138.0760  152.7310 C   0  0  0  0  0  0  0  0  0  0  0  0
  146.9567  138.9011  153.8126 C   0  0  0  0  0  0  0  0  0  0  0  0
  148.3381  138.5544  153.8232 O   0  0  0  0  0  0  0  0  0  0  0  0
  149.1868  139.2482  154.6608 C   0  0  0  0  0  0  0  0  0  0  0  0
  150.4899  138.7511  154.8585 C   0  0  0  0  0  0  0  0  0  0  0  0
  151.3621  139.4551  155.7095 C   0  0  0  0  0  0  0  0  0  0  0  0
  150.9121  140.6366  156.3321 C   0  0  0  0  0  0  0  0  0  0  0  0
  151.8132  141.3146  157.1971 N   0  0  0  0  0  0  0  0  0  0  0  0
  151.5615  141.9152  158.3748 C   0  0  0  0  0  0  0  0  0  0  0  0
  150.4538  141.9645  158.9108 O   0  0  0  0  0  0  0  0  0  0  0  0
  152.7813  142.5705  159.0523 C   0  0  2  0  0  0  0  0  0  0  0  0
  153.8140  141.5104  159.4634 C   0  0  0  0  0  0  0  0  0  0  0  0
  153.4370  141.1436  160.8911 C   0  0  0  0  0  0  0  0  0  0  0  0
  152.8598  142.4376  161.4683 C   0  0  0  0  0  0  0  0  0  0  0  0
  152.4273  143.2328  160.3160 N   0  0  0  0  0  0  0  0  0  0  0  0
  151.8249  144.4399  160.3950 C   0  0  0  0  0  0  0  0  0  0  0  0
  151.4712  145.1655  159.0955 C   0  0  0  0  0  0  0  0  0  0  0  0
  151.5511  144.9756  161.4690 O   0  0  0  0  0  0  0  0  0  0  0  0
  149.5796  141.0465  156.0814 C   0  0  0  0  0  0  0  0  0  0  0  0
  148.7378  140.3753  155.2663 N   0  0  0  0  0  0  0  0  0  0  0  0
  153.2400  143.2839  158.3643 H   0  0  0  0  0  0  0  0  0  0  0  0
  145.3390  134.9082  152.6893 H   0  0  0  0  0  0  0  0  0  0  0  0
  146.3680  135.7294  151.5149 H   0  0  0  0  0  0  0  0  0  0  0  0
  144.6749  136.2174  151.7121 H   0  0  0  0  0  0  0  0  0  0  0  0
  146.9132  137.9667  151.8694 H   0  0  0  0  0  0  0  0  0  0  0  0
  145.3504  138.5861  152.3903 H   0  0  0  0  0  0  0  0  0  0  0  0
  146.8158  139.9671  153.6254 H   0  0  0  0  0  0  0  0  0  0  0  0
  146.5157  138.6687  154.7832 H   0  0  0  0  0  0  0  0  0  0  0  0
  150.8145  137.8470  154.3649 H   0  0  0  0  0  0  0  0  0  0  0  0
  152.3656  139.0919  155.8766 H   0  0  0  0  0  0  0  0  0  0  0  0
  152.7550  141.4138  156.8471 H   0  0  0  0  0  0  0  0  0  0  0  0
  153.8427  140.6429  158.8023 H   0  0  0  0  0  0  0  0  0  0  0  0
  154.8099  141.9554  159.4557 H   0  0  0  0  0  0  0  0  0  0  0  0
  152.6655  140.3725  160.8771 H   0  0  0  0  0  0  0  0  0  0  0  0
  154.2789  140.7607  161.4685 H   0  0  0  0  0  0  0  0  0  0  0  0
  152.0369  142.2289  162.1531 H   0  0  0  0  0  0  0  0  0  0  0  0
  153.6308  142.9832  162.0145 H   0  0  0  0  0  0  0  0  0  0  0  0
  150.7823  144.5706  158.4954 H   0  0  0  0  0  0  0  0  0  0  0  0
  152.3682  145.3636  158.5083 H   0  0  0  0  0  0  0  0  0  0  0  0
  150.9919  146.1219  159.3072 H   0  0  0  0  0  0  0  0  0  0  0  0
  149.1498  141.9177  156.5502 H   0  0  0  0  0  0  0  0  0  0  0  0
  1  2  1  0  0  0  0
  1 24  1  0  0  0  0
  1 25  1  0  0  0  0
  1 26  1  0  0  0  0
  2  3  1  0  0  0  0
  3  4  1  0  0  0  0
  3 27  1  0  0  0  0
  3 28  1  0  0  0  0
  4  5  1  0  0  0  0
  4 29  1  0  0  0  0
  4 30  1  0  0  0  0
  5  6  1  0  0  0  0
  6 22  1  0  0  0  0
  6  7  2  0  0  0  0
  7  8  1  0  0  0  0
  7 31  1  0  0  0  0
  8  9  2  0  0  0  0
  8 32  1  0  0  0  0
  9 10  1  0  0  0  0
  9 21  1  0  0  0  0
 10 11  1  0  0  0  0
 10 33  1  0  0  0  0
 11 12  2  0  0  0  0
 11 13  1  0  0  0  0
 13 23  1  0  0  0  0
 13 17  1  0  0  0  0
 13 14  1  0  0  0  0
 14 15  1  0  0  0  0
 14 34  1  0  0  0  0
 14 35  1  0  0  0  0
 15 16  1  0  0  0  0
 15 36  1  0  0  0  0
 15 37  1  0  0  0  0
 16 17  1  0  0  0  0
 16 38  1  0  0  0  0
 16 39  1  0  0  0  0
 17 18  1  0  0  0  0
 18 19  1  0  0  0  0
 18 20  2  0  0  0  0
 19 40  1  0  0  0  0
 19 41  1  0  0  0  0
 19 42  1  0  0  0  0
 21 22  2  0  0  0  0
 21 43  1  0  0  0  0
M  END
> <s_m_source_file>
AV-unprocessed.smi

> <i_m_source_file_index>
1277

> <i_lp_mmshare_version>
43012

> <i_f3d_flags>
0

> <s_epik_input>
W0NIM11PW0NIMl1bQ0gyXU9jMVtjSF1bY0hdYyhbY0hdbjEpW05IXUMoPU8pW0NAQEhdMltDSDJdW0NIMl1bQ0gyXU4yQyg9TylbQ0gzXQ==

> <s_epik_cmdline>
J2VwaWtfcHl0aG9uJywgJy1waCcsICc3LjAnLCAnLXRuJywgJzgnLCAnLW1hJywgJzIwMCcsICctbWV0YWxfYmluZGluZycsICctaW1hZScsICc8aW5maWxlLm1hZT4nLCAnLW9tYWUnLCAnPG91dGZpbGUubWFlPic=

> <r_lp_tautomer_probability>
1

> <r_epik_Ionization_Penalty>
1.62854e-05

> <r_epik_Ionization_Penalty_Charging>
0

> <r_epik_Ionization_Penalty_Neutral>
1.62854e-05

> <r_epik_State_Penalty>
-0

> <r_epik_Charging_Adjusted_Penalty>
0

> <i_epik_Tot_Q>
0

> <i_epik_Tot_abs_Q>
0

> <r_epik_Metal_State_Penalty>
-0

> <b_epik_Metal_Only>
0

> <s_lp_Force_Field>
OPLS_2005

> <r_lp_Energy>
18.7182

> <b_lp_Chiralities_Consistent>
1

> <s_lp_Variant>
AV-unprocessed.smi:1277-1

> <Gold.Version>
5.8.1

> <Gold.Id.Protein>
6NUR|6NUR_protein|mol2

> <Gold.PLP.Fitness>
44.4791

> <Gold.PLP.PLP>
-42.6212

> <Gold.PLP.part.hbond>
0.0000

> <Gold.PLP.part.metal>
0.0000

> <Gold.PLP.part.buried>
-4.6567

> <Gold.PLP.part.nonpolar>
-44.8858

> <Gold.PLP.part.repulsive>
6.1282

> <Gold.PLP.ligand.clash>
0.0000

> <Gold.PLP.ligand.torsion>
0.6104

> <Gold.PLP.Chemscore.Hbond>
0.0000

> <Gold.PLP.Chemscore.CHOScore>
0.9989

> <Gold.PLP.Chemscore.Metal>
0.0000

> <Gold.PLP.Chemscore.Internal.Correction>
0.0820

> <Gold.Rescore>
     Score         DG    S(hbond)    S(metal)    S(lipo)     H(rot)  DE(clash)    DE(int)     intcor
      8.75     -11.48       0.00        0.00      92.64       1.89       1.27       1.46       ----

> <Gold.Chemscore.Fitness>
8.7545

> <Gold.Chemscore.DG>
-11.4843

> <Gold.Chemscore.ZeroCoef>
-5.4800

> <Gold.Chemscore.Hbond>
0.0000

> <Gold.Chemscore.Metal>
0.0000

> <Gold.Chemscore.Lipo>
92.6373

> <Gold.Chemscore.Internal_Hbond>
0.0000

> <Gold.Chemscore.DEClash>
1.2682

> <Gold.Chemscore.DEInternal>
1.4616

> <Gold.Chemscore.Rot>
1.8884

> <Gold.Chemscore.Internal.Correction>
   9.000000E+99

> <Gold.Chemscore.Hbond.Weighted>
-0.0000

> <Gold.Chemscore.Metal.Weighted>
-0.0000

> <Gold.Chemscore.Lipo.Weighted>
-10.8386

> <Gold.Chemscore.Internal_Hbond.Weighted>
0.0000

> <Gold.Chemscore.DEClash.Weighted>
1.2682

> <Gold.Chemscore.DEInternal.Weighted>
1.4616

> <Gold.Chemscore.Rot.Weighted>
4.8342

> <Gold.Chemscore.Internal.Correction.Weighted>
   9.000000E+99

> <Gold.Protein.RotatedTorsions>
[ 6907 6896 6895 6894 ] final   35.98 input  -60.11 | X-H torsion
[ 7974 7965 7964 7962 ] final  -82.38 input  175.53 | X-H torsion
[ 8008 7997 7996 7995 ] final  171.22 input   59.86 | X-H torsion
[ 10167 10162 10161 10158 ] final  160.20 input  -65.29 | X-H torsion
[ 10718 10713 10712 10709 ] final  -66.04 input   66.30 | X-H torsion
[ 10763 10752 10751 10750 ] final   57.44 input  -60.55 | X-H torsion
[ 11005 11000 10999 10996 ] final -160.35 input  -57.11 | X-H torsion

> <Gold.Protein.ActiveResidues>
 VAL166  LYS551  ARG553  GLY616  TRP617  ASP618  TYR619  PRO620  LYS621  CYS622 
 ASP623  PHE694  ASN695  SER759  ASP760  ASP761  ALA762  ILE779  LEU786  VAL792 
 PHE793  MET794  SER795  GLU796  ALA797  LYS798  CYS799  TRP800  GLU811  SER814 

> <Gold.Protein.RotatedAtoms>
  152.1235  134.9188  160.0561 H   0  0  0  0  0  0  0  0  0  0  0  0  # atno 6907 bound_to 6896
  152.0319  133.3936  159.4309 H   0  0  0  0  0  0  0  0  0  0  0  0  # atno 6908 bound_to 6896
  150.6851  134.3432  159.4920 H   0  0  0  0  0  0  0  0  0  0  0  0  # atno 6909 bound_to 6896
  145.5341  140.9518  143.1587 H   0  0  0  0  0  0  0  0  0  0  0  0  # atno 7974 bound_to 7965
  156.1292  140.1517  156.9091 H   0  0  0  0  0  0  0  0  0  0  0  0  # atno 8008 bound_to 7997
  154.4895  140.0855  156.7603 H   0  0  0  0  0  0  0  0  0  0  0  0  # atno 8009 bound_to 7997
  155.4287  140.3426  155.4280 H   0  0  0  0  0  0  0  0  0  0  0  0  # atno 8010 bound_to 7997
  139.4838  144.4657  151.8645 H   0  0  0  0  0  0  0  0  0  0  0  0  # atno 10167 bound_to 10162
  156.0635  130.4256  150.1650 H   0  0  0  0  0  0  0  0  0  0  0  0  # atno 10718 bound_to 10713
  152.9850  135.5641  154.5391 H   0  0  0  0  0  0  0  0  0  0  0  0  # atno 10763 bound_to 10752
  154.4849  135.2790  155.1544 H   0  0  0  0  0  0  0  0  0  0  0  0  # atno 10764 bound_to 10752
  154.3038  135.6302  153.5489 H   0  0  0  0  0  0  0  0  0  0  0  0  # atno 10765 bound_to 10752
  140.6325  134.4636  157.5230 H   0  0  0  0  0  0  0  0  0  0  0  0  # atno 11005 bound_to 11000
  144.7610  139.6956  143.7234 LP  0  0  0  0  0  0  0  0  0  0  0  0  # atno 17320 bound_to 7965
  146.2024  139.5328  142.9734 LP  0  0  0  0  0  0  0  0  0  0  0  0  # atno 17321 bound_to 7965
  140.4122  144.2354  150.5888 LP  0  0  0  0  0  0  0  0  0  0  0  0  # atno 17342 bound_to 10162
  140.4955  143.2334  151.8755 LP  0  0  0  0  0  0  0  0  0  0  0  0  # atno 17343 bound_to 10162
  156.9715  130.9836  151.3458 LP  0  0  0  0  0  0  0  0  0  0  0  0  # atno 17370 bound_to 10713
  157.5661  130.8278  149.8329 LP  0  0  0  0  0  0  0  0  0  0  0  0  # atno 17371 bound_to 10713
  139.9110  134.8344  156.1527 LP  0  0  0  0  0  0  0  0  0  0  0  0  # atno 17394 bound_to 11000
  141.0665  133.6817  156.2055 LP  0  0  0  0  0  0  0  0  0  0  0  0  # atno 17395 bound_to 11000

$$$$
