AV-unprocessed.smi:2585|AV-procd|sdf|10144|dock8
  -GOLD-   2272014153D 1   1.00000     0.00000
 Structure written by MMmdl.
 34 35  0  0  0  0  0  0  0  0  1 V2000
  153.2715  143.0935  159.9703 C   0  0  0  0  0  0  0  0  0  0  0  0
  152.2761  142.3452  159.1349 C   0  0  0  0  0  0  0  0  0  0  0  0
  152.2434  141.0299  159.1850 N   0  0  0  0  0  0  0  0  0  0  0  0
  151.0416  140.4625  158.1583 S   0  0  0  0  0  0  0  0  0  0  0  0
  150.5276  142.0348  157.6096 C   0  0  0  0  0  0  0  0  0  0  0  0
  149.5386  142.3114  156.7204 N   0  0  0  0  0  0  0  0  0  0  0  0
  148.6781  141.4655  156.1286 C   0  0  0  0  0  0  0  0  0  0  0  0
  148.6473  140.2471  156.2997 O   0  0  0  0  0  0  0  0  0  0  0  0
  147.8428  142.1302  155.3124 N   0  0  0  0  0  0  0  0  0  0  0  0
  146.7605  141.5930  154.4735 C   0  0  0  0  0  0  0  0  0  0  0  0
  147.2427  140.3194  153.7456 C   0  0  0  0  0  0  0  0  0  0  0  0
  145.5793  141.2320  155.4004 C   0  0  0  0  0  0  0  0  0  0  0  0
  144.9102  142.4827  156.0020 C   0  0  0  0  0  0  0  0  0  0  0  0
  144.4803  143.3545  154.9633 O   0  0  0  0  0  0  0  0  0  0  0  0
  145.5532  143.8277  154.1579 C   0  0  0  0  0  0  0  0  0  0  0  0
  146.2445  142.6431  153.4594 C   0  0  0  0  0  0  0  0  0  0  0  0
  151.3193  142.9463  158.2536 C   0  0  0  0  0  0  0  0  0  0  0  0
  151.2418  144.6389  158.0845 Cl  0  0  0  0  0  0  0  0  0  0  0  0
  153.9175  143.7137  159.3486 H   0  0  0  0  0  0  0  0  0  0  0  0
  153.9141  142.4205  160.5397 H   0  0  0  0  0  0  0  0  0  0  0  0
  152.7709  143.7488  160.6838 H   0  0  0  0  0  0  0  0  0  0  0  0
  149.4404  143.2866  156.4786 H   0  0  0  0  0  0  0  0  0  0  0  0
  147.9702  143.1302  155.2587 H   0  0  0  0  0  0  0  0  0  0  0  0
  146.4295  139.8493  153.1916 H   0  0  0  0  0  0  0  0  0  0  0  0
  147.6263  139.5811  154.4509 H   0  0  0  0  0  0  0  0  0  0  0  0
  148.0342  140.5325  153.0271 H   0  0  0  0  0  0  0  0  0  0  0  0
  144.8272  140.6784  154.8363 H   0  0  0  0  0  0  0  0  0  0  0  0
  145.9089  140.5660  156.1991 H   0  0  0  0  0  0  0  0  0  0  0  0
  144.0429  142.1913  156.5943 H   0  0  0  0  0  0  0  0  0  0  0  0
  145.5879  143.0095  156.6755 H   0  0  0  0  0  0  0  0  0  0  0  0
  145.1533  144.5165  153.4138 H   0  0  0  0  0  0  0  0  0  0  0  0
  146.2594  144.3952  154.7659 H   0  0  0  0  0  0  0  0  0  0  0  0
  147.0466  143.0064  152.8171 H   0  0  0  0  0  0  0  0  0  0  0  0
  145.5236  142.1723  152.7897 H   0  0  0  0  0  0  0  0  0  0  0  0
  1  2  1  0  0  0  0
  1 19  1  0  0  0  0
  1 20  1  0  0  0  0
  1 21  1  0  0  0  0
  2 17  1  0  0  0  0
  2  3  2  0  0  0  0
  3  4  1  0  0  0  0
  4  5  1  0  0  0  0
  5  6  1  0  0  0  0
  5 17  2  0  0  0  0
  6  7  1  0  0  0  0
  6 22  1  0  0  0  0
  7  8  2  0  0  0  0
  7  9  1  0  0  0  0
  9 10  1  0  0  0  0
  9 23  1  0  0  0  0
 10 16  1  0  0  0  0
 10 11  1  0  0  0  0
 10 12  1  0  0  0  0
 11 24  1  0  0  0  0
 11 25  1  0  0  0  0
 11 26  1  0  0  0  0
 12 13  1  0  0  0  0
 12 27  1  0  0  0  0
 12 28  1  0  0  0  0
 13 14  1  0  0  0  0
 13 29  1  0  0  0  0
 13 30  1  0  0  0  0
 14 15  1  0  0  0  0
 15 16  1  0  0  0  0
 15 31  1  0  0  0  0
 15 32  1  0  0  0  0
 16 33  1  0  0  0  0
 16 34  1  0  0  0  0
 17 18  1  0  0  0  0
M  END
> <s_m_source_file>
AV-unprocessed.smi

> <i_m_source_file_index>
2585

> <i_lp_mmshare_version>
43012

> <i_f3d_flags>
0

> <s_epik_input>
W0NIM11jMW5zYyhjMUNsKVtOSF1DKD1PKVtOSF1DMihbQ0gzXSlbQ0gyXVtDSDJdT1tDSDJdW0NIMl0y

> <s_epik_cmdline>
J2VwaWtfcHl0aG9uJywgJy1waCcsICc3LjAnLCAnLXRuJywgJzgnLCAnLW1hJywgJzIwMCcsICctbWV0YWxfYmluZGluZycsICctaW1hZScsICc8aW5maWxlLm1hZT4nLCAnLW9tYWUnLCAnPG91dGZpbGUubWFlPic=

> <r_lp_tautomer_probability>
1

> <r_epik_Ionization_Penalty>
3.55893e-05

> <r_epik_Ionization_Penalty_Charging>
0

> <r_epik_Ionization_Penalty_Neutral>
3.55893e-05

> <r_epik_State_Penalty>
-0

> <r_epik_Charging_Adjusted_Penalty>
0

> <i_epik_Tot_Q>
0

> <i_epik_Tot_abs_Q>
0

> <r_epik_Metal_State_Penalty>
-0

> <b_epik_Metal_Only>
0

> <s_lp_Force_Field>
OPLS_2005

> <r_lp_Energy>
7.47922

> <b_lp_Chiralities_Consistent>
1

> <s_lp_Variant>
AV-unprocessed.smi:2585-1

> <Gold.Version>
5.8.1

> <Gold.Id.Protein>
6NUR|6NUR_protein|mol2

> <Gold.PLP.Fitness>
37.2926

> <Gold.PLP.PLP>
-31.8265

> <Gold.PLP.part.hbond>
-2.0000

> <Gold.PLP.part.metal>
0.0000

> <Gold.PLP.part.buried>
-6.7715

> <Gold.PLP.part.nonpolar>
-23.7757

> <Gold.PLP.part.repulsive>
0.3177

> <Gold.PLP.ligand.clash>
0.0000

> <Gold.PLP.ligand.torsion>
0.2702

> <Gold.PLP.Chemscore.Hbond>
2.0000

> <Gold.PLP.Chemscore.CHOScore>
0.0000

> <Gold.PLP.Chemscore.Metal>
0.0000

> <Gold.Chemscore.Hbonds>
donor molecule, donor type, donor heavy atom, donor atom, acceptor molecule, acceptor atom, score
      L1  H     6    22       P1  8028  1.00
      L1  H     9    23       P1  8028  1.00

> <Gold.PLP.Chemscore.Internal.Correction>
0.0065

> <Gold.Rescore>
     Score         DG    S(hbond)    S(metal)    S(lipo)     H(rot)  DE(clash)    DE(int)     intcor
     17.44     -19.12       1.94        0.00      83.03       1.00       0.01       1.68       ----

> <Gold.Chemscore.Fitness>
17.4389

> <Gold.Chemscore.DG>
-19.1240

> <Gold.Chemscore.ZeroCoef>
-5.4800

> <Gold.Chemscore.Hbond>
1.9429

> <Gold.Chemscore.Metal>
0.0000

> <Gold.Chemscore.Lipo>
83.0323

> <Gold.Chemscore.Internal_Hbond>
0.0000

> <Gold.Chemscore.DEClash>
0.0077

> <Gold.Chemscore.DEInternal>
1.6775

> <Gold.Chemscore.Rot>
1.0000

> <Gold.Chemscore.Internal.Correction>
   9.000000E+99

> <Gold.Chemscore.Hbonds>
donor molecule, donor type, donor heavy atom, donor atom, acceptor molecule, acceptor atom, score
      L1  H     6    22       P1  8028  1.00
      L1  H     9    23       P1  8028  0.80

> <Gold.Chemscore.Hbond.Weighted>
-6.4893

> <Gold.Chemscore.Metal.Weighted>
-0.0000

> <Gold.Chemscore.Lipo.Weighted>
-9.7148

> <Gold.Chemscore.Internal_Hbond.Weighted>
0.0000

> <Gold.Chemscore.DEClash.Weighted>
0.0077

> <Gold.Chemscore.DEInternal.Weighted>
1.6775

> <Gold.Chemscore.Rot.Weighted>
2.5600

> <Gold.Chemscore.Internal.Correction.Weighted>
   9.000000E+99

> <Gold.Protein.RotatedTorsions>
[ 6907 6896 6895 6894 ] final  -95.83 input  -60.11 | X-H torsion
[ 7974 7965 7964 7962 ] final   56.87 input  175.53 | X-H torsion
[ 8008 7997 7996 7995 ] final  132.92 input   59.86 | X-H torsion
[ 10167 10162 10161 10158 ] final  169.53 input  -65.29 | X-H torsion
[ 10718 10713 10712 10709 ] final -155.95 input   66.30 | X-H torsion
[ 10763 10752 10751 10750 ] final   -8.36 input  -60.55 | X-H torsion
[ 11005 11000 10999 10996 ] final   75.19 input  -57.11 | X-H torsion

> <Gold.Protein.ActiveResidues>
 VAL166  LYS551  ARG553  GLY616  TRP617  ASP618  TYR619  PRO620  LYS621  CYS622 
 ASP623  PHE694  ASN695  SER759  ASP760  ASP761  ALA762  ILE779  LEU786  VAL792 
 PHE793  MET794  SER795  GLU796  ALA797  LYS798  CYS799  TRP800  GLU811  SER814 

> <Gold.Protein.RotatedAtoms>
  150.6973  134.1597  159.4171 H   0  0  0  0  0  0  0  0  0  0  0  0  # atno 6907 bound_to 6896
  151.9578  135.0136  160.0555 H   0  0  0  0  0  0  0  0  0  0  0  0  # atno 6908 bound_to 6896
  152.1954  133.4768  159.5067 H   0  0  0  0  0  0  0  0  0  0  0  0  # atno 6909 bound_to 6896
  145.9351  139.3841  143.0397 H   0  0  0  0  0  0  0  0  0  0  0  0  # atno 7974 bound_to 7965
  156.2987  140.2534  156.3168 H   0  0  0  0  0  0  0  0  0  0  0  0  # atno 8008 bound_to 7997
  154.9274  140.0399  157.2049 H   0  0  0  0  0  0  0  0  0  0  0  0  # atno 8009 bound_to 7997
  154.8252  140.2866  155.5764 H   0  0  0  0  0  0  0  0  0  0  0  0  # atno 8010 bound_to 7997
  139.4995  144.3695  151.9739 H   0  0  0  0  0  0  0  0  0  0  0  0  # atno 10167 bound_to 10162
  156.5198  130.8473  151.2678 H   0  0  0  0  0  0  0  0  0  0  0  0  # atno 10718 bound_to 10713
  153.4394  135.7013  153.6179 H   0  0  0  0  0  0  0  0  0  0  0  0  # atno 10763 bound_to 10752
  153.4560  135.3747  155.2311 H   0  0  0  0  0  0  0  0  0  0  0  0  # atno 10764 bound_to 10752
  154.8727  135.4008  154.3790 H   0  0  0  0  0  0  0  0  0  0  0  0  # atno 10765 bound_to 10752
  139.9355  134.7496  156.1240 H   0  0  0  0  0  0  0  0  0  0  0  0  # atno 11005 bound_to 11000
  145.8374  140.9599  143.0817 LP  0  0  0  0  0  0  0  0  0  0  0  0  # atno 17320 bound_to 7965
  144.6770  140.0240  143.7483 LP  0  0  0  0  0  0  0  0  0  0  0  0  # atno 17321 bound_to 7965
  140.3132  144.3514  150.6028 LP  0  0  0  0  0  0  0  0  0  0  0  0  # atno 17342 bound_to 10162
  140.5782  143.2175  151.7476 LP  0  0  0  0  0  0  0  0  0  0  0  0  # atno 17343 bound_to 10162
  157.7438  130.9921  150.2625 LP  0  0  0  0  0  0  0  0  0  0  0  0  # atno 17370 bound_to 10713
  156.3160  130.3779  149.7618 LP  0  0  0  0  0  0  0  0  0  0  0  0  # atno 17371 bound_to 10713
  141.0967  133.6693  156.2661 LP  0  0  0  0  0  0  0  0  0  0  0  0  # atno 17394 bound_to 11000
  140.6087  134.5481  157.5530 LP  0  0  0  0  0  0  0  0  0  0  0  0  # atno 17395 bound_to 11000

$$$$
