AV-unprocessed.smi:261|AV-procd|sdf|1986|dock1
  -GOLD-   2262021163D 1   1.00000     0.00000
 Structure written by MMmdl.
 51 54  0  0  0  0  0  0  0  0  1 V2000
  151.5933  145.6817  160.1221 C   0  0  0  0  0  0  0  0  0  0  0  0
  151.6109  144.2869  159.8628 O   0  0  0  0  0  0  0  0  0  0  0  0
  152.4652  143.9102  158.7894 C   0  0  2  0  0  0  0  0  0  0  0  0
  151.7460  143.9566  157.4343 C   0  0  0  0  0  0  0  0  0  0  0  0
  151.0102  142.6112  157.3276 C   0  0  2  0  0  0  0  0  0  0  0  0
  149.5706  142.7023  157.8789 C   0  0  0  0  0  0  0  0  0  0  0  0
  148.5464  142.4251  157.0646 N   0  0  0  0  0  0  0  0  0  0  0  0
  149.3877  143.0356  159.0476 O   0  0  0  0  0  0  0  0  0  0  0  0
  151.8857  141.7044  158.0714 N   0  0  0  0  0  0  0  0  0  0  0  0
  151.9071  140.3479  157.9478 C   0  0  0  0  0  0  0  0  0  0  0  0
  152.3275  139.6223  159.0182 N   0  0  0  0  0  0  0  0  0  0  0  0
  152.3659  138.2886  158.9694 C   0  0  0  0  0  0  0  0  0  0  0  0
  152.0309  137.4827  157.9628 N   0  0  0  0  0  0  0  0  0  0  0  0
  151.6071  138.1965  156.8817 C   0  0  0  0  0  0  0  0  0  0  0  0
  151.5153  139.6162  156.7847 C   0  0  0  0  0  0  0  0  0  0  0  0
  151.0393  139.9587  155.5229 N   0  0  0  0  0  0  0  0  0  0  0  0
  150.8498  138.8181  154.9201 C   0  0  0  0  0  0  0  0  0  0  0  0
  151.1587  137.7067  155.6675 N   0  0  0  0  0  0  0  0  0  0  0  0
  151.0309  136.3176  155.2601 C   0  0  0  0  0  0  0  0  0  0  0  0
  151.2182  135.3054  156.4129 C   0  0  2  0  0  0  0  0  0  0  0  0
  152.5596  135.3005  156.8626 O   0  0  0  0  0  0  0  0  0  0  0  0
  150.7434  133.8654  156.1078 C   0  0  2  0  0  0  0  0  0  0  0  0
  149.4560  133.7395  155.2939 C   0  0  0  0  0  0  0  0  0  0  0  0
  148.9902  132.3251  155.6067 C   0  0  0  0  0  0  0  0  0  0  0  0
  149.7731  131.9341  156.8659 C   0  0  0  0  0  0  0  0  0  0  0  0
  150.4512  133.1132  157.2749 O   0  0  0  0  0  0  0  0  0  0  0  0
  152.8045  142.4243  158.9484 C   0  0  0  0  0  0  0  0  0  0  0  0
  153.3723  144.5168  158.7980 H   0  0  0  0  0  0  0  0  0  0  0  0
  150.9633  142.3309  156.2757 H   0  0  0  0  0  0  0  0  0  0  0  0
  150.9318  145.8848  160.9641 H   0  0  0  0  0  0  0  0  0  0  0  0
  151.2263  146.2504  159.2680 H   0  0  0  0  0  0  0  0  0  0  0  0
  152.5876  146.0460  160.3837 H   0  0  0  0  0  0  0  0  0  0  0  0
  151.0963  144.8233  157.3113 H   0  0  0  0  0  0  0  0  0  0  0  0
  152.4930  144.0126  156.6412 H   0  0  0  0  0  0  0  0  0  0  0  0
  147.5992  142.4847  157.4096 H   0  0  0  0  0  0  0  0  0  0  0  0
  148.7250  142.1615  156.1065 H   0  0  0  0  0  0  0  0  0  0  0  0
  152.7132  137.7976  159.8665 H   0  0  0  0  0  0  0  0  0  0  0  0
  150.4689  138.7560  153.9112 H   0  0  0  0  0  0  0  0  0  0  0  0
  150.0529  136.1852  154.7957 H   0  0  0  0  0  0  0  0  0  0  0  0
  151.7659  136.1208  154.4787 H   0  0  0  0  0  0  0  0  0  0  0  0
  150.6262  135.6692  157.2534 H   0  0  0  0  0  0  0  0  0  0  0  0
  152.6544  135.9604  157.5321 H   0  0  0  0  0  0  0  0  0  0  0  0
  151.5422  133.3452  155.5749 H   0  0  0  0  0  0  0  0  0  0  0  0
  148.7049  134.4506  155.6391 H   0  0  0  0  0  0  0  0  0  0  0  0
  149.6140  133.9088  154.2285 H   0  0  0  0  0  0  0  0  0  0  0  0
  147.9128  132.2950  155.7725 H   0  0  0  0  0  0  0  0  0  0  0  0
  149.2223  131.6432  154.7880 H   0  0  0  0  0  0  0  0  0  0  0  0
  149.1273  131.5630  157.6618 H   0  0  0  0  0  0  0  0  0  0  0  0
  150.5082  131.1612  156.6370 H   0  0  0  0  0  0  0  0  0  0  0  0
  153.8267  142.2367  158.6159 H   0  0  0  0  0  0  0  0  0  0  0  0
  152.7208  142.0972  159.9860 H   0  0  0  0  0  0  0  0  0  0  0  0
  1  2  1  0  0  0  0
  1 30  1  0  0  0  0
  1 31  1  0  0  0  0
  1 32  1  0  0  0  0
  2  3  1  0  0  0  0
  3 28  1  0  0  0  0
  3 27  1  0  0  0  0
  3  4  1  0  0  0  0
  4  5  1  0  0  0  0
  4 33  1  0  0  0  0
  4 34  1  0  0  0  0
  5 29  1  0  0  0  0
  5  6  1  0  0  0  0
  5  9  1  0  0  0  0
  6  7  1  0  0  0  0
  6  8  2  0  0  0  0
  7 35  1  0  0  0  0
  7 36  1  0  0  0  0
  9 10  1  0  0  0  0
  9 27  1  0  0  0  0
 10 15  1  0  0  0  0
 10 11  2  0  0  0  0
 11 12  1  0  0  0  0
 12 13  2  0  0  0  0
 12 37  1  0  0  0  0
 13 14  1  0  0  0  0
 14 18  1  0  0  0  0
 14 15  2  0  0  0  0
 15 16  1  0  0  0  0
 16 17  2  0  0  0  0
 17 18  1  0  0  0  0
 17 38  1  0  0  0  0
 18 19  1  0  0  0  0
 19 20  1  0  0  0  0
 19 39  1  0  0  0  0
 19 40  1  0  0  0  0
 20 21  1  0  0  0  0
 20 22  1  0  0  0  0
 20 41  1  0  0  0  0
 21 42  1  0  0  0  0
 22 26  1  0  0  0  0
 22 23  1  0  0  0  0
 22 43  1  0  0  0  0
 23 24  1  0  0  0  0
 23 44  1  0  0  0  0
 23 45  1  0  0  0  0
 24 25  1  0  0  0  0
 24 46  1  0  0  0  0
 24 47  1  0  0  0  0
 25 26  1  0  0  0  0
 25 48  1  0  0  0  0
 25 49  1  0  0  0  0
 27 50  1  0  0  0  0
 27 51  1  0  0  0  0
M  END
> <s_m_source_file>
AV-unprocessed.smi

> <i_m_source_file_index>
261

> <i_lp_mmshare_version>
43012

> <i_f3d_flags>
0

> <s_epik_input>
W0NIM11PW0NASF0xW0NIMl1bQ0BASF0oQyg9TylbTkgyXSlOKFtDSDJdMSljKG5bY0hdbjIpYyhjMjMpbltjSF1uM1tDSDJdW0NASF0oW09IXSlbQ0BASF00W0NIMl1bQ0gyXVtDSDJdTzQ=

> <s_epik_cmdline>
J2VwaWtfcHl0aG9uJywgJy1waCcsICc3LjAnLCAnLXRuJywgJzgnLCAnLW1hJywgJzIwMCcsICctbWV0YWxfYmluZGluZycsICctaW1hZScsICc8aW5maWxlLm1hZT4nLCAnLW9tYWUnLCAnPG91dGZpbGUubWFlPic=

> <r_lp_tautomer_probability>
1

> <r_epik_Ionization_Penalty>
0.000713824

> <r_epik_Ionization_Penalty_Charging>
0

> <r_epik_Ionization_Penalty_Neutral>
0.000713824

> <r_epik_State_Penalty>
0.000402132

> <r_epik_Charging_Adjusted_Penalty>
0.000402132

> <i_epik_Tot_Q>
0

> <i_epik_Tot_abs_Q>
0

> <r_epik_Metal_State_Penalty>
-0

> <b_epik_Metal_Only>
0

> <s_lp_Force_Field>
OPLS_2005

> <r_lp_Energy>
46.7805

> <b_lp_Chiralities_Consistent>
1

> <s_lp_Variant>
AV-unprocessed.smi:261-4

> <Gold.Version>
5.8.1

> <Gold.Id.Protein>
6NUR|6NUR_protein|mol2

> <Gold.PLP.Fitness>
46.8666

> <Gold.PLP.PLP>
-42.4739

> <Gold.PLP.part.hbond>
-4.2503

> <Gold.PLP.part.metal>
0.0000

> <Gold.PLP.part.buried>
-4.8160

> <Gold.PLP.part.nonpolar>
-33.9896

> <Gold.PLP.part.repulsive>
0.2232

> <Gold.PLP.ligand.clash>
0.0000

> <Gold.PLP.ligand.torsion>
1.1108

> <Gold.PLP.Chemscore.Hbond>
2.1463

> <Gold.PLP.Chemscore.CHOScore>
0.0000

> <Gold.PLP.Chemscore.Metal>
0.0000

> <Gold.Chemscore.Hbonds>
donor molecule, donor type, donor heavy atom, donor atom, acceptor molecule, acceptor atom, score
      P1  H  6896  6908       L1    26  0.93
      P1  H  7989  7998       L1    16  0.15
      P1  H 10752 10764       L1    21  1.00

> <Gold.PLP.Chemscore.Internal.Correction>
0.1756

> <Gold.Rescore>
     Score         DG    S(hbond)    S(metal)    S(lipo)     H(rot)  DE(clash)    DE(int)     intcor
      9.28     -14.05       1.90        0.00      88.68       3.18       0.00       4.77       ----

> <Gold.Chemscore.Fitness>
9.2835

> <Gold.Chemscore.DG>
-14.0513

> <Gold.Chemscore.ZeroCoef>
-5.4800

> <Gold.Chemscore.Hbond>
1.8996

> <Gold.Chemscore.Metal>
0.0000

> <Gold.Chemscore.Lipo>
88.6763

> <Gold.Chemscore.Internal_Hbond>
0.0000

> <Gold.Chemscore.DEClash>
0.0015

> <Gold.Chemscore.DEInternal>
4.7663

> <Gold.Chemscore.Rot>
3.1831

> <Gold.Chemscore.Internal.Correction>
   9.000000E+99

> <Gold.Chemscore.Hbonds>
donor molecule, donor type, donor heavy atom, donor atom, acceptor molecule, acceptor atom, score
      P1  H  6896  6908       L1    26  0.86
      P1  H  7989  7998       L1    16  0.01
      P1  H 10752 10764       L1    21  0.62

> <Gold.Chemscore.Hbond.Weighted>
-6.3448

> <Gold.Chemscore.Metal.Weighted>
-0.0000

> <Gold.Chemscore.Lipo.Weighted>
-10.3751

> <Gold.Chemscore.Internal_Hbond.Weighted>
0.0000

> <Gold.Chemscore.DEClash.Weighted>
0.0015

> <Gold.Chemscore.DEInternal.Weighted>
4.7663

> <Gold.Chemscore.Rot.Weighted>
8.1486

> <Gold.Chemscore.Internal.Correction.Weighted>
   9.000000E+99

> <Gold.Protein.RotatedTorsions>
[ 6907 6896 6895 6894 ] final   95.22 input  -60.11 | X-H torsion
[ 7974 7965 7964 7962 ] final  140.37 input  175.53 | X-H torsion
[ 8008 7997 7996 7995 ] final -106.82 input   59.86 | X-H torsion
[ 10167 10162 10161 10158 ] final -136.45 input  -65.29 | X-H torsion
[ 10718 10713 10712 10709 ] final   64.83 input   66.30 | X-H torsion
[ 10763 10752 10751 10750 ] final    7.55 input  -60.55 | X-H torsion
[ 11005 11000 10999 10996 ] final  110.28 input  -57.11 | X-H torsion

> <Gold.Protein.ActiveResidues>
 VAL166  LYS551  ARG553  GLY616  TRP617  ASP618  TYR619  PRO620  LYS621  CYS622 
 ASP623  PHE694  ASN695  SER759  ASP760  ASP761  ALA762  ILE779  LEU786  VAL792 
 PHE793  MET794  SER795  GLU796  ALA797  LYS798  CYS799  TRP800  GLU811  SER814 

> <Gold.Protein.RotatedAtoms>
  152.5445  134.1073  159.8343 H   0  0  0  0  0  0  0  0  0  0  0  0  # atno 6907 bound_to 6896
  151.1143  133.5142  159.2612 H   0  0  0  0  0  0  0  0  0  0  0  0  # atno 6908 bound_to 6896
  151.1849  135.0386  159.8862 H   0  0  0  0  0  0  0  0  0  0  0  0  # atno 6909 bound_to 6896
  144.9193  139.5189  143.5671 H   0  0  0  0  0  0  0  0  0  0  0  0  # atno 7974 bound_to 7965
  154.9202  140.0407  157.1994 H   0  0  0  0  0  0  0  0  0  0  0  0  # atno 8008 bound_to 7997
  154.8261  140.2891  155.5732 H   0  0  0  0  0  0  0  0  0  0  0  0  # atno 8009 bound_to 7997
  156.2983  140.2509  156.3178 H   0  0  0  0  0  0  0  0  0  0  0  0  # atno 8010 bound_to 7997
  139.8676  143.6997  152.2643 H   0  0  0  0  0  0  0  0  0  0  0  0  # atno 10167 bound_to 10162
  157.6065  130.9181  149.9896 H   0  0  0  0  0  0  0  0  0  0  0  0  # atno 10718 bound_to 10713
  153.2351  135.6897  153.7846 H   0  0  0  0  0  0  0  0  0  0  0  0  # atno 10763 bound_to 10752
  153.6996  135.3299  155.3222 H   0  0  0  0  0  0  0  0  0  0  0  0  # atno 10764 bound_to 10752
  154.8331  135.4565  154.1251 H   0  0  0  0  0  0  0  0  0  0  0  0  # atno 10765 bound_to 10752
  139.8878  134.9480  156.6254 H   0  0  0  0  0  0  0  0  0  0  0  0  # atno 11005 bound_to 11000
  146.3197  139.8060  142.8955 LP  0  0  0  0  0  0  0  0  0  0  0  0  # atno 17320 bound_to 7965
  145.3323  141.0269  143.3439 LP  0  0  0  0  0  0  0  0  0  0  0  0  # atno 17321 bound_to 7965
  139.7314  144.7581  151.0796 LP  0  0  0  0  0  0  0  0  0  0  0  0  # atno 17342 bound_to 10162
  140.7765  143.5084  150.9684 LP  0  0  0  0  0  0  0  0  0  0  0  0  # atno 17343 bound_to 10162
  156.1153  130.3648  149.9978 LP  0  0  0  0  0  0  0  0  0  0  0  0  # atno 17370 bound_to 10713
  156.8069  130.9310  151.3645 LP  0  0  0  0  0  0  0  0  0  0  0  0  # atno 17371 bound_to 10713
  140.7707  133.8741  155.8489 LP  0  0  0  0  0  0  0  0  0  0  0  0  # atno 17394 bound_to 11000
  140.9844  134.1362  157.4465 LP  0  0  0  0  0  0  0  0  0  0  0  0  # atno 17395 bound_to 11000

$$$$
