AV-unprocessed.smi:2541|AV-procd|sdf|9989|dock6
  -GOLD-   2272014 43D 1   1.00000     0.00000
 Structure written by MMmdl.
 38 39  0  0  0  0  0  0  0  0  1 V2000
  150.8048  139.3495  154.0674 O   0  0  0  0  0  0  0  0  0  0  0  0
  149.8277  139.7915  154.6743 C   0  0  0  0  0  0  0  0  0  0  0  0
  148.3970  139.4681  154.2235 C   0  0  0  0  0  0  0  0  0  0  0  0
  147.4781  140.6579  154.3363 C   0  0  0  0  0  0  0  0  0  0  0  0
  147.6620  141.9680  153.8122 C   0  0  0  0  0  0  0  0  0  0  0  0
  146.5358  142.6306  154.2063 C   0  0  0  0  0  0  0  0  0  0  0  0
  145.7186  141.8042  154.9067 O   0  0  0  0  0  0  0  0  0  0  0  0
  146.3270  140.5459  154.9821 N   0  0  0  0  0  0  0  0  0  0  0  0
  149.9320  140.5730  155.7604 N   0  0  0  0  0  0  0  0  0  0  0  0
  151.1844  141.0274  156.3583 C   0  0  0  0  0  0  0  0  0  0  0  0
  150.9573  142.2214  157.3136 C   0  0  2  0  0  0  0  0  0  0  0  0
  150.9521  143.3913  156.5157 O   0  0  0  0  0  0  0  0  0  0  0  0
  152.0517  142.3896  158.4040 C   0  0  0  0  0  0  0  0  0  0  0  0
  152.2759  141.1023  159.2356 C   0  0  0  0  0  0  0  0  0  0  0  0
  153.3411  141.2901  160.3285 C   0  0  0  0  0  0  0  0  0  0  0  0
  152.9925  142.4596  161.2573 C   0  0  0  0  0  0  0  0  0  0  0  0
  152.7882  143.7483  160.4512 C   0  0  0  0  0  0  0  0  0  0  0  0
  151.7184  143.5598  159.3644 C   0  0  0  0  0  0  0  0  0  0  0  0
  148.4302  139.1205  153.1905 H   0  0  0  0  0  0  0  0  0  0  0  0
  148.0166  138.6357  154.8178 H   0  0  0  0  0  0  0  0  0  0  0  0
  148.4919  142.3593  153.2429 H   0  0  0  0  0  0  0  0  0  0  0  0
  146.1853  143.6434  154.0718 H   0  0  0  0  0  0  0  0  0  0  0  0
  149.0793  140.8923  156.1966 H   0  0  0  0  0  0  0  0  0  0  0  0
  151.5646  140.1658  156.9033 H   0  0  0  0  0  0  0  0  0  0  0  0
  151.9373  141.2649  155.6045 H   0  0  0  0  0  0  0  0  0  0  0  0
  149.9830  142.1255  157.7951 H   0  0  0  0  0  0  0  0  0  0  0  0
  150.0558  143.6190  156.3206 H   0  0  0  0  0  0  0  0  0  0  0  0
  152.9921  142.6256  157.9028 H   0  0  0  0  0  0  0  0  0  0  0  0
  151.3357  140.7903  159.6927 H   0  0  0  0  0  0  0  0  0  0  0  0
  152.5992  140.2801  158.5996 H   0  0  0  0  0  0  0  0  0  0  0  0
  153.4418  140.3729  160.9097 H   0  0  0  0  0  0  0  0  0  0  0  0
  154.3119  141.4690  159.8644 H   0  0  0  0  0  0  0  0  0  0  0  0
  152.0851  142.2275  161.8163 H   0  0  0  0  0  0  0  0  0  0  0  0
  153.7841  142.6008  161.9938 H   0  0  0  0  0  0  0  0  0  0  0  0
  152.4999  144.5608  161.1187 H   0  0  0  0  0  0  0  0  0  0  0  0
  153.7304  144.0464  159.9896 H   0  0  0  0  0  0  0  0  0  0  0  0
  151.6201  144.4951  158.8133 H   0  0  0  0  0  0  0  0  0  0  0  0
  150.7514  143.3818  159.8368 H   0  0  0  0  0  0  0  0  0  0  0  0
  1  2  2  0  0  0  0
  2  3  1  0  0  0  0
  2  9  1  0  0  0  0
  3  4  1  0  0  0  0
  3 19  1  0  0  0  0
  3 20  1  0  0  0  0
  4  8  2  0  0  0  0
  4  5  1  0  0  0  0
  5  6  2  0  0  0  0
  5 21  1  0  0  0  0
  6  7  1  0  0  0  0
  6 22  1  0  0  0  0
  7  8  1  0  0  0  0
  9 10  1  0  0  0  0
  9 23  1  0  0  0  0
 10 11  1  0  0  0  0
 10 24  1  0  0  0  0
 10 25  1  0  0  0  0
 11 12  1  0  0  0  0
 11 13  1  0  0  0  0
 11 26  1  0  0  0  0
 12 27  1  0  0  0  0
 13 18  1  0  0  0  0
 13 14  1  0  0  0  0
 13 28  1  0  0  0  0
 14 15  1  0  0  0  0
 14 29  1  0  0  0  0
 14 30  1  0  0  0  0
 15 16  1  0  0  0  0
 15 31  1  0  0  0  0
 15 32  1  0  0  0  0
 16 17  1  0  0  0  0
 16 33  1  0  0  0  0
 16 34  1  0  0  0  0
 17 18  1  0  0  0  0
 17 35  1  0  0  0  0
 17 36  1  0  0  0  0
 18 37  1  0  0  0  0
 18 38  1  0  0  0  0
M  END
> <s_m_source_file>
AV-unprocessed.smi

> <i_m_source_file_index>
2541

> <i_lp_mmshare_version>
43012

> <i_f3d_flags>
0

> <s_epik_input>
bjFvW2NIXVtjSF1jMVtDSDJdQyg9TylbTkhdW0NIMl1bQ0BIXShbT0hdKVtDSF0yW0NIMl1bQ0gyXVtDSDJdW0NIMl1bQ0gyXTI=

> <s_epik_cmdline>
J2VwaWtfcHl0aG9uJywgJy1waCcsICc3LjAnLCAnLXRuJywgJzgnLCAnLW1hJywgJzIwMCcsICctbWV0YWxfYmluZGluZycsICctaW1hZScsICc8aW5maWxlLm1hZT4nLCAnLW9tYWUnLCAnPG91dGZpbGUubWFlPic=

> <r_lp_tautomer_probability>
1

> <r_epik_Ionization_Penalty>
2.3322e-07

> <r_epik_Ionization_Penalty_Charging>
0

> <r_epik_Ionization_Penalty_Neutral>
2.3322e-07

> <r_epik_State_Penalty>
-0

> <r_epik_Charging_Adjusted_Penalty>
0

> <i_epik_Tot_Q>
0

> <i_epik_Tot_abs_Q>
0

> <r_epik_Metal_State_Penalty>
-0

> <b_epik_Metal_Only>
0

> <s_lp_Force_Field>
OPLS_2005

> <r_lp_Energy>
14.1188

> <b_lp_Chiralities_Consistent>
1

> <s_lp_Variant>
AV-unprocessed.smi:2541-1

> <Gold.Version>
5.8.1

> <Gold.Id.Protein>
6NUR|6NUR_protein|mol2

> <Gold.PLP.Fitness>
42.1535

> <Gold.PLP.PLP>
-37.6101

> <Gold.PLP.part.hbond>
-2.0000

> <Gold.PLP.part.metal>
0.0000

> <Gold.PLP.part.buried>
-5.2795

> <Gold.PLP.part.nonpolar>
-29.4193

> <Gold.PLP.part.repulsive>
0.5065

> <Gold.PLP.ligand.clash>
0.0000

> <Gold.PLP.ligand.torsion>
0.7460

> <Gold.PLP.Chemscore.Hbond>
2.0000

> <Gold.PLP.Chemscore.CHOScore>
0.0000

> <Gold.PLP.Chemscore.Metal>
0.0000

> <Gold.Chemscore.Hbonds>
donor molecule, donor type, donor heavy atom, donor atom, acceptor molecule, acceptor atom, score
      L1  H    12    27       P1  8028  0.99
      P1  H  7989  7998       L1     1  1.00

> <Gold.PLP.Chemscore.Internal.Correction>
0.0354

> <Gold.Rescore>
     Score         DG    S(hbond)    S(metal)    S(lipo)     H(rot)  DE(clash)    DE(int)     intcor
     16.59     -17.33       1.84        0.00     101.58       2.42       0.01       0.72       ----

> <Gold.Chemscore.Fitness>
16.5942

> <Gold.Chemscore.DG>
-17.3282

> <Gold.Chemscore.ZeroCoef>
-5.4800

> <Gold.Chemscore.Hbond>
1.8416

> <Gold.Chemscore.Metal>
0.0000

> <Gold.Chemscore.Lipo>
101.5831

> <Gold.Chemscore.Internal_Hbond>
0.0000

> <Gold.Chemscore.DEClash>
0.0125

> <Gold.Chemscore.DEInternal>
0.7215

> <Gold.Chemscore.Rot>
2.4172

> <Gold.Chemscore.Internal.Correction>
   9.000000E+99

> <Gold.Chemscore.Hbonds>
donor molecule, donor type, donor heavy atom, donor atom, acceptor molecule, acceptor atom, score
      L1  H    12    27       P1  8028  0.94
      P1  H  7989  7998       L1     1  0.39

> <Gold.Chemscore.Hbond.Weighted>
-6.1510

> <Gold.Chemscore.Metal.Weighted>
-0.0000

> <Gold.Chemscore.Lipo.Weighted>
-11.8852

> <Gold.Chemscore.Internal_Hbond.Weighted>
0.0000

> <Gold.Chemscore.DEClash.Weighted>
0.0125

> <Gold.Chemscore.DEInternal.Weighted>
0.7215

> <Gold.Chemscore.Rot.Weighted>
6.1880

> <Gold.Chemscore.Internal.Correction.Weighted>
   9.000000E+99

> <Gold.Protein.RotatedTorsions>
[ 6907 6896 6895 6894 ] final  155.78 input  -60.11 | X-H torsion
[ 7974 7965 7964 7962 ] final  124.46 input  175.53 | X-H torsion
[ 8008 7997 7996 7995 ] final  124.64 input   59.86 | X-H torsion
[ 10167 10162 10161 10158 ] final  144.37 input  -65.29 | X-H torsion
[ 10718 10713 10712 10709 ] final -169.04 input   66.30 | X-H torsion
[ 10763 10752 10751 10750 ] final  151.22 input  -60.55 | X-H torsion
[ 11005 11000 10999 10996 ] final -109.57 input  -57.11 | X-H torsion

> <Gold.Protein.ActiveResidues>
 VAL166  LYS551  ARG553  GLY616  TRP617  ASP618  TYR619  PRO620  LYS621  CYS622 
 ASP623  PHE694  ASN695  SER759  ASP760  ASP761  ALA762  ILE779  LEU786  VAL792 
 PHE793  MET794  SER795  GLU796  ALA797  LYS798  CYS799  TRP800  GLU811  SER814 

> <Gold.Protein.RotatedAtoms>
  152.0392  133.3970  159.4329 H   0  0  0  0  0  0  0  0  0  0  0  0  # atno 6907 bound_to 6896
  150.6877  134.3434  159.4887 H   0  0  0  0  0  0  0  0  0  0  0  0  # atno 6908 bound_to 6896
  152.1230  134.9191  160.0613 H   0  0  0  0  0  0  0  0  0  0  0  0  # atno 6909 bound_to 6896
  145.0842  139.3635  143.4894 H   0  0  0  0  0  0  0  0  0  0  0  0  # atno 7974 bound_to 7965
  156.2808  140.2735  156.1821 H   0  0  0  0  0  0  0  0  0  0  0  0  # atno 8008 bound_to 7997
  155.0545  140.0386  157.2573 H   0  0  0  0  0  0  0  0  0  0  0  0  # atno 8009 bound_to 7997
  154.7167  140.2679  155.6584 H   0  0  0  0  0  0  0  0  0  0  0  0  # atno 8010 bound_to 7997
  139.4948  144.5976  151.6549 H   0  0  0  0  0  0  0  0  0  0  0  0  # atno 10167 bound_to 10162
  156.7057  130.9214  151.3084 H   0  0  0  0  0  0  0  0  0  0  0  0  # atno 10718 bound_to 10713
  154.1002  135.2846  155.3253 H   0  0  0  0  0  0  0  0  0  0  0  0  # atno 10763 bound_to 10752
  154.6560  135.5351  153.7963 H   0  0  0  0  0  0  0  0  0  0  0  0  # atno 10764 bound_to 10752
  153.0382  135.6522  154.1166 H   0  0  0  0  0  0  0  0  0  0  0  0  # atno 10765 bound_to 10752
  141.0840  133.9171  157.2226 H   0  0  0  0  0  0  0  0  0  0  0  0  # atno 11005 bound_to 11000
  146.3531  140.0646  142.8627 LP  0  0  0  0  0  0  0  0  0  0  0  0  # atno 17320 bound_to 7965
  145.1143  140.9424  143.4638 LP  0  0  0  0  0  0  0  0  0  0  0  0  # atno 17321 bound_to 7965
  140.5618  144.0256  150.6173 LP  0  0  0  0  0  0  0  0  0  0  0  0  # atno 17342 bound_to 10162
  140.3344  143.3058  152.0654 LP  0  0  0  0  0  0  0  0  0  0  0  0  # atno 17343 bound_to 10162
  157.6956  130.9278  150.0635 LP  0  0  0  0  0  0  0  0  0  0  0  0  # atno 17370 bound_to 10713
  156.1697  130.3646  149.9182 LP  0  0  0  0  0  0  0  0  0  0  0  0  # atno 17371 bound_to 10713
  139.9656  135.0142  156.9378 LP  0  0  0  0  0  0  0  0  0  0  0  0  # atno 17394 bound_to 11000
  140.5405  134.0725  155.7340 LP  0  0  0  0  0  0  0  0  0  0  0  0  # atno 17395 bound_to 11000

$$$$
