AV-unprocessed.smi:1478|AV-procd|sdf|5982|dock9
  -GOLD-   22720 6 73D 1   1.00000     0.00000
 Structure written by MMmdl.
 46 47  0  0  0  0  0  0  0  0  1 V2000
  152.2917  142.1594  159.3503 C   0  0  0  0  0  0  0  0  0  0  0  0
  151.5501  140.9701  159.1418 O   0  0  0  0  0  0  0  0  0  0  0  0
  150.6071  141.0961  158.0911 C   0  0  0  0  0  0  0  0  0  0  0  0
  151.3622  141.2614  156.7636 C   0  0  0  0  0  0  0  0  0  0  0  0
  150.9976  140.2158  155.8022 N   0  0  0  0  0  0  0  0  0  0  0  0
  149.6815  140.2752  155.3741 N   0  0  0  0  0  0  0  0  0  0  0  0
  149.2328  139.4039  154.5287 C   0  0  0  0  0  0  0  0  0  0  0  0
  147.8259  139.4341  154.0405 C   0  0  0  0  0  0  0  0  0  0  0  0
  147.0505  140.3412  154.3476 O   0  0  0  0  0  0  0  0  0  0  0  0
  147.4726  138.4106  153.2414 N   0  0  0  0  0  0  0  0  0  0  0  0
  146.1560  138.2088  152.6371 C   0  0  0  0  0  0  0  0  0  0  0  0
  145.5912  136.7692  152.8090 C   0  0  0  0  0  0  0  0  0  0  0  0
  144.1559  136.9328  153.3817 C   0  0  0  0  0  0  0  0  0  0  0  0
  143.2525  137.6115  152.6667 N   0  0  0  0  0  0  0  0  0  0  0  0
  143.8645  136.4631  154.4807 O   0  0  0  0  0  0  0  0  0  0  0  0
  145.6084  135.9793  151.4680 C   0  0  0  0  0  0  0  0  0  0  0  0
  145.2206  134.4980  151.6507 C   0  0  0  0  0  0  0  0  0  0  0  0
  146.0968  133.8813  152.5866 O   0  0  0  0  0  0  0  0  0  0  0  0
  146.0392  134.4741  153.8789 C   0  0  0  0  0  0  0  0  0  0  0  0
  146.4719  135.9513  153.7952 C   0  0  0  0  0  0  0  0  0  0  0  0
  150.0945  138.3507  154.0179 C   0  0  0  0  0  0  0  0  0  0  0  0
  151.3750  138.3049  154.4462 C   0  0  0  0  0  0  0  0  0  0  0  0
  151.9081  139.2783  155.4004 C   0  0  0  0  0  0  0  0  0  0  0  0
  153.0690  139.2547  155.8079 O   0  0  0  0  0  0  0  0  0  0  0  0
  152.9994  142.0119  160.1659 H   0  0  0  0  0  0  0  0  0  0  0  0
  151.6382  142.9910  159.6181 H   0  0  0  0  0  0  0  0  0  0  0  0
  152.8578  142.4317  158.4586 H   0  0  0  0  0  0  0  0  0  0  0  0
  149.9677  140.2125  158.0597 H   0  0  0  0  0  0  0  0  0  0  0  0
  149.9659  141.9614  158.2672 H   0  0  0  0  0  0  0  0  0  0  0  0
  151.1441  142.2454  156.3442 H   0  0  0  0  0  0  0  0  0  0  0  0
  152.4390  141.2545  156.9418 H   0  0  0  0  0  0  0  0  0  0  0  0
  148.1743  137.7126  153.0392 H   0  0  0  0  0  0  0  0  0  0  0  0
  145.4848  138.9278  153.1092 H   0  0  0  0  0  0  0  0  0  0  0  0
  146.1790  138.4823  151.5802 H   0  0  0  0  0  0  0  0  0  0  0  0
  142.3137  137.7273  153.0199 H   0  0  0  0  0  0  0  0  0  0  0  0
  143.5126  138.0045  151.7737 H   0  0  0  0  0  0  0  0  0  0  0  0
  144.9697  136.4497  150.7196 H   0  0  0  0  0  0  0  0  0  0  0  0
  146.6108  135.9973  151.0409 H   0  0  0  0  0  0  0  0  0  0  0  0
  144.1860  134.3851  151.9764 H   0  0  0  0  0  0  0  0  0  0  0  0
  145.3058  133.9737  150.6989 H   0  0  0  0  0  0  0  0  0  0  0  0
  145.0368  134.3703  154.2966 H   0  0  0  0  0  0  0  0  0  0  0  0
  146.7110  133.9285  154.5414 H   0  0  0  0  0  0  0  0  0  0  0  0
  147.5135  135.9728  153.4741 H   0  0  0  0  0  0  0  0  0  0  0  0
  146.4660  136.3967  154.7910 H   0  0  0  0  0  0  0  0  0  0  0  0
  149.7283  137.6185  153.3129 H   0  0  0  0  0  0  0  0  0  0  0  0
  152.0264  137.5274  154.0748 H   0  0  0  0  0  0  0  0  0  0  0  0
  1  2  1  0  0  0  0
  1 25  1  0  0  0  0
  1 26  1  0  0  0  0
  1 27  1  0  0  0  0
  2  3  1  0  0  0  0
  3  4  1  0  0  0  0
  3 28  1  0  0  0  0
  3 29  1  0  0  0  0
  4  5  1  0  0  0  0
  4 30  1  0  0  0  0
  4 31  1  0  0  0  0
  5 23  1  0  0  0  0
  5  6  1  0  0  0  0
  6  7  2  0  0  0  0
  7  8  1  0  0  0  0
  7 21  1  0  0  0  0
  8  9  2  0  0  0  0
  8 10  1  0  0  0  0
 10 11  1  0  0  0  0
 10 32  1  0  0  0  0
 11 12  1  0  0  0  0
 11 33  1  0  0  0  0
 11 34  1  0  0  0  0
 12 20  1  0  0  0  0
 12 13  1  0  0  0  0
 12 16  1  0  0  0  0
 13 14  1  0  0  0  0
 13 15  2  0  0  0  0
 14 35  1  0  0  0  0
 14 36  1  0  0  0  0
 16 17  1  0  0  0  0
 16 37  1  0  0  0  0
 16 38  1  0  0  0  0
 17 18  1  0  0  0  0
 17 39  1  0  0  0  0
 17 40  1  0  0  0  0
 18 19  1  0  0  0  0
 19 20  1  0  0  0  0
 19 41  1  0  0  0  0
 19 42  1  0  0  0  0
 20 43  1  0  0  0  0
 20 44  1  0  0  0  0
 21 22  2  0  0  0  0
 21 45  1  0  0  0  0
 22 23  1  0  0  0  0
 22 46  1  0  0  0  0
 23 24  2  0  0  0  0
M  END
> <s_m_source_file>
AV-unprocessed.smi

> <i_m_source_file_index>
1478

> <i_lp_mmshare_version>
43012

> <i_f3d_flags>
0

> <s_epik_input>
W0NIM11PW0NIMl1bQ0gyXW4xbmMoW2NIXVtjSF1jMT1PKUMoPU8pW05IXVtDSDJdQzIoQyg9TylbTkgyXSlbQ0gyXVtDSDJdT1tDSDJdW0NIMl0y

> <s_epik_cmdline>
J2VwaWtfcHl0aG9uJywgJy1waCcsICc3LjAnLCAnLXRuJywgJzgnLCAnLW1hJywgJzIwMCcsICctbWV0YWxfYmluZGluZycsICctaW1hZScsICc8aW5maWxlLm1hZT4nLCAnLW9tYWUnLCAnPG91dGZpbGUubWFlPic=

> <r_lp_tautomer_probability>
1

> <r_epik_Ionization_Penalty>
1.88897e-06

> <r_epik_Ionization_Penalty_Charging>
5.89949e-09

> <r_epik_Ionization_Penalty_Neutral>
1.88307e-06

> <r_epik_State_Penalty>
-0

> <r_epik_Charging_Adjusted_Penalty>
5.89949e-09

> <i_epik_Tot_Q>
0

> <i_epik_Tot_abs_Q>
0

> <r_epik_Metal_State_Penalty>
-0

> <b_epik_Metal_Only>
0

> <s_lp_Force_Field>
OPLS_2005

> <r_lp_Energy>
34.3796

> <b_lp_Chiralities_Consistent>
1

> <s_lp_Variant>
AV-unprocessed.smi:1478-1

> <Gold.Version>
5.8.1

> <Gold.Id.Protein>
6NUR|6NUR_protein|mol2

> <Gold.PLP.Fitness>
42.2782

> <Gold.PLP.PLP>
-38.2325

> <Gold.PLP.part.hbond>
-4.4900

> <Gold.PLP.part.metal>
0.0000

> <Gold.PLP.part.buried>
-4.5721

> <Gold.PLP.part.nonpolar>
-31.0807

> <Gold.PLP.part.repulsive>
0.4560

> <Gold.PLP.ligand.clash>
1.8993

> <Gold.PLP.ligand.torsion>
1.5532

> <Gold.PLP.Chemscore.Hbond>
3.0000

> <Gold.PLP.Chemscore.CHOScore>
0.0000

> <Gold.PLP.Chemscore.Metal>
0.0000

> <Gold.Chemscore.Hbonds>
donor molecule, donor type, donor heavy atom, donor atom, acceptor molecule, acceptor atom, score
      L1  H    10    32       P1  7948  0.99
      L1  H    14    36       P1 10171  0.93
      P1  H  7997  8009       L1    24  1.00

> <Gold.PLP.Chemscore.Internal.Correction>
0.0515

> <Gold.Rescore>
     Score         DG    S(hbond)    S(metal)    S(lipo)     H(rot)  DE(clash)    DE(int)     intcor
     14.16     -16.58       2.90        0.00      71.04       2.69       0.05       2.37       ----

> <Gold.Chemscore.Fitness>
14.1570

> <Gold.Chemscore.DG>
-16.5825

> <Gold.Chemscore.ZeroCoef>
-5.4800

> <Gold.Chemscore.Hbond>
2.9008

> <Gold.Chemscore.Metal>
0.0000

> <Gold.Chemscore.Lipo>
71.0378

> <Gold.Chemscore.Internal_Hbond>
0.0000

> <Gold.Chemscore.DEClash>
0.0533

> <Gold.Chemscore.DEInternal>
2.3722

> <Gold.Chemscore.Rot>
2.6944

> <Gold.Chemscore.Internal.Correction>
   9.000000E+99

> <Gold.Chemscore.Hbonds>
donor molecule, donor type, donor heavy atom, donor atom, acceptor molecule, acceptor atom, score
      L1  H    10    32       P1  7948  0.89
      L1  H    14    36       P1 10171  0.80
      P1  H  7997  8009       L1    24  0.99

> <Gold.Chemscore.Hbond.Weighted>
-9.6887

> <Gold.Chemscore.Metal.Weighted>
-0.0000

> <Gold.Chemscore.Lipo.Weighted>
-8.3114

> <Gold.Chemscore.Internal_Hbond.Weighted>
0.0000

> <Gold.Chemscore.DEClash.Weighted>
0.0533

> <Gold.Chemscore.DEInternal.Weighted>
2.3722

> <Gold.Chemscore.Rot.Weighted>
6.8976

> <Gold.Chemscore.Internal.Correction.Weighted>
   9.000000E+99

> <Gold.Protein.RotatedTorsions>
[ 6907 6896 6895 6894 ] final  -60.58 input  -60.11 | X-H torsion
[ 7974 7965 7964 7962 ] final -109.07 input  175.53 | X-H torsion
[ 8008 7997 7996 7995 ] final -141.97 input   59.86 | X-H torsion
[ 10167 10162 10161 10158 ] final  -82.80 input  -65.29 | X-H torsion
[ 10718 10713 10712 10709 ] final   33.21 input   66.30 | X-H torsion
[ 10763 10752 10751 10750 ] final  136.08 input  -60.55 | X-H torsion
[ 11005 11000 10999 10996 ] final  122.16 input  -57.11 | X-H torsion

> <Gold.Protein.ActiveResidues>
 VAL166  LYS551  ARG553  GLY616  TRP617  ASP618  TYR619  PRO620  LYS621  CYS622 
 ASP623  PHE694  ASN695  SER759  ASP760  ASP761  ALA762  ILE779  LEU786  VAL792 
 PHE793  MET794  SER795  GLU796  ALA797  LYS798  CYS799  TRP800  GLU811  SER814 

> <Gold.Protein.RotatedAtoms>
  150.7846  134.6819  159.6448 H   0  0  0  0  0  0  0  0  0  0  0  0  # atno 6907 bound_to 6896
  152.3939  134.6394  160.0106 H   0  0  0  0  0  0  0  0  0  0  0  0  # atno 6908 bound_to 6896
  151.6686  133.3278  159.3227 H   0  0  0  0  0  0  0  0  0  0  0  0  # atno 6909 bound_to 6896
  145.1851  140.8989  143.3457 H   0  0  0  0  0  0  0  0  0  0  0  0  # atno 7974 bound_to 7965
  155.4866  140.0564  157.2959 H   0  0  0  0  0  0  0  0  0  0  0  0  # atno 8008 bound_to 7997
  154.4639  140.2009  156.0121 H   0  0  0  0  0  0  0  0  0  0  0  0  # atno 8009 bound_to 7997
  156.0940  140.3229  155.7858 H   0  0  0  0  0  0  0  0  0  0  0  0  # atno 8010 bound_to 7997
  140.4286  143.2557  151.8790 H   0  0  0  0  0  0  0  0  0  0  0  0  # atno 10167 bound_to 10162
  157.2950  130.7322  149.6633 H   0  0  0  0  0  0  0  0  0  0  0  0  # atno 10718 bound_to 10713
  153.8506  135.3080  155.3432 H   0  0  0  0  0  0  0  0  0  0  0  0  # atno 10763 bound_to 10752
  154.7893  135.4792  154.0019 H   0  0  0  0  0  0  0  0  0  0  0  0  # atno 10764 bound_to 10752
  153.1521  135.6845  153.8960 H   0  0  0  0  0  0  0  0  0  0  0  0  # atno 10765 bound_to 10752
  139.9256  134.9640  156.8067 H   0  0  0  0  0  0  0  0  0  0  0  0  # atno 11005 bound_to 11000
  145.0097  139.3521  143.6126 LP  0  0  0  0  0  0  0  0  0  0  0  0  # atno 17320 bound_to 7965
  146.3446  139.9354  142.8748 LP  0  0  0  0  0  0  0  0  0  0  0  0  # atno 17321 bound_to 7965
  139.4784  144.5359  151.8599 LP  0  0  0  0  0  0  0  0  0  0  0  0  # atno 17342 bound_to 10162
  140.4452  144.1931  150.5893 LP  0  0  0  0  0  0  0  0  0  0  0  0  # atno 17343 bound_to 10162
  155.9668  130.4297  150.4845 LP  0  0  0  0  0  0  0  0  0  0  0  0  # atno 17370 bound_to 10713
  157.2815  131.0608  151.2194 LP  0  0  0  0  0  0  0  0  0  0  0  0  # atno 17371 bound_to 10713
  140.6345  133.9875  155.7678 LP  0  0  0  0  0  0  0  0  0  0  0  0  # atno 17394 bound_to 11000
  141.0811  134.0060  157.3384 LP  0  0  0  0  0  0  0  0  0  0  0  0  # atno 17395 bound_to 11000

$$$$
