AV-unprocessed.smi:1650|AV-procd|sdf|6636|dock1
  -GOLD-   22720 7343D 1   1.00000     0.00000
 Structure written by MMmdl.
 30 31  0  0  0  0  0  0  0  0  1 V2000
  149.7922  133.9975  154.6040 C   0  0  0  0  0  0  0  0  0  0  0  0
  150.4653  135.2642  155.1223 C   0  0  0  0  0  0  0  0  0  0  0  0
  151.2142  135.1993  156.0961 O   0  0  0  0  0  0  0  0  0  0  0  0
  150.1816  136.3926  154.4494 N   0  0  0  0  0  0  0  0  0  0  0  0
  150.6627  137.6983  154.7184 C   0  0  0  0  0  0  0  0  0  0  0  0
  151.8958  138.3021  154.3418 C   0  0  0  0  0  0  0  0  0  0  0  0
  151.9731  139.5457  154.7912 N   0  0  0  0  0  0  0  0  0  0  0  0
  150.8078  139.7555  155.4532 N   0  0  0  0  0  0  0  0  0  0  0  0
  150.5609  141.0388  156.0861 C   0  0  0  0  0  0  0  0  0  0  0  0
  151.6288  141.3505  157.1355 C   0  0  0  0  0  0  0  0  0  0  0  0
  152.5075  140.5243  157.3811 O   0  0  0  0  0  0  0  0  0  0  0  0
  151.5388  142.5437  157.7423 N   0  0  0  0  0  0  0  0  0  0  0  0
  152.4338  143.0387  158.7369 C   0  0  0  0  0  0  0  0  0  0  0  0
  152.0998  144.3644  159.3860 C   0  0  0  0  0  0  0  0  0  0  0  0
  153.2351  144.2788  158.4036 C   0  0  0  0  0  0  0  0  0  0  0  0
  149.9858  138.6456  155.4258 C   0  0  0  0  0  0  0  0  0  0  0  0
  148.7347  134.1751  154.4067 H   0  0  0  0  0  0  0  0  0  0  0  0
  149.8703  133.1907  155.3335 H   0  0  0  0  0  0  0  0  0  0  0  0
  150.2663  133.6692  153.6789 H   0  0  0  0  0  0  0  0  0  0  0  0
  149.5540  136.3067  153.6633 H   0  0  0  0  0  0  0  0  0  0  0  0
  152.7218  137.9002  153.7743 H   0  0  0  0  0  0  0  0  0  0  0  0
  150.5389  141.8250  155.3296 H   0  0  0  0  0  0  0  0  0  0  0  0
  149.5750  141.0138  156.5521 H   0  0  0  0  0  0  0  0  0  0  0  0
  150.7824  143.1542  157.4679 H   0  0  0  0  0  0  0  0  0  0  0  0
  152.9294  142.3067  159.3733 H   0  0  0  0  0  0  0  0  0  0  0  0
  151.1944  144.8754  159.0640 H   0  0  0  0  0  0  0  0  0  0  0  0
  152.3527  144.4843  160.4377 H   0  0  0  0  0  0  0  0  0  0  0  0
  154.2470  144.3440  158.7988 H   0  0  0  0  0  0  0  0  0  0  0  0
  153.0876  144.7324  157.4252 H   0  0  0  0  0  0  0  0  0  0  0  0
  149.0172  138.6295  155.9036 H   0  0  0  0  0  0  0  0  0  0  0  0
  1  2  1  0  0  0  0
  1 17  1  0  0  0  0
  1 18  1  0  0  0  0
  1 19  1  0  0  0  0
  2  3  2  0  0  0  0
  2  4  1  0  0  0  0
  4  5  1  0  0  0  0
  4 20  1  0  0  0  0
  5 16  2  0  0  0  0
  5  6  1  0  0  0  0
  6  7  2  0  0  0  0
  6 21  1  0  0  0  0
  7  8  1  0  0  0  0
  8  9  1  0  0  0  0
  8 16  1  0  0  0  0
  9 10  1  0  0  0  0
  9 22  1  0  0  0  0
  9 23  1  0  0  0  0
 10 11  2  0  0  0  0
 10 12  1  0  0  0  0
 12 13  1  0  0  0  0
 12 24  1  0  0  0  0
 13 15  1  0  0  0  0
 13 14  1  0  0  0  0
 13 25  1  0  0  0  0
 14 15  1  0  0  0  0
 14 26  1  0  0  0  0
 14 27  1  0  0  0  0
 15 28  1  0  0  0  0
 15 29  1  0  0  0  0
 16 30  1  0  0  0  0
M  END
> <s_m_source_file>
AV-unprocessed.smi

> <i_m_source_file_index>
1650

> <i_lp_mmshare_version>
43012

> <i_f3d_flags>
0

> <s_epik_input>
W0NIM11DKD1PKVtOSF1jMVtjSF1ubihbY0hdMSlbQ0gyXUMoPU8pW05IXVtDSF0yW0NIMl1bQ0gyXTI=

> <s_epik_cmdline>
J2VwaWtfcHl0aG9uJywgJy1waCcsICc3LjAnLCAnLXRuJywgJzgnLCAnLW1hJywgJzIwMCcsICctbWV0YWxfYmluZGluZycsICctaW1hZScsICc8aW5maWxlLm1hZT4nLCAnLW9tYWUnLCAnPG91dGZpbGUubWFlPic=

> <r_lp_tautomer_probability>
1

> <r_epik_Ionization_Penalty>
3.66567e-06

> <r_epik_Ionization_Penalty_Charging>
0

> <r_epik_Ionization_Penalty_Neutral>
3.66567e-06

> <r_epik_State_Penalty>
-0

> <r_epik_Charging_Adjusted_Penalty>
0

> <i_epik_Tot_Q>
0

> <i_epik_Tot_abs_Q>
0

> <r_epik_Metal_State_Penalty>
-0

> <b_epik_Metal_Only>
0

> <s_lp_Force_Field>
OPLS_2005

> <r_lp_Energy>
20.9282

> <b_lp_Chiralities_Consistent>
1

> <s_lp_Variant>
AV-unprocessed.smi:1650-1

> <Gold.Version>
5.8.1

> <Gold.Id.Protein>
6NUR|6NUR_protein|mol2

> <Gold.PLP.Fitness>
42.6027

> <Gold.PLP.PLP>
-32.8095

> <Gold.PLP.part.hbond>
-4.8719

> <Gold.PLP.part.metal>
0.0000

> <Gold.PLP.part.buried>
-2.9777

> <Gold.PLP.part.nonpolar>
-23.4596

> <Gold.PLP.part.repulsive>
0.1801

> <Gold.PLP.ligand.clash>
0.0000

> <Gold.PLP.ligand.torsion>
0.7660

> <Gold.PLP.Chemscore.Hbond>
3.7608

> <Gold.PLP.Chemscore.CHOScore>
0.0000

> <Gold.PLP.Chemscore.Metal>
0.0000

> <Gold.Chemscore.Hbonds>
donor molecule, donor type, donor heavy atom, donor atom, acceptor molecule, acceptor atom, score
      L1  H     4    20       P1  7948  1.00
      P1  H  7989  7998       L1     7  0.70
      P1  H  7997  8010       L1    11  0.83
      P1  H 10752 10763       L1     3  0.53

> <Gold.PLP.Chemscore.Internal.Correction>
0.0428

> <Gold.Rescore>
     Score         DG    S(hbond)    S(metal)    S(lipo)     H(rot)  DE(clash)    DE(int)     intcor
     17.51     -19.74       3.07        0.00      69.01       1.60       0.15       2.08       ----

> <Gold.Chemscore.Fitness>
17.5070

> <Gold.Chemscore.DG>
-19.7384

> <Gold.Chemscore.ZeroCoef>
-5.4800

> <Gold.Chemscore.Hbond>
3.0748

> <Gold.Chemscore.Metal>
0.0000

> <Gold.Chemscore.Lipo>
69.0098

> <Gold.Chemscore.Internal_Hbond>
0.0000

> <Gold.Chemscore.DEClash>
0.1521

> <Gold.Chemscore.DEInternal>
2.0793

> <Gold.Chemscore.Rot>
1.5960

> <Gold.Chemscore.Internal.Correction>
   9.000000E+99

> <Gold.Chemscore.Hbonds>
donor molecule, donor type, donor heavy atom, donor atom, acceptor molecule, acceptor atom, score
      L1  H     4    20       P1  7948  0.60
      P1  H  7989  7998       L1     7  0.08
      P1  H  7997  8010       L1    11  0.77
      P1  H 10752 10763       L1     3  0.10

> <Gold.Chemscore.Hbond.Weighted>
-10.2700

> <Gold.Chemscore.Metal.Weighted>
-0.0000

> <Gold.Chemscore.Lipo.Weighted>
-8.0741

> <Gold.Chemscore.Internal_Hbond.Weighted>
0.0000

> <Gold.Chemscore.DEClash.Weighted>
0.1521

> <Gold.Chemscore.DEInternal.Weighted>
2.0793

> <Gold.Chemscore.Rot.Weighted>
4.0857

> <Gold.Chemscore.Internal.Correction.Weighted>
   9.000000E+99

> <Gold.Protein.RotatedTorsions>
[ 6907 6896 6895 6894 ] final -111.33 input  -60.11 | X-H torsion
[ 7974 7965 7964 7962 ] final  -26.02 input  175.53 | X-H torsion
[ 8008 7997 7996 7995 ] final   57.02 input   59.86 | X-H torsion
[ 10167 10162 10161 10158 ] final -129.53 input  -65.29 | X-H torsion
[ 10718 10713 10712 10709 ] final -121.17 input   66.30 | X-H torsion
[ 10763 10752 10751 10750 ] final   88.87 input  -60.55 | X-H torsion
[ 11005 11000 10999 10996 ] final   91.71 input  -57.11 | X-H torsion

> <Gold.Protein.ActiveResidues>
 VAL166  LYS551  ARG553  GLY616  TRP617  ASP618  TYR619  PRO620  LYS621  CYS622 
 ASP623  PHE694  ASN695  SER759  ASP760  ASP761  ALA762  ILE779  LEU786  VAL792 
 PHE793  MET794  SER795  GLU796  ALA797  LYS798  CYS799  TRP800  GLU811  SER814 

> <Gold.Protein.RotatedAtoms>
  150.7683  133.9251  159.3409 H   0  0  0  0  0  0  0  0  0  0  0  0  # atno 6907 bound_to 6896
  151.7144  135.0904  160.0283 H   0  0  0  0  0  0  0  0  0  0  0  0  # atno 6908 bound_to 6896
  152.3689  133.6355  159.6107 H   0  0  0  0  0  0  0  0  0  0  0  0  # atno 6909 bound_to 6896
  146.1453  140.4964  142.8634 H   0  0  0  0  0  0  0  0  0  0  0  0  # atno 7974 bound_to 7965
  155.5269  140.3481  155.4418 H   0  0  0  0  0  0  0  0  0  0  0  0  # atno 8008 bound_to 7997
  156.0745  140.1371  156.9815 H   0  0  0  0  0  0  0  0  0  0  0  0  # atno 8009 bound_to 7997
  154.4546  140.0959  156.6694 H   0  0  0  0  0  0  0  0  0  0  0  0  # atno 8010 bound_to 7997
  139.9388  143.6187  152.2509 H   0  0  0  0  0  0  0  0  0  0  0  0  # atno 10167 bound_to 10162
  156.1315  130.6399  150.9629 H   0  0  0  0  0  0  0  0  0  0  0  0  # atno 10718 bound_to 10713
  153.1812  135.4491  155.0031 H   0  0  0  0  0  0  0  0  0  0  0  0  # atno 10763 bound_to 10752
  154.8031  135.3263  154.7502 H   0  0  0  0  0  0  0  0  0  0  0  0  # atno 10764 bound_to 10752
  153.7966  135.6966  153.4917 H   0  0  0  0  0  0  0  0  0  0  0  0  # atno 10765 bound_to 10752
  139.8834  134.8690  156.3467 H   0  0  0  0  0  0  0  0  0  0  0  0  # atno 11005 bound_to 11000
  144.7839  140.5897  143.6587 LP  0  0  0  0  0  0  0  0  0  0  0  0  # atno 17320 bound_to 7965
  145.4952  139.1486  143.3688 LP  0  0  0  0  0  0  0  0  0  0  0  0  # atno 17321 bound_to 7965
  139.6721  144.7660  151.1763 LP  0  0  0  0  0  0  0  0  0  0  0  0  # atno 17342 bound_to 10162
  140.7617  143.5849  150.8856 LP  0  0  0  0  0  0  0  0  0  0  0  0  # atno 17343 bound_to 10162
  157.6493  131.0899  150.8086 LP  0  0  0  0  0  0  0  0  0  0  0  0  # atno 17370 bound_to 10713
  156.8170  130.4971  149.5348 LP  0  0  0  0  0  0  0  0  0  0  0  0  # atno 17371 bound_to 10713
  140.9622  133.7381  156.0417 LP  0  0  0  0  0  0  0  0  0  0  0  0  # atno 17394 bound_to 11000
  140.7975  134.3546  157.5448 LP  0  0  0  0  0  0  0  0  0  0  0  0  # atno 17395 bound_to 11000

$$$$
