#       Name:                AV-unprocessed.smi:2927
#       Creating user name   scv26
#       Creation time:       Fri Mar 27 16:12:29 2020


#       File generated by GOLD software.
#

@<TRIPOS>MOLECULE
AV-unprocessed.smi:2927
    60    61     1
SMALL
NO_CHARGES


@<TRIPOS>ATOM
      1 ****        -4.1339   1.7591   0.0471 C.3            1 S1                 0.0000
      2 ****        -2.6115   1.7925   0.0353 C.2            1 S1                 0.0000
      3 ****        -1.9768   2.9804   0.0446 C.2            1 S1                 0.0000
      4 ****        -0.5221   3.1033   0.0426 C.2            1 S1                 0.0000
      5 ****         0.0230   4.2082   0.0529 O.2            1 S1                 0.0000
      6 ****         0.1869   1.9312   0.0420 N.am           1 S1                 0.0000
      7 ****         1.6647   2.0273   0.1384 C.3            1 S1                 0.0000
      8 ****         2.3570   2.2361  -1.2182 C.2            1 S1                 0.0000
      9 ****         1.7589   2.0194  -2.2731 O.2            1 S1                 0.0000
     10 ****         3.6337   2.6463  -1.1682 N.am           1 S1                 0.0000
     11 ****         4.4846   2.9068  -2.3259 C.3            1 S1                 0.0000
     12 ****         5.1216   1.6018  -2.8290 C.3            1 S1                 0.0000
     13 ****         5.5458   3.9507  -1.9542 C.3            1 S1                 0.0000
     14 ****        -0.4525   0.6555  -0.0213 C.2            1 S1                 0.0000
     15 ****         0.4663  -0.5710  -0.1445 C.3            1 S1                 0.0000
     16 ****        -1.8092   0.5758   0.0029 C.2            1 S1                 0.0000
     17 ****        -2.4931  -0.7146  -0.0717 C.2            1 S1                 0.0000
     18 ****        -2.9333  -1.1685  -1.1286 O.2            1 S1                 0.0000
     19 ****        -2.5858  -1.3868   1.1065 N.am           1 S1                 0.0000
     20 ****        -2.1931  -0.8195   2.4056 C.3            1 S1                 0.0000
     21 ****        -3.1356  -2.7503   1.1508 C.3            1 S1                 0.0000
     22 ****        -2.1211  -3.7850   0.6518 C.3            1 S1                 0.0000
     23 ****        -2.4495  -5.2758   0.8265 C.3            1 S1                 0.0000
     24 ****        -1.5274  -5.2958   2.0474 C.3            1 S1                 0.0000
     25 ****        -0.8495  -4.0495   1.4755 C.3            1 S1                 0.0000
     26 ****        -4.5597   2.7609   0.1131 H              1 S1                 0.0000
     27 ****        -4.4980   1.1871   0.9010 H              1 S1                 0.0000
     28 ****        -4.5116   1.2968  -0.8653 H              1 S1                 0.0000
     29 ****        -2.5588   3.8905   0.0615 H              1 S1                 0.0000
     30 ****         1.9481   2.8513   0.7962 H              1 S1                 0.0000
     31 ****         2.1038   1.1644   0.6369 H              1 S1                 0.0000
     32 ****         4.0461   2.7969  -0.2589 H              1 S1                 0.0000
     33 ****         3.8750   3.3268  -3.1280 H              1 S1                 0.0000
     34 ****         5.7555   1.7851  -3.6969 H              1 S1                 0.0000
     35 ****         4.3611   0.8792  -3.1268 H              1 S1                 0.0000
     36 ****         5.7386   1.1377  -2.0589 H              1 S1                 0.0000
     37 ****         6.1743   4.1920  -2.8118 H              1 S1                 0.0000
     38 ****         6.1960   3.5909  -1.1559 H              1 S1                 0.0000
     39 ****         5.0826   4.8781  -1.6154 H              1 S1                 0.0000
     40 ****        -0.0302  -1.4266  -0.6005 H              1 S1                 0.0000
     41 ****         0.8160  -0.8814   0.8403 H              1 S1                 0.0000
     42 ****         1.3303  -0.3863  -0.7804 H              1 S1                 0.0000
     43 ****        -1.1180  -0.6441   2.4436 H              1 S1                 0.0000
     44 ****        -2.4328  -1.4722   3.2448 H              1 S1                 0.0000
     45 ****        -2.7018   0.1283   2.5857 H              1 S1                 0.0000
     46 ****        -3.4673  -3.0065   2.1573 H              1 S1                 0.0000
     47 ****        -4.0441  -2.7977   0.5482 H              1 S1                 0.0000
     48 ****        -1.8492  -3.5967  -0.3879 H              1 S1                 0.0000
     49 ****        -3.4954  -5.4929   1.0457 H              1 S1                 0.0000
     50 ****        -2.0755  -5.8900   0.0055 H              1 S1                 0.0000
     51 ****        -2.0565  -5.0991   2.9812 H              1 S1                 0.0000
     52 ****        -0.8844  -6.1733   2.1207 H              1 S1                 0.0000
     53 ****         0.0143  -4.2877   0.8525 H              1 S1                 0.0000
     54 ****        -0.6089  -3.2868   2.2165 H              1 S1                 0.0000
     55 ****        -0.5324   5.0397   0.0628 LP             1 S1                 0.0000
     56 ****         1.0209   4.2734   0.0513 LP             1 S1                 0.0000
     57 ****         0.8104   1.7033  -2.2542 LP             1 S1                 0.0000
     58 ****         2.2220   2.1595  -3.1483 LP             1 S1                 0.0000
     59 ****        -2.8288  -0.6502  -1.9774 LP             1 S1                 0.0000
     60 ****        -3.3952  -2.0554  -1.1380 LP             1 S1                 0.0000
@<TRIPOS>BOND
    1    1    2 1     
    2    1   26 1     
    3    1   27 1     
    4    1   28 1     
    5    2   16 1     
    6    2    3 2     
    7    3    4 1     
    8    3   29 1     
    9    4    5 2     
   10    4    6 am    
   11    6    7 1     
   12    6   14 1     
   13    7    8 1     
   14    7   30 1     
   15    7   31 1     
   16    8    9 2     
   17    8   10 am    
   18   10   11 1     
   19   10   32 1     
   20   11   12 1     
   21   11   13 1     
   22   11   33 1     
   23   12   34 1     
   24   12   35 1     
   25   12   36 1     
   26   13   37 1     
   27   13   38 1     
   28   13   39 1     
   29   14   15 1     
   30   14   16 2     
   31   15   40 1     
   32   15   41 1     
   33   15   42 1     
   34   16   17 1     
   35   17   18 2     
   36   17   19 am    
   37   19   20 1     
   38   19   21 1     
   39   20   43 1     
   40   20   44 1     
   41   20   45 1     
   42   21   22 1     
   43   21   46 1     
   44   21   47 1     
   45   22   25 1     
   46   22   23 1     
   47   22   48 1     
   48   23   24 1     
   49   23   49 1     
   50   23   50 1     
   51   24   25 1     
   52   24   51 1     
   53   24   52 1     
   54   25   53 1     
   55   25   54 1     
   56    5   55 1     
   57    5   56 1     
   58    9   57 1     
   59    9   58 1     
   60   18   59 1     
   61   18   60 1     
@<TRIPOS>SUBSTRUCTURE
      1 S1             1
@<TRIPOS>SET
LONE_PAIRS      STATIC     ATOMS    <user>   **** ""
6 55 56 57 58 59 60
DONOR_HYDROGENS      STATIC     ATOMS    <user>   **** ""
1 32
ATOM$BLUE        STATIC     ATOMS    COLORGROUP SYSTEM
6 55 56 57 58 59 60
ATOM$RED        STATIC     ATOMS    COLORGROUP SYSTEM
1 32
