#       Name:                AV-unprocessed.smi:2997
#       Creating user name   scv26
#       Creation time:       Fri Mar 27 16:33:44 2020


#       File generated by GOLD software.
#

@<TRIPOS>MOLECULE
AV-unprocessed.smi:2997
    42    44     1
SMALL
NO_CHARGES


@<TRIPOS>ATOM
      1 ****        -2.4642   3.7913   2.6511 C.3            1 S1                 0.0000
      2 ****        -2.1270   2.7244   1.6233 C.ar           1 S1                 0.0000
      3 ****        -2.3543   3.0079   0.2575 C.ar           1 S1                 0.0000
      4 ****        -2.0387   2.0110  -0.6582 C.ar           1 S1                 0.0000
      5 ****        -2.1444   1.9795  -2.0505 N.pl3          1 S1                 1.0000
      6 ****        -1.7073   0.7750  -2.5122 C.2            1 S1                 0.0000
      7 ****        -1.3258   0.0374  -1.4344 N.pl3          1 S1                 0.0000
      8 ****        -0.7757  -1.3229  -1.3689 C.3            1 S1                 0.0000
      9 ****         0.7619  -1.3403  -1.2749 C.3            1 S1                 0.0000
     10 ****         1.3098  -0.6776  -2.3995 O.3            1 S1                 0.0000
     11 ****         1.3161  -2.7748  -1.1889 C.3            1 S1                 0.0000
     12 ****         2.7592  -2.8035  -1.0273 N.pl3          1 S1                 0.0000
     13 ****         3.4929  -2.6492   0.1301 C.2            1 S1                 0.0000
     14 ****         4.8121  -2.7446  -0.2090 C.2            1 S1                 0.0000
     15 ****         4.7847  -2.9628  -1.6148 C.2            1 S1                 0.0000
     16 ****         3.5547  -2.9965  -2.1017 N.2            1 S1                 0.0000
     17 ****        -1.5130   0.7677  -0.2569 C.ar           1 S1                 0.0000
     18 ****        -1.2796   0.4726   1.0838 C.ar           1 S1                 0.0000
     19 ****        -1.5957   1.4731   2.0309 C.ar           1 S1                 0.0000
     20 ****        -1.3560   1.1792   3.5021 C.3            1 S1                 0.0000
     21 ****        -2.8805   4.6823   2.1802 H              1 S1                 0.0000
     22 ****        -1.5706   4.0910   3.1992 H              1 S1                 0.0000
     23 ****        -3.1996   3.4179   3.3639 H              1 S1                 0.0000
     24 ****        -2.7568   3.9586  -0.0601 H              1 S1                 0.0000
     25 ****        -1.6652   0.4626  -3.5457 H              1 S1                 0.0000
     26 ****        -1.2269  -1.8389  -0.5204 H              1 S1                 0.0000
     27 ****        -1.1059  -1.8528  -2.2635 H              1 S1                 0.0000
     28 ****         1.0714  -0.7900  -0.3855 H              1 S1                 0.0000
     29 ****         2.2521  -0.7443  -2.3565 H              1 S1                 0.0000
     30 ****         0.8730  -3.2964  -0.3398 H              1 S1                 0.0000
     31 ****         1.0452  -3.3447  -2.0795 H              1 S1                 0.0000
     32 ****         3.0203  -2.4845   1.0871 H              1 S1                 0.0000
     33 ****         5.6669  -2.6707   0.4469 H              1 S1                 0.0000
     34 ****         5.6160  -3.0960  -2.2913 H              1 S1                 0.0000
     35 ****        -0.8751  -0.4798   1.3926 H              1 S1                 0.0000
     36 ****        -0.9193   0.1905   3.6457 H              1 S1                 0.0000
     37 ****        -2.2945   1.2129   4.0557 H              1 S1                 0.0000
     38 ****        -0.6720   1.9104   3.9332 H              1 S1                 0.0000
     39 ****        -2.4868   2.7239  -2.6445 H              1 S1                 0.0000
     40 ****         1.0387   0.2849  -2.3892 LP             1 S1                 0.0000
     41 ****         0.9789  -1.1081  -3.2392 LP             1 S1                 0.0000
     42 ****         3.2764  -3.1340  -3.0523 LP             1 S1                 0.0000
@<TRIPOS>BOND
    1    1    2 1     
    2    1   21 1     
    3    1   22 1     
    4    1   23 1     
    5    2   19 ar    
    6    2    3 ar    
    7    3    4 ar    
    8    3   24 1     
    9    4   17 ar    
   10    4    5 1     
   11    5    6 2     
   12    5   39 1     
   13    6    7 1     
   14    6   25 1     
   15    7    8 1     
   16    7   17 1     
   17    8    9 1     
   18    8   26 1     
   19    8   27 1     
   20    9   10 1     
   21    9   11 1     
   22    9   28 1     
   23   10   29 1     
   24   11   12 1     
   25   11   30 1     
   26   11   31 1     
   27   12   16 1     
   28   12   13 1     
   29   13   14 2     
   30   13   32 1     
   31   14   15 1     
   32   14   33 1     
   33   15   16 2     
   34   15   34 1     
   35   17   18 ar    
   36   18   19 ar    
   37   18   35 1     
   38   19   20 1     
   39   20   36 1     
   40   20   37 1     
   41   20   38 1     
   42   10   40 1     
   43   10   41 1     
   44   16   42 1     
@<TRIPOS>SUBSTRUCTURE
      1 S1             1
@<TRIPOS>SET
LONE_PAIRS      STATIC     ATOMS    <user>   **** ""
3 40 41 42
DONOR_HYDROGENS      STATIC     ATOMS    <user>   **** ""
2 39 29
ATOM$BLUE        STATIC     ATOMS    COLORGROUP SYSTEM
3 40 41 42
ATOM$RED        STATIC     ATOMS    COLORGROUP SYSTEM
2 39 29
