#       Name:                AV-unprocessed.smi:1607
#       Creating user name   scv26
#       Creation time:       Fri Mar 27 07:12:13 2020


#       File generated by GOLD software.
#

@<TRIPOS>MOLECULE
AV-unprocessed.smi:1607
    44    45     1
SMALL
NO_CHARGES


@<TRIPOS>ATOM
      1 ****        -0.6779   3.7394  -1.2537 C.3            1 S1                 0.0000
      2 ****        -1.2708   2.5667  -2.0547 C.3            1 S1                 0.0000
      3 ****        -2.8094   2.6003  -2.1133 C.3            1 S1                 0.0000
      4 ****        -3.4276   2.1830  -0.7714 C.3            1 S1                 0.0000
      5 ****        -2.8750   0.8264  -0.3063 C.3            1 S1                 0.0000
      6 ****        -1.3918   0.8531  -0.2245 N.4            1 S1                 1.0000
      7 ****        -0.8360  -0.3896   0.3673 C.3            1 S1                 0.0000
      8 ****         0.5466  -0.1621   1.0092 C.3            1 S1                 0.0000
      9 ****         1.0690  -1.3847   1.6082 N.am           1 S1                 0.0000
     10 ****         1.6271  -2.3949   0.9229 C.2            1 S1                 0.0000
     11 ****         1.7400  -2.3957  -0.3030 O.2            1 S1                 0.0000
     12 ****         2.1365  -3.5822   1.7431 C.3            1 S1                 0.0000
     13 ****         3.5559  -3.7975   1.5297 N.pl3          1 S1                 0.0000
     14 ****         4.6224  -3.1470   2.0000 C.2            1 S1                 0.0000
     15 ****         5.7524  -3.6719   1.5516 N.2            1 S1                 0.0000
     16 ****         5.3188  -4.7172   0.7534 N.2            1 S1                 0.0000
     17 ****         4.0165  -4.7971   0.7370 N.2            1 S1                 0.0000
     18 ****        -0.7792   1.1994  -1.5363 C.3            1 S1                 0.0000
     19 ****        -0.9652   3.7034  -0.2031 H              1 S1                 0.0000
     20 ****        -1.0112   4.6964  -1.6560 H              1 S1                 0.0000
     21 ****         0.4116   3.7296  -1.2965 H              1 S1                 0.0000
     22 ****        -0.9055   2.6789  -3.0764 H              1 S1                 0.0000
     23 ****        -3.1610   3.5914  -2.4020 H              1 S1                 0.0000
     24 ****        -3.1537   1.9168  -2.8908 H              1 S1                 0.0000
     25 ****        -3.2249   2.9420  -0.0152 H              1 S1                 0.0000
     26 ****        -4.5127   2.1293  -0.8654 H              1 S1                 0.0000
     27 ****        -3.2962   0.5889   0.6715 H              1 S1                 0.0000
     28 ****        -3.1897   0.0349  -0.9885 H              1 S1                 0.0000
     29 ****        -1.5096  -0.7544   1.1442 H              1 S1                 0.0000
     30 ****        -0.7964  -1.1699  -0.3944 H              1 S1                 0.0000
     31 ****         1.2689   0.2160   0.2852 H              1 S1                 0.0000
     32 ****         0.4713   0.5929   1.7922 H              1 S1                 0.0000
     33 ****         1.0150  -1.4635   2.6138 H              1 S1                 0.0000
     34 ****         1.9669  -3.4208   2.8087 H              1 S1                 0.0000
     35 ****         1.5860  -4.4811   1.4614 H              1 S1                 0.0000
     36 ****         4.5709  -2.2952   2.6620 H              1 S1                 0.0000
     37 ****        -1.0283   0.4213  -2.2598 H              1 S1                 0.0000
     38 ****         0.3076   1.2130  -1.4629 H              1 S1                 0.0000
     39 ****        -1.1616   1.6006   0.4146 H              1 S1                 0.0000
     40 ****         1.4076  -1.6177  -0.8363 LP             1 S1                 0.0000
     41 ****         2.1641  -3.1742  -0.7656 LP             1 S1                 0.0000
     42 ****         6.6907  -3.3836   1.7428 LP             1 S1                 0.0000
     43 ****         5.9271  -5.3331   0.2527 LP             1 S1                 0.0000
     44 ****         3.4653  -5.4652   0.2372 LP             1 S1                 0.0000
@<TRIPOS>BOND
    1    1    2 1     
    2    1   19 1     
    3    1   20 1     
    4    1   21 1     
    5    2   18 1     
    6    2    3 1     
    7    2   22 1     
    8    3    4 1     
    9    3   23 1     
   10    3   24 1     
   11    4    5 1     
   12    4   25 1     
   13    4   26 1     
   14    5    6 1     
   15    5   27 1     
   16    5   28 1     
   17    6    7 1     
   18    6   18 1     
   19    6   39 1     
   20    7    8 1     
   21    7   29 1     
   22    7   30 1     
   23    8    9 1     
   24    8   31 1     
   25    8   32 1     
   26    9   10 am    
   27    9   33 1     
   28   10   11 2     
   29   10   12 1     
   30   12   13 1     
   31   12   34 1     
   32   12   35 1     
   33   13   17 1     
   34   13   14 1     
   35   14   15 2     
   36   14   36 1     
   37   15   16 1     
   38   16   17 2     
   39   18   37 1     
   40   18   38 1     
   41   11   40 1     
   42   11   41 1     
   43   15   42 1     
   44   16   43 1     
   45   17   44 1     
@<TRIPOS>SUBSTRUCTURE
      1 S1             1
@<TRIPOS>SET
LONE_PAIRS      STATIC     ATOMS    <user>   **** ""
5 40 41 42 43 44
DONOR_HYDROGENS      STATIC     ATOMS    <user>   **** ""
2 39 33
ATOM$BLUE        STATIC     ATOMS    COLORGROUP SYSTEM
5 40 41 42 43 44
ATOM$RED        STATIC     ATOMS    COLORGROUP SYSTEM
2 39 33
