AV-unprocessed.smi:45|AV-procd|sdf|407|dock9
  -GOLD-   2262016263D 1   1.00000     0.00000
 Structure written by MMmdl.
 60 63  0  0  0  0  0  0  0  0  1 V2000
  150.8867  142.6220  157.1069 C   0  0  0  0  0  0  0  0  0  0  0  0
  151.1560  141.4113  156.4153 O   0  0  0  0  0  0  0  0  0  0  0  0
  150.1692  140.8909  155.6037 C   0  0  0  0  0  0  0  0  0  0  0  0
  148.9074  141.5065  155.4063 C   0  0  0  0  0  0  0  0  0  0  0  0
  147.9429  140.9127  154.5714 C   0  0  0  0  0  0  0  0  0  0  0  0
  148.2239  139.6980  153.9166 C   0  0  0  0  0  0  0  0  0  0  0  0
  147.1618  139.0320  153.0583 C   0  0  0  0  0  0  0  0  0  0  0  0
  145.9256  138.7447  153.7757 N   0  0  0  0  0  0  0  0  0  0  0  0
  145.6715  137.3871  154.0287 C   0  0  0  0  0  0  0  0  0  0  0  0
  145.6568  136.5567  152.9598 N   0  0  0  0  0  0  0  0  0  0  0  0
  145.4698  135.2504  153.1752 C   0  0  0  0  0  0  0  0  0  0  0  0
  145.4845  134.4214  152.0542 N   0  0  0  0  0  0  0  0  0  0  0  0
  144.7868  134.7841  150.8258 C   0  0  0  0  0  0  0  0  0  0  0  0
  144.3828  133.4663  150.1677 C   0  0  0  0  0  0  0  0  0  0  0  0
  145.4621  132.5031  150.6437 C   0  0  0  0  0  0  0  0  0  0  0  0
  145.7715  132.9861  152.0685 C   0  0  1  0  0  0  0  0  0  0  0  0
  147.2158  132.6573  152.5020 C   0  0  0  0  0  0  0  0  0  0  0  0
  147.4281  131.2621  152.4623 O   0  0  0  0  0  0  0  0  0  0  0  0
  145.2733  134.6838  154.3697 N   0  0  0  0  0  0  0  0  0  0  0  0
  145.2827  135.4928  155.4494 C   0  0  0  0  0  0  0  0  0  0  0  0
  145.4974  136.8862  155.3468 C   0  0  0  0  0  0  0  0  0  0  0  0
  145.5382  137.7561  156.5743 C   0  0  0  0  0  0  0  0  0  0  0  0
  145.3739  138.9743  156.5030 O   0  0  0  0  0  0  0  0  0  0  0  0
  145.8221  137.1125  157.7178 N   0  0  0  0  0  0  0  0  0  0  0  0
  146.0180  137.7529  159.0125 C   0  0  0  0  0  0  0  0  0  0  0  0
  146.5090  136.7769  160.0670 C   0  0  0  0  0  0  0  0  0  0  0  0
  146.6259  135.4984  159.6924 N   0  0  0  0  0  0  0  0  0  0  0  0
  147.0502  134.6236  160.6298 C   0  0  0  0  0  0  0  0  0  0  0  0
  147.3659  135.0357  161.9401 C   0  0  0  0  0  0  0  0  0  0  0  0
  147.2117  136.4093  162.2159 C   0  0  0  0  0  0  0  0  0  0  0  0
  146.7815  137.2787  161.2762 N   0  0  0  0  0  0  0  0  0  0  0  0
  149.4778  139.0833  154.0998 C   0  0  0  0  0  0  0  0  0  0  0  0
  150.4420  139.6738  154.9393 C   0  0  0  0  0  0  0  0  0  0  0  0
  151.9617  138.8831  155.1586 Cl  0  0  0  0  0  0  0  0  0  0  0  0
  145.0669  132.5215  152.7600 H   0  0  0  0  0  0  0  0  0  0  0  0
  151.7537  142.8915  157.7100 H   0  0  0  0  0  0  0  0  0  0  0  0
  150.0368  142.5138  157.7821 H   0  0  0  0  0  0  0  0  0  0  0  0
  150.6979  143.4448  156.4160 H   0  0  0  0  0  0  0  0  0  0  0  0
  148.6516  142.4354  155.8896 H   0  0  0  0  0  0  0  0  0  0  0  0
  146.9804  141.3868  154.4449 H   0  0  0  0  0  0  0  0  0  0  0  0
  146.9268  139.6928  152.2238 H   0  0  0  0  0  0  0  0  0  0  0  0
  147.5542  138.1129  152.6211 H   0  0  0  0  0  0  0  0  0  0  0  0
  145.7780  139.3421  154.5772 H   0  0  0  0  0  0  0  0  0  0  0  0
  143.9134  135.4091  151.0168 H   0  0  0  0  0  0  0  0  0  0  0  0
  145.4714  135.3425  150.1863 H   0  0  0  0  0  0  0  0  0  0  0  0
  143.4112  133.1458  150.5458 H   0  0  0  0  0  0  0  0  0  0  0  0
  144.3185  133.5359  149.0816 H   0  0  0  0  0  0  0  0  0  0  0  0
  145.1454  131.4602  150.6108 H   0  0  0  0  0  0  0  0  0  0  0  0
  146.3416  132.6061  150.0062 H   0  0  0  0  0  0  0  0  0  0  0  0
  147.9398  133.1509  151.8530 H   0  0  0  0  0  0  0  0  0  0  0  0
  147.4194  132.9946  153.5172 H   0  0  0  0  0  0  0  0  0  0  0  0
  147.8195  131.0417  151.6308 H   0  0  0  0  0  0  0  0  0  0  0  0
  145.1291  135.0129  156.4050 H   0  0  0  0  0  0  0  0  0  0  0  0
  145.9642  136.1136  157.6823 H   0  0  0  0  0  0  0  0  0  0  0  0
  146.7099  138.5934  158.9312 H   0  0  0  0  0  0  0  0  0  0  0  0
  145.0651  138.1786  159.3293 H   0  0  0  0  0  0  0  0  0  0  0  0
  147.1450  133.5901  160.3312 H   0  0  0  0  0  0  0  0  0  0  0  0
  147.7099  134.3388  162.6897 H   0  0  0  0  0  0  0  0  0  0  0  0
  147.4346  136.8115  163.1931 H   0  0  0  0  0  0  0  0  0  0  0  0
  149.6962  138.1451  153.6108 H   0  0  0  0  0  0  0  0  0  0  0  0
  1  2  1  0  0  0  0
  1 36  1  0  0  0  0
  1 37  1  0  0  0  0
  1 38  1  0  0  0  0
  2  3  1  0  0  0  0
  3 33  1  0  0  0  0
  3  4  2  0  0  0  0
  4  5  1  0  0  0  0
  4 39  1  0  0  0  0
  5  6  2  0  0  0  0
  5 40  1  0  0  0  0
  6  7  1  0  0  0  0
  6 32  1  0  0  0  0
  7  8  1  0  0  0  0
  7 41  1  0  0  0  0
  7 42  1  0  0  0  0
  8  9  1  0  0  0  0
  8 43  1  0  0  0  0
  9 21  1  0  0  0  0
  9 10  2  0  0  0  0
 10 11  1  0  0  0  0
 11 12  1  0  0  0  0
 11 19  2  0  0  0  0
 12 16  1  0  0  0  0
 12 13  1  0  0  0  0
 13 14  1  0  0  0  0
 13 44  1  0  0  0  0
 13 45  1  0  0  0  0
 14 15  1  0  0  0  0
 14 46  1  0  0  0  0
 14 47  1  0  0  0  0
 15 16  1  0  0  0  0
 15 48  1  0  0  0  0
 15 49  1  0  0  0  0
 16 35  1  0  0  0  0
 16 17  1  0  0  0  0
 17 18  1  0  0  0  0
 17 50  1  0  0  0  0
 17 51  1  0  0  0  0
 18 52  1  0  0  0  0
 19 20  1  0  0  0  0
 20 21  2  0  0  0  0
 20 53  1  0  0  0  0
 21 22  1  0  0  0  0
 22 23  2  0  0  0  0
 22 24  1  0  0  0  0
 24 25  1  0  0  0  0
 24 54  1  0  0  0  0
 25 26  1  0  0  0  0
 25 55  1  0  0  0  0
 25 56  1  0  0  0  0
 26 31  1  0  0  0  0
 26 27  2  0  0  0  0
 27 28  1  0  0  0  0
 28 29  2  0  0  0  0
 28 57  1  0  0  0  0
 29 30  1  0  0  0  0
 29 58  1  0  0  0  0
 30 31  2  0  0  0  0
 30 59  1  0  0  0  0
 32 33  2  0  0  0  0
 32 60  1  0  0  0  0
 33 34  1  0  0  0  0
M  END
> <s_m_source_file>
AV-unprocessed.smi

> <i_m_source_file_index>
45

> <i_lp_mmshare_version>
43012

> <i_f3d_flags>
0

> <s_epik_input>
W0NIM11PYzFbY0hdW2NIXWMoW2NIXWMxQ2wpW0NIMl1bTkhdYzJuYyhOM1tDSDJdW0NIMl1bQ0gyXVtDQEhdM1tDSDJdW09IXSluW2NIXWMyQyg9TylbTkhdW0NIMl1jNG5bY0hdW2NIXVtjSF1uNA==

> <s_epik_cmdline>
J2VwaWtfcHl0aG9uJywgJy1waCcsICc3LjAnLCAnLXRuJywgJzgnLCAnLW1hJywgJzIwMCcsICctbWV0YWxfYmluZGluZycsICctaW1hZScsICc8aW5maWxlLm1hZT4nLCAnLW9tYWUnLCAnPG91dGZpbGUubWFlPic=

> <r_lp_tautomer_probability>
1

> <r_epik_Ionization_Penalty>
0.0522664

> <r_epik_Ionization_Penalty_Charging>
0

> <r_epik_Ionization_Penalty_Neutral>
0.0522664

> <r_epik_State_Penalty>
0.0369431

> <r_epik_Charging_Adjusted_Penalty>
0.0369431

> <i_epik_Tot_Q>
0

> <i_epik_Tot_abs_Q>
0

> <r_epik_Metal_State_Penalty>
0.0404664

> <b_epik_Metal_Only>
0

> <s_epik_Chemistry_Notes>
This compound contains an electron-poor aromatic ring that is susceptible to covalent hydrolysis at low pH, typically resulting in measured values for nitrogen ring protonation that are around two units higher than predicted values.

> <s_lp_Force_Field>
OPLS_2005

> <r_lp_Energy>
30.7934

> <b_lp_Chiralities_Consistent>
1

> <s_lp_Variant>
AV-unprocessed.smi:45-1

> <Gold.Version>
5.8.1

> <Gold.Id.Protein>
6NUR|6NUR_protein|mol2

> <Gold.PLP.Fitness>
51.9941

> <Gold.PLP.PLP>
-47.7827

> <Gold.PLP.part.hbond>
-2.7889

> <Gold.PLP.part.metal>
0.0000

> <Gold.PLP.part.buried>
-3.1803

> <Gold.PLP.part.nonpolar>
-41.7041

> <Gold.PLP.part.repulsive>
0.2990

> <Gold.PLP.ligand.clash>
0.0000

> <Gold.PLP.ligand.torsion>
1.0655

> <Gold.PLP.Chemscore.Hbond>
2.0000

> <Gold.PLP.Chemscore.CHOScore>
0.0000

> <Gold.PLP.Chemscore.Metal>
0.0000

> <Gold.Chemscore.Hbonds>
donor molecule, donor type, donor heavy atom, donor atom, acceptor molecule, acceptor atom, score
      L1  H    18    52       P1 10747  1.00
      P1  H  6934  6947       L1    31  1.00

> <Gold.PLP.Chemscore.Internal.Correction>
0.3426

> <Gold.Rescore>
     Score         DG    S(hbond)    S(metal)    S(lipo)     H(rot)  DE(clash)    DE(int)     intcor
     14.21     -16.92       1.65        0.00     119.84       3.16       0.05       2.66       ----

> <Gold.Chemscore.Fitness>
14.2121

> <Gold.Chemscore.DG>
-16.9225

> <Gold.Chemscore.ZeroCoef>
-5.4800

> <Gold.Chemscore.Hbond>
1.6479

> <Gold.Chemscore.Metal>
0.0000

> <Gold.Chemscore.Lipo>
119.8361

> <Gold.Chemscore.Internal_Hbond>
0.0000

> <Gold.Chemscore.DEClash>
0.0457

> <Gold.Chemscore.DEInternal>
2.6646

> <Gold.Chemscore.Rot>
3.1571

> <Gold.Chemscore.Internal.Correction>
   9.000000E+99

> <Gold.Chemscore.Hbonds>
donor molecule, donor type, donor heavy atom, donor atom, acceptor molecule, acceptor atom, score
      L1  H    18    52       P1 10747  1.00
      P1  H  6934  6947       L1    31  0.45

> <Gold.Chemscore.Hbond.Weighted>
-5.5039

> <Gold.Chemscore.Metal.Weighted>
-0.0000

> <Gold.Chemscore.Lipo.Weighted>
-14.0208

> <Gold.Chemscore.Internal_Hbond.Weighted>
0.0000

> <Gold.Chemscore.DEClash.Weighted>
0.0457

> <Gold.Chemscore.DEInternal.Weighted>
2.6646

> <Gold.Chemscore.Rot.Weighted>
8.0822

> <Gold.Chemscore.Internal.Correction.Weighted>
   9.000000E+99

> <Gold.Protein.RotatedTorsions>
[ 6907 6896 6895 6894 ] final  -47.74 input  -60.11 | X-H torsion
[ 7974 7965 7964 7962 ] final -156.33 input  175.53 | X-H torsion
[ 8008 7997 7996 7995 ] final  161.34 input   59.86 | X-H torsion
[ 10167 10162 10161 10158 ] final  -82.99 input  -65.29 | X-H torsion
[ 10718 10713 10712 10709 ] final  -40.99 input   66.30 | X-H torsion
[ 10763 10752 10751 10750 ] final -165.79 input  -60.55 | X-H torsion
[ 11005 11000 10999 10996 ] final   46.88 input  -57.11 | X-H torsion

> <Gold.Protein.ActiveResidues>
 VAL166  LYS551  ARG553  GLY616  TRP617  ASP618  TYR619  PRO620  LYS621  CYS622 
 ASP623  PHE694  ASN695  SER759  ASP760  ASP761  ALA762  ILE779  LEU786  VAL792 
 PHE793  MET794  SER795  GLU796  ALA797  LYS798  CYS799  TRP800  GLU811  SER814 

> <Gold.Protein.RotatedAtoms>
  150.8977  134.8386  159.7337 H   0  0  0  0  0  0  0  0  0  0  0  0  # atno 6907 bound_to 6896
  152.4874  134.4551  159.9597 H   0  0  0  0  0  0  0  0  0  0  0  0  # atno 6908 bound_to 6896
  151.4606  133.3555  159.2844 H   0  0  0  0  0  0  0  0  0  0  0  0  # atno 6909 bound_to 6896
  144.7598  140.4124  143.5985 H   0  0  0  0  0  0  0  0  0  0  0  0  # atno 7974 bound_to 7965
  156.2110  140.1780  156.7695 H   0  0  0  0  0  0  0  0  0  0  0  0  # atno 8008 bound_to 7997
  154.5722  140.0680  156.9011 H   0  0  0  0  0  0  0  0  0  0  0  0  # atno 8009 bound_to 7997
  155.2652  140.3338  155.4272 H   0  0  0  0  0  0  0  0  0  0  0  0  # atno 8010 bound_to 7997
  140.4269  143.2563  151.8814 H   0  0  0  0  0  0  0  0  0  0  0  0  # atno 10167 bound_to 10162
  156.2753  130.4211  149.8394 H   0  0  0  0  0  0  0  0  0  0  0  0  # atno 10718 bound_to 10713
  154.6897  135.2968  154.9497 H   0  0  0  0  0  0  0  0  0  0  0  0  # atno 10763 bound_to 10752
  154.0464  135.6650  153.4799 H   0  0  0  0  0  0  0  0  0  0  0  0  # atno 10764 bound_to 10752
  153.0603  135.5119  154.7983 H   0  0  0  0  0  0  0  0  0  0  0  0  # atno 10765 bound_to 10752
  140.1329  134.4682  155.8508 H   0  0  0  0  0  0  0  0  0  0  0  0  # atno 11005 bound_to 11000
  145.6657  139.1589  143.2783 LP  0  0  0  0  0  0  0  0  0  0  0  0  # atno 17320 bound_to 7965
  146.1648  140.6734  142.9260 LP  0  0  0  0  0  0  0  0  0  0  0  0  # atno 17321 bound_to 7965
  139.4784  144.5377  151.8574 LP  0  0  0  0  0  0  0  0  0  0  0  0  # atno 17342 bound_to 10162
  140.4471  144.1906  150.5895 LP  0  0  0  0  0  0  0  0  0  0  0  0  # atno 17343 bound_to 10162
  156.5861  130.8486  151.3396 LP  0  0  0  0  0  0  0  0  0  0  0  0  # atno 17370 bound_to 10713
  157.7297  130.9675  150.1799 LP  0  0  0  0  0  0  0  0  0  0  0  0  # atno 17371 bound_to 10713
  141.2173  133.6803  156.7103 LP  0  0  0  0  0  0  0  0  0  0  0  0  # atno 17394 bound_to 11000
  140.2819  134.8309  157.3941 LP  0  0  0  0  0  0  0  0  0  0  0  0  # atno 17395 bound_to 11000

$$$$
