AV-unprocessed.smi:2656|AV-procd|sdf|10305|dock1
  -GOLD-   2272014323D 1   1.00000     0.00000
 Structure written by MMmdl.
 43 44  0  0  0  0  0  0  0  0  1 V2000
  146.2203  142.1850  156.2125 C   0  0  0  0  0  0  0  0  0  0  0  0
  146.6218  141.3377  155.0835 N   0  0  0  0  0  0  0  0  0  0  0  0
  146.5428  142.0190  153.7888 C   0  0  0  0  0  0  0  0  0  0  0  0
  147.0065  140.0525  155.3108 C   0  0  0  0  0  0  0  0  0  0  0  0
  146.9428  139.5905  156.4528 O   0  0  0  0  0  0  0  0  0  0  0  0
  147.5596  139.1264  154.1708 C   0  0  0  0  0  0  0  0  0  0  0  0
  146.5118  138.8140  153.0552 C   0  0  0  0  0  0  0  0  0  0  0  0
  146.7275  137.5305  152.3858 N   0  0  0  0  0  0  0  0  0  0  0  0
  145.7760  136.6400  152.0708 C   0  0  0  0  0  0  0  0  0  0  0  0
  144.5802  136.8143  152.3023 O   0  0  0  0  0  0  0  0  0  0  0  0
  146.3103  135.5477  151.4973 N   0  0  0  0  0  0  0  0  0  0  0  0
  145.6598  134.3759  151.0227 C   0  0  0  0  0  0  0  0  0  0  0  0
  146.4739  133.3016  150.6082 C   0  0  0  0  0  0  0  0  0  0  0  0
  145.8593  132.1313  150.1199 C   0  0  0  0  0  0  0  0  0  0  0  0
  144.5219  131.9825  150.0199 N   0  0  0  0  0  0  0  0  0  0  0  0
  143.7439  133.0162  150.4047 C   0  0  0  0  0  0  0  0  0  0  0  0
  144.2561  134.2297  150.9058 C   0  0  0  0  0  0  0  0  0  0  0  0
  148.8155  139.7593  153.5061 C   0  0  0  0  0  0  0  0  0  0  0  0
  150.0231  139.4400  154.3968 C   0  0  0  0  0  0  0  0  0  0  0  0
  149.6073  138.2313  155.2381 C   0  0  0  0  0  0  0  0  0  0  0  0
  148.2006  137.8488  154.7618 C   0  0  0  0  0  0  0  0  0  0  0  0
  145.2501  141.8687  156.5971 H   0  0  0  0  0  0  0  0  0  0  0  0
  146.1425  143.2379  155.9385 H   0  0  0  0  0  0  0  0  0  0  0  0
  146.9448  142.1296  157.0266 H   0  0  0  0  0  0  0  0  0  0  0  0
  146.3011  141.3591  152.9606 H   0  0  0  0  0  0  0  0  0  0  0  0
  147.4867  142.5188  153.5702 H   0  0  0  0  0  0  0  0  0  0  0  0
  145.7624  142.7807  153.7908 H   0  0  0  0  0  0  0  0  0  0  0  0
  145.5015  138.8437  153.4667 H   0  0  0  0  0  0  0  0  0  0  0  0
  146.4929  139.5893  152.2936 H   0  0  0  0  0  0  0  0  0  0  0  0
  147.6828  137.2990  152.1558 H   0  0  0  0  0  0  0  0  0  0  0  0
  147.3177  135.5309  151.4384 H   0  0  0  0  0  0  0  0  0  0  0  0
  147.5507  133.3660  150.6658 H   0  0  0  0  0  0  0  0  0  0  0  0
  146.4593  131.2925  149.8001 H   0  0  0  0  0  0  0  0  0  0  0  0
  142.6779  132.8746  150.3052 H   0  0  0  0  0  0  0  0  0  0  0  0
  143.5668  135.0142  151.1758 H   0  0  0  0  0  0  0  0  0  0  0  0
  148.9933  139.3013  152.5322 H   0  0  0  0  0  0  0  0  0  0  0  0
  148.7196  140.8291  153.3147 H   0  0  0  0  0  0  0  0  0  0  0  0
  150.9103  139.2328  153.7977 H   0  0  0  0  0  0  0  0  0  0  0  0
  150.2588  140.2847  155.0452 H   0  0  0  0  0  0  0  0  0  0  0  0
  150.3055  137.3999  155.1365 H   0  0  0  0  0  0  0  0  0  0  0  0
  149.5826  138.5092  156.2926 H   0  0  0  0  0  0  0  0  0  0  0  0
  147.6375  137.3999  155.5779 H   0  0  0  0  0  0  0  0  0  0  0  0
  148.2830  137.0882  153.9837 H   0  0  0  0  0  0  0  0  0  0  0  0
  1  2  1  0  0  0  0
  1 22  1  0  0  0  0
  1 23  1  0  0  0  0
  1 24  1  0  0  0  0
  2  3  1  0  0  0  0
  2  4  1  0  0  0  0
  3 25  1  0  0  0  0
  3 26  1  0  0  0  0
  3 27  1  0  0  0  0
  4  5  2  0  0  0  0
  4  6  1  0  0  0  0
  6 21  1  0  0  0  0
  6  7  1  0  0  0  0
  6 18  1  0  0  0  0
  7  8  1  0  0  0  0
  7 28  1  0  0  0  0
  7 29  1  0  0  0  0
  8  9  1  0  0  0  0
  8 30  1  0  0  0  0
  9 10  2  0  0  0  0
  9 11  1  0  0  0  0
 11 12  1  0  0  0  0
 11 31  1  0  0  0  0
 12 17  1  0  0  0  0
 12 13  2  0  0  0  0
 13 14  1  0  0  0  0
 13 32  1  0  0  0  0
 14 15  2  0  0  0  0
 14 33  1  0  0  0  0
 15 16  1  0  0  0  0
 16 17  2  0  0  0  0
 16 34  1  0  0  0  0
 17 35  1  0  0  0  0
 18 19  1  0  0  0  0
 18 36  1  0  0  0  0
 18 37  1  0  0  0  0
 19 20  1  0  0  0  0
 19 38  1  0  0  0  0
 19 39  1  0  0  0  0
 20 21  1  0  0  0  0
 20 40  1  0  0  0  0
 20 41  1  0  0  0  0
 21 42  1  0  0  0  0
 21 43  1  0  0  0  0
M  END
> <s_m_source_file>
AV-unprocessed.smi

> <i_m_source_file_index>
2656

> <i_lp_mmshare_version>
43012

> <i_f3d_flags>
0

> <s_epik_input>
W0NIMl0xW0NIMl1bQ0gyXVtDSDJdQzEoQyg9TylOKFtDSDNdKVtDSDNdKVtDSDJdW05IXUMoPU8pW05IXWMyW2NIXVtjSF1uW2NIXVtjSF0y

> <s_epik_cmdline>
J2VwaWtfcHl0aG9uJywgJy1waCcsICc3LjAnLCAnLXRuJywgJzgnLCAnLW1hJywgJzIwMCcsICctbWV0YWxfYmluZGluZycsICctaW1hZScsICc8aW5maWxlLm1hZT4nLCAnLW9tYWUnLCAnPG91dGZpbGUubWFlPic=

> <r_epik_Ionization_Penalty>
0.108834

> <r_epik_Ionization_Penalty_Charging>
0

> <r_epik_Ionization_Penalty_Neutral>
0.108834

> <r_epik_State_Penalty>
0.0985887

> <r_epik_Charging_Adjusted_Penalty>
0.0985887

> <i_epik_Tot_Q>
0

> <i_epik_Tot_abs_Q>
0

> <r_epik_Metal_State_Penalty>
0.0831677

> <b_epik_Metal_Only>
0

> <s_lp_Force_Field>
OPLS_2005

> <r_lp_Energy>
40.4263

> <b_lp_Chiralities_Consistent>
1

> <s_lp_Variant>
AV-unprocessed.smi:2656-1

> <Gold.Version>
5.8.1

> <Gold.Id.Protein>
6NUR|6NUR_protein|mol2

> <Gold.PLP.Fitness>
41.3186

> <Gold.PLP.PLP>
-30.8408

> <Gold.PLP.part.hbond>
-2.0294

> <Gold.PLP.part.metal>
0.0000

> <Gold.PLP.part.buried>
-1.3913

> <Gold.PLP.part.nonpolar>
-27.9944

> <Gold.PLP.part.repulsive>
0.4848

> <Gold.PLP.ligand.clash>
0.0000

> <Gold.PLP.ligand.torsion>
0.8175

> <Gold.PLP.Chemscore.Hbond>
2.0000

> <Gold.PLP.Chemscore.CHOScore>
1.9694

> <Gold.PLP.Chemscore.Metal>
0.0000

> <Gold.Chemscore.Hbonds>
donor molecule, donor type, donor heavy atom, donor atom, acceptor molecule, acceptor atom, score
      L1  H     8    30       P1  7948  1.00
      L1  H    11    31       P1  7948  1.00
      L1  C    14    33       P1 10747  0.85
      L1  C    16    34       P1 10186  0.99

> <Gold.PLP.Chemscore.Internal.Correction>
0.2047

> <Gold.Rescore>
     Score         DG    S(hbond)    S(metal)    S(lipo)     H(rot)  DE(clash)    DE(int)     intcor
     13.83     -17.70       1.86        0.00      84.53       1.51       1.95       1.91       ----

> <Gold.Chemscore.Fitness>
13.8306

> <Gold.Chemscore.DG>
-17.6990

> <Gold.Chemscore.ZeroCoef>
-5.4800

> <Gold.Chemscore.Hbond>
1.8556

> <Gold.Chemscore.Metal>
0.0000

> <Gold.Chemscore.Lipo>
84.5289

> <Gold.Chemscore.Internal_Hbond>
0.0000

> <Gold.Chemscore.DEClash>
1.9547

> <Gold.Chemscore.DEInternal>
1.9137

> <Gold.Chemscore.Rot>
1.5112

> <Gold.Chemscore.Internal.Correction>
   9.000000E+99

> <Gold.Chemscore.Hbonds>
donor molecule, donor type, donor heavy atom, donor atom, acceptor molecule, acceptor atom, score
      L1  H     8    30       P1  7948  0.98
      L1  H    11    31       P1  7948  0.93

> <Gold.Chemscore.Hbond.Weighted>
-6.1977

> <Gold.Chemscore.Metal.Weighted>
-0.0000

> <Gold.Chemscore.Lipo.Weighted>
-9.8899

> <Gold.Chemscore.Internal_Hbond.Weighted>
0.0000

> <Gold.Chemscore.DEClash.Weighted>
1.9547

> <Gold.Chemscore.DEInternal.Weighted>
1.9137

> <Gold.Chemscore.Rot.Weighted>
3.8686

> <Gold.Chemscore.Internal.Correction.Weighted>
   9.000000E+99

> <Gold.Protein.RotatedTorsions>
[ 6907 6896 6895 6894 ] final  -48.81 input  -60.11 | X-H torsion
[ 7974 7965 7964 7962 ] final  102.98 input  175.53 | X-H torsion
[ 8008 7997 7996 7995 ] final  143.26 input   59.86 | X-H torsion
[ 10167 10162 10161 10158 ] final  139.31 input  -65.29 | X-H torsion
[ 10718 10713 10712 10709 ] final  -34.63 input   66.30 | X-H torsion
[ 10763 10752 10751 10750 ] final   36.41 input  -60.55 | X-H torsion
[ 11005 11000 10999 10996 ] final  115.83 input  -57.11 | X-H torsion

> <Gold.Protein.ActiveResidues>
 VAL166  LYS551  ARG553  GLY616  TRP617  ASP618  TYR619  PRO620  LYS621  CYS622 
 ASP623  PHE694  ASN695  SER759  ASP760  ASP761  ALA762  ILE779  LEU786  VAL792 
 PHE793  MET794  SER795  GLU796  ALA797  LYS798  CYS799  TRP800  GLU811  SER814 

> <Gold.Protein.RotatedAtoms>
  150.8868  134.8266  159.7264 H   0  0  0  0  0  0  0  0  0  0  0  0  # atno 6907 bound_to 6896
  152.4812  134.4710  159.9645 H   0  0  0  0  0  0  0  0  0  0  0  0  # atno 6908 bound_to 6896
  151.4778  133.3515  159.2869 H   0  0  0  0  0  0  0  0  0  0  0  0  # atno 6909 bound_to 6896
  145.3519  139.2437  143.3553 H   0  0  0  0  0  0  0  0  0  0  0  0  # atno 7974 bound_to 7965
  156.2934  140.2267  156.4861 H   0  0  0  0  0  0  0  0  0  0  0  0  # atno 8008 bound_to 7997
  154.7811  140.0460  157.1149 H   0  0  0  0  0  0  0  0  0  0  0  0  # atno 8009 bound_to 7997
  154.9757  140.3072  155.4971 H   0  0  0  0  0  0  0  0  0  0  0  0  # atno 8010 bound_to 7997
  139.5083  144.6302  151.5836 H   0  0  0  0  0  0  0  0  0  0  0  0  # atno 10167 bound_to 10162
  156.3483  130.4304  149.7727 H   0  0  0  0  0  0  0  0  0  0  0  0  # atno 10718 bound_to 10713
  153.0078  135.6306  154.1981 H   0  0  0  0  0  0  0  0  0  0  0  0  # atno 10763 bound_to 10752
  154.1724  135.2817  155.3078 H   0  0  0  0  0  0  0  0  0  0  0  0  # atno 10764 bound_to 10752
  154.5898  135.5621  153.7327 H   0  0  0  0  0  0  0  0  0  0  0  0  # atno 10765 bound_to 10752
  139.9022  134.9589  156.7105 H   0  0  0  0  0  0  0  0  0  0  0  0  # atno 11005 bound_to 11000
  146.2964  140.4137  142.8720 LP  0  0  0  0  0  0  0  0  0  0  0  0  # atno 17320 bound_to 7965
  144.8711  140.7273  143.6046 LP  0  0  0  0  0  0  0  0  0  0  0  0  # atno 17321 bound_to 7965
  140.6032  143.9571  150.6401 LP  0  0  0  0  0  0  0  0  0  0  0  0  # atno 17342 bound_to 10162
  140.2790  143.3403  152.1169 LP  0  0  0  0  0  0  0  0  0  0  0  0  # atno 17343 bound_to 10162
  156.4937  130.8097  151.3105 LP  0  0  0  0  0  0  0  0  0  0  0  0  # atno 17370 bound_to 10713
  157.7457  130.9967  150.2790 LP  0  0  0  0  0  0  0  0  0  0  0  0  # atno 17371 bound_to 10713
  140.7079  133.9249  155.8065 LP  0  0  0  0  0  0  0  0  0  0  0  0  # atno 17394 bound_to 11000
  141.0322  134.0739  157.4000 LP  0  0  0  0  0  0  0  0  0  0  0  0  # atno 17395 bound_to 11000

$$$$
