AV-unprocessed.smi:2472|AV-procd|sdf|9741|dock6
  -GOLD-   2272013383D 1   1.00000     0.00000
 Structure written by MMmdl.
 47 49  0  0  0  0  0  0  0  0  1 V2000
  145.0833  135.4229  150.6521 C   0  0  0  0  0  0  0  0  0  0  0  0
  145.1002  133.9063  150.7278 C   0  0  0  0  0  0  0  0  0  0  0  0
  144.1567  133.1532  149.9960 C   0  0  0  0  0  0  0  0  0  0  0  0
  144.1045  131.8052  150.0110 N   0  0  0  0  0  0  0  0  0  0  0  0
  145.0027  131.1492  150.7739 C   0  0  0  0  0  0  0  0  0  0  0  0
  145.9873  131.7987  151.5434 C   0  0  0  0  0  0  0  0  0  0  0  0
  146.0521  133.2124  151.5133 C   0  0  0  0  0  0  0  0  0  0  0  0
  146.9971  133.9580  152.2716 N   0  0  0  0  0  0  0  0  0  0  0  0
  147.5893  133.6132  153.4274 C   0  0  0  0  0  0  0  0  0  0  0  0
  147.3935  132.5633  154.0395 O   0  0  0  0  0  0  0  0  0  0  0  0
  148.4668  134.5534  153.8216 N   0  0  0  0  0  0  0  0  0  0  0  0
  149.3446  134.5321  155.0069 C   0  0  0  0  0  0  0  0  0  0  0  0
  150.0789  135.8834  155.2441 C   0  0  0  0  0  0  0  0  0  0  0  0
  150.7890  136.0310  156.2398 O   0  0  0  0  0  0  0  0  0  0  0  0
  149.8974  136.8694  154.3502 N   0  0  0  0  0  0  0  0  0  0  0  0
  150.5140  138.1848  154.4173 C   0  0  0  0  0  0  0  0  0  0  0  0
  152.0277  138.1462  154.4247 C   0  0  0  0  0  0  0  0  0  0  0  0
  152.7905  138.1456  155.7283 C   0  0  0  0  0  0  0  0  0  0  0  0
  152.8349  139.3575  154.8285 C   0  0  0  0  0  0  0  0  0  0  0  0
  148.4731  134.2187  156.2471 C   0  0  0  0  0  0  0  0  0  0  0  0
  149.3217  133.3356  157.1592 C   0  0  0  0  0  0  0  0  0  0  0  0
  150.1108  132.4639  156.1915 C   0  0  0  0  0  0  0  0  0  0  0  0
  150.3434  133.3333  154.9491 C   0  0  0  0  0  0  0  0  0  0  0  0
  144.3133  135.7764  149.9655 H   0  0  0  0  0  0  0  0  0  0  0  0
  146.0450  135.7979  150.3012 H   0  0  0  0  0  0  0  0  0  0  0  0
  144.8819  135.8503  151.6347 H   0  0  0  0  0  0  0  0  0  0  0  0
  143.4188  133.6450  149.3794 H   0  0  0  0  0  0  0  0  0  0  0  0
  144.9311  130.0715  150.7769 H   0  0  0  0  0  0  0  0  0  0  0  0
  146.6601  131.2078  152.1459 H   0  0  0  0  0  0  0  0  0  0  0  0
  147.3295  134.8059  151.8365 H   0  0  0  0  0  0  0  0  0  0  0  0
  148.5498  135.3721  153.2370 H   0  0  0  0  0  0  0  0  0  0  0  0
  149.3017  136.6840  153.5565 H   0  0  0  0  0  0  0  0  0  0  0  0
  150.1686  138.7871  153.5756 H   0  0  0  0  0  0  0  0  0  0  0  0
  150.1829  138.6893  155.3263 H   0  0  0  0  0  0  0  0  0  0  0  0
  152.4521  137.5269  153.6363 H   0  0  0  0  0  0  0  0  0  0  0  0
  152.2193  138.2260  156.6512 H   0  0  0  0  0  0  0  0  0  0  0  0
  153.6860  137.5298  155.7863 H   0  0  0  0  0  0  0  0  0  0  0  0
  153.7576  139.5484  154.2842 H   0  0  0  0  0  0  0  0  0  0  0  0
  152.2936  140.2438  155.1535 H   0  0  0  0  0  0  0  0  0  0  0  0
  148.1214  135.1113  156.7674 H   0  0  0  0  0  0  0  0  0  0  0  0
  147.5821  133.6598  155.9552 H   0  0  0  0  0  0  0  0  0  0  0  0
  150.0045  133.9516  157.7458 H   0  0  0  0  0  0  0  0  0  0  0  0
  148.7204  132.7503  157.8554 H   0  0  0  0  0  0  0  0  0  0  0  0
  151.0422  132.0996  156.6260 H   0  0  0  0  0  0  0  0  0  0  0  0
  149.5131  131.5933  155.9187 H   0  0  0  0  0  0  0  0  0  0  0  0
  150.2159  132.7181  154.0580 H   0  0  0  0  0  0  0  0  0  0  0  0
  151.3808  133.6702  154.9248 H   0  0  0  0  0  0  0  0  0  0  0  0
  1  2  1  0  0  0  0
  1 24  1  0  0  0  0
  1 25  1  0  0  0  0
  1 26  1  0  0  0  0
  2  7  1  0  0  0  0
  2  3  2  0  0  0  0
  3  4  1  0  0  0  0
  3 27  1  0  0  0  0
  4  5  2  0  0  0  0
  5  6  1  0  0  0  0
  5 28  1  0  0  0  0
  6  7  2  0  0  0  0
  6 29  1  0  0  0  0
  7  8  1  0  0  0  0
  8  9  1  0  0  0  0
  8 30  1  0  0  0  0
  9 10  2  0  0  0  0
  9 11  1  0  0  0  0
 11 12  1  0  0  0  0
 11 31  1  0  0  0  0
 12 23  1  0  0  0  0
 12 13  1  0  0  0  0
 12 20  1  0  0  0  0
 13 14  2  0  0  0  0
 13 15  1  0  0  0  0
 15 16  1  0  0  0  0
 15 32  1  0  0  0  0
 16 17  1  0  0  0  0
 16 33  1  0  0  0  0
 16 34  1  0  0  0  0
 17 19  1  0  0  0  0
 17 18  1  0  0  0  0
 17 35  1  0  0  0  0
 18 19  1  0  0  0  0
 18 36  1  0  0  0  0
 18 37  1  0  0  0  0
 19 38  1  0  0  0  0
 19 39  1  0  0  0  0
 20 21  1  0  0  0  0
 20 40  1  0  0  0  0
 20 41  1  0  0  0  0
 21 22  1  0  0  0  0
 21 42  1  0  0  0  0
 21 43  1  0  0  0  0
 22 23  1  0  0  0  0
 22 44  1  0  0  0  0
 22 45  1  0  0  0  0
 23 46  1  0  0  0  0
 23 47  1  0  0  0  0
M  END
> <s_m_source_file>
AV-unprocessed.smi

> <i_m_source_file_index>
2472

> <i_lp_mmshare_version>
43012

> <i_f3d_flags>
0

> <s_epik_input>
W0NIM11jMVtjSF1uW2NIXVtjSF1jMVtOSF1DKD1PKVtOSF1DMihbQ0gyXVtDSDJdW0NIMl1bQ0gyXTIpQyg9TylbTkhdW0NIMl1bQ0hdM1tDSDJdW0NIMl0z

> <s_epik_cmdline>
J2VwaWtfcHl0aG9uJywgJy1waCcsICc3LjAnLCAnLXRuJywgJzgnLCAnLW1hJywgJzIwMCcsICctbWV0YWxfYmluZGluZycsICctaW1hZScsICc8aW5maWxlLm1hZT4nLCAnLW9tYWUnLCAnPG91dGZpbGUubWFlPic=

> <r_epik_Ionization_Penalty>
0.187836

> <r_epik_Ionization_Penalty_Charging>
0

> <r_epik_Ionization_Penalty_Neutral>
0.187836

> <r_epik_State_Penalty>
0.177409

> <r_epik_Charging_Adjusted_Penalty>
0.177409

> <i_epik_Tot_Q>
0

> <i_epik_Tot_abs_Q>
0

> <r_epik_Metal_State_Penalty>
0.134269

> <b_epik_Metal_Only>
0

> <s_lp_Force_Field>
OPLS_2005

> <r_lp_Energy>
32.7124

> <b_lp_Chiralities_Consistent>
1

> <s_lp_Variant>
AV-unprocessed.smi:2472-1

> <Gold.Version>
5.8.1

> <Gold.Id.Protein>
6NUR|6NUR_protein|mol2

> <Gold.PLP.Fitness>
50.1882

> <Gold.PLP.PLP>
-38.7433

> <Gold.PLP.part.hbond>
-4.0629

> <Gold.PLP.part.metal>
0.0000

> <Gold.PLP.part.buried>
-4.4370

> <Gold.PLP.part.nonpolar>
-30.9347

> <Gold.PLP.part.repulsive>
0.2881

> <Gold.PLP.ligand.clash>
0.0000

> <Gold.PLP.ligand.torsion>
0.5477

> <Gold.PLP.Chemscore.Hbond>
2.9672

> <Gold.PLP.Chemscore.CHOScore>
1.0000

> <Gold.PLP.Chemscore.Metal>
0.0000

> <Gold.Chemscore.Hbonds>
donor molecule, donor type, donor heavy atom, donor atom, acceptor molecule, acceptor atom, score
      L1  H     8    30       P1  7948  0.69
      L1  H    11    31       P1  7948  1.00
      L1  H    15    32       P1  7948  1.00
      P1  H 10785 10796       L1     4  0.28
      L1  C     3    27       P1 10186  0.99

> <Gold.PLP.Chemscore.Internal.Correction>
0.6386

> <Gold.Rescore>
     Score         DG    S(hbond)    S(metal)    S(lipo)     H(rot)  DE(clash)    DE(int)     intcor
     18.87     -21.68       2.52        0.00     101.43       1.59       0.21       2.60       ----

> <Gold.Chemscore.Fitness>
18.8727

> <Gold.Chemscore.DG>
-21.6846

> <Gold.Chemscore.ZeroCoef>
-5.4800

> <Gold.Chemscore.Hbond>
2.5205

> <Gold.Chemscore.Metal>
0.0000

> <Gold.Chemscore.Lipo>
101.4286

> <Gold.Chemscore.Internal_Hbond>
0.0000

> <Gold.Chemscore.DEClash>
0.2123

> <Gold.Chemscore.DEInternal>
2.5996

> <Gold.Chemscore.Rot>
1.5941

> <Gold.Chemscore.Internal.Correction>
   9.000000E+99

> <Gold.Chemscore.Hbonds>
donor molecule, donor type, donor heavy atom, donor atom, acceptor molecule, acceptor atom, score
      L1  H     8    30       P1  7948  0.52
      L1  H    11    31       P1  7948  0.92
      L1  H    15    32       P1  7948  0.91
      P1  H 10785 10796       L1     4  0.10

> <Gold.Chemscore.Hbond.Weighted>
-8.4184

> <Gold.Chemscore.Metal.Weighted>
-0.0000

> <Gold.Chemscore.Lipo.Weighted>
-11.8671

> <Gold.Chemscore.Internal_Hbond.Weighted>
0.0000

> <Gold.Chemscore.DEClash.Weighted>
0.2123

> <Gold.Chemscore.DEInternal.Weighted>
2.5996

> <Gold.Chemscore.Rot.Weighted>
4.0809

> <Gold.Chemscore.Internal.Correction.Weighted>
   9.000000E+99

> <Gold.Protein.RotatedTorsions>
[ 6907 6896 6895 6894 ] final   93.82 input  -60.11 | X-H torsion
[ 7974 7965 7964 7962 ] final  -49.42 input  175.53 | X-H torsion
[ 8008 7997 7996 7995 ] final  -44.89 input   59.86 | X-H torsion
[ 10167 10162 10161 10158 ] final   73.59 input  -65.29 | X-H torsion
[ 10718 10713 10712 10709 ] final  -54.36 input   66.30 | X-H torsion
[ 10763 10752 10751 10750 ] final  -83.86 input  -60.55 | X-H torsion
[ 11005 11000 10999 10996 ] final -135.03 input  -57.11 | X-H torsion

> <Gold.Protein.ActiveResidues>
 VAL166  LYS551  ARG553  GLY616  TRP617  ASP618  TYR619  PRO620  LYS621  CYS622 
 ASP623  PHE694  ASN695  SER759  ASP760  ASP761  ALA762  ILE779  LEU786  VAL792 
 PHE793  MET794  SER795  GLU796  ALA797  LYS798  CYS799  TRP800  GLU811  SER814 

> <Gold.Protein.RotatedAtoms>
  152.5451  134.1288  159.8429 H   0  0  0  0  0  0  0  0  0  0  0  0  # atno 6907 bound_to 6896
  151.1336  133.5012  159.2606 H   0  0  0  0  0  0  0  0  0  0  0  0  # atno 6908 bound_to 6896
  151.1648  135.0300  159.8781 H   0  0  0  0  0  0  0  0  0  0  0  0  # atno 6909 bound_to 6896
  145.9407  140.7665  142.9553 H   0  0  0  0  0  0  0  0  0  0  0  0  # atno 7974 bound_to 7965
  154.3999  140.1411  156.3757 H   0  0  0  0  0  0  0  0  0  0  0  0  # atno 8008 bound_to 7997
  155.8051  140.3474  155.5404 H   0  0  0  0  0  0  0  0  0  0  0  0  # atno 8009 bound_to 7997
  155.8444  140.0931  157.1705 H   0  0  0  0  0  0  0  0  0  0  0  0  # atno 8010 bound_to 7997
  140.0229  144.5527  150.7568 H   0  0  0  0  0  0  0  0  0  0  0  0  # atno 10167 bound_to 10162
  156.1457  130.4153  150.0028 H   0  0  0  0  0  0  0  0  0  0  0  0  # atno 10718 bound_to 10713
  154.5927  135.5541  153.7294 H   0  0  0  0  0  0  0  0  0  0  0  0  # atno 10763 bound_to 10752
  153.0123  135.6347  154.1826 H   0  0  0  0  0  0  0  0  0  0  0  0  # atno 10764 bound_to 10752
  154.1767  135.2889  155.3044 H   0  0  0  0  0  0  0  0  0  0  0  0  # atno 10765 bound_to 10752
  140.8935  134.1781  157.4511 H   0  0  0  0  0  0  0  0  0  0  0  0  # atno 11005 bound_to 11000
  144.6779  140.2276  143.7359 LP  0  0  0  0  0  0  0  0  0  0  0  0  # atno 17320 bound_to 7965
  145.8303  139.2083  143.1886 LP  0  0  0  0  0  0  0  0  0  0  0  0  # atno 17321 bound_to 7965
  140.7335  143.2718  151.3866 LP  0  0  0  0  0  0  0  0  0  0  0  0  # atno 17342 bound_to 10162
  139.6128  144.1064  152.2315 LP  0  0  0  0  0  0  0  0  0  0  0  0  # atno 17343 bound_to 10162
  156.7900  130.9252  151.3646 LP  0  0  0  0  0  0  0  0  0  0  0  0  # atno 17370 bound_to 10713
  157.6615  130.8970  149.9839 LP  0  0  0  0  0  0  0  0  0  0  0  0  # atno 17371 bound_to 10713
  139.8732  134.9868  156.5342 LP  0  0  0  0  0  0  0  0  0  0  0  0  # atno 17394 bound_to 11000
  140.8317  133.8273  155.8991 LP  0  0  0  0  0  0  0  0  0  0  0  0  # atno 17395 bound_to 11000

$$$$
