AV-unprocessed.smi:2187|AV-procd|sdf|8878|dock1
  -GOLD-   2272012 73D 1   1.00000     0.00000
 Structure written by MMmdl.
 42 43  0  0  0  0  0  0  0  0  1 V2000
  151.2056  145.7513  159.7477 C   0  0  0  0  0  0  0  0  0  0  0  0
  151.8607  144.4610  160.1505 C   0  0  0  0  0  0  0  0  0  0  0  0
  152.2387  144.2959  161.4070 N   0  0  0  0  0  0  0  0  0  0  0  0
  152.7692  143.0575  161.4479 N   0  0  0  0  0  0  0  0  0  0  0  0
  153.2852  142.5496  162.7042 C   0  0  0  0  0  0  0  0  0  0  0  0
  152.7207  142.4357  160.2152 C   0  0  0  0  0  0  0  0  0  0  0  0
  153.2346  141.0485  160.0001 C   0  0  0  0  0  0  0  0  0  0  0  0
  152.1406  143.3184  159.3433 C   0  0  0  0  0  0  0  0  0  0  0  0
  151.8509  143.1342  157.8749 C   0  0  0  0  0  0  0  0  0  0  0  0
  150.4522  142.5439  157.7005 C   0  0  0  0  0  0  0  0  0  0  0  0
  149.5195  142.9549  158.3907 O   0  0  0  0  0  0  0  0  0  0  0  0
  150.3225  141.5850  156.7705 N   0  0  0  0  0  0  0  0  0  0  0  0
  149.0777  140.9144  156.3985 C   0  0  2  0  0  0  0  0  0  0  0  0
  148.9698  139.5312  157.0905 C   0  0  0  0  0  0  0  0  0  0  0  0
  148.0637  138.4938  156.3943 C   0  0  0  0  0  0  0  0  0  0  0  0
  146.6283  138.9663  156.0849 C   0  0  0  0  0  0  0  0  0  0  0  0
  146.4851  140.2601  155.2470 C   0  0  0  0  0  0  0  0  0  0  0  0
  147.6454  140.5730  154.4136 N   0  0  0  0  0  0  0  0  0  0  0  0
  148.8642  140.9064  154.8723 C   0  0  0  0  0  0  0  0  0  0  0  0
  149.7878  141.1746  154.1046 O   0  0  0  0  0  0  0  0  0  0  0  0
  150.1202  145.6666  159.7950 H   0  0  0  0  0  0  0  0  0  0  0  0
  151.4727  146.0293  158.7285 H   0  0  0  0  0  0  0  0  0  0  0  0
  151.5027  146.5735  160.3999 H   0  0  0  0  0  0  0  0  0  0  0  0
  154.2155  142.0078  162.5327 H   0  0  0  0  0  0  0  0  0  0  0  0
  152.5558  141.8742  163.1510 H   0  0  0  0  0  0  0  0  0  0  0  0
  153.4820  143.3693  163.3963 H   0  0  0  0  0  0  0  0  0  0  0  0
  152.9347  140.6622  159.0262 H   0  0  0  0  0  0  0  0  0  0  0  0
  152.8479  140.3678  160.7587 H   0  0  0  0  0  0  0  0  0  0  0  0
  154.3234  141.0281  160.0489 H   0  0  0  0  0  0  0  0  0  0  0  0
  151.9168  144.0776  157.3318 H   0  0  0  0  0  0  0  0  0  0  0  0
  152.5766  142.4702  157.4042 H   0  0  0  0  0  0  0  0  0  0  0  0
  151.1460  141.3180  156.2505 H   0  0  0  0  0  0  0  0  0  0  0  0
  148.2753  141.5390  156.7931 H   0  0  0  0  0  0  0  0  0  0  0  0
  149.9646  139.0913  157.1764 H   0  0  0  0  0  0  0  0  0  0  0  0
  148.6251  139.6769  158.1150 H   0  0  0  0  0  0  0  0  0  0  0  0
  148.5390  138.1593  155.4711 H   0  0  0  0  0  0  0  0  0  0  0  0
  148.0098  137.6034  157.0217 H   0  0  0  0  0  0  0  0  0  0  0  0
  146.1258  138.1574  155.5534 H   0  0  0  0  0  0  0  0  0  0  0  0
  146.0753  139.0871  157.0169 H   0  0  0  0  0  0  0  0  0  0  0  0
  145.6105  140.1799  154.6012 H   0  0  0  0  0  0  0  0  0  0  0  0
  146.2789  141.1077  155.9015 H   0  0  0  0  0  0  0  0  0  0  0  0
  147.5084  140.5530  153.4134 H   0  0  0  0  0  0  0  0  0  0  0  0
  1  2  1  0  0  0  0
  1 21  1  0  0  0  0
  1 22  1  0  0  0  0
  1 23  1  0  0  0  0
  2  8  1  0  0  0  0
  2  3  2  0  0  0  0
  3  4  1  0  0  0  0
  4  5  1  0  0  0  0
  4  6  1  0  0  0  0
  5 24  1  0  0  0  0
  5 25  1  0  0  0  0
  5 26  1  0  0  0  0
  6  7  1  0  0  0  0
  6  8  2  0  0  0  0
  7 27  1  0  0  0  0
  7 28  1  0  0  0  0
  7 29  1  0  0  0  0
  8  9  1  0  0  0  0
  9 10  1  0  0  0  0
  9 30  1  0  0  0  0
  9 31  1  0  0  0  0
 10 11  2  0  0  0  0
 10 12  1  0  0  0  0
 12 13  1  0  0  0  0
 12 32  1  0  0  0  0
 13 19  1  0  0  0  0
 13 14  1  0  0  0  0
 13 33  1  0  0  0  0
 14 15  1  0  0  0  0
 14 34  1  0  0  0  0
 14 35  1  0  0  0  0
 15 16  1  0  0  0  0
 15 36  1  0  0  0  0
 15 37  1  0  0  0  0
 16 17  1  0  0  0  0
 16 38  1  0  0  0  0
 16 39  1  0  0  0  0
 17 18  1  0  0  0  0
 17 40  1  0  0  0  0
 17 41  1  0  0  0  0
 18 19  1  0  0  0  0
 18 42  1  0  0  0  0
 19 20  2  0  0  0  0
M  END
> <s_m_source_file>
AV-unprocessed.smi

> <i_m_source_file_index>
2187

> <i_lp_mmshare_version>
43012

> <i_f3d_flags>
0

> <s_epik_input>
W0NIM11jMW5uKFtDSDNdKWMoW0NIM10pYzFbQ0gyXUMoPU8pW05IXVtDQEBIXTJbQ0gyXVtDSDJdW0NIMl1bQ0gyXVtOSF1DMj1P

> <s_epik_cmdline>
J2VwaWtfcHl0aG9uJywgJy1waCcsICc3LjAnLCAnLXRuJywgJzgnLCAnLW1hJywgJzIwMCcsICctbWV0YWxfYmluZGluZycsICctaW1hZScsICc8aW5maWxlLm1hZT4nLCAnLW9tYWUnLCAnPG91dGZpbGUubWFlPic=

> <r_lp_tautomer_probability>
1

> <r_epik_Ionization_Penalty>
0.00280384

> <r_epik_Ionization_Penalty_Charging>
0

> <r_epik_Ionization_Penalty_Neutral>
0.00280384

> <r_epik_State_Penalty>
0.00195959

> <r_epik_Charging_Adjusted_Penalty>
0.00195959

> <i_epik_Tot_Q>
0

> <i_epik_Tot_abs_Q>
0

> <r_epik_Metal_State_Penalty>
-0

> <b_epik_Metal_Only>
0

> <s_lp_Force_Field>
OPLS_2005

> <r_lp_Energy>
9.17358

> <b_lp_Chiralities_Consistent>
1

> <s_lp_Variant>
AV-unprocessed.smi:2187-1

> <Gold.Version>
5.8.1

> <Gold.Id.Protein>
6NUR|6NUR_protein|mol2

> <Gold.PLP.Fitness>
38.4341

> <Gold.PLP.PLP>
-37.1273

> <Gold.PLP.part.hbond>
-2.0000

> <Gold.PLP.part.metal>
0.0000

> <Gold.PLP.part.buried>
-3.8655

> <Gold.PLP.part.nonpolar>
-30.8860

> <Gold.PLP.part.repulsive>
0.5722

> <Gold.PLP.ligand.clash>
0.0000

> <Gold.PLP.ligand.torsion>
0.8165

> <Gold.PLP.Chemscore.Hbond>
0.9599

> <Gold.PLP.Chemscore.CHOScore>
0.0000

> <Gold.PLP.Chemscore.Metal>
0.0000

> <Gold.Chemscore.Hbonds>
donor molecule, donor type, donor heavy atom, donor atom, acceptor molecule, acceptor atom, score
      P1  H  7989  7998       L1    20  0.40
      P1  H  8011  8017       L1    20  0.51

> <Gold.PLP.Chemscore.Internal.Correction>
0.0601

> <Gold.Rescore>
     Score         DG    S(hbond)    S(metal)    S(lipo)     H(rot)  DE(clash)    DE(int)     intcor
     13.67     -14.57       0.90        0.00      83.85       1.46       0.03       0.87       ----

> <Gold.Chemscore.Fitness>
13.6748

> <Gold.Chemscore.DG>
-14.5750

> <Gold.Chemscore.ZeroCoef>
-5.4800

> <Gold.Chemscore.Hbond>
0.9033

> <Gold.Chemscore.Metal>
0.0000

> <Gold.Chemscore.Lipo>
83.8462

> <Gold.Chemscore.Internal_Hbond>
0.0000

> <Gold.Chemscore.DEClash>
0.0324

> <Gold.Chemscore.DEInternal>
0.8678

> <Gold.Chemscore.Rot>
1.4578

> <Gold.Chemscore.Internal.Correction>
   9.000000E+99

> <Gold.Chemscore.Hbonds>
donor molecule, donor type, donor heavy atom, donor atom, acceptor molecule, acceptor atom, score
      P1  H  7989  7998       L1    20  0.40
      P1  H  8011  8017       L1    20  0.52

> <Gold.Chemscore.Hbond.Weighted>
-3.0170

> <Gold.Chemscore.Metal.Weighted>
-0.0000

> <Gold.Chemscore.Lipo.Weighted>
-9.8100

> <Gold.Chemscore.Internal_Hbond.Weighted>
0.0000

> <Gold.Chemscore.DEClash.Weighted>
0.0324

> <Gold.Chemscore.DEInternal.Weighted>
0.8678

> <Gold.Chemscore.Rot.Weighted>
3.7321

> <Gold.Chemscore.Internal.Correction.Weighted>
   9.000000E+99

> <Gold.Protein.RotatedTorsions>
[ 6907 6896 6895 6894 ] final -159.47 input  -60.11 | X-H torsion
[ 7974 7965 7964 7962 ] final -124.96 input  175.53 | X-H torsion
[ 8008 7997 7996 7995 ] final   -2.61 input   59.86 | X-H torsion
[ 10167 10162 10161 10158 ] final   41.42 input  -65.29 | X-H torsion
[ 10718 10713 10712 10709 ] final  -80.22 input   66.30 | X-H torsion
[ 10763 10752 10751 10750 ] final   20.28 input  -60.55 | X-H torsion
[ 11005 11000 10999 10996 ] final -115.11 input  -57.11 | X-H torsion

> <Gold.Protein.ActiveResidues>
 VAL166  LYS551  ARG553  GLY616  TRP617  ASP618  TYR619  PRO620  LYS621  CYS622 
 ASP623  PHE694  ASN695  SER759  ASP760  ASP761  ALA762  ILE779  LEU786  VAL792 
 PHE793  MET794  SER795  GLU796  ALA797  LYS798  CYS799  TRP800  GLU811  SER814 

> <Gold.Protein.RotatedAtoms>
  151.3341  133.3988  159.2665 H   0  0  0  0  0  0  0  0  0  0  0  0  # atno 6907 bound_to 6896
  150.9931  134.9262  159.7921 H   0  0  0  0  0  0  0  0  0  0  0  0  # atno 6908 bound_to 6896
  152.5253  134.3306  159.9234 H   0  0  0  0  0  0  0  0  0  0  0  0  # atno 6909 bound_to 6896
  145.0025  140.7834  143.4487 H   0  0  0  0  0  0  0  0  0  0  0  0  # atno 7974 bound_to 7965
  154.6339  140.2530  155.7401 H   0  0  0  0  0  0  0  0  0  0  0  0  # atno 8008 bound_to 7997
  156.2494  140.2901  156.0623 H   0  0  0  0  0  0  0  0  0  0  0  0  # atno 8009 bound_to 7997
  155.1701  140.0386  157.2851 H   0  0  0  0  0  0  0  0  0  0  0  0  # atno 8010 bound_to 7997
  140.3645  144.2185  150.6136 H   0  0  0  0  0  0  0  0  0  0  0  0  # atno 10167 bound_to 10162
  156.0075  130.4568  150.3767 H   0  0  0  0  0  0  0  0  0  0  0  0  # atno 10718 bound_to 10713
  153.1091  135.6692  153.9533 H   0  0  0  0  0  0  0  0  0  0  0  0  # atno 10763 bound_to 10752
  153.9082  135.3028  155.3450 H   0  0  0  0  0  0  0  0  0  0  0  0  # atno 10764 bound_to 10752
  154.7511  135.5034  153.9367 H   0  0  0  0  0  0  0  0  0  0  0  0  # atno 10765 bound_to 10752
  141.0509  133.9689  157.2838 H   0  0  0  0  0  0  0  0  0  0  0  0  # atno 11005 bound_to 11000
  145.2133  139.2194  143.5131 LP  0  0  0  0  0  0  0  0  0  0  0  0  # atno 17320 bound_to 7965
  146.3455  140.1975  142.8589 LP  0  0  0  0  0  0  0  0  0  0  0  0  # atno 17321 bound_to 7965
  140.5094  143.2295  151.8558 LP  0  0  0  0  0  0  0  0  0  0  0  0  # atno 17342 bound_to 10162
  139.4810  144.4967  151.9114 LP  0  0  0  0  0  0  0  0  0  0  0  0  # atno 17343 bound_to 10162
  157.1849  131.0401  151.2729 LP  0  0  0  0  0  0  0  0  0  0  0  0  # atno 17370 bound_to 10713
  157.4113  130.7386  149.6841 LP  0  0  0  0  0  0  0  0  0  0  0  0  # atno 17371 bound_to 10713
  139.9350  135.0197  156.8525 LP  0  0  0  0  0  0  0  0  0  0  0  0  # atno 17394 bound_to 11000
  140.6057  134.0130  155.7555 LP  0  0  0  0  0  0  0  0  0  0  0  0  # atno 17395 bound_to 11000

$$$$
