AV-unprocessed.smi:134|AV-procd|sdf|1168|dock6
  -GOLD-   2262018313D 1   1.00000     0.00000
 Structure written by MMmdl.
 51 54  0  0  0  0  0  0  0  0  1 V2000
  146.3975  128.5648  156.9907 O   0  0  0  0  0  0  0  0  0  0  0  0
  146.5274  129.7713  156.7907 C   0  0  0  0  0  0  0  0  0  0  0  0
  147.5841  130.2385  155.7718 C   0  0  0  0  0  0  0  0  0  0  0  0
  147.2177  130.0422  154.3487 N   0  0  0  0  0  0  0  0  0  0  0  0
  147.7398  128.9170  153.6626 C   0  0  0  0  0  0  0  0  0  0  0  0
  148.4771  128.1103  154.2304 O   0  0  0  0  0  0  0  0  0  0  0  0
  147.3582  128.8002  152.2600 C   0  0  0  0  0  0  0  0  0  0  0  0
  147.8137  127.7679  151.5301 F   0  0  0  0  0  0  0  0  0  0  0  0
  146.5579  129.7172  151.6793 C   0  0  0  0  0  0  0  0  0  0  0  0
  146.0510  130.8088  152.3614 N   0  0  0  0  0  0  0  0  0  0  0  0
  145.1475  131.8186  151.6843 C   0  0  1  0  0  0  0  0  0  0  0  0
  145.8111  133.1984  151.6657 C   0  0  0  0  0  0  0  0  0  0  0  0
  146.5623  133.1603  150.3541 C   0  0  0  0  0  0  0  0  0  0  0  0
  145.6067  132.3585  149.4766 C   0  0  0  0  0  0  0  0  0  0  0  0
  144.9491  131.4426  150.3517 O   0  0  0  0  0  0  0  0  0  0  0  0
  146.3834  130.9978  153.7207 C   0  0  0  0  0  0  0  0  0  0  0  0
  145.9627  131.9777  154.3391 O   0  0  0  0  0  0  0  0  0  0  0  0
  145.7829  130.7186  157.3928 N   0  0  0  0  0  0  0  0  0  0  0  0
  144.7604  130.5709  158.3697 C   0  0  0  0  0  0  0  0  0  0  0  0
  144.4636  129.3277  158.9794 C   0  0  0  0  0  0  0  0  0  0  0  0
  143.4644  129.2397  159.9678 C   0  0  0  0  0  0  0  0  0  0  0  0
  142.7600  130.3909  160.3654 C   0  0  0  0  0  0  0  0  0  0  0  0
  143.0588  131.6339  159.7778 C   0  0  0  0  0  0  0  0  0  0  0  0
  144.0562  131.7267  158.7864 C   0  0  0  0  0  0  0  0  0  0  0  0
  144.3996  133.3048  158.0649 S   0  0  0  0  0  0  0  0  0  0  0  0
  145.1629  134.1103  159.4336 C   0  0  0  0  0  0  0  0  0  0  0  0
  145.3411  135.5081  159.4204 C   0  0  0  0  0  0  0  0  0  0  0  0
  145.9669  136.1466  160.5081 C   0  0  0  0  0  0  0  0  0  0  0  0
  146.4098  135.3884  161.6101 C   0  0  0  0  0  0  0  0  0  0  0  0
  147.1801  136.1702  162.9412 Cl  0  0  0  0  0  0  0  0  0  0  0  0
  146.2244  133.9915  161.6252 C   0  0  0  0  0  0  0  0  0  0  0  0
  145.6000  133.3514  160.5369 C   0  0  0  0  0  0  0  0  0  0  0  0
  147.7970  131.2904  155.9682 H   0  0  0  0  0  0  0  0  0  0  0  0
  148.5242  129.7374  156.0073 H   0  0  0  0  0  0  0  0  0  0  0  0
  146.3165  129.5798  150.6361 H   0  0  0  0  0  0  0  0  0  0  0  0
  144.2016  131.7840  152.2274 H   0  0  0  0  0  0  0  0  0  0  0  0
  145.0322  133.9615  151.6415 H   0  0  0  0  0  0  0  0  0  0  0  0
  146.4449  133.3663  152.5341 H   0  0  0  0  0  0  0  0  0  0  0  0
  146.7796  134.1514  149.9553 H   0  0  0  0  0  0  0  0  0  0  0  0
  147.5058  132.6269  150.4762 H   0  0  0  0  0  0  0  0  0  0  0  0
  144.8559  133.0159  149.0366 H   0  0  0  0  0  0  0  0  0  0  0  0
  146.1190  131.8394  148.6663 H   0  0  0  0  0  0  0  0  0  0  0  0
  145.9201  131.6609  157.0568 H   0  0  0  0  0  0  0  0  0  0  0  0
  145.0030  128.4310  158.7158 H   0  0  0  0  0  0  0  0  0  0  0  0
  143.2443  128.2873  160.4272 H   0  0  0  0  0  0  0  0  0  0  0  0
  141.9951  130.3215  161.1249 H   0  0  0  0  0  0  0  0  0  0  0  0
  142.5187  132.5165  160.0879 H   0  0  0  0  0  0  0  0  0  0  0  0
  145.0024  136.0927  158.5786 H   0  0  0  0  0  0  0  0  0  0  0  0
  146.1066  137.2175  160.4951 H   0  0  0  0  0  0  0  0  0  0  0  0
  146.5625  133.4092  162.4698 H   0  0  0  0  0  0  0  0  0  0  0  0
  145.4620  132.2801  160.5493 H   0  0  0  0  0  0  0  0  0  0  0  0
  1  2  2  0  0  0  0
  2  3  1  0  0  0  0
  2 18  1  0  0  0  0
  3  4  1  0  0  0  0
  3 33  1  0  0  0  0
  3 34  1  0  0  0  0
  4 16  1  0  0  0  0
  4  5  1  0  0  0  0
  5  6  2  0  0  0  0
  5  7  1  0  0  0  0
  7  8  1  0  0  0  0
  7  9  2  0  0  0  0
  9 10  1  0  0  0  0
  9 35  1  0  0  0  0
 10 11  1  0  0  0  0
 10 16  1  0  0  0  0
 11 15  1  0  0  0  0
 11 12  1  0  0  0  0
 11 36  1  0  0  0  0
 12 13  1  0  0  0  0
 12 37  1  0  0  0  0
 12 38  1  0  0  0  0
 13 14  1  0  0  0  0
 13 39  1  0  0  0  0
 13 40  1  0  0  0  0
 14 15  1  0  0  0  0
 14 41  1  0  0  0  0
 14 42  1  0  0  0  0
 16 17  2  0  0  0  0
 18 19  1  0  0  0  0
 18 43  1  0  0  0  0
 19 24  1  0  0  0  0
 19 20  2  0  0  0  0
 20 21  1  0  0  0  0
 20 44  1  0  0  0  0
 21 22  2  0  0  0  0
 21 45  1  0  0  0  0
 22 23  1  0  0  0  0
 22 46  1  0  0  0  0
 23 24  2  0  0  0  0
 23 47  1  0  0  0  0
 24 25  1  0  0  0  0
 25 26  1  0  0  0  0
 26 32  1  0  0  0  0
 26 27  2  0  0  0  0
 27 28  1  0  0  0  0
 27 48  1  0  0  0  0
 28 29  2  0  0  0  0
 28 49  1  0  0  0  0
 29 30  1  0  0  0  0
 29 31  1  0  0  0  0
 31 32  2  0  0  0  0
 31 50  1  0  0  0  0
 32 51  1  0  0  0  0
M  END
> <s_m_source_file>
AV-unprocessed.smi

> <i_m_source_file_index>
134

> <i_lp_mmshare_version>
43012

> <i_f3d_flags>
0

> <s_epik_input>
TzFbQ0gyXVtDSDJdW0NIMl1bQ0BIXTFuKGMyPU8pW2NIXWMoRiljKD1PKW4yW0NIMl1DKD1PKVtOSF1jM1tjSF1bY0hdW2NIXVtjSF1jM1NjNFtjSF1bY0hdYyhDbClbY0hdW2NIXTQ=

> <s_epik_cmdline>
J2VwaWtfcHl0aG9uJywgJy1waCcsICc3LjAnLCAnLXRuJywgJzgnLCAnLW1hJywgJzIwMCcsICctbWV0YWxfYmluZGluZycsICctaW1hZScsICc8aW5maWxlLm1hZT4nLCAnLW9tYWUnLCAnPG91dGZpbGUubWFlPic=

> <r_lp_tautomer_probability>
1

> <r_epik_Ionization_Penalty>
2.01717e-06

> <r_epik_Ionization_Penalty_Charging>
3.88729e-08

> <r_epik_Ionization_Penalty_Neutral>
1.9783e-06

> <r_epik_State_Penalty>
-0

> <r_epik_Charging_Adjusted_Penalty>
3.88729e-08

> <i_epik_Tot_Q>
0

> <i_epik_Tot_abs_Q>
0

> <r_epik_Metal_State_Penalty>
-0

> <b_epik_Metal_Only>
0

> <s_epik_Chemistry_Notes>
This compound contains an acetal/aminal-like group ( X-CH(R)-Y where X, Y are N, S, or O) that may be acid/base labile, releasing an aldehyde.

> <s_lp_Force_Field>
OPLS_2005

> <r_lp_Energy>
34.7756

> <b_lp_Chiralities_Consistent>
1

> <s_lp_Variant>
AV-unprocessed.smi:134-2

> <Gold.Version>
5.8.1

> <Gold.Id.Protein>
6NUR|6NUR_protein|mol2

> <Gold.PLP.Fitness>
41.6193

> <Gold.PLP.PLP>
-43.0976

> <Gold.PLP.part.hbond>
-0.0486

> <Gold.PLP.part.metal>
0.0000

> <Gold.PLP.part.buried>
-6.9830

> <Gold.PLP.part.nonpolar>
-36.1770

> <Gold.PLP.part.repulsive>
0.3672

> <Gold.PLP.ligand.clash>
0.0000

> <Gold.PLP.ligand.torsion>
0.7848

> <Gold.PLP.Chemscore.Hbond>
0.0000

> <Gold.PLP.Chemscore.CHOScore>
0.0000

> <Gold.PLP.Chemscore.Metal>
0.0000

> <Gold.PLP.Chemscore.Internal.Correction>
0.0912

> <Gold.Rescore>
     Score         DG    S(hbond)    S(metal)    S(lipo)     H(rot)  DE(clash)    DE(int)     intcor
     10.36     -12.83       0.00        0.00     105.59       1.95       0.02       2.45       ----

> <Gold.Chemscore.Fitness>
10.3614

> <Gold.Chemscore.DG>
-12.8293

> <Gold.Chemscore.ZeroCoef>
-5.4800

> <Gold.Chemscore.Hbond>
0.0000

> <Gold.Chemscore.Metal>
0.0000

> <Gold.Chemscore.Lipo>
105.5890

> <Gold.Chemscore.Internal_Hbond>
0.0000

> <Gold.Chemscore.DEClash>
0.0153

> <Gold.Chemscore.DEInternal>
2.4525

> <Gold.Chemscore.Rot>
1.9549

> <Gold.Chemscore.Internal.Correction>
   9.000000E+99

> <Gold.Chemscore.Hbond.Weighted>
-0.0000

> <Gold.Chemscore.Metal.Weighted>
-0.0000

> <Gold.Chemscore.Lipo.Weighted>
-12.3539

> <Gold.Chemscore.Internal_Hbond.Weighted>
0.0000

> <Gold.Chemscore.DEClash.Weighted>
0.0153

> <Gold.Chemscore.DEInternal.Weighted>
2.4525

> <Gold.Chemscore.Rot.Weighted>
5.0046

> <Gold.Chemscore.Internal.Correction.Weighted>
   9.000000E+99

> <Gold.Protein.RotatedTorsions>
[ 6907 6896 6895 6894 ] final   60.98 input  -60.11 | X-H torsion
[ 7974 7965 7964 7962 ] final  108.39 input  175.53 | X-H torsion
[ 8008 7997 7996 7995 ] final  -71.32 input   59.86 | X-H torsion
[ 10167 10162 10161 10158 ] final    7.49 input  -65.29 | X-H torsion
[ 10718 10713 10712 10709 ] final -125.74 input   66.30 | X-H torsion
[ 10763 10752 10751 10750 ] final   89.25 input  -60.55 | X-H torsion
[ 11005 11000 10999 10996 ] final  117.64 input  -57.11 | X-H torsion

> <Gold.Protein.ActiveResidues>
 VAL166  LYS551  ARG553  GLY616  TRP617  ASP618  TYR619  PRO620  LYS621  CYS622 
 ASP623  PHE694  ASN695  SER759  ASP760  ASP761  ALA762  ILE779  LEU786  VAL792 
 PHE793  MET794  SER795  GLU796  ALA797  LYS798  CYS799  TRP800  GLU811  SER814 

> <Gold.Protein.RotatedAtoms>
  152.4050  134.6223  160.0053 H   0  0  0  0  0  0  0  0  0  0  0  0  # atno 6907 bound_to 6896
  151.6417  133.3320  159.3139 H   0  0  0  0  0  0  0  0  0  0  0  0  # atno 6908 bound_to 6896
  150.7946  134.7037  159.6609 H   0  0  0  0  0  0  0  0  0  0  0  0  # atno 6909 bound_to 6896
  145.2813  139.2631  143.3914 H   0  0  0  0  0  0  0  0  0  0  0  0  # atno 7974 bound_to 7965
  154.5079  140.0818  156.7931 H   0  0  0  0  0  0  0  0  0  0  0  0  # atno 8008 bound_to 7997
  155.3852  140.3430  155.4230 H   0  0  0  0  0  0  0  0  0  0  0  0  # atno 8009 bound_to 7997
  156.1538  140.1566  156.8714 H   0  0  0  0  0  0  0  0  0  0  0  0  # atno 8010 bound_to 7997
  140.6369  143.7865  150.7372 H   0  0  0  0  0  0  0  0  0  0  0  0  # atno 10167 bound_to 10162
  156.1702  130.6662  151.0170 H   0  0  0  0  0  0  0  0  0  0  0  0  # atno 10718 bound_to 10713
  153.1852  135.4477  155.0079 H   0  0  0  0  0  0  0  0  0  0  0  0  # atno 10763 bound_to 10752
  154.8055  135.3273  154.7443 H   0  0  0  0  0  0  0  0  0  0  0  0  # atno 10764 bound_to 10752
  153.7903  135.6970  153.4928 H   0  0  0  0  0  0  0  0  0  0  0  0  # atno 10765 bound_to 10752
  139.9081  134.9612  156.7381 H   0  0  0  0  0  0  0  0  0  0  0  0  # atno 11005 bound_to 11000
  146.3215  140.3281  142.8638 LP  0  0  0  0  0  0  0  0  0  0  0  0  # atno 17320 bound_to 7965
  144.9250  140.7911  143.5724 LP  0  0  0  0  0  0  0  0  0  0  0  0  # atno 17321 bound_to 7965
  140.1489  143.4375  152.2145 LP  0  0  0  0  0  0  0  0  0  0  0  0  # atno 17342 bound_to 10162
  139.5579  144.7385  151.4240 LP  0  0  0  0  0  0  0  0  0  0  0  0  # atno 17343 bound_to 10162
  157.6797  131.0841  150.7401 LP  0  0  0  0  0  0  0  0  0  0  0  0  # atno 17370 bound_to 10713
  156.7461  130.4754  149.5467 LP  0  0  0  0  0  0  0  0  0  0  0  0  # atno 17371 bound_to 10713
  140.6871  133.9422  155.7944 LP  0  0  0  0  0  0  0  0  0  0  0  0  # atno 17394 bound_to 11000
  141.0468  134.0542  157.3834 LP  0  0  0  0  0  0  0  0  0  0  0  0  # atno 17395 bound_to 11000

$$$$
