AV-unprocessed.smi:2864|AV-procd|sdf|11013|dock5
  -GOLD-   2272015473D 1   1.00000     0.00000
 Structure written by MMmdl.
 37 38  0  0  0  0  0  0  0  0  1 V2000
  151.2032  145.5593  160.0272 C   0  0  0  0  0  0  0  0  0  0  0  0
  151.7597  144.1506  160.0078 C   0  0  0  0  0  0  0  0  0  0  0  0
  152.7913  143.7861  160.8930 C   0  0  0  0  0  0  0  0  0  0  0  0
  153.2979  142.4740  160.8801 C   0  0  0  0  0  0  0  0  0  0  0  0
  152.7832  141.5135  159.9832 C   0  0  0  0  0  0  0  0  0  0  0  0
  153.3515  140.1045  160.0217 C   0  0  0  0  0  0  0  0  0  0  0  0
  151.7511  141.8771  159.0780 C   0  0  0  0  0  0  0  0  0  0  0  0
  151.1603  140.8638  158.0972 C   0  0  2  0  0  0  0  0  0  0  0  0
  150.6224  139.7377  158.7648 O   0  0  0  0  0  0  0  0  0  0  0  0
  152.2315  140.3798  157.0954 C   0  0  0  0  0  0  0  0  0  0  0  0
  151.6322  139.7325  155.9220 N   0  0  0  0  0  0  0  0  0  0  0  0
  150.3265  140.1186  155.6702 N   0  0  0  0  0  0  0  0  0  0  0  0
  149.6570  139.6238  154.6797 C   0  0  0  0  0  0  0  0  0  0  0  0
  148.2386  140.1032  154.4923 C   0  0  0  0  0  0  0  0  0  0  0  0
  147.6613  139.4430  153.4879 F   0  0  0  0  0  0  0  0  0  0  0  0
  147.5167  139.9108  155.5968 F   0  0  0  0  0  0  0  0  0  0  0  0
  148.2302  141.4048  154.2024 F   0  0  0  0  0  0  0  0  0  0  0  0
  150.2964  138.6461  153.8148 C   0  0  0  0  0  0  0  0  0  0  0  0
  151.5682  138.2680  154.0652 C   0  0  0  0  0  0  0  0  0  0  0  0
  152.3266  138.8166  155.1869 C   0  0  0  0  0  0  0  0  0  0  0  0
  153.4807  138.4802  155.4495 O   0  0  0  0  0  0  0  0  0  0  0  0
  151.2423  143.1968  159.1094 C   0  0  0  0  0  0  0  0  0  0  0  0
  151.9710  146.2767  160.3183 H   0  0  0  0  0  0  0  0  0  0  0  0
  150.3805  145.6282  160.7391 H   0  0  0  0  0  0  0  0  0  0  0  0
  150.8309  145.8442  159.0427 H   0  0  0  0  0  0  0  0  0  0  0  0
  153.1936  144.5090  161.5876 H   0  0  0  0  0  0  0  0  0  0  0  0
  154.0852  142.2066  161.5698 H   0  0  0  0  0  0  0  0  0  0  0  0
  152.5543  139.3682  160.1230 H   0  0  0  0  0  0  0  0  0  0  0  0
  154.0297  139.9728  160.8652 H   0  0  0  0  0  0  0  0  0  0  0  0
  153.9087  139.8929  159.1090 H   0  0  0  0  0  0  0  0  0  0  0  0
  150.3292  141.3241  157.5641 H   0  0  0  0  0  0  0  0  0  0  0  0
  150.5899  139.9245  159.6908 H   0  0  0  0  0  0  0  0  0  0  0  0
  152.7928  141.2433  156.7320 H   0  0  0  0  0  0  0  0  0  0  0  0
  152.9798  139.7527  157.5842 H   0  0  0  0  0  0  0  0  0  0  0  0
  149.7550  138.2267  152.9799 H   0  0  0  0  0  0  0  0  0  0  0  0
  152.0396  137.5404  153.4205 H   0  0  0  0  0  0  0  0  0  0  0  0
  150.4438  143.4848  158.4412 H   0  0  0  0  0  0  0  0  0  0  0  0
  1  2  1  0  0  0  0
  1 23  1  0  0  0  0
  1 24  1  0  0  0  0
  1 25  1  0  0  0  0
  2 22  1  0  0  0  0
  2  3  2  0  0  0  0
  3  4  1  0  0  0  0
  3 26  1  0  0  0  0
  4  5  2  0  0  0  0
  4 27  1  0  0  0  0
  5  6  1  0  0  0  0
  5  7  1  0  0  0  0
  6 28  1  0  0  0  0
  6 29  1  0  0  0  0
  6 30  1  0  0  0  0
  7  8  1  0  0  0  0
  7 22  2  0  0  0  0
  8  9  1  0  0  0  0
  8 10  1  0  0  0  0
  8 31  1  0  0  0  0
  9 32  1  0  0  0  0
 10 11  1  0  0  0  0
 10 33  1  0  0  0  0
 10 34  1  0  0  0  0
 11 20  1  0  0  0  0
 11 12  1  0  0  0  0
 12 13  2  0  0  0  0
 13 14  1  0  0  0  0
 13 18  1  0  0  0  0
 14 15  1  0  0  0  0
 14 16  1  0  0  0  0
 14 17  1  0  0  0  0
 18 19  2  0  0  0  0
 18 35  1  0  0  0  0
 19 20  1  0  0  0  0
 19 36  1  0  0  0  0
 20 21  2  0  0  0  0
 22 37  1  0  0  0  0
M  END
> <s_m_source_file>
AV-unprocessed.smi

> <i_m_source_file_index>
2864

> <i_lp_mmshare_version>
43012

> <i_f3d_flags>
0

> <s_epik_input>
W0NIM11jMVtjSF1bY0hdYyhbQ0gzXSljKFtjSF0xKVtDQEhdKFtPSF0pW0NIMl1uMm5jKEMoRikoRilGKVtjSF1bY0hdYzI9Tw==

> <s_epik_cmdline>
J2VwaWtfcHl0aG9uJywgJy1waCcsICc3LjAnLCAnLXRuJywgJzgnLCAnLW1hJywgJzIwMCcsICctbWV0YWxfYmluZGluZycsICctaW1hZScsICc8aW5maWxlLm1hZT4nLCAnLW9tYWUnLCAnPG91dGZpbGUubWFlPic=

> <r_lp_tautomer_probability>
1

> <r_epik_Ionization_Penalty>
5.25156e-08

> <r_epik_Ionization_Penalty_Charging>
3.92872e-09

> <r_epik_Ionization_Penalty_Neutral>
4.85868e-08

> <r_epik_State_Penalty>
-0

> <r_epik_Charging_Adjusted_Penalty>
3.92872e-09

> <i_epik_Tot_Q>
0

> <i_epik_Tot_abs_Q>
0

> <r_epik_Metal_State_Penalty>
-0

> <b_epik_Metal_Only>
0

> <s_lp_Force_Field>
OPLS_2005

> <r_lp_Energy>
30.6225

> <b_lp_Chiralities_Consistent>
1

> <s_lp_Variant>
AV-unprocessed.smi:2864-1

> <Gold.Version>
5.8.1

> <Gold.Id.Protein>
6NUR|6NUR_protein|mol2

> <Gold.PLP.Fitness>
46.9781

> <Gold.PLP.PLP>
-45.5701

> <Gold.PLP.part.hbond>
-1.0000

> <Gold.PLP.part.metal>
0.0000

> <Gold.PLP.part.buried>
-3.0953

> <Gold.PLP.part.nonpolar>
-39.3545

> <Gold.PLP.part.repulsive>
0.0252

> <Gold.PLP.ligand.clash>
0.0000

> <Gold.PLP.ligand.torsion>
0.5142

> <Gold.PLP.Chemscore.Hbond>
0.8089

> <Gold.PLP.Chemscore.CHOScore>
0.0000

> <Gold.PLP.Chemscore.Metal>
0.0000

> <Gold.Chemscore.Hbonds>
donor molecule, donor type, donor heavy atom, donor atom, acceptor molecule, acceptor atom, score
      P1  H  7997  8010       L1    21  0.85

> <Gold.PLP.Chemscore.Internal.Correction>
0.0099

> <Gold.Rescore>
     Score         DG    S(hbond)    S(metal)    S(lipo)     H(rot)  DE(clash)    DE(int)     intcor
     14.99     -16.43       0.57        0.00     122.20       2.05       0.26       1.17       ----

> <Gold.Chemscore.Fitness>
14.9932

> <Gold.Chemscore.DG>
-16.4257

> <Gold.Chemscore.ZeroCoef>
-5.4800

> <Gold.Chemscore.Hbond>
0.5690

> <Gold.Chemscore.Metal>
0.0000

> <Gold.Chemscore.Lipo>
122.2028

> <Gold.Chemscore.Internal_Hbond>
0.0000

> <Gold.Chemscore.DEClash>
0.2627

> <Gold.Chemscore.DEInternal>
1.1698

> <Gold.Chemscore.Rot>
2.0517

> <Gold.Chemscore.Internal.Correction>
   9.000000E+99

> <Gold.Chemscore.Hbonds>
donor molecule, donor type, donor heavy atom, donor atom, acceptor molecule, acceptor atom, score
      P1  H  7997  8010       L1    21  0.44

> <Gold.Chemscore.Hbond.Weighted>
-1.9003

> <Gold.Chemscore.Metal.Weighted>
-0.0000

> <Gold.Chemscore.Lipo.Weighted>
-14.2977

> <Gold.Chemscore.Internal_Hbond.Weighted>
0.0000

> <Gold.Chemscore.DEClash.Weighted>
0.2627

> <Gold.Chemscore.DEInternal.Weighted>
1.1698

> <Gold.Chemscore.Rot.Weighted>
5.2524

> <Gold.Chemscore.Internal.Correction.Weighted>
   9.000000E+99

> <Gold.Protein.RotatedTorsions>
[ 6907 6896 6895 6894 ] final   97.40 input  -60.11 | X-H torsion
[ 7974 7965 7964 7962 ] final   19.72 input  175.53 | X-H torsion
[ 8008 7997 7996 7995 ] final   92.71 input   59.86 | X-H torsion
[ 10167 10162 10161 10158 ] final   67.43 input  -65.29 | X-H torsion
[ 10718 10713 10712 10709 ] final -112.46 input   66.30 | X-H torsion
[ 10763 10752 10751 10750 ] final -120.94 input  -60.55 | X-H torsion
[ 11005 11000 10999 10996 ] final -118.73 input  -57.11 | X-H torsion

> <Gold.Protein.ActiveResidues>
 VAL166  LYS551  ARG553  GLY616  TRP617  ASP618  TYR619  PRO620  LYS621  CYS622 
 ASP623  PHE694  ASN695  SER759  ASP760  ASP761  ALA762  ILE779  LEU786  VAL792 
 PHE793  MET794  SER795  GLU796  ALA797  LYS798  CYS799  TRP800  GLU811  SER814 

> <Gold.Protein.RotatedAtoms>
  152.5424  134.0739  159.8205 H   0  0  0  0  0  0  0  0  0  0  0  0  # atno 6907 bound_to 6896
  151.0849  133.5353  159.2625 H   0  0  0  0  0  0  0  0  0  0  0  0  # atno 6908 bound_to 6896
  151.2166  135.0511  159.8987 H   0  0  0  0  0  0  0  0  0  0  0  0  # atno 6909 bound_to 6896
  146.2138  139.8272  142.8667 H   0  0  0  0  0  0  0  0  0  0  0  0  # atno 7974 bound_to 7965
  156.0385  140.3322  155.7217 H   0  0  0  0  0  0  0  0  0  0  0  0  # atno 8008 bound_to 7997
  155.5780  140.0634  157.2808 H   0  0  0  0  0  0  0  0  0  0  0  0  # atno 8009 bound_to 7997
  154.4383  140.1849  156.0936 H   0  0  0  0  0  0  0  0  0  0  0  0  # atno 8010 bound_to 7997
  140.0896  144.4999  150.7107 H   0  0  0  0  0  0  0  0  0  0  0  0  # atno 10167 bound_to 10162
  156.0707  130.5921  150.8511 H   0  0  0  0  0  0  0  0  0  0  0  0  # atno 10718 bound_to 10713
  154.8656  135.4185  154.2541 H   0  0  0  0  0  0  0  0  0  0  0  0  # atno 10763 bound_to 10752
  153.3481  135.6997  153.6816 H   0  0  0  0  0  0  0  0  0  0  0  0  # atno 10764 bound_to 10752
  153.5767  135.3581  155.2832 H   0  0  0  0  0  0  0  0  0  0  0  0  # atno 10765 bound_to 10752
  141.0265  134.0045  157.3206 H   0  0  0  0  0  0  0  0  0  0  0  0  # atno 11005 bound_to 11000
  145.3035  141.0200  143.3595 LP  0  0  0  0  0  0  0  0  0  0  0  0  # atno 17320 bound_to 7965
  144.8988  139.4676  143.6642 LP  0  0  0  0  0  0  0  0  0  0  0  0  # atno 17321 bound_to 7965
  140.7035  143.2451  151.4794 LP  0  0  0  0  0  0  0  0  0  0  0  0  # atno 17342 bound_to 10162
  139.5732  144.1879  152.1866 LP  0  0  0  0  0  0  0  0  0  0  0  0  # atno 17343 bound_to 10162
  157.5776  131.0946  150.9322 LP  0  0  0  0  0  0  0  0  0  0  0  0  # atno 17370 bound_to 10713
  156.9525  130.5425  149.5283 LP  0  0  0  0  0  0  0  0  0  0  0  0  # atno 17371 bound_to 10713
  139.9180  135.0198  156.7954 LP  0  0  0  0  0  0  0  0  0  0  0  0  # atno 17394 bound_to 11000
  140.6481  133.9756  155.7741 LP  0  0  0  0  0  0  0  0  0  0  0  0  # atno 17395 bound_to 11000

$$$$
