AV-unprocessed.smi:109|AV-procd|sdf|1060|dock8
  -GOLD-   2262018133D 1   1.00000     0.00000
 Structure written by MMmdl.
 58 61  0  0  0  0  0  0  0  0  1 V2000
  146.5052  136.4251  152.5465 O   0  0  0  0  0  0  0  0  0  0  0  0
  146.1643  136.6294  153.9006 C   0  0  0  0  0  0  0  0  0  0  0  0
  146.6777  135.4564  154.7503 C   0  0  0  0  0  0  0  0  0  0  0  0
  148.2074  135.4908  154.9640 C   0  0  1  0  0  0  0  0  0  0  0  0
  148.5410  136.4723  155.9961 N   0  0  0  0  0  0  0  0  0  0  0  0
  149.2757  137.5729  155.7187 C   0  0  0  0  0  0  0  0  0  0  0  0
  149.5080  137.9644  154.4388 N   0  0  0  0  0  0  0  0  0  0  0  0
  150.2318  139.0608  154.1967 C   0  0  0  0  0  0  0  0  0  0  0  0
  150.8004  139.8941  155.0702 N   0  0  0  0  0  0  0  0  0  0  0  0
  150.5701  139.5086  156.3586 C   0  0  0  0  0  0  0  0  0  0  0  0
  149.8250  138.3644  156.7603 C   0  0  0  0  0  0  0  0  0  0  0  0
  149.8033  138.2784  158.1456 N   0  0  0  0  0  0  0  0  0  0  0  0
  150.4922  139.3165  158.5363 C   0  0  0  0  0  0  0  0  0  0  0  0
  150.9891  140.1133  157.5286 N   0  0  0  0  0  0  0  0  0  0  0  0
  151.7989  141.3664  157.6853 C   0  0  2  0  0  0  0  0  0  0  0  0
  152.0007  141.6257  159.0441 O   0  0  0  0  0  0  0  0  0  0  0  0
  151.4483  142.8928  159.4015 C   0  0  1  0  0  0  0  0  0  0  0  0
  152.2777  143.5206  160.5320 C   0  0  0  0  0  0  0  0  0  0  0  0
  151.8758  142.9928  161.7781 O   0  0  0  0  0  0  0  0  0  0  0  0
  151.5127  143.6714  158.0863 C   0  0  2  0  0  0  0  0  0  0  0  0
  150.6571  144.7977  158.0550 O   0  0  0  0  0  0  0  0  0  0  0  0
  151.1346  142.6097  157.0636 C   0  0  2  0  0  0  0  0  0  0  0  0
  149.7297  142.4840  156.9011 O   0  0  0  0  0  0  0  0  0  0  0  0
  148.8323  134.1072  155.2955 C   0  0  0  0  0  0  0  0  0  0  0  0
  150.3016  134.2102  155.7599 C   0  0  0  0  0  0  0  0  0  0  0  0
  150.8572  132.8385  156.1764 C   0  0  0  0  0  0  0  0  0  0  0  0
  150.7199  131.8153  155.0382 C   0  0  0  0  0  0  0  0  0  0  0  0
  149.2614  131.7038  154.5679 C   0  0  0  0  0  0  0  0  0  0  0  0
  148.7025  133.0748  154.1524 C   0  0  0  0  0  0  0  0  0  0  0  0
  152.7611  141.1305  157.2291 H   0  0  0  0  0  0  0  0  0  0  0  0
  150.4056  142.7711  159.7000 H   0  0  0  0  0  0  0  0  0  0  0  0
  152.5378  143.9987  157.9047 H   0  0  0  0  0  0  0  0  0  0  0  0
  151.5765  142.8111  156.0873 H   0  0  0  0  0  0  0  0  0  0  0  0
  147.4335  136.5708  152.4455 H   0  0  0  0  0  0  0  0  0  0  0  0
  146.6030  137.5690  154.2378 H   0  0  0  0  0  0  0  0  0  0  0  0
  145.0813  136.7269  153.9801 H   0  0  0  0  0  0  0  0  0  0  0  0
  146.1639  135.4512  155.7125 H   0  0  0  0  0  0  0  0  0  0  0  0
  146.3927  134.5325  154.2490 H   0  0  0  0  0  0  0  0  0  0  0  0
  148.6405  135.8260  154.0208 H   0  0  0  0  0  0  0  0  0  0  0  0
  148.2474  136.2355  156.9331 H   0  0  0  0  0  0  0  0  0  0  0  0
  150.3738  139.3077  153.1548 H   0  0  0  0  0  0  0  0  0  0  0  0
  150.6559  139.5336  159.5819 H   0  0  0  0  0  0  0  0  0  0  0  0
  153.3452  143.3613  160.3775 H   0  0  0  0  0  0  0  0  0  0  0  0
  152.1121  144.5979  160.5657 H   0  0  0  0  0  0  0  0  0  0  0  0
  152.6128  143.0202  162.3686 H   0  0  0  0  0  0  0  0  0  0  0  0
  150.2565  144.8399  157.1996 H   0  0  0  0  0  0  0  0  0  0  0  0
  149.4120  143.2478  156.4444 H   0  0  0  0  0  0  0  0  0  0  0  0
  148.2800  133.7056  156.1463 H   0  0  0  0  0  0  0  0  0  0  0  0
  150.9284  134.6142  154.9658 H   0  0  0  0  0  0  0  0  0  0  0  0
  150.3792  134.9035  156.5981 H   0  0  0  0  0  0  0  0  0  0  0  0
  151.9042  132.9342  156.4652 H   0  0  0  0  0  0  0  0  0  0  0  0
  150.3245  132.4794  157.0579 H   0  0  0  0  0  0  0  0  0  0  0  0
  151.3518  132.1132  154.2006 H   0  0  0  0  0  0  0  0  0  0  0  0
  151.0808  130.8406  155.3675 H   0  0  0  0  0  0  0  0  0  0  0  0
  149.1925  131.0060  153.7329 H   0  0  0  0  0  0  0  0  0  0  0  0
  148.6500  131.2873  155.3694 H   0  0  0  0  0  0  0  0  0  0  0  0
  147.6581  132.9639  153.8593 H   0  0  0  0  0  0  0  0  0  0  0  0
  149.2377  133.4216  153.2682 H   0  0  0  0  0  0  0  0  0  0  0  0
  1  2  1  0  0  0  0
  1 34  1  0  0  0  0
  2  3  1  0  0  0  0
  2 35  1  0  0  0  0
  2 36  1  0  0  0  0
  3  4  1  0  0  0  0
  3 37  1  0  0  0  0
  3 38  1  0  0  0  0
  4  5  1  0  0  0  0
  4 24  1  0  0  0  0
  4 39  1  0  0  0  0
  5  6  1  0  0  0  0
  5 40  1  0  0  0  0
  6 11  1  0  0  0  0
  6  7  2  0  0  0  0
  7  8  1  0  0  0  0
  8  9  2  0  0  0  0
  8 41  1  0  0  0  0
  9 10  1  0  0  0  0
 10 14  1  0  0  0  0
 10 11  2  0  0  0  0
 11 12  1  0  0  0  0
 12 13  2  0  0  0  0
 13 14  1  0  0  0  0
 13 42  1  0  0  0  0
 14 15  1  0  0  0  0
 15 30  1  0  0  0  0
 15 22  1  0  0  0  0
 15 16  1  0  0  0  0
 16 17  1  0  0  0  0
 17 31  1  0  0  0  0
 17 18  1  0  0  0  0
 17 20  1  0  0  0  0
 18 19  1  0  0  0  0
 18 43  1  0  0  0  0
 18 44  1  0  0  0  0
 19 45  1  0  0  0  0
 20 32  1  0  0  0  0
 20 21  1  0  0  0  0
 20 22  1  0  0  0  0
 21 46  1  0  0  0  0
 22 33  1  0  0  0  0
 22 23  1  0  0  0  0
 23 47  1  0  0  0  0
 24 29  1  0  0  0  0
 24 25  1  0  0  0  0
 24 48  1  0  0  0  0
 25 26  1  0  0  0  0
 25 49  1  0  0  0  0
 25 50  1  0  0  0  0
 26 27  1  0  0  0  0
 26 51  1  0  0  0  0
 26 52  1  0  0  0  0
 27 28  1  0  0  0  0
 27 53  1  0  0  0  0
 27 54  1  0  0  0  0
 28 29  1  0  0  0  0
 28 55  1  0  0  0  0
 28 56  1  0  0  0  0
 29 57  1  0  0  0  0
 29 58  1  0  0  0  0
M  END
> <s_m_source_file>
AV-unprocessed.smi

> <i_m_source_file_index>
109

> <i_lp_mmshare_version>
43012

> <i_f3d_flags>
0

> <s_epik_input>
W0NIMl0xW0NIMl1bQ0gyXVtDSDJdW0NIMl1bQ0hdMVtDQEhdKFtDSDJdW0NIMl1bT0hdKVtOSF1jKG5bY0hdbjIpYyhjMjMpbltjSF1uM1tDQEBIXTRPW0NASF0oW0NIMl1bT0hdKVtDQEBIXShbT0hdKVtDQEhdNFtPSF0=

> <s_epik_cmdline>
J2VwaWtfcHl0aG9uJywgJy1waCcsICc3LjAnLCAnLXRuJywgJzgnLCAnLW1hJywgJzIwMCcsICctbWV0YWxfYmluZGluZycsICctaW1hZScsICc8aW5maWxlLm1hZT4nLCAnLW9tYWUnLCAnPG91dGZpbGUubWFlPic=

> <r_lp_tautomer_probability>
1

> <r_epik_Ionization_Penalty>
0.000793976

> <r_epik_Ionization_Penalty_Charging>
0

> <r_epik_Ionization_Penalty_Neutral>
0.000793976

> <r_epik_State_Penalty>
-0

> <r_epik_Charging_Adjusted_Penalty>
0

> <i_epik_Tot_Q>
0

> <i_epik_Tot_abs_Q>
0

> <r_epik_Metal_State_Penalty>
-0

> <b_epik_Metal_Only>
0

> <s_epik_Chemistry_Notes>
This compound contains an acetal/aminal-like group ( X-CH(R)-Y where X, Y are N, S, or O) that may be acid/base labile, releasing an aldehyde.

> <s_lp_Force_Field>
OPLS_2005

> <r_lp_Energy>
62.1287

> <b_lp_Chiralities_Consistent>
1

> <s_lp_Variant>
AV-unprocessed.smi:109-30

> <Gold.Version>
5.8.1

> <Gold.Id.Protein>
6NUR|6NUR_protein|mol2

> <Gold.PLP.Fitness>
53.3238

> <Gold.PLP.PLP>
-39.7487

> <Gold.PLP.part.hbond>
-6.3599

> <Gold.PLP.part.metal>
0.0000

> <Gold.PLP.part.buried>
-7.9113

> <Gold.PLP.part.nonpolar>
-27.1892

> <Gold.PLP.part.repulsive>
0.3056

> <Gold.PLP.ligand.clash>
0.0000

> <Gold.PLP.ligand.torsion>
0.5952

> <Gold.PLP.Chemscore.Hbond>
3.7854

> <Gold.PLP.Chemscore.CHOScore>
1.0000

> <Gold.PLP.Chemscore.Metal>
0.0000

> <Gold.Chemscore.Hbonds>
donor molecule, donor type, donor heavy atom, donor atom, acceptor molecule, acceptor atom, score
      L1  H     1    34       P1  7948  1.00
      L1  H    21    46       P1  8028  1.00
      L1  H    23    47       P1  8028  1.00
      P1  H  6933  6945       L1    19  0.33
      P1  H  7989  7998       L1     9  0.40
      L1  C     8    41       P1  7957  1.00

> <Gold.PLP.Chemscore.Internal.Correction>
0.4094

> <Gold.Rescore>
     Score         DG    S(hbond)    S(metal)    S(lipo)     H(rot)  DE(clash)    DE(int)     intcor
      9.61     -10.47       2.93        0.00      78.76       5.47       0.19       0.67       ----

> <Gold.Chemscore.Fitness>
9.6137

> <Gold.Chemscore.DG>
-10.4731

> <Gold.Chemscore.ZeroCoef>
-5.4800

> <Gold.Chemscore.Hbond>
2.9258

> <Gold.Chemscore.Metal>
0.0000

> <Gold.Chemscore.Lipo>
78.7573

> <Gold.Chemscore.Internal_Hbond>
0.0000

> <Gold.Chemscore.DEClash>
0.1880

> <Gold.Chemscore.DEInternal>
0.6714

> <Gold.Chemscore.Rot>
5.4662

> <Gold.Chemscore.Internal.Correction>
   9.000000E+99

> <Gold.Chemscore.Hbonds>
donor molecule, donor type, donor heavy atom, donor atom, acceptor molecule, acceptor atom, score
      L1  H     1    34       P1  7948  0.97
      L1  H    21    46       P1  8028  0.24
      L1  H    23    47       P1  8028  1.00
      P1  H  6933  6945       L1    19  0.32
      P1  H  7989  7998       L1     9  0.01

> <Gold.Chemscore.Hbond.Weighted>
-9.7720

> <Gold.Chemscore.Metal.Weighted>
-0.0000

> <Gold.Chemscore.Lipo.Weighted>
-9.2146

> <Gold.Chemscore.Internal_Hbond.Weighted>
0.0000

> <Gold.Chemscore.DEClash.Weighted>
0.1880

> <Gold.Chemscore.DEInternal.Weighted>
0.6714

> <Gold.Chemscore.Rot.Weighted>
13.9935

> <Gold.Chemscore.Internal.Correction.Weighted>
   9.000000E+99

> <Gold.Protein.RotatedTorsions>
[ 6907 6896 6895 6894 ] final   -9.37 input  -60.11 | X-H torsion
[ 7974 7965 7964 7962 ] final   87.84 input  175.53 | X-H torsion
[ 8008 7997 7996 7995 ] final   95.08 input   59.86 | X-H torsion
[ 10167 10162 10161 10158 ] final -162.41 input  -65.29 | X-H torsion
[ 10718 10713 10712 10709 ] final  142.51 input   66.30 | X-H torsion
[ 10763 10752 10751 10750 ] final  -52.07 input  -60.55 | X-H torsion
[ 11005 11000 10999 10996 ] final -147.58 input  -57.11 | X-H torsion

> <Gold.Protein.ActiveResidues>
 VAL166  LYS551  ARG553  GLY616  TRP617  ASP618  TYR619  PRO620  LYS621  CYS622 
 ASP623  PHE694  ASN695  SER759  ASP760  ASP761  ALA762  ILE779  LEU786  VAL792 
 PHE793  MET794  SER795  GLU796  ALA797  LYS798  CYS799  TRP800  GLU811  SER814 

> <Gold.Protein.RotatedAtoms>
  151.4189  135.0995  159.9607 H   0  0  0  0  0  0  0  0  0  0  0  0  # atno 6907 bound_to 6896
  152.4995  133.8726  159.7316 H   0  0  0  0  0  0  0  0  0  0  0  0  # atno 6908 bound_to 6896
  150.9237  133.6791  159.2854 H   0  0  0  0  0  0  0  0  0  0  0  0  # atno 6909 bound_to 6896
  145.5536  139.2297  143.2499 H   0  0  0  0  0  0  0  0  0  0  0  0  # atno 7974 bound_to 7965
  156.0649  140.3291  155.7506 H   0  0  0  0  0  0  0  0  0  0  0  0  # atno 8008 bound_to 7997
  155.5396  140.0600  157.2890 H   0  0  0  0  0  0  0  0  0  0  0  0  # atno 8009 bound_to 7997
  154.4500  140.1913  156.0566 H   0  0  0  0  0  0  0  0  0  0  0  0  # atno 8010 bound_to 7997
  139.6394  144.0288  152.2080 H   0  0  0  0  0  0  0  0  0  0  0  0  # atno 10167 bound_to 10162
  157.3797  131.0990  151.0750 H   0  0  0  0  0  0  0  0  0  0  0  0  # atno 10718 bound_to 10713
  154.1368  135.6511  153.4933 H   0  0  0  0  0  0  0  0  0  0  0  0  # atno 10763 bound_to 10752
  153.0178  135.5306  154.6945 H   0  0  0  0  0  0  0  0  0  0  0  0  # atno 10764 bound_to 10752
  154.6195  135.2963  155.0312 H   0  0  0  0  0  0  0  0  0  0  0  0  # atno 10765 bound_to 10752
  140.7702  134.3198  157.5077 H   0  0  0  0  0  0  0  0  0  0  0  0  # atno 11005 bound_to 11000
  146.1900  140.6359  142.9150 LP  0  0  0  0  0  0  0  0  0  0  0  0  # atno 17320 bound_to 7965
  144.7517  140.5208  143.6797 LP  0  0  0  0  0  0  0  0  0  0  0  0  # atno 17321 bound_to 7965
  139.9974  144.6318  150.7760 LP  0  0  0  0  0  0  0  0  0  0  0  0  # atno 17342 bound_to 10162
  140.7483  143.2920  151.3306 LP  0  0  0  0  0  0  0  0  0  0  0  0  # atno 17343 bound_to 10162
  157.1823  130.6315  149.5676 LP  0  0  0  0  0  0  0  0  0  0  0  0  # atno 17370 bound_to 10713
  155.9773  130.4749  150.6585 LP  0  0  0  0  0  0  0  0  0  0  0  0  # atno 17371 bound_to 10713
  139.8757  134.9256  156.3379 LP  0  0  0  0  0  0  0  0  0  0  0  0  # atno 17394 bound_to 11000
  140.9581  133.7407  156.0363 LP  0  0  0  0  0  0  0  0  0  0  0  0  # atno 17395 bound_to 11000

$$$$
