AV-unprocessed.smi:2451|AV-procd|sdf|9674|dock3
  -GOLD-   2272013313D 1   1.00000     0.00000
 Structure written by MMmdl.
 38 39  0  0  0  0  0  0  0  0  1 V2000
  151.4565  144.8196  159.1862 C   0  0  0  0  0  0  0  0  0  0  0  0
  152.3001  143.5364  159.0741 C   0  0  1  0  0  0  0  0  0  0  0  0
  152.8830  143.1803  160.4564 C   0  0  0  0  0  0  0  0  0  0  0  0
  153.7647  141.9286  160.3957 C   0  0  0  0  0  0  0  0  0  0  0  0
  152.9670  140.7385  159.8568 C   0  0  0  0  0  0  0  0  0  0  0  0
  152.3668  141.0467  158.4741 C   0  0  1  0  0  0  0  0  0  0  0  0
  151.5539  139.8998  158.0567 N   0  0  0  0  0  0  0  0  0  0  0  0
  152.3359  138.5486  157.3247 S   0  0  0  0  0  0  0  0  0  0  0  0
  153.6920  138.4591  157.8885 O   0  0  0  0  0  0  0  0  0  0  0  0
  151.4226  137.4000  157.4232 O   0  0  0  0  0  0  0  0  0  0  0  0
  152.4657  139.0733  155.5641 C   0  0  0  0  0  0  0  0  0  0  0  0
  151.0908  139.2775  154.9964 C   0  0  0  0  0  0  0  0  0  0  0  0
  150.1126  138.2952  154.6778 C   0  0  0  0  0  0  0  0  0  0  0  0
  149.0665  139.0305  154.2002 C   0  0  0  0  0  0  0  0  0  0  0  0
  149.3690  140.3533  154.2167 O   0  0  0  0  0  0  0  0  0  0  0  0
  150.6648  140.5010  154.7247 N   0  0  0  0  0  0  0  0  0  0  0  0
  151.5104  142.3409  158.4681 C   0  0  2  0  0  0  0  0  0  0  0  0
  151.0127  142.6553  157.0401 C   0  0  0  0  0  0  0  0  0  0  0  0
  150.5456  144.6465  159.7601 H   0  0  0  0  0  0  0  0  0  0  0  0
  151.1704  145.2061  158.2086 H   0  0  0  0  0  0  0  0  0  0  0  0
  152.0149  145.6127  159.6844 H   0  0  0  0  0  0  0  0  0  0  0  0
  153.1404  143.7546  158.4133 H   0  0  0  0  0  0  0  0  0  0  0  0
  153.4711  144.0150  160.8398 H   0  0  0  0  0  0  0  0  0  0  0  0
  152.0730  143.0217  161.1700 H   0  0  0  0  0  0  0  0  0  0  0  0
  154.6296  142.1146  159.7576 H   0  0  0  0  0  0  0  0  0  0  0  0
  154.1534  141.6978  161.3880 H   0  0  0  0  0  0  0  0  0  0  0  0
  153.6118  139.8606  159.7988 H   0  0  0  0  0  0  0  0  0  0  0  0
  152.1708  140.4917  160.5606 H   0  0  0  0  0  0  0  0  0  0  0  0
  153.1883  141.1762  157.7679 H   0  0  0  0  0  0  0  0  0  0  0  0
  150.9206  139.6052  158.7997 H   0  0  0  0  0  0  0  0  0  0  0  0
  153.0620  139.9848  155.5161 H   0  0  0  0  0  0  0  0  0  0  0  0
  152.9990  138.2971  155.0156 H   0  0  0  0  0  0  0  0  0  0  0  0
  150.1686  137.2223  154.7867 H   0  0  0  0  0  0  0  0  0  0  0  0
  148.0865  138.7720  153.8271 H   0  0  0  0  0  0  0  0  0  0  0  0
  150.6352  142.1665  159.0963 H   0  0  0  0  0  0  0  0  0  0  0  0
  151.8437  142.8939  156.3755 H   0  0  0  0  0  0  0  0  0  0  0  0
  150.3195  143.4951  157.0265 H   0  0  0  0  0  0  0  0  0  0  0  0
  150.4770  141.8126  156.6033 H   0  0  0  0  0  0  0  0  0  0  0  0
  1  2  1  0  0  0  0
  1 19  1  0  0  0  0
  1 20  1  0  0  0  0
  1 21  1  0  0  0  0
  2 17  1  0  0  0  0
  2  3  1  0  0  0  0
  2 22  1  0  0  0  0
  3  4  1  0  0  0  0
  3 23  1  0  0  0  0
  3 24  1  0  0  0  0
  4  5  1  0  0  0  0
  4 25  1  0  0  0  0
  4 26  1  0  0  0  0
  5  6  1  0  0  0  0
  5 27  1  0  0  0  0
  5 28  1  0  0  0  0
  6  7  1  0  0  0  0
  6 17  1  0  0  0  0
  6 29  1  0  0  0  0
  7  8  1  0  0  0  0
  7 30  1  0  0  0  0
  8  9  2  0  0  0  0
  8 10  2  0  0  0  0
  8 11  1  0  0  0  0
 11 12  1  0  0  0  0
 11 31  1  0  0  0  0
 11 32  1  0  0  0  0
 12 16  2  0  0  0  0
 12 13  1  0  0  0  0
 13 14  2  0  0  0  0
 13 33  1  0  0  0  0
 14 15  1  0  0  0  0
 14 34  1  0  0  0  0
 15 16  1  0  0  0  0
 17 18  1  0  0  0  0
 17 35  1  0  0  0  0
 18 36  1  0  0  0  0
 18 37  1  0  0  0  0
 18 38  1  0  0  0  0
M  END
> <s_m_source_file>
AV-unprocessed.smi

> <i_m_source_file_index>
2451

> <i_lp_mmshare_version>
43012

> <i_f3d_flags>
0

> <s_epik_input>
W0NIM11bQ0BASF0xW0NIMl1bQ0gyXVtDSDJdW0NASF0oW0NASF0xW0NIM10pW05IXVMoPU8pKD1PKVtDSDJdYzJbY0hdW2NIXW9uMg==

> <s_epik_cmdline>
J2VwaWtfcHl0aG9uJywgJy1waCcsICc3LjAnLCAnLXRuJywgJzgnLCAnLW1hJywgJzIwMCcsICctbWV0YWxfYmluZGluZycsICctaW1hZScsICc8aW5maWxlLm1hZT4nLCAnLW9tYWUnLCAnPG91dGZpbGUubWFlPic=

> <r_lp_tautomer_probability>
1

> <r_epik_Ionization_Penalty>
8.73668e-05

> <r_epik_Ionization_Penalty_Charging>
0

> <r_epik_Ionization_Penalty_Neutral>
8.73668e-05

> <r_epik_State_Penalty>
-0

> <r_epik_Charging_Adjusted_Penalty>
0

> <i_epik_Tot_Q>
0

> <i_epik_Tot_abs_Q>
0

> <r_epik_Metal_State_Penalty>
0.0716439

> <b_epik_Metal_Only>
0

> <s_lp_Force_Field>
OPLS_2005

> <r_lp_Energy>
6.58047

> <b_lp_Chiralities_Consistent>
1

> <s_lp_Variant>
AV-unprocessed.smi:2451-6

> <Gold.Version>
5.8.1

> <Gold.Id.Protein>
6NUR|6NUR_protein|mol2

> <Gold.PLP.Fitness>
43.1316

> <Gold.PLP.PLP>
-38.7919

> <Gold.PLP.part.hbond>
-2.3432

> <Gold.PLP.part.metal>
0.0000

> <Gold.PLP.part.buried>
-3.1627

> <Gold.PLP.part.nonpolar>
-32.9891

> <Gold.PLP.part.repulsive>
0.6574

> <Gold.PLP.ligand.clash>
0.0000

> <Gold.PLP.ligand.torsion>
0.9120

> <Gold.PLP.Chemscore.Hbond>
2.0000

> <Gold.PLP.Chemscore.CHOScore>
0.0000

> <Gold.PLP.Chemscore.Metal>
0.0000

> <Gold.Chemscore.Hbonds>
donor molecule, donor type, donor heavy atom, donor atom, acceptor molecule, acceptor atom, score
      P1  H  7989  7998       L1    16  1.00
      P1  H  7997  8009       L1     9  1.00

> <Gold.PLP.Chemscore.Internal.Correction>
0.1636

> <Gold.Rescore>
     Score         DG    S(hbond)    S(metal)    S(lipo)     H(rot)  DE(clash)    DE(int)     intcor
     19.11     -20.00       1.89        0.00     106.41       1.66       0.01       0.88       ----

> <Gold.Chemscore.Fitness>
19.1114

> <Gold.Chemscore.DG>
-19.9992

> <Gold.Chemscore.ZeroCoef>
-5.4800

> <Gold.Chemscore.Hbond>
1.8909

> <Gold.Chemscore.Metal>
0.0000

> <Gold.Chemscore.Lipo>
106.4118

> <Gold.Chemscore.Internal_Hbond>
0.0000

> <Gold.Chemscore.DEClash>
0.0120

> <Gold.Chemscore.DEInternal>
0.8758

> <Gold.Chemscore.Rot>
1.6588

> <Gold.Chemscore.Internal.Correction>
   9.000000E+99

> <Gold.Chemscore.Hbonds>
donor molecule, donor type, donor heavy atom, donor atom, acceptor molecule, acceptor atom, score
      P1  H  7989  7998       L1    16  0.19
      P1  H  7997  8009       L1     9  0.63

> <Gold.Chemscore.Hbond.Weighted>
-6.3156

> <Gold.Chemscore.Metal.Weighted>
-0.0000

> <Gold.Chemscore.Lipo.Weighted>
-12.4502

> <Gold.Chemscore.Internal_Hbond.Weighted>
0.0000

> <Gold.Chemscore.DEClash.Weighted>
0.0120

> <Gold.Chemscore.DEInternal.Weighted>
0.8758

> <Gold.Chemscore.Rot.Weighted>
4.2466

> <Gold.Chemscore.Internal.Correction.Weighted>
   9.000000E+99

> <Gold.Protein.RotatedTorsions>
[ 6907 6896 6895 6894 ] final -161.27 input  -60.11 | X-H torsion
[ 7974 7965 7964 7962 ] final  -44.34 input  175.53 | X-H torsion
[ 8008 7997 7996 7995 ] final  138.16 input   59.86 | X-H torsion
[ 10167 10162 10161 10158 ] final    1.93 input  -65.29 | X-H torsion
[ 10718 10713 10712 10709 ] final  137.48 input   66.30 | X-H torsion
[ 10763 10752 10751 10750 ] final   61.86 input  -60.55 | X-H torsion
[ 11005 11000 10999 10996 ] final   82.54 input  -57.11 | X-H torsion

> <Gold.Protein.ActiveResidues>
 VAL166  LYS551  ARG553  GLY616  TRP617  ASP618  TYR619  PRO620  LYS621  CYS622 
 ASP623  PHE694  ASN695  SER759  ASP760  ASP761  ALA762  ILE779  LEU786  VAL792 
 PHE793  MET794  SER795  GLU796  ALA797  LYS798  CYS799  TRP800  GLU811  SER814 

> <Gold.Protein.RotatedAtoms>
  151.3620  133.3886  159.2690 H   0  0  0  0  0  0  0  0  0  0  0  0  # atno 6907 bound_to 6896
  150.9718  134.9091  159.7803 H   0  0  0  0  0  0  0  0  0  0  0  0  # atno 6908 bound_to 6896
  152.5187  134.3582  159.9327 H   0  0  0  0  0  0  0  0  0  0  0  0  # atno 6909 bound_to 6896
  145.9930  140.7160  142.9308 H   0  0  0  0  0  0  0  0  0  0  0  0  # atno 7974 bound_to 7965
  156.2999  140.2401  156.4028 H   0  0  0  0  0  0  0  0  0  0  0  0  # atno 8008 bound_to 7997
  154.8512  140.0424  157.1625 H   0  0  0  0  0  0  0  0  0  0  0  0  # atno 8009 bound_to 7997
  154.8997  140.2975  155.5328 H   0  0  0  0  0  0  0  0  0  0  0  0  # atno 8010 bound_to 7997
  140.6659  143.7180  150.7827 H   0  0  0  0  0  0  0  0  0  0  0  0  # atno 10167 bound_to 10162
  157.4356  131.1053  151.0201 H   0  0  0  0  0  0  0  0  0  0  0  0  # atno 10718 bound_to 10713
  152.9964  135.5485  154.6101 H   0  0  0  0  0  0  0  0  0  0  0  0  # atno 10763 bound_to 10752
  154.5424  135.2821  155.1086 H   0  0  0  0  0  0  0  0  0  0  0  0  # atno 10764 bound_to 10752
  154.2358  135.6425  153.5243 H   0  0  0  0  0  0  0  0  0  0  0  0  # atno 10765 bound_to 10752
  139.9060  134.8079  156.2189 H   0  0  0  0  0  0  0  0  0  0  0  0  # atno 11005 bound_to 11000
  144.6895  140.3102  143.7249 LP  0  0  0  0  0  0  0  0  0  0  0  0  # atno 17320 bound_to 7965
  145.7602  139.1822  143.2271 LP  0  0  0  0  0  0  0  0  0  0  0  0  # atno 17321 bound_to 7965
  140.0857  143.4926  152.2506 LP  0  0  0  0  0  0  0  0  0  0  0  0  # atno 17342 bound_to 10162
  139.5908  144.7549  151.3405 LP  0  0  0  0  0  0  0  0  0  0  0  0  # atno 17343 bound_to 10162
  157.1082  130.6010  149.5476 LP  0  0  0  0  0  0  0  0  0  0  0  0  # atno 17370 bound_to 10713
  155.9929  130.4989  150.7360 LP  0  0  0  0  0  0  0  0  0  0  0  0  # atno 17371 bound_to 10713
  141.0418  133.6934  156.1612 LP  0  0  0  0  0  0  0  0  0  0  0  0  # atno 17394 bound_to 11000
  140.6943  134.4632  157.5588 LP  0  0  0  0  0  0  0  0  0  0  0  0  # atno 17395 bound_to 11000

$$$$
