AV-unprocessed.smi:3285|AV-procd|sdf|12580|dock9
  -GOLD-   2272018503D 1   1.00000     0.00000
 Structure written by MMmdl.
 45 46  0  0  0  0  0  0  0  0  2 V2000
  150.3736  130.5356  154.5290 C   0  0  0  0  0  0  0  0  0  0  0  0
  150.2671  131.6389  155.5427 C   0  0  0  0  0  0  0  0  0  0  0  0
  150.3771  131.3572  156.8298 N   0  0  0  0  0  0  0  0  0  0  0  0
  150.2352  132.5746  157.5025 O   0  0  0  0  0  0  0  0  0  0  0  0
  150.0413  133.5533  156.5826 C   0  0  0  0  0  0  0  0  0  0  0  0
  149.8667  134.9387  157.1062 C   0  0  0  0  0  0  0  0  0  0  0  0
  150.0493  133.0287  155.3193 C   0  0  0  0  0  0  0  0  0  0  0  0
  149.8712  133.7395  154.0050 C   0  0  0  0  0  0  0  0  0  0  0  0
  148.7821  133.0780  153.1505 C   0  0  0  0  0  0  0  0  0  0  0  0
  147.6608  134.0098  152.9089 N   0  3  0  0  0  0  0  0  0  0  0  0
  146.8478  133.7208  151.7067 C   0  0  2  0  0  0  0  0  0  0  0  0
  145.6419  134.6760  151.6542 C   0  0  0  0  0  0  0  0  0  0  0  0
  144.7363  134.3871  150.4466 C   0  0  0  0  0  0  0  0  0  0  0  0
  144.2636  132.9206  150.4369 C   0  0  1  0  0  0  0  0  0  0  0  0
  143.2852  132.6413  149.2844 C   0  0  0  0  0  0  0  0  0  0  0  0
  145.4603  131.9367  150.4798 C   0  0  1  0  0  0  0  0  0  0  0  0
  146.2675  131.8636  149.1678 C   0  0  0  0  0  0  0  0  0  0  0  0
  146.3669  132.2520  151.6889 C   0  0  0  0  0  0  0  0  0  0  0  0
  149.4345  130.4109  153.9902 H   0  0  0  0  0  0  0  0  0  0  0  0
  150.6178  129.5799  154.9945 H   0  0  0  0  0  0  0  0  0  0  0  0
  151.1510  130.7529  153.7966 H   0  0  0  0  0  0  0  0  0  0  0  0
  149.0985  135.4720  156.5466 H   0  0  0  0  0  0  0  0  0  0  0  0
  150.7969  135.5009  157.0245 H   0  0  0  0  0  0  0  0  0  0  0  0
  149.5695  134.9269  158.1550 H   0  0  0  0  0  0  0  0  0  0  0  0
  149.6116  134.7856  154.1719 H   0  0  0  0  0  0  0  0  0  0  0  0
  150.8081  133.7541  153.4470 H   0  0  0  0  0  0  0  0  0  0  0  0
  149.2002  132.7630  152.1934 H   0  0  0  0  0  0  0  0  0  0  0  0
  148.4175  132.1828  153.6535 H   0  0  0  0  0  0  0  0  0  0  0  0
  147.0546  134.0190  153.7167 H   0  0  0  0  0  0  0  0  0  0  0  0
  147.4674  133.9129  150.8297 H   0  0  0  0  0  0  0  0  0  0  0  0
  145.0572  134.5836  152.5707 H   0  0  0  0  0  0  0  0  0  0  0  0
  145.9855  135.7103  151.6117 H   0  0  0  0  0  0  0  0  0  0  0  0
  143.8733  135.0530  150.4766 H   0  0  0  0  0  0  0  0  0  0  0  0
  145.2665  134.6194  149.5225 H   0  0  0  0  0  0  0  0  0  0  0  0
  143.6981  132.7648  151.3572 H   0  0  0  0  0  0  0  0  0  0  0  0
  143.7311  132.8566  148.3131 H   0  0  0  0  0  0  0  0  0  0  0  0
  142.3912  133.2591  149.3752 H   0  0  0  0  0  0  0  0  0  0  0  0
  142.9642  131.5991  149.2836 H   0  0  0  0  0  0  0  0  0  0  0  0
  145.0533  130.9376  150.6420 H   0  0  0  0  0  0  0  0  0  0  0  0
  146.6763  132.8313  148.8792 H   0  0  0  0  0  0  0  0  0  0  0  0
  145.6551  131.5035  148.3413 H   0  0  0  0  0  0  0  0  0  0  0  0
  147.1038  131.1706  149.2650 H   0  0  0  0  0  0  0  0  0  0  0  0
  147.2138  131.5662  151.6906 H   0  0  0  0  0  0  0  0  0  0  0  0
  145.8145  132.0461  152.6074 H   0  0  0  0  0  0  0  0  0  0  0  0
  148.0571  134.9321  152.7967 H   0  0  0  0  0  0  0  0  0  0  0  0
  1  2  1  0  0  0  0
  1 19  1  0  0  0  0
  1 20  1  0  0  0  0
  1 21  1  0  0  0  0
  2  7  1  0  0  0  0
  2  3  2  0  0  0  0
  3  4  1  0  0  0  0
  4  5  1  0  0  0  0
  5  6  1  0  0  0  0
  5  7  2  0  0  0  0
  6 22  1  0  0  0  0
  6 23  1  0  0  0  0
  6 24  1  0  0  0  0
  7  8  1  0  0  0  0
  8  9  1  0  0  0  0
  8 25  1  0  0  0  0
  8 26  1  0  0  0  0
  9 10  1  0  0  0  0
  9 27  1  0  0  0  0
  9 28  1  0  0  0  0
 10 11  1  0  0  0  0
 10 29  1  0  0  0  0
 10 45  1  0  0  0  0
 11 18  1  0  0  0  0
 11 12  1  0  0  0  0
 11 30  1  0  0  0  0
 12 13  1  0  0  0  0
 12 31  1  0  0  0  0
 12 32  1  0  0  0  0
 13 14  1  0  0  0  0
 13 33  1  0  0  0  0
 13 34  1  0  0  0  0
 14 15  1  0  0  0  0
 14 16  1  0  0  0  0
 14 35  1  0  0  0  0
 15 36  1  0  0  0  0
 15 37  1  0  0  0  0
 15 38  1  0  0  0  0
 16 17  1  0  0  0  0
 16 18  1  0  0  0  0
 16 39  1  0  0  0  0
 17 40  1  0  0  0  0
 17 41  1  0  0  0  0
 17 42  1  0  0  0  0
 18 43  1  0  0  0  0
 18 44  1  0  0  0  0
M  CHG  1  10   1
M  END
> <s_m_source_file>
AV-unprocessed.smi

> <i_m_source_file_index>
3285

> <i_lp_mmshare_version>
43012

> <i_f3d_flags>
0

> <s_epik_input>
W0NIM11jMW5vYyhbQ0gzXSljMVtDSDJdW0NIMl1bTkhdW0NAQEhdMltDSDJdW0NIMl1bQ0BASF0oW0NIM10pW0NAQEhdKFtDSDNdKVtDSDJdMg==

> <s_epik_cmdline>
J2VwaWtfcHl0aG9uJywgJy1waCcsICc3LjAnLCAnLXRuJywgJzgnLCAnLW1hJywgJzIwMCcsICctbWV0YWxfYmluZGluZycsICctaW1hZScsICc8aW5maWxlLm1hZT4nLCAnLW9tYWUnLCAnPG91dGZpbGUubWFlPic=

> <r_lp_tautomer_probability>
1

> <r_epik_Ionization_Penalty>
0.000204615

> <r_epik_Ionization_Penalty_Charging>
0.000204615

> <r_epik_Ionization_Penalty_Neutral>
9.28663e-11

> <r_epik_State_Penalty>
-0

> <r_epik_Charging_Adjusted_Penalty>
0.000204615

> <i_epik_Tot_Q>
1

> <i_epik_Tot_abs_Q>
1

> <r_epik_Metal_State_Penalty>
-0

> <b_epik_Metal_Only>
0

> <s_lp_Force_Field>
OPLS_2005

> <r_lp_Energy>
12.1865

> <b_lp_Chiralities_Consistent>
1

> <s_lp_Variant>
AV-unprocessed.smi:3285-1

> <Gold.Version>
5.8.1

> <Gold.Id.Protein>
6NUR|6NUR_protein|mol2

> <Gold.PLP.Fitness>
42.0478

> <Gold.PLP.PLP>
-34.1995

> <Gold.PLP.part.hbond>
-2.0000

> <Gold.PLP.part.metal>
0.0000

> <Gold.PLP.part.buried>
-0.0079

> <Gold.PLP.part.nonpolar>
-32.2669

> <Gold.PLP.part.repulsive>
0.0000

> <Gold.PLP.ligand.clash>
0.0000

> <Gold.PLP.ligand.torsion>
0.5835

> <Gold.PLP.Chemscore.Hbond>
3.0000

> <Gold.PLP.Chemscore.CHOScore>
0.0000

> <Gold.PLP.Chemscore.Metal>
0.0000

> <Gold.Chemscore.Hbonds>
donor molecule, donor type, donor heavy atom, donor atom, acceptor molecule, acceptor atom, score
      L1  H    10    45       P1  7948  2.00
      P1  H  6896  6908       L1     4  0.80

> <Gold.PLP.Chemscore.Internal.Correction>
0.0152

> <Gold.Rescore>
     Score         DG    S(hbond)    S(metal)    S(lipo)     H(rot)  DE(clash)    DE(int)     intcor
     18.79     -20.51       1.89        0.00     103.97       1.35       1.04       0.68       ----

> <Gold.Chemscore.Fitness>
18.7908

> <Gold.Chemscore.DG>
-20.5054

> <Gold.Chemscore.ZeroCoef>
-5.4800

> <Gold.Chemscore.Hbond>
1.8885

> <Gold.Chemscore.Metal>
0.0000

> <Gold.Chemscore.Lipo>
103.9726

> <Gold.Chemscore.Internal_Hbond>
0.0000

> <Gold.Chemscore.DEClash>
1.0361

> <Gold.Chemscore.DEInternal>
0.6785

> <Gold.Chemscore.Rot>
1.3465

> <Gold.Chemscore.Internal.Correction>
   9.000000E+99

> <Gold.Chemscore.Hbonds>
donor molecule, donor type, donor heavy atom, donor atom, acceptor molecule, acceptor atom, score
      L1  H    10    45       P1  7948  0.85
      P1  H  6896  6908       L1     4  0.51

> <Gold.Chemscore.Hbond.Weighted>
-6.3077

> <Gold.Chemscore.Metal.Weighted>
-0.0000

> <Gold.Chemscore.Lipo.Weighted>
-12.1648

> <Gold.Chemscore.Internal_Hbond.Weighted>
0.0000

> <Gold.Chemscore.DEClash.Weighted>
1.0361

> <Gold.Chemscore.DEInternal.Weighted>
0.6785

> <Gold.Chemscore.Rot.Weighted>
3.4470

> <Gold.Chemscore.Internal.Correction.Weighted>
   9.000000E+99

> <Gold.Protein.RotatedTorsions>
[ 6907 6896 6895 6894 ] final   92.64 input  -60.11 | X-H torsion
[ 7974 7965 7964 7962 ] final   -5.95 input  175.53 | X-H torsion
[ 8008 7997 7996 7995 ] final  -30.66 input   59.86 | X-H torsion
[ 10167 10162 10161 10158 ] final   42.47 input  -65.29 | X-H torsion
[ 10718 10713 10712 10709 ] final   82.92 input   66.30 | X-H torsion
[ 10763 10752 10751 10750 ] final -113.31 input  -60.55 | X-H torsion
[ 11005 11000 10999 10996 ] final   16.36 input  -57.11 | X-H torsion

> <Gold.Protein.ActiveResidues>
 VAL166  LYS551  ARG553  GLY616  TRP617  ASP618  TYR619  PRO620  LYS621  CYS622 
 ASP623  PHE694  ASN695  SER759  ASP760  ASP761  ALA762  ILE779  LEU786  VAL792 
 PHE793  MET794  SER795  GLU796  ALA797  LYS798  CYS799  TRP800  GLU811  SER814 

> <Gold.Protein.RotatedAtoms>
  152.5453  134.1471  159.8502 H   0  0  0  0  0  0  0  0  0  0  0  0  # atno 6907 bound_to 6896
  151.1501  133.4906  159.2603 H   0  0  0  0  0  0  0  0  0  0  0  0  # atno 6908 bound_to 6896
  151.1481  135.0224  159.8711 H   0  0  0  0  0  0  0  0  0  0  0  0  # atno 6909 bound_to 6896
  146.2342  140.2098  142.8335 H   0  0  0  0  0  0  0  0  0  0  0  0  # atno 7974 bound_to 7965
  154.4242  140.1785  156.1442 H   0  0  0  0  0  0  0  0  0  0  0  0  # atno 8008 bound_to 7997
  155.9967  140.3364  155.6781 H   0  0  0  0  0  0  0  0  0  0  0  0  # atno 8009 bound_to 7997
  155.6298  140.0668  157.2643 H   0  0  0  0  0  0  0  0  0  0  0  0  # atno 8010 bound_to 7997
  140.3541  144.2313  150.6143 H   0  0  0  0  0  0  0  0  0  0  0  0  # atno 10167 bound_to 10162
  157.6868  131.0069  150.2447 H   0  0  0  0  0  0  0  0  0  0  0  0  # atno 10718 bound_to 10713
  154.8390  135.4459  154.1329 H   0  0  0  0  0  0  0  0  0  0  0  0  # atno 10763 bound_to 10752
  153.2535  135.6929  153.7660 H   0  0  0  0  0  0  0  0  0  0  0  0  # atno 10764 bound_to 10752
  153.6963  135.3379  155.3190 H   0  0  0  0  0  0  0  0  0  0  0  0  # atno 10765 bound_to 10752
  140.4479  134.1254  155.7698 H   0  0  0  0  0  0  0  0  0  0  0  0  # atno 11005 bound_to 11000
  144.9716  140.8374  143.5452 LP  0  0  0  0  0  0  0  0  0  0  0  0  # atno 17320 bound_to 7965
  145.2080  139.2219  143.5158 LP  0  0  0  0  0  0  0  0  0  0  0  0  # atno 17321 bound_to 7965
  140.5191  143.2270  151.8417 LP  0  0  0  0  0  0  0  0  0  0  0  0  # atno 17342 bound_to 10162
  139.4822  144.4858  151.9248 LP  0  0  0  0  0  0  0  0  0  0  0  0  # atno 17343 bound_to 10162
  156.3055  130.3764  149.7710 LP  0  0  0  0  0  0  0  0  0  0  0  0  # atno 17370 bound_to 10713
  156.5327  130.8265  151.3242 LP  0  0  0  0  0  0  0  0  0  0  0  0  # atno 17371 bound_to 10713
  141.1677  133.8671  157.1666 LP  0  0  0  0  0  0  0  0  0  0  0  0  # atno 17394 bound_to 11000
  140.0026  135.0021  157.0223 LP  0  0  0  0  0  0  0  0  0  0  0  0  # atno 17395 bound_to 11000

$$$$
