AV-unprocessed.smi:1852|AV-procd|sdf|7526|dock8
  -GOLD-   22720 9233D 1   1.00000     0.00000
 Structure written by MMmdl.
 46 48  0  0  0  0  0  0  0  0  2 V2000
  152.0291  144.5786  159.6516 C   0  0  0  0  0  0  0  0  0  0  0  0
  152.4509  143.1243  159.6996 C   0  0  0  0  0  0  0  0  0  0  0  0
  153.0123  142.5842  160.8728 C   0  0  0  0  0  0  0  0  0  0  0  0
  153.3994  141.2324  160.9091 C   0  0  0  0  0  0  0  0  0  0  0  0
  153.2278  140.4126  159.7745 C   0  0  0  0  0  0  0  0  0  0  0  0
  153.6439  138.9544  159.8311 C   0  0  0  0  0  0  0  0  0  0  0  0
  152.6660  140.9430  158.5904 C   0  0  0  0  0  0  0  0  0  0  0  0
  152.5308  140.0889  157.5167 O   0  0  0  0  0  0  0  0  0  0  0  0
  151.8928  140.5681  156.3408 C   0  0  0  0  0  0  0  0  0  0  0  0
  150.3725  140.4292  156.5006 C   0  0  0  0  0  0  0  0  0  0  0  0
  149.7488  139.8109  155.3197 N   0  0  0  0  0  0  0  0  0  0  0  0
  150.0121  138.6219  154.7037 C   0  0  0  0  0  0  0  0  0  0  0  0
  151.0385  137.6057  155.0982 C   0  0  0  0  0  0  0  0  0  0  0  0
  150.8209  137.0648  156.4345 N   0  0  0  0  0  0  0  0  0  0  0  0
  151.6228  136.1809  157.0454 C   0  0  0  0  0  0  0  0  0  0  0  0
  152.6561  135.7262  156.5574 O   0  0  0  0  0  0  0  0  0  0  0  0
  149.1622  138.5213  153.6426 N   0  3  0  0  0  0  0  0  0  0  0  0
  148.3553  139.6570  153.5725 C   0  0  0  0  0  0  0  0  0  0  0  0
  147.3549  140.0092  152.6715 C   0  0  0  0  0  0  0  0  0  0  0  0
  146.7264  141.2546  152.8785 C   0  0  0  0  0  0  0  0  0  0  0  0
  147.0989  142.0959  153.9465 C   0  0  0  0  0  0  0  0  0  0  0  0
  148.1122  141.7265  154.8550 C   0  0  0  0  0  0  0  0  0  0  0  0
  148.7278  140.4922  154.6454 C   0  0  0  0  0  0  0  0  0  0  0  0
  152.2792  142.3069  158.5643 C   0  0  0  0  0  0  0  0  0  0  0  0
  152.3450  145.1145  160.5471 H   0  0  0  0  0  0  0  0  0  0  0  0
  150.9442  144.6535  159.5735 H   0  0  0  0  0  0  0  0  0  0  0  0
  152.4709  145.0740  158.7866 H   0  0  0  0  0  0  0  0  0  0  0  0
  153.1485  143.2023  161.7481 H   0  0  0  0  0  0  0  0  0  0  0  0
  153.8281  140.8279  161.8142 H   0  0  0  0  0  0  0  0  0  0  0  0
  154.4385  138.7601  159.1105 H   0  0  0  0  0  0  0  0  0  0  0  0
  152.7982  138.3088  159.5924 H   0  0  0  0  0  0  0  0  0  0  0  0
  154.0085  138.6807  160.8215 H   0  0  0  0  0  0  0  0  0  0  0  0
  152.1443  141.6175  156.1783 H   0  0  0  0  0  0  0  0  0  0  0  0
  152.2237  140.0014  155.4696 H   0  0  0  0  0  0  0  0  0  0  0  0
  150.1396  139.8125  157.3682 H   0  0  0  0  0  0  0  0  0  0  0  0
  149.9097  141.3978  156.6877 H   0  0  0  0  0  0  0  0  0  0  0  0
  151.0055  136.7826  154.3840 H   0  0  0  0  0  0  0  0  0  0  0  0
  152.0400  138.0316  155.0283 H   0  0  0  0  0  0  0  0  0  0  0  0
  149.9928  137.3718  156.9241 H   0  0  0  0  0  0  0  0  0  0  0  0
  151.2316  135.9185  158.0406 H   0  0  0  0  0  0  0  0  0  0  0  0
  147.0700  139.3679  151.8506 H   0  0  0  0  0  0  0  0  0  0  0  0
  145.9445  141.5715  152.2036 H   0  0  0  0  0  0  0  0  0  0  0  0
  146.5985  143.0452  154.0719 H   0  0  0  0  0  0  0  0  0  0  0  0
  148.3924  142.3833  155.6651 H   0  0  0  0  0  0  0  0  0  0  0  0
  151.8505  142.7511  157.6787 H   0  0  0  0  0  0  0  0  0  0  0  0
  149.1403  137.7311  153.0112 H   0  0  0  0  0  0  0  0  0  0  0  0
  1  2  1  0  0  0  0
  1 25  1  0  0  0  0
  1 26  1  0  0  0  0
  1 27  1  0  0  0  0
  2 24  1  0  0  0  0
  2  3  2  0  0  0  0
  3  4  1  0  0  0  0
  3 28  1  0  0  0  0
  4  5  2  0  0  0  0
  4 29  1  0  0  0  0
  5  6  1  0  0  0  0
  5  7  1  0  0  0  0
  6 30  1  0  0  0  0
  6 31  1  0  0  0  0
  6 32  1  0  0  0  0
  7  8  1  0  0  0  0
  7 24  2  0  0  0  0
  8  9  1  0  0  0  0
  9 10  1  0  0  0  0
  9 33  1  0  0  0  0
  9 34  1  0  0  0  0
 10 11  1  0  0  0  0
 10 35  1  0  0  0  0
 10 36  1  0  0  0  0
 11 23  1  0  0  0  0
 11 12  1  0  0  0  0
 12 13  1  0  0  0  0
 12 17  2  0  0  0  0
 13 14  1  0  0  0  0
 13 37  1  0  0  0  0
 13 38  1  0  0  0  0
 14 15  1  0  0  0  0
 14 39  1  0  0  0  0
 15 16  2  0  0  0  0
 15 40  1  0  0  0  0
 17 18  1  0  0  0  0
 17 46  1  0  0  0  0
 18 23  2  0  0  0  0
 18 19  1  0  0  0  0
 19 20  2  0  0  0  0
 19 41  1  0  0  0  0
 20 21  1  0  0  0  0
 20 42  1  0  0  0  0
 21 22  2  0  0  0  0
 21 43  1  0  0  0  0
 22 23  1  0  0  0  0
 22 44  1  0  0  0  0
 24 45  1  0  0  0  0
M  CHG  1  17   1
M  END
> <s_m_source_file>
AV-unprocessed.smi

> <i_m_source_file_index>
1852

> <i_lp_mmshare_version>
43012

> <i_f3d_flags>
0

> <s_epik_input>
W0NIM11jMVtjSF1bY0hdYyhbQ0gzXSljKFtjSF0xKU9bQ0gyXVtDSDJdbihjKG4yKVtDSDJdW05IXVtDSF09TyljKGMyMylbY0hdW2NIXVtjSF1bY0hdMw==

> <s_epik_cmdline>
J2VwaWtfcHl0aG9uJywgJy1waCcsICc3LjAnLCAnLXRuJywgJzgnLCAnLW1hJywgJzIwMCcsICctbWV0YWxfYmluZGluZycsICctaW1hZScsICc8aW5maWxlLm1hZT4nLCAnLW9tYWUnLCAnPG91dGZpbGUubWFlPic=

> <r_lp_tautomer_probability>
1

> <r_epik_Ionization_Penalty>
1.39865

> <r_epik_Ionization_Penalty_Charging>
1.39865

> <r_epik_Ionization_Penalty_Neutral>
7.38905e-08

> <r_epik_State_Penalty>
1.48061

> <r_epik_Charging_Adjusted_Penalty>
2.87925

> <i_epik_Tot_Q>
1

> <i_epik_Tot_abs_Q>
1

> <r_epik_Metal_State_Penalty>
1.53473

> <b_epik_Metal_Only>
0

> <s_lp_Force_Field>
OPLS_2005

> <r_lp_Energy>
13.537

> <b_lp_Chiralities_Consistent>
1

> <s_lp_Variant>
AV-unprocessed.smi:1852-2

> <Gold.Version>
5.8.1

> <Gold.Id.Protein>
6NUR|6NUR_protein|mol2

> <Gold.PLP.Fitness>
56.3619

> <Gold.PLP.PLP>
-45.3722

> <Gold.PLP.part.hbond>
-3.9636

> <Gold.PLP.part.metal>
0.0000

> <Gold.PLP.part.buried>
1.3613

> <Gold.PLP.part.nonpolar>
-42.0793

> <Gold.PLP.part.repulsive>
0.1155

> <Gold.PLP.ligand.clash>
0.0000

> <Gold.PLP.ligand.torsion>
0.5038

> <Gold.PLP.Chemscore.Hbond>
3.9760

> <Gold.PLP.Chemscore.CHOScore>
0.0000

> <Gold.PLP.Chemscore.Metal>
0.0000

> <Gold.Chemscore.Hbonds>
donor molecule, donor type, donor heavy atom, donor atom, acceptor molecule, acceptor atom, score
      L1  H    17    46       P1  7948  2.00
      P1  H  7997  8008       L1     8  0.74
      P1  H 10752 10763       L1    16  1.00

> <Gold.PLP.Chemscore.Internal.Correction>
0.0693

> <Gold.Rescore>
     Score         DG    S(hbond)    S(metal)    S(lipo)     H(rot)  DE(clash)    DE(int)     intcor
     20.74     -22.86       2.29        0.00     136.45       2.44       1.59       0.53       ----

> <Gold.Chemscore.Fitness>
20.7376

> <Gold.Chemscore.DG>
-22.8551

> <Gold.Chemscore.ZeroCoef>
-5.4800

> <Gold.Chemscore.Hbond>
2.2935

> <Gold.Chemscore.Metal>
0.0000

> <Gold.Chemscore.Lipo>
136.4467

> <Gold.Chemscore.Internal_Hbond>
0.0000

> <Gold.Chemscore.DEClash>
1.5867

> <Gold.Chemscore.DEInternal>
0.5308

> <Gold.Chemscore.Rot>
2.4411

> <Gold.Chemscore.Internal.Correction>
   9.000000E+99

> <Gold.Chemscore.Hbonds>
donor molecule, donor type, donor heavy atom, donor atom, acceptor molecule, acceptor atom, score
      L1  H    17    46       P1  7948  0.99
      P1  H  7997  8008       L1     8  0.03
      P1  H 10752 10763       L1    16  0.95

> <Gold.Chemscore.Hbond.Weighted>
-7.6602

> <Gold.Chemscore.Metal.Weighted>
-0.0000

> <Gold.Chemscore.Lipo.Weighted>
-15.9643

> <Gold.Chemscore.Internal_Hbond.Weighted>
0.0000

> <Gold.Chemscore.DEClash.Weighted>
1.5867

> <Gold.Chemscore.DEInternal.Weighted>
0.5308

> <Gold.Chemscore.Rot.Weighted>
6.2493

> <Gold.Chemscore.Internal.Correction.Weighted>
   9.000000E+99

> <Gold.Protein.RotatedTorsions>
[ 6907 6896 6895 6894 ] final  -68.95 input  -60.11 | X-H torsion
[ 7974 7965 7964 7962 ] final  139.09 input  175.53 | X-H torsion
[ 8008 7997 7996 7995 ] final  -64.11 input   59.86 | X-H torsion
[ 10167 10162 10161 10158 ] final -178.09 input  -65.29 | X-H torsion
[ 10718 10713 10712 10709 ] final   18.83 input   66.30 | X-H torsion
[ 10763 10752 10751 10750 ] final  119.53 input  -60.55 | X-H torsion
[ 11005 11000 10999 10996 ] final -145.46 input  -57.11 | X-H torsion

> <Gold.Protein.ActiveResidues>
 VAL166  LYS551  ARG553  GLY616  TRP617  ASP618  TYR619  PRO620  LYS621  CYS622 
 ASP623  PHE694  ASN695  SER759  ASP760  ASP761  ALA762  ILE779  LEU786  VAL792 
 PHE793  MET794  SER795  GLU796  ALA797  LYS798  CYS799  TRP800  GLU811  SER814 

> <Gold.Protein.RotatedAtoms>
  150.7330  134.5667  159.5869 H   0  0  0  0  0  0  0  0  0  0  0  0  # atno 6907 bound_to 6896
  152.3116  134.7487  160.0344 H   0  0  0  0  0  0  0  0  0  0  0  0  # atno 6908 bound_to 6896
  151.8033  133.3337  159.3570 H   0  0  0  0  0  0  0  0  0  0  0  0  # atno 6909 bound_to 6896
  144.9312  139.5045  143.5617 H   0  0  0  0  0  0  0  0  0  0  0  0  # atno 7974 bound_to 7965
  154.4592  140.0961  156.6846 H   0  0  0  0  0  0  0  0  0  0  0  0  # atno 8008 bound_to 7997
  155.5044  140.3474  155.4358 H   0  0  0  0  0  0  0  0  0  0  0  0  # atno 8009 bound_to 7997
  156.0838  140.1380  156.9667 H   0  0  0  0  0  0  0  0  0  0  0  0  # atno 8010 bound_to 7997
  139.5449  144.2263  152.0968 H   0  0  0  0  0  0  0  0  0  0  0  0  # atno 10167 bound_to 10162
  157.1019  130.6471  149.5874 H   0  0  0  0  0  0  0  0  0  0  0  0  # atno 10718 bound_to 10713
  153.5845  135.3477  155.2887 H   0  0  0  0  0  0  0  0  0  0  0  0  # atno 10763 bound_to 10752
  154.8662  135.4190  154.2584 H   0  0  0  0  0  0  0  0  0  0  0  0  # atno 10764 bound_to 10752
  153.3377  135.7048  153.6964 H   0  0  0  0  0  0  0  0  0  0  0  0  # atno 10765 bound_to 10752
  140.7920  134.2957  157.5010 H   0  0  0  0  0  0  0  0  0  0  0  0  # atno 11005 bound_to 11000
  146.3247  139.8263  142.8917 LP  0  0  0  0  0  0  0  0  0  0  0  0  # atno 17320 bound_to 7965
  145.3140  141.0227  143.3538 LP  0  0  0  0  0  0  0  0  0  0  0  0  # atno 17321 bound_to 7965
  140.1748  144.4901  150.6560 LP  0  0  0  0  0  0  0  0  0  0  0  0  # atno 17342 bound_to 10162
  140.6693  143.2279  151.5665 LP  0  0  0  0  0  0  0  0  0  0  0  0  # atno 17343 bound_to 10162
  155.9871  130.4909  150.7112 LP  0  0  0  0  0  0  0  0  0  0  0  0  # atno 17370 bound_to 10713
  157.4634  131.0885  151.0721 LP  0  0  0  0  0  0  0  0  0  0  0  0  # atno 17371 bound_to 10713
  139.8730  134.9380  156.3703 LP  0  0  0  0  0  0  0  0  0  0  0  0  # atno 17394 bound_to 11000
  140.9380  133.7534  156.0109 LP  0  0  0  0  0  0  0  0  0  0  0  0  # atno 17395 bound_to 11000

$$$$
