#       Name:                AV-unprocessed.smi:610
#       Creating user name   scv26
#       Creation time:       Thu Mar 26 23:57:42 2020


#       File generated by GOLD software.
#

@<TRIPOS>MOLECULE
AV-unprocessed.smi:610
    41    42     1
SMALL
NO_CHARGES


@<TRIPOS>ATOM
      1 ****        -2.7951  -0.9597  -2.0299 C.3            1 S1                 0.0000
      2 ****        -2.1225  -0.2270  -0.8612 C.3            1 S1                 0.0000
      3 ****        -2.4648  -0.8991   0.4860 C.3            1 S1                 0.0000
      4 ****        -2.0003  -0.1313   1.6468 N.pl3          1 S1                 0.0000
      5 ****        -2.4849   1.0707   2.0954 C.2            1 S1                 0.0000
      6 ****        -1.7443   1.4029   3.2004 C.2            1 S1                 0.0000
      7 ****        -0.8453   0.3869   3.3846 N.pl3          1 S1                 1.0000
      8 ****        -1.0074  -0.5486   2.4433 C.2            1 S1                 0.0000
      9 ****        -0.6778  -0.2074  -1.0884 N.am           1 S1                 0.0000
     10 ****         0.1571   0.8053  -0.7962 C.2            1 S1                 0.0000
     11 ****        -0.2356   1.8581  -0.2925 O.2            1 S1                 0.0000
     12 ****         1.6601   0.6363  -1.1232 C.3            1 S1                 0.0000
     13 ****         1.9754   1.5700  -2.2201 N.4            1 S1                 1.0000
     14 ****         2.5311   0.9166   0.1162 C.3            1 S1                 0.0000
     15 ****         2.5898  -0.4089   0.8906 C.3            1 S1                 0.0000
     16 ****         2.2592  -1.5144  -0.1245 C.3            1 S1                 0.0000
     17 ****         2.0871  -0.8043  -1.4735 C.3            1 S1                 0.0000
     18 ****        -3.8796  -0.9675  -1.9160 H              1 S1                 0.0000
     19 ****        -2.4612  -1.9960  -2.0948 H              1 S1                 0.0000
     20 ****        -2.5692  -0.4762  -2.9809 H              1 S1                 0.0000
     21 ****        -2.5100   0.7936  -0.8568 H              1 S1                 0.0000
     22 ****        -3.5452  -1.0065   0.5900 H              1 S1                 0.0000
     23 ****        -2.0425  -1.9042   0.5374 H              1 S1                 0.0000
     24 ****        -3.2952   1.5899   1.6041 H              1 S1                 0.0000
     25 ****        -1.7899   2.2628   3.8530 H              1 S1                 0.0000
     26 ****        -0.4419  -1.4579   2.3433 H              1 S1                 0.0000
     27 ****        -0.2798  -1.0364  -1.5061 H              1 S1                 0.0000
     28 ****         2.9590   1.5142  -2.4422 H              1 S1                 0.0000
     29 ****         1.7474   2.5109  -1.9313 H              1 S1                 0.0000
     30 ****         3.5405   1.1894  -0.1960 H              1 S1                 0.0000
     31 ****         2.1660   1.7341   0.7395 H              1 S1                 0.0000
     32 ****         3.5706  -0.5555   1.3444 H              1 S1                 0.0000
     33 ****         1.8563  -0.4120   1.6971 H              1 S1                 0.0000
     34 ****         3.0368  -2.2776  -0.1700 H              1 S1                 0.0000
     35 ****         1.3312  -2.0115   0.1613 H              1 S1                 0.0000
     36 ****         1.4039  -1.3311  -2.1409 H              1 S1                 0.0000
     37 ****         3.0529  -0.7829  -1.9815 H              1 S1                 0.0000
     38 ****         1.4302   1.3298  -3.0355 H              1 S1                 0.0000
     39 ****        -0.1604   0.3448   4.1292 H              1 S1                 0.0000
     40 ****        -1.2063   1.9823  -0.0865 LP             1 S1                 0.0000
     41 ****         0.4161   2.5889  -0.0895 LP             1 S1                 0.0000
@<TRIPOS>BOND
    1    1    2 1     
    2    1   18 1     
    3    1   19 1     
    4    1   20 1     
    5    2    3 1     
    6    2    9 1     
    7    2   21 1     
    8    3    4 1     
    9    3   22 1     
   10    3   23 1     
   11    4    8 1     
   12    4    5 1     
   13    5    6 2     
   14    5   24 1     
   15    6    7 1     
   16    6   25 1     
   17    7    8 2     
   18    7   39 1     
   19    8   26 1     
   20    9   10 am    
   21    9   27 1     
   22   10   11 2     
   23   10   12 1     
   24   12   17 1     
   25   12   13 1     
   26   12   14 1     
   27   13   28 1     
   28   13   29 1     
   29   13   38 1     
   30   14   15 1     
   31   14   30 1     
   32   14   31 1     
   33   15   16 1     
   34   15   32 1     
   35   15   33 1     
   36   16   17 1     
   37   16   34 1     
   38   16   35 1     
   39   17   36 1     
   40   17   37 1     
   41   11   40 1     
   42   11   41 1     
@<TRIPOS>SUBSTRUCTURE
      1 S1             1
@<TRIPOS>SET
LONE_PAIRS      STATIC     ATOMS    <user>   **** ""
2 40 41
DONOR_HYDROGENS      STATIC     ATOMS    <user>   **** ""
5 39 27 28 29 38
ATOM$BLUE        STATIC     ATOMS    COLORGROUP SYSTEM
2 40 41
ATOM$RED        STATIC     ATOMS    COLORGROUP SYSTEM
5 39 27 28 29 38
