AV-unprocessed.smi:2751|AV-procd|sdf|10597|dock5
  -GOLD-   2272015 53D 1   1.00000     0.00000
 Structure written by MMmdl.
 35 36  0  0  0  0  0  0  0  0  2 V2000
  146.5344  133.5086  154.3475 O   0  0  0  0  0  0  0  0  0  0  0  0
  147.1869  134.1982  153.5633 C   0  0  0  0  0  0  0  0  0  0  0  0
  148.3094  134.8496  153.9020 N   0  0  0  0  0  0  0  0  0  0  0  0
  148.9196  134.8281  155.2267 C   0  0  0  0  0  0  0  0  0  0  0  0
  150.4411  135.0435  155.1551 C   0  0  0  0  0  0  0  0  0  0  0  0
  150.8545  136.4862  155.4864 C   0  0  2  0  0  0  0  0  0  0  0  0
  150.4469  137.4725  154.3746 C   0  0  0  0  0  0  0  0  0  0  0  0
  150.9400  138.8863  154.7024 C   0  0  0  0  0  0  0  0  0  0  0  0
  152.4444  138.8549  154.9911 C   0  0  0  0  0  0  0  0  0  0  0  0
  152.7602  137.7983  156.0614 C   0  0  0  0  0  0  0  0  0  0  0  0
  152.2717  136.5262  155.6463 O   0  0  0  0  0  0  0  0  0  0  0  0
  146.8708  134.3924  152.2738 N   0  0  0  0  0  0  0  0  0  0  0  0
  145.7623  133.8265  151.6030 C   0  0  0  0  0  0  0  0  0  0  0  0
  145.5390  133.9513  150.2958 N   0  3  0  0  0  0  0  0  0  0  0  0
  144.3867  133.2755  149.9790 C   0  0  0  0  0  0  0  0  0  0  0  0
  143.9302  132.7416  151.1602 C   0  0  0  0  0  0  0  0  0  0  0  0
  144.7847  133.0794  152.1906 O   0  0  0  0  0  0  0  0  0  0  0  0
  148.7830  135.3934  153.1951 H   0  0  0  0  0  0  0  0  0  0  0  0
  148.4552  135.5808  155.8664 H   0  0  0  0  0  0  0  0  0  0  0  0
  148.7007  133.8607  155.6796 H   0  0  0  0  0  0  0  0  0  0  0  0
  150.9442  134.3541  155.8346 H   0  0  0  0  0  0  0  0  0  0  0  0
  150.7916  134.7964  154.1521 H   0  0  0  0  0  0  0  0  0  0  0  0
  150.3778  136.7815  156.4231 H   0  0  0  0  0  0  0  0  0  0  0  0
  150.8711  137.1505  153.4226 H   0  0  0  0  0  0  0  0  0  0  0  0
  149.3638  137.4765  154.2487 H   0  0  0  0  0  0  0  0  0  0  0  0
  150.7243  139.5664  153.8781 H   0  0  0  0  0  0  0  0  0  0  0  0
  150.4063  139.2687  155.5735 H   0  0  0  0  0  0  0  0  0  0  0  0
  152.9887  138.6200  154.0756 H   0  0  0  0  0  0  0  0  0  0  0  0
  152.7868  139.8376  155.3167 H   0  0  0  0  0  0  0  0  0  0  0  0
  153.8377  137.7292  156.2123 H   0  0  0  0  0  0  0  0  0  0  0  0
  152.3213  138.0731  157.0218 H   0  0  0  0  0  0  0  0  0  0  0  0
  146.0992  134.4495  149.6155 H   0  0  0  0  0  0  0  0  0  0  0  0
  144.0140  133.2412  148.9652 H   0  0  0  0  0  0  0  0  0  0  0  0
  143.0750  132.1372  151.4251 H   0  0  0  0  0  0  0  0  0  0  0  0
  147.4786  134.9824  151.7249 H   0  0  0  0  0  0  0  0  0  0  0  0
  1  2  2  0  0  0  0
  2 12  1  0  0  0  0
  2  3  1  0  0  0  0
  3  4  1  0  0  0  0
  3 18  1  0  0  0  0
  4  5  1  0  0  0  0
  4 19  1  0  0  0  0
  4 20  1  0  0  0  0
  5  6  1  0  0  0  0
  5 21  1  0  0  0  0
  5 22  1  0  0  0  0
  6 11  1  0  0  0  0
  6  7  1  0  0  0  0
  6 23  1  0  0  0  0
  7  8  1  0  0  0  0
  7 24  1  0  0  0  0
  7 25  1  0  0  0  0
  8  9  1  0  0  0  0
  8 26  1  0  0  0  0
  8 27  1  0  0  0  0
  9 10  1  0  0  0  0
  9 28  1  0  0  0  0
  9 29  1  0  0  0  0
 10 11  1  0  0  0  0
 10 30  1  0  0  0  0
 10 31  1  0  0  0  0
 12 13  1  0  0  0  0
 12 35  1  0  0  0  0
 13 17  1  0  0  0  0
 13 14  2  0  0  0  0
 14 32  1  0  0  0  0
 14 15  1  0  0  0  0
 15 33  1  0  0  0  0
 15 16  2  0  0  0  0
 16 34  1  0  0  0  0
 16 17  1  0  0  0  0
M  CHG  1  14   1
M  END
> <s_m_source_file>
AV-unprocessed.smi

> <i_m_source_file_index>
2751

> <i_lp_mmshare_version>
43012

> <i_f3d_flags>
0

> <s_epik_input>
bzFbY0hdW2NIXW5jMVtOSF1DKD1PKVtOSF1bQ0gyXVtDSDJdW0NAQEhdMltDSDJdW0NIMl1bQ0gyXVtDSDJdTzI=

> <s_epik_cmdline>
J2VwaWtfcHl0aG9uJywgJy1waCcsICc3LjAnLCAnLXRuJywgJzgnLCAnLW1hJywgJzIwMCcsICctbWV0YWxfYmluZGluZycsICctaW1hZScsICc8aW5maWxlLm1hZT4nLCAnLW9tYWUnLCAnPG91dGZpbGUubWFlPic=

> <r_epik_Ionization_Penalty>
6.63408

> <r_epik_Ionization_Penalty_Charging>
6.57733

> <r_epik_Ionization_Penalty_Neutral>
0.0567487

> <r_epik_State_Penalty>
1.8175

> <r_epik_Charging_Adjusted_Penalty>
8.39483

> <i_epik_Tot_Q>
1

> <i_epik_Tot_abs_Q>
1

> <r_epik_Metal_State_Penalty>
1.83396

> <b_epik_Metal_Only>
0

> <s_lp_Force_Field>
OPLS_2005

> <r_lp_Energy>
16.4857

> <b_lp_Chiralities_Consistent>
1

> <s_lp_Variant>
AV-unprocessed.smi:2751-3

> <Gold.Version>
5.8.1

> <Gold.Id.Protein>
6NUR|6NUR_protein|mol2

> <Gold.PLP.Fitness>
37.4087

> <Gold.PLP.PLP>
-27.3835

> <Gold.PLP.part.hbond>
-3.9598

> <Gold.PLP.part.metal>
0.0000

> <Gold.PLP.part.buried>
-3.0807

> <Gold.PLP.part.nonpolar>
-20.8801

> <Gold.PLP.part.repulsive>
0.3052

> <Gold.PLP.ligand.clash>
0.0000

> <Gold.PLP.ligand.torsion>
0.5335

> <Gold.PLP.Chemscore.Hbond>
3.6960

> <Gold.PLP.Chemscore.CHOScore>
0.0000

> <Gold.PLP.Chemscore.Metal>
0.0000

> <Gold.Chemscore.Hbonds>
donor molecule, donor type, donor heavy atom, donor atom, acceptor molecule, acceptor atom, score
      L1  H     3    18       P1  7948  1.00
      L1  H    12    35       P1  7948  0.88
      L1  H    14    32       P1  7921  0.80
      P1  H 10752 10764       L1    11  0.84

> <Gold.PLP.Chemscore.Internal.Correction>
0.0042

> <Gold.Rescore>
     Score         DG    S(hbond)    S(metal)    S(lipo)     H(rot)  DE(clash)    DE(int)     intcor
     17.11     -18.97       3.30        0.00      57.30       1.66       0.00       1.86       ----

> <Gold.Chemscore.Fitness>
17.1062

> <Gold.Chemscore.DG>
-18.9679

> <Gold.Chemscore.ZeroCoef>
-5.4800

> <Gold.Chemscore.Hbond>
3.3016

> <Gold.Chemscore.Metal>
0.0000

> <Gold.Chemscore.Lipo>
57.2955

> <Gold.Chemscore.Internal_Hbond>
0.0000

> <Gold.Chemscore.DEClash>
0.0000

> <Gold.Chemscore.DEInternal>
1.8617

> <Gold.Chemscore.Rot>
1.6575

> <Gold.Chemscore.Internal.Correction>
   9.000000E+99

> <Gold.Chemscore.Hbonds>
donor molecule, donor type, donor heavy atom, donor atom, acceptor molecule, acceptor atom, score
      L1  H     3    18       P1  7948  0.75
      L1  H    12    35       P1  7948  0.64
      L1  H    14    32       P1  7921  0.26
      P1  H 10752 10764       L1    11  0.74

> <Gold.Chemscore.Hbond.Weighted>
-11.0274

> <Gold.Chemscore.Metal.Weighted>
-0.0000

> <Gold.Chemscore.Lipo.Weighted>
-6.7036

> <Gold.Chemscore.Internal_Hbond.Weighted>
0.0000

> <Gold.Chemscore.DEClash.Weighted>
0.0000

> <Gold.Chemscore.DEInternal.Weighted>
1.8617

> <Gold.Chemscore.Rot.Weighted>
4.2431

> <Gold.Chemscore.Internal.Correction.Weighted>
   9.000000E+99

> <Gold.Protein.RotatedTorsions>
[ 6907 6896 6895 6894 ] final  -75.78 input  -60.11 | X-H torsion
[ 7974 7965 7964 7962 ] final  116.95 input  175.53 | X-H torsion
[ 8008 7997 7996 7995 ] final  -11.91 input   59.86 | X-H torsion
[ 10167 10162 10161 10158 ] final  -33.63 input  -65.29 | X-H torsion
[ 10718 10713 10712 10709 ] final  -83.85 input   66.30 | X-H torsion
[ 10763 10752 10751 10750 ] final  -41.94 input  -60.55 | X-H torsion
[ 11005 11000 10999 10996 ] final   42.57 input  -57.11 | X-H torsion

> <Gold.Protein.ActiveResidues>
 VAL166  LYS551  ARG553  GLY616  TRP617  ASP618  TYR619  PRO620  LYS621  CYS622 
 ASP623  PHE694  ASN695  SER759  ASP760  ASP761  ALA762  ILE779  LEU786  VAL792 
 PHE793  MET794  SER795  GLU796  ALA797  LYS798  CYS799  TRP800  GLU811  SER814 

> <Gold.Protein.RotatedAtoms>
  150.7048  134.4669  159.5406 H   0  0  0  0  0  0  0  0  0  0  0  0  # atno 6907 bound_to 6896
  152.2333  134.8298  160.0479 H   0  0  0  0  0  0  0  0  0  0  0  0  # atno 6908 bound_to 6896
  151.9106  133.3525  159.3899 H   0  0  0  0  0  0  0  0  0  0  0  0  # atno 6909 bound_to 6896
  145.1733  139.3089  143.4456 H   0  0  0  0  0  0  0  0  0  0  0  0  # atno 7974 bound_to 7965
  154.5423  140.2290  155.8621 H   0  0  0  0  0  0  0  0  0  0  0  0  # atno 8008 bound_to 7997
  156.1870  140.3086  155.9219 H   0  0  0  0  0  0  0  0  0  0  0  0  # atno 8009 bound_to 7997
  155.3234  140.0441  157.3030 H   0  0  0  0  0  0  0  0  0  0  0  0  # atno 8010 bound_to 7997
  140.7201  143.3606  151.1971 H   0  0  0  0  0  0  0  0  0  0  0  0  # atno 10167 bound_to 10162
  156.0013  130.4679  150.4320 H   0  0  0  0  0  0  0  0  0  0  0  0  # atno 10718 bound_to 10713
  153.9709  135.6728  153.4747 H   0  0  0  0  0  0  0  0  0  0  0  0  # atno 10763 bound_to 10752
  153.0793  135.4931  154.8467 H   0  0  0  0  0  0  0  0  0  0  0  0  # atno 10764 bound_to 10752
  154.7220  135.3119  154.8993 H   0  0  0  0  0  0  0  0  0  0  0  0  # atno 10765 bound_to 10752
  140.1727  134.4202  155.8247 H   0  0  0  0  0  0  0  0  0  0  0  0  # atno 11005 bound_to 11000
  146.3465  140.1886  142.8589 LP  0  0  0  0  0  0  0  0  0  0  0  0  # atno 17320 bound_to 7965
  145.0210  140.8794  143.5166 LP  0  0  0  0  0  0  0  0  0  0  0  0  # atno 17321 bound_to 7965
  139.7157  143.9304  152.2966 LP  0  0  0  0  0  0  0  0  0  0  0  0  # atno 17342 bound_to 10162
  139.9044  144.6893  150.8630 LP  0  0  0  0  0  0  0  0  0  0  0  0  # atno 17343 bound_to 10162
  157.2368  131.0516  151.2460 LP  0  0  0  0  0  0  0  0  0  0  0  0  # atno 17370 bound_to 10713
  157.3658  130.7155  149.6532 LP  0  0  0  0  0  0  0  0  0  0  0  0  # atno 17371 bound_to 10713
  141.2218  133.6963  156.7792 LP  0  0  0  0  0  0  0  0  0  0  0  0  # atno 17394 bound_to 11000
  140.2359  134.8651  157.3524 LP  0  0  0  0  0  0  0  0  0  0  0  0  # atno 17395 bound_to 11000

$$$$
