AV-unprocessed.smi:1120|AV-procd|sdf|4825|dock4
  -GOLD-   22720 3383D 1   1.00000     0.00000
 Structure written by MMmdl.
 48 49  0  0  0  0  0  0  0  0  3 V2000
  150.5428  142.6142  157.5506 C   0  0  0  0  0  0  0  0  0  0  0  0
  151.4524  141.4116  157.2625 C   0  0  2  0  0  0  0  0  0  0  0  0
  150.9549  140.5921  156.0500 C   0  0  0  0  0  0  0  0  0  0  0  0
  151.8254  139.3401  155.7644 C   0  0  0  0  0  0  0  0  0  0  0  0
  151.9994  138.3953  156.9792 C   0  0  2  0  0  0  0  0  0  0  0  0
  150.7428  137.7140  157.2593 N   0  5  0  0  0  0  0  0  0  0  0  0
  150.6286  136.1043  157.0927 S   0  0  0  0  0  0  0  0  0  0  0  0
  151.9416  135.4786  156.8685 O   0  0  0  0  0  0  0  0  0  0  0  0
  149.7540  135.4792  158.0995 O   0  0  0  0  0  0  0  0  0  0  0  0
  149.7368  135.9900  155.4761 C   0  0  0  0  0  0  0  0  0  0  0  0
  149.1940  134.5775  155.2537 C   0  0  0  0  0  0  0  0  0  0  0  0
  149.4204  133.6950  156.0818 O   0  0  0  0  0  0  0  0  0  0  0  0
  148.4721  134.3773  154.1391 N   0  0  0  0  0  0  0  0  0  0  0  0
  147.9222  133.0974  153.7008 C   0  0  0  0  0  0  0  0  0  0  0  0
  147.7100  133.0249  152.1757 C   0  0  0  0  0  0  0  0  0  0  0  0
  146.4425  133.7124  151.6997 C   0  0  0  0  0  0  0  0  0  0  0  0
  145.2732  132.9933  151.3691 C   0  0  0  0  0  0  0  0  0  0  0  0
  144.1400  133.6958  150.9089 C   0  0  0  0  0  0  0  0  0  0  0  0
  144.1984  135.1001  150.7922 C   0  0  0  0  0  0  0  0  0  0  0  0
  145.3906  135.7674  151.1395 C   0  0  0  0  0  0  0  0  0  0  0  0
  146.4544  135.0595  151.5773 N   0  3  0  0  0  0  0  0  0  0  0  0
  152.4541  139.2287  158.2052 C   0  0  0  0  0  0  0  0  0  0  0  0
  151.5756  140.4753  158.4863 C   0  0  0  0  0  0  0  0  0  0  0  0
  149.5292  142.2949  157.7950 H   0  0  0  0  0  0  0  0  0  0  0  0
  150.4839  143.2762  156.6863 H   0  0  0  0  0  0  0  0  0  0  0  0
  150.9197  143.1992  158.3898 H   0  0  0  0  0  0  0  0  0  0  0  0
  152.4467  141.7940  157.0275 H   0  0  0  0  0  0  0  0  0  0  0  0
  149.9163  140.2954  156.2103 H   0  0  0  0  0  0  0  0  0  0  0  0
  150.9452  141.2269  155.1634 H   0  0  0  0  0  0  0  0  0  0  0  0
  151.4141  138.7896  154.9173 H   0  0  0  0  0  0  0  0  0  0  0  0
  152.8127  139.6756  155.4451 H   0  0  0  0  0  0  0  0  0  0  0  0
  152.7832  137.6772  156.7359 H   0  0  0  0  0  0  0  0  0  0  0  0
  148.9328  136.7259  155.4660 H   0  0  0  0  0  0  0  0  0  0  0  0
  150.4381  136.2516  154.6840 H   0  0  0  0  0  0  0  0  0  0  0  0
  148.3448  135.1622  153.5162 H   0  0  0  0  0  0  0  0  0  0  0  0
  148.6198  132.3168  154.0047 H   0  0  0  0  0  0  0  0  0  0  0  0
  146.9884  132.8859  154.2246 H   0  0  0  0  0  0  0  0  0  0  0  0
  148.5676  133.4651  151.6654 H   0  0  0  0  0  0  0  0  0  0  0  0
  147.6766  131.9808  151.8623 H   0  0  0  0  0  0  0  0  0  0  0  0
  145.2466  131.9168  151.4549 H   0  0  0  0  0  0  0  0  0  0  0  0
  143.2383  133.1631  150.6448 H   0  0  0  0  0  0  0  0  0  0  0  0
  143.3430  135.6564  150.4376 H   0  0  0  0  0  0  0  0  0  0  0  0
  145.5266  136.8371  151.0762 H   0  0  0  0  0  0  0  0  0  0  0  0
  152.5023  138.6040  159.0970 H   0  0  0  0  0  0  0  0  0  0  0  0
  153.4767  139.5646  158.0306 H   0  0  0  0  0  0  0  0  0  0  0  0
  152.0022  141.0278  159.3239 H   0  0  0  0  0  0  0  0  0  0  0  0
  150.5811  140.1650  158.8148 H   0  0  0  0  0  0  0  0  0  0  0  0
  147.3105  135.5622  151.8123 H   0  0  0  0  0  0  0  0  0  0  0  0
  1  2  1  0  0  0  0
  1 24  1  0  0  0  0
  1 25  1  0  0  0  0
  1 26  1  0  0  0  0
  2 23  1  0  0  0  0
  2  3  1  0  0  0  0
  2 27  1  0  0  0  0
  3  4  1  0  0  0  0
  3 28  1  0  0  0  0
  3 29  1  0  0  0  0
  4  5  1  0  0  0  0
  4 30  1  0  0  0  0
  4 31  1  0  0  0  0
  5  6  1  0  0  0  0
  5 22  1  0  0  0  0
  5 32  1  0  0  0  0
  6  7  1  0  0  0  0
  7  8  2  0  0  0  0
  7  9  2  0  0  0  0
  7 10  1  0  0  0  0
 10 11  1  0  0  0  0
 10 33  1  0  0  0  0
 10 34  1  0  0  0  0
 11 12  2  0  0  0  0
 11 13  1  0  0  0  0
 13 14  1  0  0  0  0
 13 35  1  0  0  0  0
 14 15  1  0  0  0  0
 14 36  1  0  0  0  0
 14 37  1  0  0  0  0
 15 16  1  0  0  0  0
 15 38  1  0  0  0  0
 15 39  1  0  0  0  0
 16 21  1  0  0  0  0
 16 17  2  0  0  0  0
 17 18  1  0  0  0  0
 17 40  1  0  0  0  0
 18 19  2  0  0  0  0
 18 41  1  0  0  0  0
 19 20  1  0  0  0  0
 19 42  1  0  0  0  0
 20 21  2  0  0  0  0
 20 43  1  0  0  0  0
 21 48  1  0  0  0  0
 22 23  1  0  0  0  0
 22 44  1  0  0  0  0
 22 45  1  0  0  0  0
 23 46  1  0  0  0  0
 23 47  1  0  0  0  0
M  CHG  1   6  -1
M  CHG  1  21   1
M  END
> <s_m_source_file>
AV-unprocessed.smi

> <i_m_source_file_index>
1120

> <i_lp_mmshare_version>
43012

> <i_f3d_flags>
0

> <s_epik_input>
W0NIM11bQ0BASF0xW0NIMl1bQ0gyXVtDQEhdKFtDSDJdW0NIMl0xKVtOSF1TKD1PKSg9TylbQ0gyXUMoPU8pW05IXVtDSDJdW0NIMl1jMltjSF1bY0hdW2NIXVtjSF1uMg==

> <s_epik_cmdline>
J2VwaWtfcHl0aG9uJywgJy1waCcsICc3LjAnLCAnLXRuJywgJzgnLCAnLW1hJywgJzIwMCcsICctbWV0YWxfYmluZGluZycsICctaW1hZScsICc8aW5maWxlLm1hZT4nLCAnLW9tYWUnLCAnPG91dGZpbGUubWFlPic=

> <r_epik_Ionization_Penalty>
7.48373

> <r_epik_Ionization_Penalty_Charging>
7.48373

> <r_epik_Ionization_Penalty_Neutral>
1.58512e-08

> <r_epik_State_Penalty>
7.71683

> <r_epik_Charging_Adjusted_Penalty>
15.2006

> <i_epik_Tot_Q>
0

> <i_epik_Tot_abs_Q>
2

> <r_epik_Metal_State_Penalty>
3.7254

> <b_epik_Metal_Only>
1

> <s_lp_Force_Field>
OPLS_2005

> <r_lp_Energy>
13.616

> <b_lp_Chiralities_Consistent>
1

> <s_lp_Variant>
AV-unprocessed.smi:1120-8

> <Gold.Version>
5.8.1

> <Gold.Id.Protein>
6NUR|6NUR_protein|mol2

> <Gold.PLP.Fitness>
52.6241

> <Gold.PLP.PLP>
-39.3503

> <Gold.PLP.part.hbond>
-4.0000

> <Gold.PLP.part.metal>
0.0000

> <Gold.PLP.part.buried>
-4.8842

> <Gold.PLP.part.nonpolar>
-30.6631

> <Gold.PLP.part.repulsive>
0.0837

> <Gold.PLP.ligand.clash>
0.0000

> <Gold.PLP.ligand.torsion>
1.3325

> <Gold.PLP.Chemscore.Hbond>
4.9280

> <Gold.PLP.Chemscore.CHOScore>
0.0000

> <Gold.PLP.Chemscore.Metal>
0.0000

> <Gold.Chemscore.Hbonds>
donor molecule, donor type, donor heavy atom, donor atom, acceptor molecule, acceptor atom, score
      L1  H    13    35       P1  7948  0.94
      L1  H    21    48       P1  7948  2.00
      P1  H  6896  6908       L1     9  1.00
      P1  H 10752 10764       L1     8  0.71

> <Gold.PLP.Chemscore.Internal.Correction>
1.1547

> <Gold.Rescore>
     Score         DG    S(hbond)    S(metal)    S(lipo)     H(rot)  DE(clash)    DE(int)     intcor
     20.28     -23.18       3.71        0.00      88.89       1.98       0.01       2.89       ----

> <Gold.Chemscore.Fitness>
20.2849

> <Gold.Chemscore.DG>
-23.1843

> <Gold.Chemscore.ZeroCoef>
-5.4800

> <Gold.Chemscore.Hbond>
3.7068

> <Gold.Chemscore.Metal>
0.0000

> <Gold.Chemscore.Lipo>
88.8928

> <Gold.Chemscore.Internal_Hbond>
0.0000

> <Gold.Chemscore.DEClash>
0.0081

> <Gold.Chemscore.DEInternal>
2.8913

> <Gold.Chemscore.Rot>
1.9832

> <Gold.Chemscore.Internal.Correction>
   9.000000E+99

> <Gold.Chemscore.Hbonds>
donor molecule, donor type, donor heavy atom, donor atom, acceptor molecule, acceptor atom, score
      L1  H    13    35       P1  7948  0.81
      L1  H    21    48       P1  7948  1.00
      P1  H  6896  6908       L1     9  0.87
      P1  H 10752 10764       L1     8  0.71

> <Gold.Chemscore.Hbond.Weighted>
-12.3807

> <Gold.Chemscore.Metal.Weighted>
-0.0000

> <Gold.Chemscore.Lipo.Weighted>
-10.4005

> <Gold.Chemscore.Internal_Hbond.Weighted>
0.0000

> <Gold.Chemscore.DEClash.Weighted>
0.0081

> <Gold.Chemscore.DEInternal.Weighted>
2.8913

> <Gold.Chemscore.Rot.Weighted>
5.0769

> <Gold.Chemscore.Internal.Correction.Weighted>
   9.000000E+99

> <Gold.Protein.RotatedTorsions>
[ 6907 6896 6895 6894 ] final  167.50 input  -60.11 | X-H torsion
[ 7974 7965 7964 7962 ] final   58.85 input  175.53 | X-H torsion
[ 8008 7997 7996 7995 ] final  157.60 input   59.86 | X-H torsion
[ 10167 10162 10161 10158 ] final   23.96 input  -65.29 | X-H torsion
[ 10718 10713 10712 10709 ] final  118.53 input   66.30 | X-H torsion
[ 10763 10752 10751 10750 ] final  -15.56 input  -60.55 | X-H torsion
[ 11005 11000 10999 10996 ] final -163.02 input  -57.11 | X-H torsion

> <Gold.Protein.ActiveResidues>
 VAL166  LYS551  ARG553  GLY616  TRP617  ASP618  TYR619  PRO620  LYS621  CYS622 
 ASP623  PHE694  ASN695  SER759  ASP760  ASP761  ALA762  ILE779  LEU786  VAL792 
 PHE793  MET794  SER795  GLU796  ALA797  LYS798  CYS799  TRP800  GLU811  SER814 

> <Gold.Protein.RotatedAtoms>
  151.8623  133.3459  159.3707 H   0  0  0  0  0  0  0  0  0  0  0  0  # atno 6907 bound_to 6896
  150.7175  134.5194  159.5655 H   0  0  0  0  0  0  0  0  0  0  0  0  # atno 6908 bound_to 6896
  152.2710  134.7933  160.0465 H   0  0  0  0  0  0  0  0  0  0  0  0  # atno 6909 bound_to 6896
  145.9136  139.3673  143.0520 H   0  0  0  0  0  0  0  0  0  0  0  0  # atno 7974 bound_to 7965
  156.2354  140.1881  156.7133 H   0  0  0  0  0  0  0  0  0  0  0  0  # atno 8008 bound_to 7997
  154.6097  140.0624  156.9505 H   0  0  0  0  0  0  0  0  0  0  0  0  # atno 8009 bound_to 7997
  155.2036  140.3294  155.4342 H   0  0  0  0  0  0  0  0  0  0  0  0  # atno 8010 bound_to 7997
  140.5227  143.9975  150.6425 H   0  0  0  0  0  0  0  0  0  0  0  0  # atno 10167 bound_to 10162
  157.6023  131.1049  150.7770 H   0  0  0  0  0  0  0  0  0  0  0  0  # atno 10718 bound_to 10713
  153.5452  135.7012  153.5617 H   0  0  0  0  0  0  0  0  0  0  0  0  # atno 10763 bound_to 10752
  153.3565  135.3981  155.1686 H   0  0  0  0  0  0  0  0  0  0  0  0  # atno 10764 bound_to 10752
  154.8668  135.3778  154.4959 H   0  0  0  0  0  0  0  0  0  0  0  0  # atno 10765 bound_to 10752
  140.6028  134.4929  157.5207 H   0  0  0  0  0  0  0  0  0  0  0  0  # atno 11005 bound_to 11000
  145.8640  140.9459  143.0685 LP  0  0  0  0  0  0  0  0  0  0  0  0  # atno 17320 bound_to 7965
  144.6745  140.0567  143.7477 LP  0  0  0  0  0  0  0  0  0  0  0  0  # atno 17321 bound_to 7965
  140.3328  143.3067  152.0669 LP  0  0  0  0  0  0  0  0  0  0  0  0  # atno 17342 bound_to 10162
  139.4928  144.6497  151.6702 LP  0  0  0  0  0  0  0  0  0  0  0  0  # atno 17343 bound_to 10162
  156.8166  130.4970  149.5348 LP  0  0  0  0  0  0  0  0  0  0  0  0  # atno 17370 bound_to 10713
  156.1100  130.6033  151.0032 LP  0  0  0  0  0  0  0  0  0  0  0  0  # atno 17371 bound_to 10713
  139.9225  134.8121  156.1168 LP  0  0  0  0  0  0  0  0  0  0  0  0  # atno 17394 bound_to 11000
  141.0861  133.6734  156.2438 LP  0  0  0  0  0  0  0  0  0  0  0  0  # atno 17395 bound_to 11000

$$$$
