#       Name:                AV-unprocessed.smi:703
#       Creating user name   scv26
#       Creation time:       Fri Mar 27 00:42:12 2020


#       File generated by GOLD software.
#

@<TRIPOS>MOLECULE
AV-unprocessed.smi:703
    41    42     1
SMALL
NO_CHARGES


@<TRIPOS>ATOM
      1 ****        -1.1074  -4.4782  -1.1765 C.3            1 S1                 0.0000
      2 ****        -0.9021  -3.0092  -1.5701 C.3            1 S1                 0.0000
      3 ****        -1.7907  -2.0947  -0.8121 N.4            1 S1                 1.0000
      4 ****        -1.5432  -2.0564   0.6493 C.3            1 S1                 0.0000
      5 ****        -1.8742  -0.6245   1.0820 C.3            1 S1                 0.0000
      6 ****        -1.3200  -0.2216   2.4650 C.3            1 S1                 0.0000
      7 ****        -1.4469   0.2200  -0.1327 C.3            1 S1                 0.0000
      8 ****        -0.0086   0.4630  -0.1266 N.pl3          1 S1                -1.0000
      9 ****         0.5413   1.9862  -0.0755 S.o2           1 S1                 0.0000
     10 ****         0.2662   2.7227  -1.3198 O.2            1 S1                 0.0000
     11 ****         0.2104   2.6627   1.1892 O.2            1 S1                 0.0000
     12 ****         2.3602   1.6886  -0.0402 C.3            1 S1                 0.0000
     13 ****         3.0998   2.9965  -0.0791 C.2            1 S1                 0.0000
     14 ****         3.1902   3.9939   0.9313 C.2            1 S1                 0.0000
     15 ****         3.9821   4.9508   0.3657 C.2            1 S1                 0.0000
     16 ****         4.3600   4.5779  -0.8829 O.3            1 S1                 0.0000
     17 ****         3.7949   3.3271  -1.1566 N.2            1 S1                 0.0000
     18 ****        -1.7967  -0.6966  -1.3160 C.3            1 S1                 0.0000
     19 ****        -0.4908  -5.1315  -1.7942 H              1 S1                 0.0000
     20 ****        -2.1465  -4.7808  -1.3088 H              1 S1                 0.0000
     21 ****        -0.8338  -4.6588  -0.1367 H              1 S1                 0.0000
     22 ****         0.1395  -2.7174  -1.4272 H              1 S1                 0.0000
     23 ****        -1.1157  -2.9001  -2.6341 H              1 S1                 0.0000
     24 ****        -2.1573  -2.7932   1.1682 H              1 S1                 0.0000
     25 ****        -0.4983  -2.2936   0.8674 H              1 S1                 0.0000
     26 ****        -2.9615  -0.5524   1.1442 H              1 S1                 0.0000
     27 ****        -0.2347  -0.3202   2.5249 H              1 S1                 0.0000
     28 ****        -1.7411  -0.8588   3.2429 H              1 S1                 0.0000
     29 ****        -1.5755   0.8086   2.7191 H              1 S1                 0.0000
     30 ****        -2.0255   1.1431  -0.1818 H              1 S1                 0.0000
     31 ****         2.5982   1.1324   0.8662 H              1 S1                 0.0000
     32 ****         2.6184   1.0608  -0.8933 H              1 S1                 0.0000
     33 ****         2.7381   4.0062   1.9120 H              1 S1                 0.0000
     34 ****         4.3508   5.9063   0.7082 H              1 S1                 0.0000
     35 ****        -1.1358  -0.5485  -2.1725 H              1 S1                 0.0000
     36 ****        -2.8079  -0.4786  -1.6612 H              1 S1                 0.0000
     37 ****        -2.7345  -2.4311  -0.9370 H              1 S1                 0.0000
     38 ****         0.6325  -0.3040  -0.1537 LP             1 S1                 0.0000
     39 ****         5.3569   4.5165  -0.9305 LP             1 S1                 0.0000
     40 ****         4.0352   5.2490  -1.5493 LP             1 S1                 0.0000
     41 ****         3.8955   2.7919  -1.9953 LP             1 S1                 0.0000
@<TRIPOS>BOND
    1    1    2 1     
    2    1   19 1     
    3    1   20 1     
    4    1   21 1     
    5    2    3 1     
    6    2   22 1     
    7    2   23 1     
    8    3   18 1     
    9    3    4 1     
   10    3   37 1     
   11    4    5 1     
   12    4   24 1     
   13    4   25 1     
   14    5    6 1     
   15    5    7 1     
   16    5   26 1     
   17    6   27 1     
   18    6   28 1     
   19    6   29 1     
   20    7    8 1     
   21    7   18 1     
   22    7   30 1     
   23    8    9 1     
   24    9   10 2     
   25    9   11 2     
   26    9   12 1     
   27   12   13 1     
   28   12   31 1     
   29   12   32 1     
   30   13   17 2     
   31   13   14 1     
   32   14   15 2     
   33   14   33 1     
   34   15   16 1     
   35   15   34 1     
   36   16   17 1     
   37   18   35 1     
   38   18   36 1     
   39    8   38 1     
   40   16   39 1     
   41   16   40 1     
   42   17   41 1     
@<TRIPOS>SUBSTRUCTURE
      1 S1             1
@<TRIPOS>SET
LONE_PAIRS      STATIC     ATOMS    <user>   **** ""
6 38 10 11 39 40 41
DONOR_HYDROGENS      STATIC     ATOMS    <user>   **** ""
1 37
ATOM$BLUE        STATIC     ATOMS    COLORGROUP SYSTEM
6 38 10 11 39 40 41
ATOM$RED        STATIC     ATOMS    COLORGROUP SYSTEM
1 37
