AV-unprocessed.smi:1800|AV-procd|sdf|7265|dock5
  -GOLD-   22720 8523D 1   1.00000     0.00000
 Structure written by MMmdl.
 35 36  0  0  0  0  0  0  0  0  2 V2000
  147.6291  138.5721  156.4613 C   0  0  0  0  0  0  0  0  0  0  0  0
  148.5028  137.8266  157.4796 C   0  0  2  0  0  0  0  0  0  0  0  0
  149.5385  136.9057  156.7849 C   0  0  0  0  0  0  0  0  0  0  0  0
  150.5726  137.6173  156.0380 N   0  0  0  0  0  0  0  0  0  0  0  0
  150.8499  137.5698  154.6844 C   0  0  0  0  0  0  0  0  0  0  0  0
  151.9115  138.3968  154.4535 C   0  0  0  0  0  0  0  0  0  0  0  0
  152.2294  138.9055  155.7433 C   0  0  0  0  0  0  0  0  0  0  0  0
  151.4399  138.4267  156.6903 N   0  0  0  0  0  0  0  0  0  0  0  0
  147.6418  137.0427  158.3547 N   0  5  0  0  0  0  0  0  0  0  0  0
  148.2811  136.2628  159.6250 S   0  0  0  0  0  0  0  0  0  0  0  0
  148.7522  134.9104  159.2824 O   0  0  0  0  0  0  0  0  0  0  0  0
  149.2089  137.1146  160.3867 O   0  0  0  0  0  0  0  0  0  0  0  0
  146.7674  136.0518  160.6820 C   0  0  0  0  0  0  0  0  0  0  0  0
  146.8771  136.8451  161.9879 C   0  0  0  0  0  0  0  0  0  0  0  0
  147.6845  135.9478  162.9284 C   0  0  0  0  0  0  0  0  0  0  0  0
  147.3792  134.5065  162.4950 C   0  0  0  0  0  0  0  0  0  0  0  0
  146.6152  134.6035  161.1656 C   0  0  0  0  0  0  0  0  0  0  0  0
  148.2398  139.1844  155.7974 H   0  0  0  0  0  0  0  0  0  0  0  0
  146.9218  139.2357  156.9604 H   0  0  0  0  0  0  0  0  0  0  0  0
  147.0579  137.8797  155.8414 H   0  0  0  0  0  0  0  0  0  0  0  0
  149.0557  138.5849  158.0360 H   0  0  0  0  0  0  0  0  0  0  0  0
  150.0161  136.2517  157.5170 H   0  0  0  0  0  0  0  0  0  0  0  0
  149.0262  136.2480  156.0819 H   0  0  0  0  0  0  0  0  0  0  0  0
  150.2668  136.9649  154.0057 H   0  0  0  0  0  0  0  0  0  0  0  0
  152.3861  138.6079  153.5069 H   0  0  0  0  0  0  0  0  0  0  0  0
  153.0095  139.5996  156.0190 H   0  0  0  0  0  0  0  0  0  0  0  0
  145.9090  136.3834  160.0974 H   0  0  0  0  0  0  0  0  0  0  0  0
  147.3236  137.8317  161.8639 H   0  0  0  0  0  0  0  0  0  0  0  0
  145.8789  136.9935  162.4014 H   0  0  0  0  0  0  0  0  0  0  0  0
  148.7491  136.1499  162.8033 H   0  0  0  0  0  0  0  0  0  0  0  0
  147.4400  136.1269  163.9756 H   0  0  0  0  0  0  0  0  0  0  0  0
  148.3052  133.9435  162.3728 H   0  0  0  0  0  0  0  0  0  0  0  0
  146.7798  133.9868  163.2429 H   0  0  0  0  0  0  0  0  0  0  0  0
  145.5595  134.3979  161.3450 H   0  0  0  0  0  0  0  0  0  0  0  0
  146.9609  133.8760  160.4306 H   0  0  0  0  0  0  0  0  0  0  0  0
  1  2  1  0  0  0  0
  1 18  1  0  0  0  0
  1 19  1  0  0  0  0
  1 20  1  0  0  0  0
  2  3  1  0  0  0  0
  2  9  1  0  0  0  0
  2 21  1  0  0  0  0
  3  4  1  0  0  0  0
  3 22  1  0  0  0  0
  3 23  1  0  0  0  0
  4  8  1  0  0  0  0
  4  5  1  0  0  0  0
  5  6  2  0  0  0  0
  5 24  1  0  0  0  0
  6  7  1  0  0  0  0
  6 25  1  0  0  0  0
  7  8  2  0  0  0  0
  7 26  1  0  0  0  0
  9 10  1  0  0  0  0
 10 11  2  0  0  0  0
 10 12  2  0  0  0  0
 10 13  1  0  0  0  0
 13 17  1  0  0  0  0
 13 14  1  0  0  0  0
 13 27  1  0  0  0  0
 14 15  1  0  0  0  0
 14 28  1  0  0  0  0
 14 29  1  0  0  0  0
 15 16  1  0  0  0  0
 15 30  1  0  0  0  0
 15 31  1  0  0  0  0
 16 17  1  0  0  0  0
 16 32  1  0  0  0  0
 16 33  1  0  0  0  0
 17 34  1  0  0  0  0
 17 35  1  0  0  0  0
M  CHG  1   9  -1
M  END
> <s_m_source_file>
AV-unprocessed.smi

> <i_m_source_file_index>
1800

> <i_lp_mmshare_version>
43012

> <i_f3d_flags>
0

> <s_epik_input>
bjFbY0hdW2NIXVtjSF1uMVtDSDJdW0NAQEhdKFtDSDNdKVtOSF1TKD1PKSg9TylbQ0hdMltDSDJdW0NIMl1bQ0gyXVtDSDJdMg==

> <s_epik_cmdline>
J2VwaWtfcHl0aG9uJywgJy1waCcsICc3LjAnLCAnLXRuJywgJzgnLCAnLW1hJywgJzIwMCcsICctbWV0YWxfYmluZGluZycsICctaW1hZScsICc8aW5maWxlLm1hZT4nLCAnLW9tYWUnLCAnPG91dGZpbGUubWFlPic=

> <r_lp_tautomer_probability>
1

> <r_epik_Ionization_Penalty>
6.58538

> <r_epik_Ionization_Penalty_Charging>
6.58536

> <r_epik_Ionization_Penalty_Neutral>
2.3841e-05

> <r_epik_State_Penalty>
6.58535

> <r_epik_Charging_Adjusted_Penalty>
13.1707

> <i_epik_Tot_Q>
-1

> <i_epik_Tot_abs_Q>
1

> <r_epik_Metal_State_Penalty>
2.50999

> <b_epik_Metal_Only>
1

> <s_lp_Force_Field>
OPLS_2005

> <r_lp_Energy>
15.5641

> <b_lp_Chiralities_Consistent>
1

> <s_lp_Variant>
AV-unprocessed.smi:1800-3

> <Gold.Version>
5.8.1

> <Gold.Id.Protein>
6NUR|6NUR_protein|mol2

> <Gold.PLP.Fitness>
35.7768

> <Gold.PLP.PLP>
-28.6348

> <Gold.PLP.part.hbond>
-2.0000

> <Gold.PLP.part.metal>
0.0000

> <Gold.PLP.part.buried>
-4.3425

> <Gold.PLP.part.nonpolar>
-22.4209

> <Gold.PLP.part.repulsive>
0.0000

> <Gold.PLP.ligand.clash>
0.0000

> <Gold.PLP.ligand.torsion>
0.8790

> <Gold.PLP.Chemscore.Hbond>
1.5440

> <Gold.PLP.Chemscore.CHOScore>
1.0598

> <Gold.PLP.Chemscore.Metal>
0.0000

> <Gold.Chemscore.Hbonds>
donor molecule, donor type, donor heavy atom, donor atom, acceptor molecule, acceptor atom, score
      P1  H  6896  6909       L1    11  1.00
      P1  H  6931  6943       L1    12  0.54
      L1  C     5    24       P1  7948  0.85
      L1  C     5    24       P1  7949  0.07

> <Gold.PLP.Chemscore.Internal.Correction>
1.0886

> <Gold.Rescore>
     Score         DG    S(hbond)    S(metal)    S(lipo)     H(rot)  DE(clash)    DE(int)     intcor
     14.14     -14.98       1.72        0.00      65.24       1.51       0.00       0.84       ----

> <Gold.Chemscore.Fitness>
14.1389

> <Gold.Chemscore.DG>
-14.9837

> <Gold.Chemscore.ZeroCoef>
-5.4800

> <Gold.Chemscore.Hbond>
1.7208

> <Gold.Chemscore.Metal>
0.0000

> <Gold.Chemscore.Lipo>
65.2448

> <Gold.Chemscore.Internal_Hbond>
0.0000

> <Gold.Chemscore.DEClash>
0.0029

> <Gold.Chemscore.DEInternal>
0.8419

> <Gold.Chemscore.Rot>
1.5146

> <Gold.Chemscore.Internal.Correction>
   9.000000E+99

> <Gold.Chemscore.Hbonds>
donor molecule, donor type, donor heavy atom, donor atom, acceptor molecule, acceptor atom, score
      P1  H  6896  6909       L1    11  0.95
      P1  H  6931  6943       L1    12  0.56

> <Gold.Chemscore.Hbond.Weighted>
-5.7474

> <Gold.Chemscore.Metal.Weighted>
-0.0000

> <Gold.Chemscore.Lipo.Weighted>
-7.6336

> <Gold.Chemscore.Internal_Hbond.Weighted>
0.0000

> <Gold.Chemscore.DEClash.Weighted>
0.0029

> <Gold.Chemscore.DEInternal.Weighted>
0.8419

> <Gold.Chemscore.Rot.Weighted>
3.8773

> <Gold.Chemscore.Internal.Correction.Weighted>
   9.000000E+99

> <Gold.Protein.RotatedTorsions>
[ 6907 6896 6895 6894 ] final   30.52 input  -60.11 | X-H torsion
[ 7974 7965 7964 7962 ] final -175.96 input  175.53 | X-H torsion
[ 8008 7997 7996 7995 ] final  -55.35 input   59.86 | X-H torsion
[ 10167 10162 10161 10158 ] final   86.58 input  -65.29 | X-H torsion
[ 10718 10713 10712 10709 ] final  130.89 input   66.30 | X-H torsion
[ 10763 10752 10751 10750 ] final   30.60 input  -60.55 | X-H torsion
[ 11005 11000 10999 10996 ] final -117.07 input  -57.11 | X-H torsion

> <Gold.Protein.ActiveResidues>
 VAL166  LYS551  ARG553  GLY616  TRP617  ASP618  TYR619  PRO620  LYS621  CYS622 
 ASP623  PHE694  ASN695  SER759  ASP760  ASP761  ALA762  ILE779  LEU786  VAL792 
 PHE793  MET794  SER795  GLU796  ALA797  LYS798  CYS799  TRP800  GLU811  SER814 

> <Gold.Protein.RotatedAtoms>
  152.0471  134.9676  160.0574 H   0  0  0  0  0  0  0  0  0  0  0  0  # atno 6907 bound_to 6896
  152.1092  133.4286  159.4631 H   0  0  0  0  0  0  0  0  0  0  0  0  # atno 6908 bound_to 6896
  150.6842  134.2588  159.4584 H   0  0  0  0  0  0  0  0  0  0  0  0  # atno 6909 bound_to 6896
  144.7127  140.1242  143.6403 H   0  0  0  0  0  0  0  0  0  0  0  0  # atno 7974 bound_to 7965
  154.4192  140.1155  156.5463 H   0  0  0  0  0  0  0  0  0  0  0  0  # atno 8008 bound_to 7997
  155.6456  140.3496  155.4711 H   0  0  0  0  0  0  0  0  0  0  0  0  # atno 8009 bound_to 7997
  155.9835  140.1165  157.0694 H   0  0  0  0  0  0  0  0  0  0  0  0  # atno 8010 bound_to 7997
  139.8861  144.6412  150.8789 H   0  0  0  0  0  0  0  0  0  0  0  0  # atno 10167 bound_to 10162
  157.5019  131.1094  150.9415 H   0  0  0  0  0  0  0  0  0  0  0  0  # atno 10718 bound_to 10713
  153.0362  135.6460  154.1070 H   0  0  0  0  0  0  0  0  0  0  0  0  # atno 10763 bound_to 10752
  154.0784  135.2875  155.3296 H   0  0  0  0  0  0  0  0  0  0  0  0  # atno 10764 bound_to 10752
  154.6547  135.5413  153.8008 H   0  0  0  0  0  0  0  0  0  0  0  0  # atno 10765 bound_to 10752
  141.0380  133.9880  157.3041 H   0  0  0  0  0  0  0  0  0  0  0  0  # atno 11005 bound_to 11000
  145.9344  139.2627  143.1306 LP  0  0  0  0  0  0  0  0  0  0  0  0  # atno 17320 bound_to 7965
  145.9489  140.8924  143.0269 LP  0  0  0  0  0  0  0  0  0  0  0  0  # atno 17321 bound_to 7965
  140.7735  143.3547  151.1945 LP  0  0  0  0  0  0  0  0  0  0  0  0  # atno 17342 bound_to 10162
  139.7152  143.9313  152.2963 LP  0  0  0  0  0  0  0  0  0  0  0  0  # atno 17343 bound_to 10162
  157.0083  130.5627  149.5318 LP  0  0  0  0  0  0  0  0  0  0  0  0  # atno 17370 bound_to 10713
  156.0234  130.5329  150.8340 LP  0  0  0  0  0  0  0  0  0  0  0  0  # atno 17371 bound_to 10713
  139.9254  135.0201  156.8216 LP  0  0  0  0  0  0  0  0  0  0  0  0  # atno 17394 bound_to 11000
  140.6287  133.9926  155.7652 LP  0  0  0  0  0  0  0  0  0  0  0  0  # atno 17395 bound_to 11000

$$$$
