AV-unprocessed.smi:1960|AV-procd|sdf|7916|dock5
  -GOLD-   2272010 83D 1   1.00000     0.00000
 Structure written by MMmdl.
 38 39  0  0  0  0  0  0  0  0  1 V2000
  149.5474  141.4570  154.9628 C   0  0  0  0  0  0  0  0  0  0  0  0
  148.0888  141.0903  156.0221 S   0  0  0  0  0  0  0  0  0  0  0  0
  148.3767  139.8706  156.7921 O   0  0  0  0  0  0  0  0  0  0  0  0
  147.7115  142.3253  156.7264 O   0  0  0  0  0  0  0  0  0  0  0  0
  146.8232  140.7173  154.8868 N   0  0  0  0  0  0  0  0  0  0  0  0
  147.0670  140.8603  153.4374 C   0  0  0  0  0  0  0  0  0  0  0  0
  147.3374  139.5015  152.7678 C   0  0  0  0  0  0  0  0  0  0  0  0
  146.2141  138.4942  153.0668 C   0  0  0  0  0  0  0  0  0  0  0  0
  146.5184  137.1873  152.4904 N   0  0  0  0  0  0  0  0  0  0  0  0
  145.6078  136.2990  152.0660 C   0  0  0  0  0  0  0  0  0  0  0  0
  144.3941  136.4972  152.1167 O   0  0  0  0  0  0  0  0  0  0  0  0
  146.1981  135.1978  151.5686 N   0  0  0  0  0  0  0  0  0  0  0  0
  145.5914  134.0315  151.0280 C   0  0  0  0  0  0  0  0  0  0  0  0
  146.4373  132.9747  150.6325 C   0  0  0  0  0  0  0  0  0  0  0  0
  145.8592  131.8009  150.1090 C   0  0  0  0  0  0  0  0  0  0  0  0
  144.5280  131.6270  149.9724 N   0  0  0  0  0  0  0  0  0  0  0  0
  143.7188  132.6336  150.3645 C   0  0  0  0  0  0  0  0  0  0  0  0
  144.1934  133.8479  150.9002 C   0  0  0  0  0  0  0  0  0  0  0  0
  146.0410  138.3657  154.5873 C   0  0  0  0  0  0  0  0  0  0  0  0
  145.7797  139.7342  155.2412 C   0  0  0  0  0  0  0  0  0  0  0  0
  150.3950  141.7074  155.5999 H   0  0  0  0  0  0  0  0  0  0  0  0
  149.3316  142.3042  154.3142 H   0  0  0  0  0  0  0  0  0  0  0  0
  149.8013  140.5836  154.3648 H   0  0  0  0  0  0  0  0  0  0  0  0
  146.1873  141.3192  152.9848 H   0  0  0  0  0  0  0  0  0  0  0  0
  147.8964  141.5435  153.2568 H   0  0  0  0  0  0  0  0  0  0  0  0
  147.4354  139.6457  151.6913 H   0  0  0  0  0  0  0  0  0  0  0  0
  148.2927  139.1027  153.1077 H   0  0  0  0  0  0  0  0  0  0  0  0
  145.2781  138.8641  152.6434 H   0  0  0  0  0  0  0  0  0  0  0  0
  147.4944  136.9436  152.4085 H   0  0  0  0  0  0  0  0  0  0  0  0
  147.2062  135.2200  151.5203 H   0  0  0  0  0  0  0  0  0  0  0  0
  147.5107  133.0595  150.7209 H   0  0  0  0  0  0  0  0  0  0  0  0
  146.4841  130.9786  149.7929 H   0  0  0  0  0  0  0  0  0  0  0  0
  142.6580  132.4642  150.2543 H   0  0  0  0  0  0  0  0  0  0  0  0
  143.4821  134.5980  151.2092 H   0  0  0  0  0  0  0  0  0  0  0  0
  145.2118  137.6936  154.8109 H   0  0  0  0  0  0  0  0  0  0  0  0
  146.9279  137.9091  155.0254 H   0  0  0  0  0  0  0  0  0  0  0  0
  145.7074  139.6303  156.3234 H   0  0  0  0  0  0  0  0  0  0  0  0
  144.8165  140.1199  154.9051 H   0  0  0  0  0  0  0  0  0  0  0  0
  1  2  1  0  0  0  0
  1 21  1  0  0  0  0
  1 22  1  0  0  0  0
  1 23  1  0  0  0  0
  2  3  2  0  0  0  0
  2  4  2  0  0  0  0
  2  5  1  0  0  0  0
  5 20  1  0  0  0  0
  5  6  1  0  0  0  0
  6  7  1  0  0  0  0
  6 24  1  0  0  0  0
  6 25  1  0  0  0  0
  7  8  1  0  0  0  0
  7 26  1  0  0  0  0
  7 27  1  0  0  0  0
  8  9  1  0  0  0  0
  8 19  1  0  0  0  0
  8 28  1  0  0  0  0
  9 10  1  0  0  0  0
  9 29  1  0  0  0  0
 10 11  2  0  0  0  0
 10 12  1  0  0  0  0
 12 13  1  0  0  0  0
 12 30  1  0  0  0  0
 13 18  1  0  0  0  0
 13 14  2  0  0  0  0
 14 15  1  0  0  0  0
 14 31  1  0  0  0  0
 15 16  2  0  0  0  0
 15 32  1  0  0  0  0
 16 17  1  0  0  0  0
 17 18  2  0  0  0  0
 17 33  1  0  0  0  0
 18 34  1  0  0  0  0
 19 20  1  0  0  0  0
 19 35  1  0  0  0  0
 19 36  1  0  0  0  0
 20 37  1  0  0  0  0
 20 38  1  0  0  0  0
M  END
> <s_m_source_file>
AV-unprocessed.smi

> <i_m_source_file_index>
1960

> <i_lp_mmshare_version>
43012

> <i_f3d_flags>
0

> <s_epik_input>
W0NIM11TKD1PKSg9TylOMVtDSDJdW0NIMl1bQ0hdKFtDSDJdW0NIMl0xKVtOSF1DKD1PKVtOSF1jMltjSF1bY0hdbltjSF1bY0hdMg==

> <s_epik_cmdline>
J2VwaWtfcHl0aG9uJywgJy1waCcsICc3LjAnLCAnLXRuJywgJzgnLCAnLW1hJywgJzIwMCcsICctbWV0YWxfYmluZGluZycsICctaW1hZScsICc8aW5maWxlLm1hZT4nLCAnLW9tYWUnLCAnPG91dGZpbGUubWFlPic=

> <r_epik_Ionization_Penalty>
0.116752

> <r_epik_Ionization_Penalty_Charging>
0

> <r_epik_Ionization_Penalty_Neutral>
0.116752

> <r_epik_State_Penalty>
0.106329

> <r_epik_Charging_Adjusted_Penalty>
0.106329

> <i_epik_Tot_Q>
0

> <i_epik_Tot_abs_Q>
0

> <r_epik_Metal_State_Penalty>
0.0886803

> <b_epik_Metal_Only>
0

> <s_lp_Force_Field>
OPLS_2005

> <r_lp_Energy>
6.48368

> <b_lp_Chiralities_Consistent>
1

> <s_lp_Variant>
AV-unprocessed.smi:1960-1

> <Gold.Version>
5.8.1

> <Gold.Id.Protein>
6NUR|6NUR_protein|mol2

> <Gold.PLP.Fitness>
40.1725

> <Gold.PLP.PLP>
-29.3495

> <Gold.PLP.part.hbond>
-3.0000

> <Gold.PLP.part.metal>
0.0000

> <Gold.PLP.part.buried>
-3.0024

> <Gold.PLP.part.nonpolar>
-25.9631

> <Gold.PLP.part.repulsive>
2.2904

> <Gold.PLP.ligand.clash>
0.0000

> <Gold.PLP.ligand.torsion>
1.5804

> <Gold.PLP.Chemscore.Hbond>
2.1612

> <Gold.PLP.Chemscore.CHOScore>
1.8161

> <Gold.PLP.Chemscore.Metal>
0.0000

> <Gold.Chemscore.Hbonds>
donor molecule, donor type, donor heavy atom, donor atom, acceptor molecule, acceptor atom, score
      L1  H     9    29       P1  7948  1.00
      L1  H    12    30       P1  7948  1.00
      P1  H 10785 10796       L1    16  0.13
      L1  C    15    32       P1 10747  0.88
      L1  C    17    33       P1 10186  0.59
      L1  C    17    33       P1 10952  0.13

> <Gold.PLP.Chemscore.Internal.Correction>
2.0519

> <Gold.Rescore>
     Score         DG    S(hbond)    S(metal)    S(lipo)     H(rot)  DE(clash)    DE(int)     intcor
     14.42     -17.27       1.95        0.00      67.05       1.00       0.06       2.79       ----

> <Gold.Chemscore.Fitness>
14.4177

> <Gold.Chemscore.DG>
-17.2716

> <Gold.Chemscore.ZeroCoef>
-5.4800

> <Gold.Chemscore.Hbond>
1.9481

> <Gold.Chemscore.Metal>
0.0000

> <Gold.Chemscore.Lipo>
67.0500

> <Gold.Chemscore.Internal_Hbond>
0.0000

> <Gold.Chemscore.DEClash>
0.0620

> <Gold.Chemscore.DEInternal>
2.7920

> <Gold.Chemscore.Rot>
1.0000

> <Gold.Chemscore.Internal.Correction>
   9.000000E+99

> <Gold.Chemscore.Hbonds>
donor molecule, donor type, donor heavy atom, donor atom, acceptor molecule, acceptor atom, score
      L1  H     9    29       P1  7948  1.00
      L1  H    12    30       P1  7948  0.82
      P1  H 10785 10796       L1    16  0.09

> <Gold.Chemscore.Hbond.Weighted>
-6.5068

> <Gold.Chemscore.Metal.Weighted>
-0.0000

> <Gold.Chemscore.Lipo.Weighted>
-7.8448

> <Gold.Chemscore.Internal_Hbond.Weighted>
0.0000

> <Gold.Chemscore.DEClash.Weighted>
0.0620

> <Gold.Chemscore.DEInternal.Weighted>
2.7920

> <Gold.Chemscore.Rot.Weighted>
2.5600

> <Gold.Chemscore.Internal.Correction.Weighted>
   9.000000E+99

> <Gold.Protein.RotatedTorsions>
[ 6907 6896 6895 6894 ] final   61.89 input  -60.11 | X-H torsion
[ 7974 7965 7964 7962 ] final  -60.26 input  175.53 | X-H torsion
[ 8008 7997 7996 7995 ] final    0.43 input   59.86 | X-H torsion
[ 10167 10162 10161 10158 ] final   -7.19 input  -65.29 | X-H torsion
[ 10718 10713 10712 10709 ] final  149.90 input   66.30 | X-H torsion
[ 10763 10752 10751 10750 ] final  -86.25 input  -60.55 | X-H torsion
[ 11005 11000 10999 10996 ] final -118.63 input  -57.11 | X-H torsion

> <Gold.Protein.ActiveResidues>
 VAL166  LYS551  ARG553  GLY616  TRP617  ASP618  TYR619  PRO620  LYS621  CYS622 
 ASP623  PHE694  ASN695  SER759  ASP760  ASP761  ALA762  ILE779  LEU786  VAL792 
 PHE793  MET794  SER795  GLU796  ALA797  LYS798  CYS799  TRP800  GLU811  SER814 

> <Gold.Protein.RotatedAtoms>
  152.4126  134.6097  160.0022 H   0  0  0  0  0  0  0  0  0  0  0  0  # atno 6907 bound_to 6896
  151.6270  133.3329  159.3108 H   0  0  0  0  0  0  0  0  0  0  0  0  # atno 6908 bound_to 6896
  150.8016  134.7154  159.6672 H   0  0  0  0  0  0  0  0  0  0  0  0  # atno 6909 bound_to 6896
  145.8176  140.8560  143.0149 H   0  0  0  0  0  0  0  0  0  0  0  0  # atno 7974 bound_to 7965
  154.6680  140.2605  155.7037 H   0  0  0  0  0  0  0  0  0  0  0  0  # atno 8008 bound_to 7997
  156.2647  140.2835  156.1101 H   0  0  0  0  0  0  0  0  0  0  0  0  # atno 8009 bound_to 7997
  155.1210  140.0377  157.2740 H   0  0  0  0  0  0  0  0  0  0  0  0  # atno 8010 bound_to 7997
  140.7021  143.6109  150.8705 H   0  0  0  0  0  0  0  0  0  0  0  0  # atno 10167 bound_to 10162
  157.2903  131.0852  151.1467 H   0  0  0  0  0  0  0  0  0  0  0  0  # atno 10718 bound_to 10713
  154.6203  135.5456  153.7568 H   0  0  0  0  0  0  0  0  0  0  0  0  # atno 10763 bound_to 10752
  153.0235  135.6411  154.1450 H   0  0  0  0  0  0  0  0  0  0  0  0  # atno 10764 bound_to 10752
  154.1384  135.2910  155.3147 H   0  0  0  0  0  0  0  0  0  0  0  0  # atno 10765 bound_to 10752
  141.0272  134.0036  157.3197 H   0  0  0  0  0  0  0  0  0  0  0  0  # atno 11005 bound_to 11000
  144.6751  140.0486  143.7479 LP  0  0  0  0  0  0  0  0  0  0  0  0  # atno 17320 bound_to 7965
  145.9710  139.2870  143.1099 LP  0  0  0  0  0  0  0  0  0  0  0  0  # atno 17321 bound_to 7965
  139.9831  143.5929  152.2936 LP  0  0  0  0  0  0  0  0  0  0  0  0  # atno 17342 bound_to 10162
  139.6557  144.7662  151.2060 LP  0  0  0  0  0  0  0  0  0  0  0  0  # atno 17343 bound_to 10162
  157.2866  130.6775  149.6092 LP  0  0  0  0  0  0  0  0  0  0  0  0  # atno 17370 bound_to 10713
  155.9667  130.4433  150.5418 LP  0  0  0  0  0  0  0  0  0  0  0  0  # atno 17371 bound_to 10713
  139.9184  135.0199  156.7969 LP  0  0  0  0  0  0  0  0  0  0  0  0  # atno 17394 bound_to 11000
  140.6470  133.9766  155.7736 LP  0  0  0  0  0  0  0  0  0  0  0  0  # atno 17395 bound_to 11000

$$$$
