#       Name:                AV-unprocessed.smi:2775
#       Creating user name   scv26
#       Creation time:       Fri Mar 27 15:13:20 2020


#       File generated by GOLD software.
#

@<TRIPOS>MOLECULE
AV-unprocessed.smi:2775
    47    50     1
SMALL
NO_CHARGES


@<TRIPOS>ATOM
      1 ****        -5.4783   1.9248   0.2963 C.3            1 S1                 0.0000
      2 ****        -4.7643   0.6285  -0.0378 C.ar           1 S1                 0.0000
      3 ****        -5.5508  -0.3717  -0.4913 N.ar           1 S1                 0.0000
      4 ****        -4.9674  -1.5477  -0.8000 C.ar           1 S1                 0.0000
      5 ****        -3.5842  -1.7807  -0.6824 C.ar           1 S1                 0.0000
      6 ****        -2.7545  -0.7294  -0.2242 C.ar           1 S1                 0.0000
      7 ****        -1.3478  -0.8555  -0.0564 N.am           1 S1                 0.0000
      8 ****        -0.4927  -1.7042  -0.6598 C.2            1 S1                 0.0000
      9 ****        -0.8156  -2.5896  -1.4485 O.2            1 S1                 0.0000
     10 ****         0.7953  -1.4951  -0.3387 N.am           1 S1                 0.0000
     11 ****         1.9658  -2.2415  -0.8212 C.3            1 S1                 0.0000
     12 ****         2.2110  -3.5672  -0.0869 C.3            1 S1                 0.0000
     13 ****         1.3725  -4.5257   0.6787 C.3            1 S1                 0.0000
     14 ****         2.4074  -4.8415   1.7882 C.3            1 S1                 0.0000
     15 ****         3.4926  -3.8989   1.5967 O.3            1 S1                 0.0000
     16 ****         2.8791  -2.7624   1.0162 C.3            1 S1                 0.0000
     17 ****         3.3074  -1.8284  -0.1283 C.3            1 S1                 0.0000
     18 ****         4.6640  -1.9935  -0.8328 C.3            1 S1                 0.0000
     19 ****         4.6939  -0.4737  -1.0202 C.3            1 S1                 0.0000
     20 ****         3.6731  -0.3578   0.1167 C.3            1 S1                 0.0000
     21 ****        -3.3647   0.4992   0.1215 C.ar           1 S1                 0.0000
     22 ****        -2.4190   1.8207   0.7216 Cl             1 S1                 0.0000
     23 ****        -5.0889   2.7393  -0.3150 H              1 S1                 0.0000
     24 ****        -5.3319   2.1802   1.3460 H              1 S1                 0.0000
     25 ****        -6.5511   1.8505   0.1134 H              1 S1                 0.0000
     26 ****        -5.6248  -2.3309  -1.1476 H              1 S1                 0.0000
     27 ****        -3.1955  -2.7553  -0.9332 H              1 S1                 0.0000
     28 ****        -0.9208  -0.1434   0.5181 H              1 S1                 0.0000
     29 ****         0.9864  -0.7403   0.3044 H              1 S1                 0.0000
     30 ****         2.0428  -2.3089  -1.9074 H              1 S1                 0.0000
     31 ****         2.9413  -4.1340  -0.6761 H              1 S1                 0.0000
     32 ****         0.4718  -4.0606   1.0811 H              1 S1                 0.0000
     33 ****         1.0961  -5.4067   0.0997 H              1 S1                 0.0000
     34 ****         1.9649  -4.7166   2.7773 H              1 S1                 0.0000
     35 ****         2.7888  -5.8601   1.7132 H              1 S1                 0.0000
     36 ****         2.1795  -2.2873   1.7103 H              1 S1                 0.0000
     37 ****         5.4461  -2.3512  -0.1613 H              1 S1                 0.0000
     38 ****         4.6361  -2.5649  -1.7612 H              1 S1                 0.0000
     39 ****         5.6583  -0.0073  -0.8166 H              1 S1                 0.0000
     40 ****         4.2879  -0.1612  -1.9835 H              1 S1                 0.0000
     41 ****         2.8724   0.3588  -0.0669 H              1 S1                 0.0000
     42 ****         4.1423  -0.1981   1.0886 H              1 S1                 0.0000
     43 ****        -6.5371  -0.2438  -0.5951 LP             1 S1                 0.0000
     44 ****        -1.7781  -2.7213  -1.6857 LP             1 S1                 0.0000
     45 ****        -0.1158  -3.1784  -1.8531 LP             1 S1                 0.0000
     46 ****         4.1857  -4.2780   0.9836 LP             1 S1                 0.0000
     47 ****         3.9148  -3.6637   2.4722 LP             1 S1                 0.0000
@<TRIPOS>BOND
    1    1    2 1     
    2    1   23 1     
    3    1   24 1     
    4    1   25 1     
    5    2   21 ar    
    6    2    3 ar    
    7    3    4 ar    
    8    4    5 ar    
    9    4   26 1     
   10    5    6 ar    
   11    5   27 1     
   12    6    7 1     
   13    6   21 ar    
   14    7    8 am    
   15    7   28 1     
   16    8    9 2     
   17    8   10 am    
   18   10   11 1     
   19   10   29 1     
   20   11   17 1     
   21   11   12 1     
   22   11   30 1     
   23   12   16 1     
   24   12   13 1     
   25   12   31 1     
   26   13   14 1     
   27   13   32 1     
   28   13   33 1     
   29   14   15 1     
   30   14   34 1     
   31   14   35 1     
   32   15   16 1     
   33   16   17 1     
   34   16   36 1     
   35   17   20 1     
   36   17   18 1     
   37   18   19 1     
   38   18   37 1     
   39   18   38 1     
   40   19   20 1     
   41   19   39 1     
   42   19   40 1     
   43   20   41 1     
   44   20   42 1     
   45   21   22 1     
   46    3   43 1     
   47    9   44 1     
   48    9   45 1     
   49   15   46 1     
   50   15   47 1     
@<TRIPOS>SUBSTRUCTURE
      1 S1             1
@<TRIPOS>SET
LONE_PAIRS      STATIC     ATOMS    <user>   **** ""
5 43 44 45 46 47
DONOR_HYDROGENS      STATIC     ATOMS    <user>   **** ""
2 28 29
ATOM$BLUE        STATIC     ATOMS    COLORGROUP SYSTEM
5 43 44 45 46 47
ATOM$RED        STATIC     ATOMS    COLORGROUP SYSTEM
2 28 29
