AV-unprocessed.smi:2184|AV-procd|sdf|8869|dock1
  -GOLD-   2272012 63D 1   1.00000     0.00000
 Structure written by MMmdl.
 47 48  0  0  0  0  0  0  0  0  1 V2000
  153.7134  132.7958  164.6331 C   0  0  0  0  0  0  0  0  0  0  0  0
  154.4253  133.3781  163.0700 S   0  0  0  0  0  0  0  0  0  0  0  0
  154.8099  135.1068  163.4833 C   0  0  2  0  0  0  0  0  0  0  0  0
  153.5352  135.8404  163.9286 C   0  0  0  0  0  0  0  0  0  0  0  0
  155.4849  135.8395  162.3175 C   0  0  0  0  0  0  0  0  0  0  0  0
  155.7362  135.2423  161.2701 O   0  0  0  0  0  0  0  0  0  0  0  0
  155.7876  137.1321  162.5163 N   0  0  0  0  0  0  0  0  0  0  0  0
  156.4612  137.9881  161.5463 C   0  0  0  0  0  0  0  0  0  0  0  0
  155.5540  139.0557  160.9576 C   0  0  0  0  0  0  0  0  0  0  0  0
  154.9454  140.0209  161.7831 C   0  0  0  0  0  0  0  0  0  0  0  0
  154.1067  140.9882  161.1973 C   0  0  0  0  0  0  0  0  0  0  0  0
  153.9003  140.9675  159.7972 C   0  0  0  0  0  0  0  0  0  0  0  0
  153.0612  141.9267  159.1904 N   0  0  0  0  0  0  0  0  0  0  0  0
  152.6955  143.1080  159.9686 C   0  0  0  0  0  0  0  0  0  0  0  0
  152.0409  144.1673  159.0628 C   0  0  2  0  0  0  0  0  0  0  0  0
  151.5361  145.3738  159.8609 C   0  0  0  0  0  0  0  0  0  0  0  0
  150.9318  143.5818  158.3864 O   0  0  0  0  0  0  0  0  0  0  0  0
  151.3175  142.4982  157.5450 C   0  0  2  0  0  0  0  0  0  0  0  0
  150.0744  142.0039  156.7978 C   0  0  0  0  0  0  0  0  0  0  0  0
  151.9544  141.3893  158.4040 C   0  0  0  0  0  0  0  0  0  0  0  0
  154.4889  140.0357  159.0068 N   0  0  0  0  0  0  0  0  0  0  0  0
  155.2935  139.1127  159.5734 C   0  0  0  0  0  0  0  0  0  0  0  0
  153.3589  131.7711  164.5229 H   0  0  0  0  0  0  0  0  0  0  0  0
  152.8722  133.4228  164.9286 H   0  0  0  0  0  0  0  0  0  0  0  0
  154.4601  132.8139  165.4261 H   0  0  0  0  0  0  0  0  0  0  0  0
  155.4954  135.0899  164.3320 H   0  0  0  0  0  0  0  0  0  0  0  0
  153.7412  136.8833  164.1730 H   0  0  0  0  0  0  0  0  0  0  0  0
  153.1104  135.3747  164.8182 H   0  0  0  0  0  0  0  0  0  0  0  0
  152.7700  135.8239  163.1513 H   0  0  0  0  0  0  0  0  0  0  0  0
  155.5459  137.5473  163.4045 H   0  0  0  0  0  0  0  0  0  0  0  0
  157.3416  138.4461  162.0008 H   0  0  0  0  0  0  0  0  0  0  0  0
  156.8258  137.3609  160.7324 H   0  0  0  0  0  0  0  0  0  0  0  0
  155.1091  140.0184  162.8507 H   0  0  0  0  0  0  0  0  0  0  0  0
  153.6210  141.7190  161.8266 H   0  0  0  0  0  0  0  0  0  0  0  0
  152.0083  142.8158  160.7641 H   0  0  0  0  0  0  0  0  0  0  0  0
  153.5814  143.5340  160.4419 H   0  0  0  0  0  0  0  0  0  0  0  0
  152.7652  144.5179  158.3252 H   0  0  0  0  0  0  0  0  0  0  0  0
  152.3535  145.8637  160.3906 H   0  0  0  0  0  0  0  0  0  0  0  0
  150.7902  145.0750  160.5980 H   0  0  0  0  0  0  0  0  0  0  0  0
  151.0769  146.1117  159.2026 H   0  0  0  0  0  0  0  0  0  0  0  0
  152.0425  142.8556  156.8114 H   0  0  0  0  0  0  0  0  0  0  0  0
  150.3207  141.1784  156.1297 H   0  0  0  0  0  0  0  0  0  0  0  0
  149.6398  142.8015  156.1948 H   0  0  0  0  0  0  0  0  0  0  0  0
  149.3087  141.6562  157.4921 H   0  0  0  0  0  0  0  0  0  0  0  0
  152.2800  140.5787  157.7536 H   0  0  0  0  0  0  0  0  0  0  0  0
  151.2136  140.9698  159.0860 H   0  0  0  0  0  0  0  0  0  0  0  0
  155.7403  138.3970  158.8992 H   0  0  0  0  0  0  0  0  0  0  0  0
  1  2  1  0  0  0  0
  1 23  1  0  0  0  0
  1 24  1  0  0  0  0
  1 25  1  0  0  0  0
  2  3  1  0  0  0  0
  3  4  1  0  0  0  0
  3  5  1  0  0  0  0
  3 26  1  0  0  0  0
  4 27  1  0  0  0  0
  4 28  1  0  0  0  0
  4 29  1  0  0  0  0
  5  6  2  0  0  0  0
  5  7  1  0  0  0  0
  7  8  1  0  0  0  0
  7 30  1  0  0  0  0
  8  9  1  0  0  0  0
  8 31  1  0  0  0  0
  8 32  1  0  0  0  0
  9 22  1  0  0  0  0
  9 10  2  0  0  0  0
 10 11  1  0  0  0  0
 10 33  1  0  0  0  0
 11 12  2  0  0  0  0
 11 34  1  0  0  0  0
 12 13  1  0  0  0  0
 12 21  1  0  0  0  0
 13 20  1  0  0  0  0
 13 14  1  0  0  0  0
 14 15  1  0  0  0  0
 14 35  1  0  0  0  0
 14 36  1  0  0  0  0
 15 16  1  0  0  0  0
 15 17  1  0  0  0  0
 15 37  1  0  0  0  0
 16 38  1  0  0  0  0
 16 39  1  0  0  0  0
 16 40  1  0  0  0  0
 17 18  1  0  0  0  0
 18 19  1  0  0  0  0
 18 20  1  0  0  0  0
 18 41  1  0  0  0  0
 19 42  1  0  0  0  0
 19 43  1  0  0  0  0
 19 44  1  0  0  0  0
 20 45  1  0  0  0  0
 20 46  1  0  0  0  0
 21 22  2  0  0  0  0
 22 47  1  0  0  0  0
M  END
> <s_m_source_file>
AV-unprocessed.smi

> <i_m_source_file_index>
2184

> <i_lp_mmshare_version>
43012

> <i_f3d_flags>
0

> <s_epik_input>
W0NIM11TW0NASF0oW0NIM10pQyg9TylbTkhdW0NIMl1jMVtjSF1bY0hdYyhuW2NIXTEpTjJbQ0gyXVtDQEBIXShbQ0gzXSlPW0NAQEhdKFtDSDNdKVtDSDJdMg==

> <s_epik_cmdline>
J2VwaWtfcHl0aG9uJywgJy1waCcsICc3LjAnLCAnLXRuJywgJzgnLCAnLW1hJywgJzIwMCcsICctbWV0YWxfYmluZGluZycsICctaW1hZScsICc8aW5maWxlLm1hZT4nLCAnLW9tYWUnLCAnPG91dGZpbGUubWFlPic=

> <r_lp_tautomer_probability>
1

> <r_epik_Ionization_Penalty>
0.00551702

> <r_epik_Ionization_Penalty_Charging>
0

> <r_epik_Ionization_Penalty_Neutral>
0.00551702

> <r_epik_State_Penalty>
0.00403758

> <r_epik_Charging_Adjusted_Penalty>
0.00403758

> <i_epik_Tot_Q>
0

> <i_epik_Tot_abs_Q>
0

> <r_epik_Metal_State_Penalty>
-0

> <b_epik_Metal_Only>
0

> <s_lp_Force_Field>
OPLS_2005

> <r_lp_Energy>
14.0724

> <b_lp_Chiralities_Consistent>
1

> <s_lp_Variant>
AV-unprocessed.smi:2184-1

> <Gold.Version>
5.8.1

> <Gold.Id.Protein>
6NUR|6NUR_protein|mol2

> <Gold.PLP.Fitness>
46.7370

> <Gold.PLP.PLP>
-43.8874

> <Gold.PLP.part.hbond>
-1.0000

> <Gold.PLP.part.metal>
0.0000

> <Gold.PLP.part.buried>
-3.8660

> <Gold.PLP.part.nonpolar>
-39.5243

> <Gold.PLP.part.repulsive>
0.1235

> <Gold.PLP.ligand.clash>
0.0000

> <Gold.PLP.ligand.torsion>
0.2729

> <Gold.PLP.Chemscore.Hbond>
1.0000

> <Gold.PLP.Chemscore.CHOScore>
0.0000

> <Gold.PLP.Chemscore.Metal>
0.0000

> <Gold.Chemscore.Hbonds>
donor molecule, donor type, donor heavy atom, donor atom, acceptor molecule, acceptor atom, score
      P1  H  7997  8010       L1    21  0.90

> <Gold.PLP.Chemscore.Internal.Correction>
0.3954

> <Gold.Rescore>
     Score         DG    S(hbond)    S(metal)    S(lipo)     H(rot)  DE(clash)    DE(int)     intcor
     18.49     -19.10       0.83        0.00     127.66       1.59       0.35       0.25       ----

> <Gold.Chemscore.Fitness>
18.4894

> <Gold.Chemscore.DG>
-19.0976

> <Gold.Chemscore.ZeroCoef>
-5.4800

> <Gold.Chemscore.Hbond>
0.8277

> <Gold.Chemscore.Metal>
0.0000

> <Gold.Chemscore.Lipo>
127.6557

> <Gold.Chemscore.Internal_Hbond>
0.0000

> <Gold.Chemscore.DEClash>
0.3541

> <Gold.Chemscore.DEInternal>
0.2542

> <Gold.Chemscore.Rot>
1.5947

> <Gold.Chemscore.Internal.Correction>
   9.000000E+99

> <Gold.Chemscore.Hbonds>
donor molecule, donor type, donor heavy atom, donor atom, acceptor molecule, acceptor atom, score
      P1  H  7997  8010       L1    21  0.53

> <Gold.Chemscore.Hbond.Weighted>
-2.7644

> <Gold.Chemscore.Metal.Weighted>
-0.0000

> <Gold.Chemscore.Lipo.Weighted>
-14.9357

> <Gold.Chemscore.Internal_Hbond.Weighted>
0.0000

> <Gold.Chemscore.DEClash.Weighted>
0.3541

> <Gold.Chemscore.DEInternal.Weighted>
0.2542

> <Gold.Chemscore.Rot.Weighted>
4.0824

> <Gold.Chemscore.Internal.Correction.Weighted>
   9.000000E+99

> <Gold.Protein.RotatedTorsions>
[ 6907 6896 6895 6894 ] final  -16.15 input  -60.11 | X-H torsion
[ 7974 7965 7964 7962 ] final  -22.99 input  175.53 | X-H torsion
[ 8008 7997 7996 7995 ] final   18.10 input   59.86 | X-H torsion
[ 10167 10162 10161 10158 ] final -122.70 input  -65.29 | X-H torsion
[ 10718 10713 10712 10709 ] final   68.87 input   66.30 | X-H torsion
[ 10763 10752 10751 10750 ] final -121.02 input  -60.55 | X-H torsion
[ 11005 11000 10999 10996 ] final   76.36 input  -57.11 | X-H torsion

> <Gold.Protein.ActiveResidues>
 VAL166  LYS551  ARG553  GLY616  TRP617  ASP618  TYR619  PRO620  LYS621  CYS622 
 ASP623  PHE694  ASN695  SER759  ASP760  ASP761  ALA762  ILE779  LEU786  VAL792 
 PHE793  MET794  SER795  GLU796  ALA797  LYS798  CYS799  TRP800  GLU811  SER814 

> <Gold.Protein.RotatedAtoms>
  151.3131  135.0799  159.9278 H   0  0  0  0  0  0  0  0  0  0  0  0  # atno 6907 bound_to 6896
  152.5273  133.9716  159.7775 H   0  0  0  0  0  0  0  0  0  0  0  0  # atno 6908 bound_to 6896
  151.0023  133.5992  159.2723 H   0  0  0  0  0  0  0  0  0  0  0  0  # atno 6909 bound_to 6896
  146.1643  140.4554  142.8558 H   0  0  0  0  0  0  0  0  0  0  0  0  # atno 7974 bound_to 7965
  154.9011  140.3000  155.5317 H   0  0  0  0  0  0  0  0  0  0  0  0  # atno 8008 bound_to 7997
  156.3018  140.2406  156.3973 H   0  0  0  0  0  0  0  0  0  0  0  0  # atno 8009 bound_to 7997
  154.8521  140.0409  157.1599 H   0  0  0  0  0  0  0  0  0  0  0  0  # atno 8010 bound_to 7997
  140.0114  143.5438  152.2261 H   0  0  0  0  0  0  0  0  0  0  0  0  # atno 10167 bound_to 10162
  157.6314  130.9396  150.0436 H   0  0  0  0  0  0  0  0  0  0  0  0  # atno 10718 bound_to 10713
  154.8658  135.4182  154.2552 H   0  0  0  0  0  0  0  0  0  0  0  0  # atno 10763 bound_to 10752
  153.3491  135.6998  153.6809 H   0  0  0  0  0  0  0  0  0  0  0  0  # atno 10764 bound_to 10752
  153.5756  135.3583  155.2828 H   0  0  0  0  0  0  0  0  0  0  0  0  # atno 10765 bound_to 10752
  139.9301  134.7595  156.1386 H   0  0  0  0  0  0  0  0  0  0  0  0  # atno 11005 bound_to 11000
  144.8070  140.6318  143.6440 LP  0  0  0  0  0  0  0  0  0  0  0  0  # atno 17320 bound_to 7965
  145.4508  139.1524  143.3919 LP  0  0  0  0  0  0  0  0  0  0  0  0  # atno 17321 bound_to 7965
  139.6202  144.7627  151.2756 LP  0  0  0  0  0  0  0  0  0  0  0  0  # atno 17342 bound_to 10162
  140.7380  143.6662  150.8121 LP  0  0  0  0  0  0  0  0  0  0  0  0  # atno 17343 bound_to 10162
  156.1520  130.3642  149.9424 LP  0  0  0  0  0  0  0  0  0  0  0  0  # atno 17370 bound_to 10713
  156.7442  130.9091  151.3634 LP  0  0  0  0  0  0  0  0  0  0  0  0  # atno 17371 bound_to 10713
  141.0885  133.6724  156.2488 LP  0  0  0  0  0  0  0  0  0  0  0  0  # atno 17394 bound_to 11000
  140.6225  134.5347  157.5549 LP  0  0  0  0  0  0  0  0  0  0  0  0  # atno 17395 bound_to 11000

$$$$
