#       Name:                AV-unprocessed.smi:1231
#       Creating user name   scv26
#       Creation time:       Fri Mar 27 04:23:41 2020


#       File generated by GOLD software.
#

@<TRIPOS>MOLECULE
AV-unprocessed.smi:1231
    48    49     1
SMALL
NO_CHARGES


@<TRIPOS>ATOM
      1 ****        -4.4734  -2.6550   2.2674 C.3            1 S1                 0.0000
      2 ****        -3.9223  -1.8457   1.0884 C.3            1 S1                 0.0000
      3 ****        -2.3974  -1.6575   1.1808 C.3            1 S1                 0.0000
      4 ****        -1.9133  -0.7975   0.0766 N.4            1 S1                 1.0000
      5 ****        -0.4348  -0.6744   0.0620 C.3            1 S1                 0.0000
      6 ****         0.1041  -0.2225  -1.3096 C.3            1 S1                 0.0000
      7 ****         1.5612  -0.1628  -1.3223 N.am           1 S1                 0.0000
      8 ****         2.2926   0.8001  -0.7424 C.2            1 S1                 0.0000
      9 ****         1.7978   1.7434  -0.1242 O.2            1 S1                 0.0000
     10 ****         3.6083   0.5942  -0.9283 N.am           1 S1                 0.0000
     11 ****         4.6944   1.3727  -0.4466 C.ar           1 S1                 0.0000
     12 ****         5.9752   0.9167  -0.8324 C.ar           1 S1                 0.0000
     13 ****         7.1186   1.6184  -0.4034 C.ar           1 S1                 0.0000
     14 ****         6.9513   2.7584   0.4028 C.ar           1 S1                 0.0000
     15 ****         5.6415   3.1442   0.7422 C.ar           1 S1                 0.0000
     16 ****         4.5443   2.4735   0.3317 N.ar           1 S1                 0.0000
     17 ****        -2.6178   0.5084   0.0982 C.3            1 S1                 0.0000
     18 ****        -4.1460   0.3147   0.0567 C.3            1 S1                 0.0000
     19 ****        -4.6710  -0.1188  -1.3237 C.3            1 S1                 0.0000
     20 ****        -4.5597  -0.5711   1.0971 O.3            1 S1                 0.0000
     21 ****        -4.0316  -3.6511   2.3015 H              1 S1                 0.0000
     22 ****        -5.5541  -2.7736   2.1866 H              1 S1                 0.0000
     23 ****        -4.2631  -2.1625   3.2173 H              1 S1                 0.0000
     24 ****        -4.1715  -2.3762   0.1691 H              1 S1                 0.0000
     25 ****        -2.1259  -1.2083   2.1379 H              1 S1                 0.0000
     26 ****        -1.9072  -2.6308   1.1338 H              1 S1                 0.0000
     27 ****        -0.1194   0.0056   0.8548 H              1 S1                 0.0000
     28 ****         0.0065  -1.6447   0.2950 H              1 S1                 0.0000
     29 ****        -0.2132  -0.9227  -2.0826 H              1 S1                 0.0000
     30 ****        -0.2908   0.7532  -1.5937 H              1 S1                 0.0000
     31 ****         2.0454  -0.9002  -1.8135 H              1 S1                 0.0000
     32 ****         3.8643  -0.2164  -1.4723 H              1 S1                 0.0000
     33 ****         6.0856   0.0382  -1.4512 H              1 S1                 0.0000
     34 ****         8.1063   1.2864  -0.6876 H              1 S1                 0.0000
     35 ****         7.8036   3.3225   0.7517 H              1 S1                 0.0000
     36 ****         5.4694   4.0134   1.3595 H              1 S1                 0.0000
     37 ****        -2.3424   1.0463   1.0068 H              1 S1                 0.0000
     38 ****        -2.3093   1.1331  -0.7393 H              1 S1                 0.0000
     39 ****        -4.6081   1.2767   0.2798 H              1 S1                 0.0000
     40 ****        -4.4570   0.6429  -2.0738 H              1 S1                 0.0000
     41 ****        -5.7512  -0.2633  -1.3009 H              1 S1                 0.0000
     42 ****        -4.2160  -1.0472  -1.6682 H              1 S1                 0.0000
     43 ****        -2.1733  -1.2627  -0.7813 H              1 S1                 0.0000
     44 ****         0.8044   1.8175  -0.0362 LP             1 S1                 0.0000
     45 ****         2.3894   2.4353   0.2897 LP             1 S1                 0.0000
     46 ****         3.6319   2.7844   0.5981 LP             1 S1                 0.0000
     47 ****        -4.3650  -0.1323   1.9744 LP             1 S1                 0.0000
     48 ****        -5.5452  -0.7159   1.0083 LP             1 S1                 0.0000
@<TRIPOS>BOND
    1    1    2 1     
    2    1   21 1     
    3    1   22 1     
    4    1   23 1     
    5    2   20 1     
    6    2    3 1     
    7    2   24 1     
    8    3    4 1     
    9    3   25 1     
   10    3   26 1     
   11    4    5 1     
   12    4   17 1     
   13    4   43 1     
   14    5    6 1     
   15    5   27 1     
   16    5   28 1     
   17    6    7 1     
   18    6   29 1     
   19    6   30 1     
   20    7    8 am    
   21    7   31 1     
   22    8    9 2     
   23    8   10 am    
   24   10   11 1     
   25   10   32 1     
   26   11   16 ar    
   27   11   12 ar    
   28   12   13 ar    
   29   12   33 1     
   30   13   14 ar    
   31   13   34 1     
   32   14   15 ar    
   33   14   35 1     
   34   15   16 ar    
   35   15   36 1     
   36   17   18 1     
   37   17   37 1     
   38   17   38 1     
   39   18   19 1     
   40   18   20 1     
   41   18   39 1     
   42   19   40 1     
   43   19   41 1     
   44   19   42 1     
   45    9   44 1     
   46    9   45 1     
   47   16   46 1     
   48   20   47 1     
   49   20   48 1     
@<TRIPOS>SUBSTRUCTURE
      1 S1             1
@<TRIPOS>SET
LONE_PAIRS      STATIC     ATOMS    <user>   **** ""
5 44 45 46 47 48
DONOR_HYDROGENS      STATIC     ATOMS    <user>   **** ""
3 43 31 32
ATOM$BLUE        STATIC     ATOMS    COLORGROUP SYSTEM
5 44 45 46 47 48
ATOM$RED        STATIC     ATOMS    COLORGROUP SYSTEM
3 43 31 32
