#       Name:                AV-unprocessed.smi:2802
#       Creating user name   scv26
#       Creation time:       Fri Mar 27 15:23:47 2020


#       File generated by GOLD software.
#

@<TRIPOS>MOLECULE
AV-unprocessed.smi:2802
    52    53     1
SMALL
NO_CHARGES


@<TRIPOS>ATOM
      1 ****        -1.8572  -1.9256   3.4222 C.3            1 S1                 0.0000
      2 ****        -1.3958  -1.1311   2.1915 C.3            1 S1                 0.0000
      3 ****        -1.9863   0.2909   2.1964 C.3            1 S1                 0.0000
      4 ****        -1.5618   1.1400   0.9757 C.3            1 S1                 0.0000
      5 ****        -2.4167   2.4235   0.9521 C.3            1 S1                 0.0000
      6 ****        -0.0870   1.5853   1.0990 C.3            1 S1                 0.0000
      7 ****        -1.8346   0.3495  -0.3359 C.3            1 S1                 0.0000
      8 ****        -1.3157  -1.1192  -0.3943 C.3            1 S1                 0.0000
      9 ****        -1.9324  -1.8213  -1.6366 C.3            1 S1                 0.0000
     10 ****        -1.5228  -3.1708  -1.7489 O.3            1 S1                 0.0000
     11 ****         0.1528  -1.1763  -0.4654 N.am           1 S1                 0.0000
     12 ****         0.9730  -0.6873  -1.4128 C.2            1 S1                 0.0000
     13 ****         0.5846  -0.0928  -2.4184 O.2            1 S1                 0.0000
     14 ****         2.4700  -0.9079  -1.1743 C.3            1 S1                 0.0000
     15 ****         3.2853   0.2979  -1.6099 C.ar           1 S1                 0.0000
     16 ****         3.3941   1.4367  -0.7844 C.ar           1 S1                 0.0000
     17 ****         4.1600   2.5296  -1.2334 C.ar           1 S1                 0.0000
     18 ****         4.7884   2.4362  -2.4914 C.ar           1 S1                 0.0000
     19 ****         4.6925   1.3513  -3.2899 N.ar           1 S1                 0.0000
     20 ****         3.9538   0.3086  -2.8530 C.ar           1 S1                 0.0000
     21 ****        -1.7728  -1.8599   0.8877 C.3            1 S1                 0.0000
     22 ****        -2.9412  -2.0433   3.4358 H              1 S1                 0.0000
     23 ****        -1.5652  -1.4248   4.3457 H              1 S1                 0.0000
     24 ****        -1.4144  -2.9219   3.4352 H              1 S1                 0.0000
     25 ****        -0.3099  -1.0625   2.2510 H              1 S1                 0.0000
     26 ****        -3.0746   0.2109   2.2180 H              1 S1                 0.0000
     27 ****        -1.7079   0.8035   3.1184 H              1 S1                 0.0000
     28 ****        -2.1544   3.0594   0.1057 H              1 S1                 0.0000
     29 ****        -2.2776   3.0121   1.8598 H              1 S1                 0.0000
     30 ****        -3.4808   2.1978   0.8730 H              1 S1                 0.0000
     31 ****         0.2355   2.1314   0.2119 H              1 S1                 0.0000
     32 ****         0.6003   0.7536   1.2367 H              1 S1                 0.0000
     33 ****         0.0533   2.2458   1.9554 H              1 S1                 0.0000
     34 ****        -2.9168   0.3093  -0.4705 H              1 S1                 0.0000
     35 ****        -1.4748   0.9214  -1.1914 H              1 S1                 0.0000
     36 ****        -3.0212  -1.8105  -1.5746 H              1 S1                 0.0000
     37 ****        -1.6803  -1.3015  -2.5606 H              1 S1                 0.0000
     38 ****        -1.9188  -3.5409  -2.5231 H              1 S1                 0.0000
     39 ****         0.5981  -1.6487   0.3077 H              1 S1                 0.0000
     40 ****         2.6605  -1.1041  -0.1179 H              1 S1                 0.0000
     41 ****         2.7899  -1.7938  -1.7238 H              1 S1                 0.0000
     42 ****         2.8984   1.4739   0.1744 H              1 S1                 0.0000
     43 ****         4.2636   3.4184  -0.6287 H              1 S1                 0.0000
     44 ****         5.3853   3.2546  -2.8658 H              1 S1                 0.0000
     45 ****         3.8946  -0.5418  -3.5162 H              1 S1                 0.0000
     46 ****        -1.3548  -2.8674   0.9060 H              1 S1                 0.0000
     47 ****        -2.8560  -1.9881   0.8611 H              1 S1                 0.0000
     48 ****        -1.8188  -3.6814  -0.9416 LP             1 S1                 0.0000
     49 ****        -0.5268  -3.2158  -1.8251 LP             1 S1                 0.0000
     50 ****        -0.3938   0.0507  -2.5678 LP             1 S1                 0.0000
     51 ****         1.2474   0.2466  -3.0858 LP             1 S1                 0.0000
     52 ****         5.1538   1.3210  -4.1766 LP             1 S1                 0.0000
@<TRIPOS>BOND
    1    1    2 1     
    2    1   22 1     
    3    1   23 1     
    4    1   24 1     
    5    2   21 1     
    6    2    3 1     
    7    2   25 1     
    8    3    4 1     
    9    3   26 1     
   10    3   27 1     
   11    4    5 1     
   12    4    6 1     
   13    4    7 1     
   14    5   28 1     
   15    5   29 1     
   16    5   30 1     
   17    6   31 1     
   18    6   32 1     
   19    6   33 1     
   20    7    8 1     
   21    7   34 1     
   22    7   35 1     
   23    8    9 1     
   24    8   11 1     
   25    8   21 1     
   26    9   10 1     
   27    9   36 1     
   28    9   37 1     
   29   10   38 1     
   30   11   12 am    
   31   11   39 1     
   32   12   13 2     
   33   12   14 1     
   34   14   15 1     
   35   14   40 1     
   36   14   41 1     
   37   15   20 ar    
   38   15   16 ar    
   39   16   17 ar    
   40   16   42 1     
   41   17   18 ar    
   42   17   43 1     
   43   18   19 ar    
   44   18   44 1     
   45   19   20 ar    
   46   20   45 1     
   47   21   46 1     
   48   21   47 1     
   49   10   48 1     
   50   10   49 1     
   51   13   50 1     
   52   13   51 1     
   53   19   52 1     
@<TRIPOS>SUBSTRUCTURE
      1 S1             1
@<TRIPOS>SET
LONE_PAIRS      STATIC     ATOMS    <user>   **** ""
5 48 49 50 51 52
DONOR_HYDROGENS      STATIC     ATOMS    <user>   **** ""
2 38 39
ATOM$BLUE        STATIC     ATOMS    COLORGROUP SYSTEM
5 48 49 50 51 52
ATOM$RED        STATIC     ATOMS    COLORGROUP SYSTEM
2 38 39
