AV-unprocessed.smi:1352|AV-procd|sdf|5529|dock1
  -GOLD-   22720 5113D 1   1.00000     0.00000
 Structure written by MMmdl.
 47 48  0  0  0  0  0  0  0  0  2 V2000
  145.2153  131.3475  151.9877 C   0  0  0  0  0  0  0  0  0  0  0  0
  146.1831  132.0147  152.9751 C   0  0  1  0  0  0  0  0  0  0  0  0
  147.3710  131.0929  153.3033 C   0  0  0  0  0  0  0  0  0  0  0  0
  148.3626  131.7858  154.2540 C   0  0  1  0  0  0  0  0  0  0  0  0
  149.5640  130.8822  154.5649 C   0  0  0  0  0  0  0  0  0  0  0  0
  148.8135  133.1345  153.6550 C   0  0  0  0  0  0  0  0  0  0  0  0
  147.6625  134.0252  153.3517 N   0  3  2  0  0  0  0  0  0  0  0  0
  147.0634  134.6527  154.5599 C   0  0  0  0  0  0  0  0  0  0  0  0
  148.1264  135.0532  155.6007 C   0  0  0  0  0  0  0  0  0  0  0  0
  147.5167  135.5959  156.8091 N   0  0  0  0  0  0  0  0  0  0  0  0
  148.1844  135.9313  157.9233 C   0  0  0  0  0  0  0  0  0  0  0  0
  149.4020  135.7890  158.0444 O   0  0  0  0  0  0  0  0  0  0  0  0
  147.3356  136.4908  159.0742 C   0  0  0  0  0  0  0  0  0  0  0  0
  147.2529  135.5867  160.2336 N   0  0  0  0  0  0  0  0  0  0  0  0
  147.2717  134.2023  159.9709 C   0  0  0  0  0  0  0  0  0  0  0  0
  147.2018  133.2919  160.9548 C   0  0  0  0  0  0  0  0  0  0  0  0
  147.1046  133.7638  162.3158 C   0  0  0  0  0  0  0  0  0  0  0  0
  147.0895  135.0858  162.5786 C   0  0  0  0  0  0  0  0  0  0  0  0
  147.1689  136.0845  161.5062 C   0  0  0  0  0  0  0  0  0  0  0  0
  147.1611  137.2941  161.7370 O   0  0  0  0  0  0  0  0  0  0  0  0
  146.6880  133.3715  152.4355 C   0  0  0  0  0  0  0  0  0  0  0  0
  145.7020  131.1366  151.0348 H   0  0  0  0  0  0  0  0  0  0  0  0
  144.3553  131.9871  151.7877 H   0  0  0  0  0  0  0  0  0  0  0  0
  144.8381  130.4044  152.3843 H   0  0  0  0  0  0  0  0  0  0  0  0
  145.6263  132.1890  153.8960 H   0  0  0  0  0  0  0  0  0  0  0  0
  147.0091  130.1676  153.7535 H   0  0  0  0  0  0  0  0  0  0  0  0
  147.8826  130.8090  152.3823 H   0  0  0  0  0  0  0  0  0  0  0  0
  147.8514  131.9793  155.1980 H   0  0  0  0  0  0  0  0  0  0  0  0
  150.1269  130.6446  153.6616 H   0  0  0  0  0  0  0  0  0  0  0  0
  149.2422  129.9416  155.0131 H   0  0  0  0  0  0  0  0  0  0  0  0
  150.2468  131.3634  155.2660 H   0  0  0  0  0  0  0  0  0  0  0  0
  149.5121  133.6399  154.3232 H   0  0  0  0  0  0  0  0  0  0  0  0
  149.3606  132.9574  152.7279 H   0  0  0  0  0  0  0  0  0  0  0  0
  146.4506  135.5119  154.2883 H   0  0  0  0  0  0  0  0  0  0  0  0
  146.3856  133.9354  155.0239 H   0  0  0  0  0  0  0  0  0  0  0  0
  148.7557  134.1982  155.8538 H   0  0  0  0  0  0  0  0  0  0  0  0
  148.7899  135.8203  155.2035 H   0  0  0  0  0  0  0  0  0  0  0  0
  146.5174  135.7423  156.7930 H   0  0  0  0  0  0  0  0  0  0  0  0
  147.7371  137.4579  159.3833 H   0  0  0  0  0  0  0  0  0  0  0  0
  146.3393  136.7068  158.6862 H   0  0  0  0  0  0  0  0  0  0  0  0
  147.3523  133.9315  158.9281 H   0  0  0  0  0  0  0  0  0  0  0  0
  147.2211  132.2345  160.7347 H   0  0  0  0  0  0  0  0  0  0  0  0
  147.0450  133.0539  163.1274 H   0  0  0  0  0  0  0  0  0  0  0  0
  147.0172  135.4204  163.6031 H   0  0  0  0  0  0  0  0  0  0  0  0
  147.1851  133.2154  151.4771 H   0  0  0  0  0  0  0  0  0  0  0  0
  145.8493  134.0351  152.2287 H   0  0  0  0  0  0  0  0  0  0  0  0
  148.0575  134.7972  152.8334 H   0  0  0  0  0  0  0  0  0  0  0  0
  1  2  1  0  0  0  0
  1 22  1  0  0  0  0
  1 23  1  0  0  0  0
  1 24  1  0  0  0  0
  2 21  1  0  0  0  0
  2  3  1  0  0  0  0
  2 25  1  0  0  0  0
  3  4  1  0  0  0  0
  3 26  1  0  0  0  0
  3 27  1  0  0  0  0
  4  5  1  0  0  0  0
  4  6  1  0  0  0  0
  4 28  1  0  0  0  0
  5 29  1  0  0  0  0
  5 30  1  0  0  0  0
  5 31  1  0  0  0  0
  6  7  1  0  0  0  0
  6 32  1  0  0  0  0
  6 33  1  0  0  0  0
  7  8  1  0  0  0  0
  7 21  1  0  0  0  0
  7 47  1  0  0  0  0
  8  9  1  0  0  0  0
  8 34  1  0  0  0  0
  8 35  1  0  0  0  0
  9 10  1  0  0  0  0
  9 36  1  0  0  0  0
  9 37  1  0  0  0  0
 10 11  1  0  0  0  0
 10 38  1  0  0  0  0
 11 12  2  0  0  0  0
 11 13  1  0  0  0  0
 13 14  1  0  0  0  0
 13 39  1  0  0  0  0
 13 40  1  0  0  0  0
 14 19  1  0  0  0  0
 14 15  1  0  0  0  0
 15 16  2  0  0  0  0
 15 41  1  0  0  0  0
 16 17  1  0  0  0  0
 16 42  1  0  0  0  0
 17 18  2  0  0  0  0
 17 43  1  0  0  0  0
 18 19  1  0  0  0  0
 18 44  1  0  0  0  0
 19 20  2  0  0  0  0
 21 45  1  0  0  0  0
 21 46  1  0  0  0  0
M  CHG  1   7   1
M  END
> <s_m_source_file>
AV-unprocessed.smi

> <i_m_source_file_index>
1352

> <i_lp_mmshare_version>
43012

> <i_f3d_flags>
0

> <s_epik_input>
W0NIM11bQ0BASF0xW0NIMl1bQ0BASF0oW0NIM10pW0NIMl1OKFtDSDJdMSlbQ0gyXVtDSDJdW05IXUMoPU8pW0NIMl1uMltjSF1bY0hdW2NIXVtjSF1jMj1P

> <s_epik_cmdline>
J2VwaWtfcHl0aG9uJywgJy1waCcsICc3LjAnLCAnLXRuJywgJzgnLCAnLW1hJywgJzIwMCcsICctbWV0YWxfYmluZGluZycsICctaW1hZScsICc8aW5maWxlLm1hZT4nLCAnLW9tYWUnLCAnPG91dGZpbGUubWFlPic=

> <r_lp_tautomer_probability>
1

> <r_epik_Ionization_Penalty>
0.00156146

> <r_epik_Ionization_Penalty_Charging>
0.00156138

> <r_epik_Ionization_Penalty_Neutral>
8.12891e-08

> <r_epik_State_Penalty>
0.00104868

> <r_epik_Charging_Adjusted_Penalty>
0.00261006

> <i_epik_Tot_Q>
1

> <i_epik_Tot_abs_Q>
1

> <r_epik_Metal_State_Penalty>
-0

> <b_epik_Metal_Only>
0

> <s_lp_Force_Field>
OPLS_2005

> <r_lp_Energy>
27.4422

> <b_lp_Chiralities_Consistent>
1

> <s_lp_Variant>
AV-unprocessed.smi:1352-2

> <Gold.Version>
5.8.1

> <Gold.Id.Protein>
6NUR|6NUR_protein|mol2

> <Gold.PLP.Fitness>
51.2317

> <Gold.PLP.PLP>
-39.2644

> <Gold.PLP.part.hbond>
-4.0000

> <Gold.PLP.part.metal>
0.0000

> <Gold.PLP.part.buried>
-4.4904

> <Gold.PLP.part.nonpolar>
-31.1220

> <Gold.PLP.part.repulsive>
0.0097

> <Gold.PLP.ligand.clash>
0.0000

> <Gold.PLP.ligand.torsion>
0.5944

> <Gold.PLP.Chemscore.Hbond>
4.3520

> <Gold.PLP.Chemscore.CHOScore>
0.0000

> <Gold.PLP.Chemscore.Metal>
0.0000

> <Gold.Chemscore.Hbonds>
donor molecule, donor type, donor heavy atom, donor atom, acceptor molecule, acceptor atom, score
      L1  H     7    47       P1  7948  2.00
      P1  H  6896  6908       L1    12  0.14
      P1  H  6931  6943       L1    20  0.66
      P1  H  6934  6947       L1    20  0.86

> <Gold.PLP.Chemscore.Internal.Correction>
0.1001

> <Gold.Rescore>
     Score         DG    S(hbond)    S(metal)    S(lipo)     H(rot)  DE(clash)    DE(int)     intcor
     18.17     -19.23       2.86        0.00      76.04       1.83       0.15       0.91       ----

> <Gold.Chemscore.Fitness>
18.1650

> <Gold.Chemscore.DG>
-19.2345

> <Gold.Chemscore.ZeroCoef>
-5.4800

> <Gold.Chemscore.Hbond>
2.8594

> <Gold.Chemscore.Metal>
0.0000

> <Gold.Chemscore.Lipo>
76.0380

> <Gold.Chemscore.Internal_Hbond>
0.0000

> <Gold.Chemscore.DEClash>
0.1550

> <Gold.Chemscore.DEInternal>
0.9144

> <Gold.Chemscore.Rot>
1.8329

> <Gold.Chemscore.Internal.Correction>
   9.000000E+99

> <Gold.Chemscore.Hbonds>
donor molecule, donor type, donor heavy atom, donor atom, acceptor molecule, acceptor atom, score
      L1  H     7    47       P1  7948  0.82
      P1  H  6896  6908       L1    12  0.14
      P1  H  6931  6943       L1    20  0.61
      P1  H  6934  6947       L1    20  0.85

> <Gold.Chemscore.Hbond.Weighted>
-9.5502

> <Gold.Chemscore.Metal.Weighted>
-0.0000

> <Gold.Chemscore.Lipo.Weighted>
-8.8964

> <Gold.Chemscore.Internal_Hbond.Weighted>
0.0000

> <Gold.Chemscore.DEClash.Weighted>
0.1550

> <Gold.Chemscore.DEInternal.Weighted>
0.9144

> <Gold.Chemscore.Rot.Weighted>
4.6922

> <Gold.Chemscore.Internal.Correction.Weighted>
   9.000000E+99

> <Gold.Protein.RotatedTorsions>
[ 6907 6896 6895 6894 ] final  150.91 input  -60.11 | X-H torsion
[ 7974 7965 7964 7962 ] final  108.53 input  175.53 | X-H torsion
[ 8008 7997 7996 7995 ] final -114.58 input   59.86 | X-H torsion
[ 10167 10162 10161 10158 ] final -100.89 input  -65.29 | X-H torsion
[ 10718 10713 10712 10709 ] final  -16.64 input   66.30 | X-H torsion
[ 10763 10752 10751 10750 ] final  129.81 input  -60.55 | X-H torsion
[ 11005 11000 10999 10996 ] final  160.54 input  -57.11 | X-H torsion

> <Gold.Protein.ActiveResidues>
 VAL166  LYS551  ARG553  GLY616  TRP617  ASP618  TYR619  PRO620  LYS621  CYS622 
 ASP623  PHE694  ASN695  SER759  ASP760  ASP761  ALA762  ILE779  LEU786  VAL792 
 PHE793  MET794  SER795  GLU796  ALA797  LYS798  CYS799  TRP800  GLU811  SER814 

> <Gold.Protein.RotatedAtoms>
  152.1079  133.4284  159.4616 H   0  0  0  0  0  0  0  0  0  0  0  0  # atno 6907 bound_to 6896
  150.6866  134.2683  159.4587 H   0  0  0  0  0  0  0  0  0  0  0  0  # atno 6908 bound_to 6896
  152.0549  134.9630  160.0625 H   0  0  0  0  0  0  0  0  0  0  0  0  # atno 6909 bound_to 6896
  145.2794  139.2638  143.3923 H   0  0  0  0  0  0  0  0  0  0  0  0  # atno 7974 bound_to 7965
  155.0385  140.0392  157.2501 H   0  0  0  0  0  0  0  0  0  0  0  0  # atno 8008 bound_to 7997
  154.7236  140.2717  155.6495 H   0  0  0  0  0  0  0  0  0  0  0  0  # atno 8009 bound_to 7997
  156.2823  140.2698  156.1915 H   0  0  0  0  0  0  0  0  0  0  0  0  # atno 8010 bound_to 7997
  140.2471  143.3498  152.0749 H   0  0  0  0  0  0  0  0  0  0  0  0  # atno 10167 bound_to 10162
  156.5848  130.4783  149.6305 H   0  0  0  0  0  0  0  0  0  0  0  0  # atno 10718 bound_to 10713
  153.7478  135.3214  155.3315 H   0  0  0  0  0  0  0  0  0  0  0  0  # atno 10763 bound_to 10752
  154.8273  135.4560  154.0962 H   0  0  0  0  0  0  0  0  0  0  0  0  # atno 10764 bound_to 10752
  153.2156  135.6941  153.8143 H   0  0  0  0  0  0  0  0  0  0  0  0  # atno 10765 bound_to 10752
  140.2070  134.8296  157.3079 H   0  0  0  0  0  0  0  0  0  0  0  0  # atno 11005 bound_to 11000
  146.3221  140.3258  142.8636 LP  0  0  0  0  0  0  0  0  0  0  0  0  # atno 17320 bound_to 7965
  144.9266  140.7928  143.5715 LP  0  0  0  0  0  0  0  0  0  0  0  0  # atno 17321 bound_to 7965
  139.5058  144.6802  151.6028 LP  0  0  0  0  0  0  0  0  0  0  0  0  # atno 17342 bound_to 10162
  140.6069  143.9508  150.6425 LP  0  0  0  0  0  0  0  0  0  0  0  0  # atno 17343 bound_to 10162
  156.2601  130.6957  151.1723 LP  0  0  0  0  0  0  0  0  0  0  0  0  # atno 17370 bound_to 10713
  157.7318  131.0605  150.5660 LP  0  0  0  0  0  0  0  0  0  0  0  0  # atno 17371 bound_to 10713
  140.1992  134.4275  155.7672 LP  0  0  0  0  0  0  0  0  0  0  0  0  # atno 17394 bound_to 11000
  141.2227  133.7064  156.8156 LP  0  0  0  0  0  0  0  0  0  0  0  0  # atno 17395 bound_to 11000

$$$$
