#       Name:                AV-unprocessed.smi:3184
#       Creating user name   scv26
#       Creation time:       Fri Mar 27 17:59:51 2020


#       File generated by GOLD software.
#

@<TRIPOS>MOLECULE
AV-unprocessed.smi:3184
    37    38     1
SMALL
NO_CHARGES


@<TRIPOS>ATOM
      1 ****        -0.3438  -2.5341   2.3503 C.3            1 S1                 0.0000
      2 ****         0.0636  -1.9732   0.9814 C.3            1 S1                 0.0000
      3 ****         1.5940  -2.0306   0.7870 C.3            1 S1                 0.0000
      4 ****         2.0076  -1.7185  -0.5852 N.pl3          1 S1                 0.0000
      5 ****         1.9171  -2.5340  -1.6839 C.2            1 S1                 0.0000
      6 ****         2.4093  -1.8174  -2.7440 C.2            1 S1                 0.0000
      7 ****         2.7831  -0.5975  -2.2474 N.pl3          1 S1                 1.0000
      8 ****         2.5430  -0.5410  -0.9334 C.2            1 S1                 0.0000
      9 ****        -0.4300  -0.6014   0.8691 N.am           1 S1                 0.0000
     10 ****        -0.9081  -0.0224  -0.2468 C.2            1 S1                 0.0000
     11 ****        -0.9783  -0.6084  -1.3278 O.2            1 S1                 0.0000
     12 ****        -1.2926   1.2615  -0.0803 N.am           1 S1                 0.0000
     13 ****        -1.2117   2.0450   1.1563 C.3            1 S1                 0.0000
     14 ****        -1.5271   3.4865   0.7562 C.3            1 S1                 0.0000
     15 ****        -2.3695   3.3482  -0.5037 C.3            1 S1                 0.0000
     16 ****        -1.8493   2.0709  -1.1628 C.3            1 S1                 0.0000
     17 ****        -0.0237  -3.5706   2.4604 H              1 S1                 0.0000
     18 ****        -1.4267  -2.5110   2.4784 H              1 S1                 0.0000
     19 ****         0.1007  -1.9606   3.1645 H              1 S1                 0.0000
     20 ****        -0.4127  -2.5983   0.2238 H              1 S1                 0.0000
     21 ****         2.1019  -1.3486   1.4711 H              1 S1                 0.0000
     22 ****         1.9646  -3.0322   1.0089 H              1 S1                 0.0000
     23 ****         1.5130  -3.5346  -1.6317 H              1 S1                 0.0000
     24 ****         2.5171  -2.0768  -3.7871 H              1 S1                 0.0000
     25 ****         2.7320   0.2960  -0.2851 H              1 S1                 0.0000
     26 ****        -0.4154  -0.0458   1.7121 H              1 S1                 0.0000
     27 ****        -1.9558   1.6734   1.8624 H              1 S1                 0.0000
     28 ****        -0.2298   1.9778   1.6274 H              1 S1                 0.0000
     29 ****        -2.0333   4.0437   1.5448 H              1 S1                 0.0000
     30 ****        -0.6006   4.0110   0.5187 H              1 S1                 0.0000
     31 ****        -3.4170   3.2171  -0.2295 H              1 S1                 0.0000
     32 ****        -2.3014   4.2190  -1.1564 H              1 S1                 0.0000
     33 ****        -1.0565   2.3032  -1.8756 H              1 S1                 0.0000
     34 ****        -2.6446   1.5498  -1.6981 H              1 S1                 0.0000
     35 ****         3.1818   0.1555  -2.7941 H              1 S1                 0.0000
     36 ****        -0.6720  -1.5574  -1.4029 LP             1 S1                 0.0000
     37 ****        -1.3416  -0.1353  -2.1304 LP             1 S1                 0.0000
@<TRIPOS>BOND
    1    1    2 1     
    2    1   17 1     
    3    1   18 1     
    4    1   19 1     
    5    2    3 1     
    6    2    9 1     
    7    2   20 1     
    8    3    4 1     
    9    3   21 1     
   10    3   22 1     
   11    4    8 1     
   12    4    5 1     
   13    5    6 2     
   14    5   23 1     
   15    6    7 1     
   16    6   24 1     
   17    7    8 2     
   18    7   35 1     
   19    8   25 1     
   20    9   10 am    
   21    9   26 1     
   22   10   11 2     
   23   10   12 am    
   24   12   16 1     
   25   12   13 1     
   26   13   14 1     
   27   13   27 1     
   28   13   28 1     
   29   14   15 1     
   30   14   29 1     
   31   14   30 1     
   32   15   16 1     
   33   15   31 1     
   34   15   32 1     
   35   16   33 1     
   36   16   34 1     
   37   11   36 1     
   38   11   37 1     
@<TRIPOS>SUBSTRUCTURE
      1 S1             1
@<TRIPOS>SET
LONE_PAIRS      STATIC     ATOMS    <user>   **** ""
2 36 37
DONOR_HYDROGENS      STATIC     ATOMS    <user>   **** ""
2 35 26
ATOM$BLUE        STATIC     ATOMS    COLORGROUP SYSTEM
2 36 37
ATOM$RED        STATIC     ATOMS    COLORGROUP SYSTEM
2 35 26
