AV-unprocessed.smi:2104|AV-procd|sdf|8583|dock5
  -GOLD-   2272011313D 1   1.00000     0.00000
 Structure written by MMmdl.
 43 44  0  0  0  0  0  0  0  0  1 V2000
  151.2972  139.8416  158.5278 C   0  0  0  0  0  0  0  0  0  0  0  0
  150.9866  139.5508  157.0994 C   0  0  0  0  0  0  0  0  0  0  0  0
  149.8163  139.3418  156.4255 C   0  0  0  0  0  0  0  0  0  0  0  0
  150.2505  139.1214  155.0913 C   0  0  0  0  0  0  0  0  0  0  0  0
  149.3169  138.8593  154.0562 N   0  0  0  0  0  0  0  0  0  0  0  0
  148.0367  138.4725  154.1864 C   0  0  0  0  0  0  0  0  0  0  0  0
  147.4687  138.2500  155.2560 O   0  0  0  0  0  0  0  0  0  0  0  0
  147.4404  138.3580  152.9906 N   0  0  0  0  0  0  0  0  0  0  0  0
  146.0419  137.9994  152.7782 C   0  0  0  0  0  0  0  0  0  0  0  0
  145.8933  136.9507  151.6666 C   0  0  0  0  0  0  0  0  0  0  0  0
  145.9422  135.6546  152.2430 O   0  0  0  0  0  0  0  0  0  0  0  0
  145.6711  134.5918  151.3405 C   0  0  2  0  0  0  0  0  0  0  0  0
  144.2054  134.6955  150.8678 C   0  0  0  0  0  0  0  0  0  0  0  0
  143.8020  133.4891  150.0074 C   0  0  0  0  0  0  0  0  0  0  0  0
  144.0388  132.1733  150.7615 C   0  0  0  0  0  0  0  0  0  0  0  0
  145.4996  132.0593  151.2225 C   0  0  0  0  0  0  0  0  0  0  0  0
  145.9215  133.2630  152.0891 C   0  0  1  0  0  0  0  0  0  0  0  0
  147.3882  133.1266  152.5296 C   0  0  0  0  0  0  0  0  0  0  0  0
  151.5668  139.1886  154.9627 N   0  0  0  0  0  0  0  0  0  0  0  0
  152.0452  139.4645  156.2491 O   0  0  0  0  0  0  0  0  0  0  0  0
  150.3841  139.9126  159.1189 H   0  0  0  0  0  0  0  0  0  0  0  0
  151.8350  140.7851  158.6217 H   0  0  0  0  0  0  0  0  0  0  0  0
  151.9173  139.0540  158.9563 H   0  0  0  0  0  0  0  0  0  0  0  0
  148.8132  139.3466  156.8257 H   0  0  0  0  0  0  0  0  0  0  0  0
  149.6562  138.9954  153.1157 H   0  0  0  0  0  0  0  0  0  0  0  0
  147.9870  138.5559  152.1656 H   0  0  0  0  0  0  0  0  0  0  0  0
  145.6647  137.5883  153.7148 H   0  0  0  0  0  0  0  0  0  0  0  0
  145.4370  138.8816  152.5627 H   0  0  0  0  0  0  0  0  0  0  0  0
  144.9638  137.1136  151.1202 H   0  0  0  0  0  0  0  0  0  0  0  0
  146.7111  137.0515  150.9519 H   0  0  0  0  0  0  0  0  0  0  0  0
  146.3431  134.6409  150.4811 H   0  0  0  0  0  0  0  0  0  0  0  0
  143.5471  134.7576  151.7355 H   0  0  0  0  0  0  0  0  0  0  0  0
  144.0485  135.6117  150.2994 H   0  0  0  0  0  0  0  0  0  0  0  0
  142.7531  133.5705  149.7209 H   0  0  0  0  0  0  0  0  0  0  0  0
  144.3781  133.4901  149.0812 H   0  0  0  0  0  0  0  0  0  0  0  0
  143.3760  132.1216  151.6263 H   0  0  0  0  0  0  0  0  0  0  0  0
  143.7825  131.3270  150.1237 H   0  0  0  0  0  0  0  0  0  0  0  0
  145.6324  131.1327  151.7821 H   0  0  0  0  0  0  0  0  0  0  0  0
  146.1495  131.9878  150.3492 H   0  0  0  0  0  0  0  0  0  0  0  0
  145.3036  133.2597  152.9886 H   0  0  0  0  0  0  0  0  0  0  0  0
  148.0620  133.1379  151.6725 H   0  0  0  0  0  0  0  0  0  0  0  0
  147.5509  132.1932  153.0688 H   0  0  0  0  0  0  0  0  0  0  0  0
  147.6808  133.9407  153.1932 H   0  0  0  0  0  0  0  0  0  0  0  0
  1  2  1  0  0  0  0
  1 21  1  0  0  0  0
  1 22  1  0  0  0  0
  1 23  1  0  0  0  0
  2 20  1  0  0  0  0
  2  3  2  0  0  0  0
  3  4  1  0  0  0  0
  3 24  1  0  0  0  0
  4  5  1  0  0  0  0
  4 19  2  0  0  0  0
  5  6  1  0  0  0  0
  5 25  1  0  0  0  0
  6  7  2  0  0  0  0
  6  8  1  0  0  0  0
  8  9  1  0  0  0  0
  8 26  1  0  0  0  0
  9 10  1  0  0  0  0
  9 27  1  0  0  0  0
  9 28  1  0  0  0  0
 10 11  1  0  0  0  0
 10 29  1  0  0  0  0
 10 30  1  0  0  0  0
 11 12  1  0  0  0  0
 12 17  1  0  0  0  0
 12 13  1  0  0  0  0
 12 31  1  0  0  0  0
 13 14  1  0  0  0  0
 13 32  1  0  0  0  0
 13 33  1  0  0  0  0
 14 15  1  0  0  0  0
 14 34  1  0  0  0  0
 14 35  1  0  0  0  0
 15 16  1  0  0  0  0
 15 36  1  0  0  0  0
 15 37  1  0  0  0  0
 16 17  1  0  0  0  0
 16 38  1  0  0  0  0
 16 39  1  0  0  0  0
 17 18  1  0  0  0  0
 17 40  1  0  0  0  0
 18 41  1  0  0  0  0
 18 42  1  0  0  0  0
 18 43  1  0  0  0  0
 19 20  1  0  0  0  0
M  END
> <s_m_source_file>
AV-unprocessed.smi

> <i_m_source_file_index>
2104

> <i_lp_mmshare_version>
43012

> <i_f3d_flags>
0

> <s_epik_input>
W0NIM11jMVtjSF1jKG5vMSlbTkhdQyg9TylbTkhdW0NIMl1bQ0gyXU9bQ0BASF0yW0NIMl1bQ0gyXVtDSDJdW0NIMl1bQ0BIXTJbQ0gzXQ==

> <s_epik_cmdline>
J2VwaWtfcHl0aG9uJywgJy1waCcsICc3LjAnLCAnLXRuJywgJzgnLCAnLW1hJywgJzIwMCcsICctbWV0YWxfYmluZGluZycsICctaW1hZScsICc8aW5maWxlLm1hZT4nLCAnLW9tYWUnLCAnPG91dGZpbGUubWFlPic=

> <r_lp_tautomer_probability>
1

> <r_epik_Ionization_Penalty>
2.94418e-05

> <r_epik_Ionization_Penalty_Charging>
0

> <r_epik_Ionization_Penalty_Neutral>
2.94418e-05

> <r_epik_State_Penalty>
-0

> <r_epik_Charging_Adjusted_Penalty>
0

> <i_epik_Tot_Q>
0

> <i_epik_Tot_abs_Q>
0

> <r_epik_Metal_State_Penalty>
0.0104148

> <b_epik_Metal_Only>
0

> <s_lp_Force_Field>
OPLS_2005

> <r_lp_Energy>
8.87971

> <b_lp_Chiralities_Consistent>
1

> <s_lp_Variant>
AV-unprocessed.smi:2104-1

> <Gold.Version>
5.8.1

> <Gold.Id.Protein>
6NUR|6NUR_protein|mol2

> <Gold.PLP.Fitness>
41.2501

> <Gold.PLP.PLP>
-33.9639

> <Gold.PLP.part.hbond>
-4.0000

> <Gold.PLP.part.metal>
0.0000

> <Gold.PLP.part.buried>
-3.1197

> <Gold.PLP.part.nonpolar>
-29.2249

> <Gold.PLP.part.repulsive>
2.6361

> <Gold.PLP.ligand.clash>
0.0000

> <Gold.PLP.ligand.torsion>
0.3812

> <Gold.PLP.Chemscore.Hbond>
2.6734

> <Gold.PLP.Chemscore.CHOScore>
0.0000

> <Gold.PLP.Chemscore.Metal>
0.0000

> <Gold.Chemscore.Hbonds>
donor molecule, donor type, donor heavy atom, donor atom, acceptor molecule, acceptor atom, score
      L1  H     5    25       P1  7957  0.55
      L1  H     8    26       P1  7957  0.11
      P1  H  7989  7998       L1    19  0.47

> <Gold.PLP.Chemscore.Internal.Correction>
0.0284

> <Gold.Rescore>
     Score         DG    S(hbond)    S(metal)    S(lipo)     H(rot)  DE(clash)    DE(int)     intcor
     14.72     -18.76       2.81        0.00      71.50       1.75       2.44       1.60       ----

> <Gold.Chemscore.Fitness>
14.7242

> <Gold.Chemscore.DG>
-18.7577

> <Gold.Chemscore.ZeroCoef>
-5.4800

> <Gold.Chemscore.Hbond>
2.8138

> <Gold.Chemscore.Metal>
0.0000

> <Gold.Chemscore.Lipo>
71.5022

> <Gold.Chemscore.Internal_Hbond>
0.0000

> <Gold.Chemscore.DEClash>
2.4370

> <Gold.Chemscore.DEInternal>
1.5965

> <Gold.Chemscore.Rot>
1.7524

> <Gold.Chemscore.Internal.Correction>
   9.000000E+99

> <Gold.Chemscore.Hbonds>
donor molecule, donor type, donor heavy atom, donor atom, acceptor molecule, acceptor atom, score
      L1  H     5    25       P1  7957  0.53
      L1  H     8    26       P1  7957  0.12
      P1  H  7989  7998       L1    19  0.09

> <Gold.Chemscore.Hbond.Weighted>
-9.3981

> <Gold.Chemscore.Metal.Weighted>
-0.0000

> <Gold.Chemscore.Lipo.Weighted>
-8.3658

> <Gold.Chemscore.Internal_Hbond.Weighted>
0.0000

> <Gold.Chemscore.DEClash.Weighted>
2.4370

> <Gold.Chemscore.DEInternal.Weighted>
1.5965

> <Gold.Chemscore.Rot.Weighted>
4.4861

> <Gold.Chemscore.Internal.Correction.Weighted>
   9.000000E+99

> <Gold.Protein.RotatedTorsions>
[ 6907 6896 6895 6894 ] final -150.73 input  -60.11 | X-H torsion
[ 7974 7965 7964 7962 ] final  113.96 input  175.53 | X-H torsion
[ 8008 7997 7996 7995 ] final  -86.98 input   59.86 | X-H torsion
[ 10167 10162 10161 10158 ] final -117.32 input  -65.29 | X-H torsion
[ 10718 10713 10712 10709 ] final  124.94 input   66.30 | X-H torsion
[ 10763 10752 10751 10750 ] final  123.82 input  -60.55 | X-H torsion
[ 11005 11000 10999 10996 ] final  174.34 input  -57.11 | X-H torsion

> <Gold.Protein.ActiveResidues>
 VAL166  LYS551  ARG553  GLY616  TRP617  ASP618  TYR619  PRO620  LYS621  CYS622 
 ASP623  PHE694  ASN695  SER759  ASP760  ASP761  ALA762  ILE779  LEU786  VAL792 
 PHE793  MET794  SER795  GLU796  ALA797  LYS798  CYS799  TRP800  GLU811  SER814 

> <Gold.Protein.RotatedAtoms>
  151.2028  133.4601  159.2596 H   0  0  0  0  0  0  0  0  0  0  0  0  # atno 6907 bound_to 6896
  151.1052  134.9995  159.8478 H   0  0  0  0  0  0  0  0  0  0  0  0  # atno 6908 bound_to 6896
  152.5446  134.1952  159.8743 H   0  0  0  0  0  0  0  0  0  0  0  0  # atno 6909 bound_to 6896
  145.2104  139.2909  143.4271 H   0  0  0  0  0  0  0  0  0  0  0  0  # atno 7974 bound_to 7965
  154.6580  140.0571  157.0031 H   0  0  0  0  0  0  0  0  0  0  0  0  # atno 8008 bound_to 7997
  155.1270  140.3253  155.4464 H   0  0  0  0  0  0  0  0  0  0  0  0  # atno 8009 bound_to 7997
  156.2606  140.1987  156.6391 H   0  0  0  0  0  0  0  0  0  0  0  0  # atno 8010 bound_to 7997
  140.0696  143.4890  152.1987 H   0  0  0  0  0  0  0  0  0  0  0  0  # atno 10167 bound_to 10162
  157.5544  131.1092  150.8647 H   0  0  0  0  0  0  0  0  0  0  0  0  # atno 10718 bound_to 10713
  153.6515  135.3362  155.3101 H   0  0  0  0  0  0  0  0  0  0  0  0  # atno 10763 bound_to 10752
  154.8536  135.4342  154.1899 H   0  0  0  0  0  0  0  0  0  0  0  0  # atno 10764 bound_to 10752
  153.2843  135.7011  153.7430 H   0  0  0  0  0  0  0  0  0  0  0  0  # atno 10765 bound_to 10752
  140.3503  134.7201  157.4263 H   0  0  0  0  0  0  0  0  0  0  0  0  # atno 11005 bound_to 11000
  146.3399  140.2378  142.8595 LP  0  0  0  0  0  0  0  0  0  0  0  0  # atno 17320 bound_to 7965
  144.9861  140.8505  143.5367 LP  0  0  0  0  0  0  0  0  0  0  0  0  # atno 17321 bound_to 7965
  139.5844  144.7524  151.3558 LP  0  0  0  0  0  0  0  0  0  0  0  0  # atno 17342 bound_to 10162
  140.7132  143.7336  150.7605 LP  0  0  0  0  0  0  0  0  0  0  0  0  # atno 17343 bound_to 10162
  156.9163  130.5299  149.5279 LP  0  0  0  0  0  0  0  0  0  0  0  0  # atno 17370 bound_to 10713
  156.0605  130.5658  150.9182 LP  0  0  0  0  0  0  0  0  0  0  0  0  # atno 17371 bound_to 10713
  140.0709  134.5864  155.8644 LP  0  0  0  0  0  0  0  0  0  0  0  0  # atno 17394 bound_to 11000
  141.2014  133.6618  156.5948 LP  0  0  0  0  0  0  0  0  0  0  0  0  # atno 17395 bound_to 11000

$$$$
