AV-unprocessed.smi:2562|AV-procd|sdf|10049|dock3
  -GOLD-   2272014 93D 1   1.00000     0.00000
 Structure written by MMmdl.
 30 31  0  0  0  0  0  0  0  0  1 V2000
  153.1000  143.5356  162.8164 C   0  0  0  0  0  0  0  0  0  0  0  0
  152.4149  143.7266  161.4587 C   0  0  0  0  0  0  0  0  0  0  0  0
  152.5513  142.4952  160.5510 C   0  0  0  0  0  0  0  0  0  0  0  0
  151.8582  142.6785  159.2413 C   0  0  0  0  0  0  0  0  0  0  0  0
  151.1367  143.7694  158.9879 N   0  0  0  0  0  0  0  0  0  0  0  0
  150.6683  143.5132  157.7481 N   0  0  0  0  0  0  0  0  0  0  0  0
  151.1052  142.3172  157.3472 C   0  0  0  0  0  0  0  0  0  0  0  0
  150.7573  141.7531  156.0055 C   0  0  1  0  0  0  0  0  0  0  0  0
  151.3615  140.3528  155.7836 C   0  0  0  0  0  0  0  0  0  0  0  0
  150.9223  139.8102  154.4991 N   0  0  0  0  0  0  0  0  0  0  0  0
  149.4632  139.7988  154.4035 C   0  0  0  0  0  0  0  0  0  0  0  0
  148.8987  141.2067  154.6655 C   0  0  0  0  0  0  0  0  0  0  0  0
  149.3359  141.6683  155.9395 O   0  0  0  0  0  0  0  0  0  0  0  0
  151.8723  141.7273  158.2596 N   0  0  0  0  0  0  0  0  0  0  0  0
  150.0739  144.1519  157.2395 H   0  0  0  0  0  0  0  0  0  0  0  0
  152.9838  144.4237  163.4382 H   0  0  0  0  0  0  0  0  0  0  0  0
  154.1677  143.3507  162.6960 H   0  0  0  0  0  0  0  0  0  0  0  0
  152.6717  142.6920  163.3583 H   0  0  0  0  0  0  0  0  0  0  0  0
  151.3586  143.9477  161.6184 H   0  0  0  0  0  0  0  0  0  0  0  0
  152.8407  144.5982  160.9603 H   0  0  0  0  0  0  0  0  0  0  0  0
  153.6053  142.2794  160.3704 H   0  0  0  0  0  0  0  0  0  0  0  0
  152.1369  141.6177  161.0489 H   0  0  0  0  0  0  0  0  0  0  0  0
  151.1146  142.4424  155.2375 H   0  0  0  0  0  0  0  0  0  0  0  0
  152.4500  140.4027  155.8166 H   0  0  0  0  0  0  0  0  0  0  0  0
  151.0531  139.6858  156.5900 H   0  0  0  0  0  0  0  0  0  0  0  0
  151.2774  138.8655  154.3895 H   0  0  0  0  0  0  0  0  0  0  0  0
  149.1545  139.4479  153.4186 H   0  0  0  0  0  0  0  0  0  0  0  0
  149.0495  139.0983  155.1300 H   0  0  0  0  0  0  0  0  0  0  0  0
  149.2076  141.9035  153.8845 H   0  0  0  0  0  0  0  0  0  0  0  0
  147.8091  141.1809  154.6553 H   0  0  0  0  0  0  0  0  0  0  0  0
  1  2  1  0  0  0  0
  1 16  1  0  0  0  0
  1 17  1  0  0  0  0
  1 18  1  0  0  0  0
  2  3  1  0  0  0  0
  2 19  1  0  0  0  0
  2 20  1  0  0  0  0
  3  4  1  0  0  0  0
  3 21  1  0  0  0  0
  3 22  1  0  0  0  0
  4 14  1  0  0  0  0
  4  5  2  0  0  0  0
  5  6  1  0  0  0  0
  6 15  1  0  0  0  0
  6  7  1  0  0  0  0
  7  8  1  0  0  0  0
  7 14  2  0  0  0  0
  8 13  1  0  0  0  0
  8  9  1  0  0  0  0
  8 23  1  0  0  0  0
  9 10  1  0  0  0  0
  9 24  1  0  0  0  0
  9 25  1  0  0  0  0
 10 11  1  0  0  0  0
 10 26  1  0  0  0  0
 11 12  1  0  0  0  0
 11 27  1  0  0  0  0
 11 28  1  0  0  0  0
 12 13  1  0  0  0  0
 12 29  1  0  0  0  0
 12 30  1  0  0  0  0
M  END
> <s_m_source_file>
AV-unprocessed.smi

> <i_m_source_file_index>
2562

> <i_lp_mmshare_version>
43012

> <i_f3d_flags>
0

> <s_epik_input>
W0NIM11bQ0gyXVtDSDJdYzFuW25IXWMobjEpW0NAQEhdMltDSDJdW05IXVtDSDJdW0NIMl1PMg==

> <s_epik_cmdline>
J2VwaWtfcHl0aG9uJywgJy1waCcsICc3LjAnLCAnLXRuJywgJzgnLCAnLW1hJywgJzIwMCcsICctbWV0YWxfYmluZGluZycsICctaW1hZScsICc8aW5maWxlLm1hZT4nLCAnLW9tYWUnLCAnPG91dGZpbGUubWFlPic=

> <r_lp_tautomer_probability>
0.948284

> <r_epik_Ionization_Penalty>
0.982917

> <r_epik_Ionization_Penalty_Charging>
0

> <r_epik_Ionization_Penalty_Neutral>
0.982917

> <r_epik_State_Penalty>
1.68334

> <r_epik_Charging_Adjusted_Penalty>
1.68334

> <i_epik_Tot_Q>
0

> <i_epik_Tot_abs_Q>
0

> <r_epik_Metal_State_Penalty>
1.80323

> <b_epik_Metal_Only>
0

> <s_lp_Force_Field>
OPLS_2005

> <r_lp_Energy>
10.1015

> <b_lp_Chiralities_Consistent>
1

> <s_lp_Variant>
AV-unprocessed.smi:2562-8

> <Gold.Version>
5.8.1

> <Gold.Id.Protein>
6NUR|6NUR_protein|mol2

> <Gold.PLP.Fitness>
37.9233

> <Gold.PLP.PLP>
-31.9486

> <Gold.PLP.part.hbond>
-2.0000

> <Gold.PLP.part.metal>
0.0000

> <Gold.PLP.part.buried>
-5.1792

> <Gold.PLP.part.nonpolar>
-24.6092

> <Gold.PLP.part.repulsive>
0.6551

> <Gold.PLP.ligand.clash>
0.0000

> <Gold.PLP.ligand.torsion>
0.0155

> <Gold.PLP.Chemscore.Hbond>
2.0000

> <Gold.PLP.Chemscore.CHOScore>
0.0000

> <Gold.PLP.Chemscore.Metal>
0.0000

> <Gold.Chemscore.Hbonds>
donor molecule, donor type, donor heavy atom, donor atom, acceptor molecule, acceptor atom, score
      L1  H     6    15       P1  8028  0.99
      P1  H  7989  7998       L1    10  1.00

> <Gold.PLP.Chemscore.Internal.Correction>
0.0058

> <Gold.Rescore>
     Score         DG    S(hbond)    S(metal)    S(lipo)     H(rot)  DE(clash)    DE(int)     intcor
     12.51     -12.61       1.01        0.00      64.49       1.48       0.08       0.02       ----

> <Gold.Chemscore.Fitness>
12.5067

> <Gold.Chemscore.DG>
-12.6106

> <Gold.Chemscore.ZeroCoef>
-5.4800

> <Gold.Chemscore.Hbond>
1.0080

> <Gold.Chemscore.Metal>
0.0000

> <Gold.Chemscore.Lipo>
64.4855

> <Gold.Chemscore.Internal_Hbond>
0.0000

> <Gold.Chemscore.DEClash>
0.0810

> <Gold.Chemscore.DEInternal>
0.0229

> <Gold.Chemscore.Rot>
1.4769

> <Gold.Chemscore.Internal.Correction>
   9.000000E+99

> <Gold.Chemscore.Hbonds>
donor molecule, donor type, donor heavy atom, donor atom, acceptor molecule, acceptor atom, score
      L1  H     6    15       P1  8028  0.68
      P1  H  7989  7998       L1    10  0.18

> <Gold.Chemscore.Hbond.Weighted>
-3.3666

> <Gold.Chemscore.Metal.Weighted>
-0.0000

> <Gold.Chemscore.Lipo.Weighted>
-7.5448

> <Gold.Chemscore.Internal_Hbond.Weighted>
0.0000

> <Gold.Chemscore.DEClash.Weighted>
0.0810

> <Gold.Chemscore.DEInternal.Weighted>
0.0229

> <Gold.Chemscore.Rot.Weighted>
3.7808

> <Gold.Chemscore.Internal.Correction.Weighted>
   9.000000E+99

> <Gold.Protein.RotatedTorsions>
[ 6907 6896 6895 6894 ] final   29.07 input  -60.11 | X-H torsion
[ 7974 7965 7964 7962 ] final   20.48 input  175.53 | X-H torsion
[ 8008 7997 7996 7995 ] final  -72.54 input   59.86 | X-H torsion
[ 10167 10162 10161 10158 ] final  -93.74 input  -65.29 | X-H torsion
[ 10718 10713 10712 10709 ] final   13.53 input   66.30 | X-H torsion
[ 10763 10752 10751 10750 ] final   80.74 input  -60.55 | X-H torsion
[ 11005 11000 10999 10996 ] final  108.90 input  -57.11 | X-H torsion

> <Gold.Protein.ActiveResidues>
 VAL166  LYS551  ARG553  GLY616  TRP617  ASP618  TYR619  PRO620  LYS621  CYS622 
 ASP623  PHE694  ASN695  SER759  ASP760  ASP761  ALA762  ILE779  LEU786  VAL792 
 PHE793  MET794  SER795  GLU796  ALA797  LYS798  CYS799  TRP800  GLU811  SER814 

> <Gold.Protein.RotatedAtoms>
  152.0262  134.9794  160.0571 H   0  0  0  0  0  0  0  0  0  0  0  0  # atno 6907 bound_to 6896
  152.1289  133.4391  159.4719 H   0  0  0  0  0  0  0  0  0  0  0  0  # atno 6908 bound_to 6896
  150.6854  134.2363  159.4498 H   0  0  0  0  0  0  0  0  0  0  0  0  # atno 6909 bound_to 6896
  146.2109  139.8163  142.8689 H   0  0  0  0  0  0  0  0  0  0  0  0  # atno 7974 bound_to 7965
  154.5174  140.0795  156.8108 H   0  0  0  0  0  0  0  0  0  0  0  0  # atno 8008 bound_to 7997
  155.3650  140.3420  155.4223 H   0  0  0  0  0  0  0  0  0  0  0  0  # atno 8009 bound_to 7997
  156.1643  140.1599  156.8545 H   0  0  0  0  0  0  0  0  0  0  0  0  # atno 8010 bound_to 7997
  140.3215  143.3046  152.0041 H   0  0  0  0  0  0  0  0  0  0  0  0  # atno 10167 bound_to 10162
  157.0260  130.6174  149.5728 H   0  0  0  0  0  0  0  0  0  0  0  0  # atno 10718 bound_to 10713
  153.1058  135.4791  154.8949 H   0  0  0  0  0  0  0  0  0  0  0  0  # atno 10763 bound_to 10752
  154.7428  135.3086  154.8700 H   0  0  0  0  0  0  0  0  0  0  0  0  # atno 10764 bound_to 10752
  153.9303  135.6845  153.4799 H   0  0  0  0  0  0  0  0  0  0  0  0  # atno 10765 bound_to 10752
  139.8852  134.9443  156.6043 H   0  0  0  0  0  0  0  0  0  0  0  0  # atno 11005 bound_to 11000
  145.3143  141.0228  143.3537 LP  0  0  0  0  0  0  0  0  0  0  0  0  # atno 17320 bound_to 7965
  144.8913  139.4771  143.6676 LP  0  0  0  0  0  0  0  0  0  0  0  0  # atno 17321 bound_to 7965
  139.4873  144.6307  151.7076 LP  0  0  0  0  0  0  0  0  0  0  0  0  # atno 17342 bound_to 10162
  140.5479  144.0473  150.6114 LP  0  0  0  0  0  0  0  0  0  0  0  0  # atno 17343 bound_to 10162
  156.0086  130.5175  150.7913 LP  0  0  0  0  0  0  0  0  0  0  0  0  # atno 17370 bound_to 10713
  157.5214  131.0931  151.0074 LP  0  0  0  0  0  0  0  0  0  0  0  0  # atno 17371 bound_to 10713
  140.7859  133.8621  155.8606 LP  0  0  0  0  0  0  0  0  0  0  0  0  # atno 17394 bound_to 11000
  140.9719  134.1519  157.4569 LP  0  0  0  0  0  0  0  0  0  0  0  0  # atno 17395 bound_to 11000

$$$$
