AV-unprocessed.smi:1817|AV-procd|sdf|7370|dock10
  -GOLD-   22720 9 33D 1   1.00000     0.00000
 Structure written by MMmdl.
 43 44  0  0  0  0  0  0  0  0  2 V2000
  144.0409  131.7870  150.4671 C   0  0  0  0  0  0  0  0  0  0  0  0
  144.6200  132.3678  151.7652 C   0  0  0  0  0  0  0  0  0  0  0  0
  146.0010  132.8248  151.5936 N   0  0  0  0  0  0  0  0  0  0  0  0
  146.1895  133.8566  150.5706 C   0  0  0  0  0  0  0  0  0  0  0  0
  145.5811  135.2140  150.9818 C   0  0  0  0  0  0  0  0  0  0  0  0
  146.1596  135.6894  152.2679 N   0  3  0  0  0  0  0  0  0  0  0  0
  145.6971  137.0382  152.7304 C   0  0  2  0  0  0  0  0  0  0  0  0
  144.1642  137.1534  152.8916 C   0  0  0  0  0  0  0  0  0  0  0  0
  146.2072  138.1722  151.8030 C   0  0  0  0  0  0  0  0  0  0  0  0
  147.4800  138.7458  152.2382 N   0  0  0  0  0  0  0  0  0  0  0  0
  147.7948  139.0915  153.4947 C   0  0  0  0  0  0  0  0  0  0  0  0
  147.0332  138.9389  154.4492 O   0  0  0  0  0  0  0  0  0  0  0  0
  149.0326  139.6067  153.5622 N   0  0  0  0  0  0  0  0  0  0  0  0
  149.7243  140.0645  154.7116 C   0  0  0  0  0  0  0  0  0  0  0  0
  151.0601  140.1201  154.6593 N   0  0  0  0  0  0  0  0  0  0  0  0
  151.6084  140.5814  155.8497 N   0  0  0  0  0  0  0  0  0  0  0  0
  150.6635  140.8563  156.7540 C   0  0  0  0  0  0  0  0  0  0  0  0
  149.0081  140.5755  156.2430 S   0  0  0  0  0  0  0  0  0  0  0  0
  145.9822  134.6370  153.3043 C   0  0  0  0  0  0  0  0  0  0  0  0
  146.5955  133.2990  152.8439 C   0  0  0  0  0  0  0  0  0  0  0  0
  143.0657  131.3374  150.6543 H   0  0  0  0  0  0  0  0  0  0  0  0
  144.6878  131.0105  150.0576 H   0  0  0  0  0  0  0  0  0  0  0  0
  143.9003  132.5507  149.7027 H   0  0  0  0  0  0  0  0  0  0  0  0
  143.9755  133.1611  152.1419 H   0  0  0  0  0  0  0  0  0  0  0  0
  144.6106  131.5791  152.5185 H   0  0  0  0  0  0  0  0  0  0  0  0
  147.2604  133.9794  150.4032 H   0  0  0  0  0  0  0  0  0  0  0  0
  145.7770  133.5291  149.6171 H   0  0  0  0  0  0  0  0  0  0  0  0
  145.8097  135.9161  150.1810 H   0  0  0  0  0  0  0  0  0  0  0  0
  144.4945  135.1581  151.0540 H   0  0  0  0  0  0  0  0  0  0  0  0
  146.1217  137.2045  153.7217 H   0  0  0  0  0  0  0  0  0  0  0  0
  143.8769  138.1722  153.1538 H   0  0  0  0  0  0  0  0  0  0  0  0
  143.7894  136.5136  153.6908 H   0  0  0  0  0  0  0  0  0  0  0  0
  143.6389  136.8930  151.9719 H   0  0  0  0  0  0  0  0  0  0  0  0
  146.3622  137.7710  150.8011 H   0  0  0  0  0  0  0  0  0  0  0  0
  145.4636  138.9588  151.6764 H   0  0  0  0  0  0  0  0  0  0  0  0
  148.1693  138.9090  151.5182 H   0  0  0  0  0  0  0  0  0  0  0  0
  149.5424  139.6792  152.6940 H   0  0  0  0  0  0  0  0  0  0  0  0
  150.9435  141.2255  157.7293 H   0  0  0  0  0  0  0  0  0  0  0  0
  146.4722  134.9286  154.2313 H   0  0  0  0  0  0  0  0  0  0  0  0
  144.9245  134.5205  153.5434 H   0  0  0  0  0  0  0  0  0  0  0  0
  146.4757  132.5403  153.6185 H   0  0  0  0  0  0  0  0  0  0  0  0
  147.6700  133.4206  152.6989 H   0  0  0  0  0  0  0  0  0  0  0  0
  147.1538  135.7718  152.1080 H   0  0  0  0  0  0  0  0  0  0  0  0
  1  2  1  0  0  0  0
  1 21  1  0  0  0  0
  1 22  1  0  0  0  0
  1 23  1  0  0  0  0
  2  3  1  0  0  0  0
  2 24  1  0  0  0  0
  2 25  1  0  0  0  0
  3 20  1  0  0  0  0
  3  4  1  0  0  0  0
  4  5  1  0  0  0  0
  4 26  1  0  0  0  0
  4 27  1  0  0  0  0
  5  6  1  0  0  0  0
  5 28  1  0  0  0  0
  5 29  1  0  0  0  0
  6  7  1  0  0  0  0
  6 19  1  0  0  0  0
  6 43  1  0  0  0  0
  7  8  1  0  0  0  0
  7  9  1  0  0  0  0
  7 30  1  0  0  0  0
  8 31  1  0  0  0  0
  8 32  1  0  0  0  0
  8 33  1  0  0  0  0
  9 10  1  0  0  0  0
  9 34  1  0  0  0  0
  9 35  1  0  0  0  0
 10 11  1  0  0  0  0
 10 36  1  0  0  0  0
 11 12  2  0  0  0  0
 11 13  1  0  0  0  0
 13 14  1  0  0  0  0
 13 37  1  0  0  0  0
 14 18  1  0  0  0  0
 14 15  2  0  0  0  0
 15 16  1  0  0  0  0
 16 17  2  0  0  0  0
 17 18  1  0  0  0  0
 17 38  1  0  0  0  0
 19 20  1  0  0  0  0
 19 39  1  0  0  0  0
 19 40  1  0  0  0  0
 20 41  1  0  0  0  0
 20 42  1  0  0  0  0
M  CHG  1   6   1
M  END
> <s_m_source_file>
AV-unprocessed.smi

> <i_m_source_file_index>
1817

> <i_lp_mmshare_version>
43012

> <i_f3d_flags>
0

> <s_epik_input>
W0NIM11bQ0gyXU4xW0NIMl1bQ0gyXU4oW0NIMl1bQ0gyXTEpW0NASF0oW0NIM10pW0NIMl1bTkhdQyg9TylbTkhdYzJubltjSF1zMg==

> <s_epik_cmdline>
J2VwaWtfcHl0aG9uJywgJy1waCcsICc3LjAnLCAnLXRuJywgJzgnLCAnLW1hJywgJzIwMCcsICctbWV0YWxfYmluZGluZycsICctaW1hZScsICc8aW5maWxlLm1hZT4nLCAnLW9tYWUnLCAnPG91dGZpbGUubWFlPic=

> <r_epik_Ionization_Penalty>
0.153808

> <r_epik_Ionization_Penalty_Charging>
0.148467

> <r_epik_Ionization_Penalty_Neutral>
0.00534086

> <r_epik_State_Penalty>
0.974087

> <r_epik_Charging_Adjusted_Penalty>
1.12255

> <i_epik_Tot_Q>
1

> <i_epik_Tot_abs_Q>
1

> <r_epik_Metal_State_Penalty>
1.30894

> <b_epik_Metal_Only>
0

> <s_lp_Force_Field>
OPLS_2005

> <r_lp_Energy>
26.4186

> <b_lp_Chiralities_Consistent>
1

> <s_lp_Variant>
AV-unprocessed.smi:1817-3

> <Gold.Version>
5.8.1

> <Gold.Id.Protein>
6NUR|6NUR_protein|mol2

> <Gold.PLP.Fitness>
45.3905

> <Gold.PLP.PLP>
-32.3191

> <Gold.PLP.part.hbond>
-5.3984

> <Gold.PLP.part.metal>
0.0000

> <Gold.PLP.part.buried>
-3.9868

> <Gold.PLP.part.nonpolar>
-23.6520

> <Gold.PLP.part.repulsive>
0.5381

> <Gold.PLP.ligand.clash>
0.0000

> <Gold.PLP.ligand.torsion>
0.7737

> <Gold.PLP.Chemscore.Hbond>
4.8480

> <Gold.PLP.Chemscore.CHOScore>
0.0000

> <Gold.PLP.Chemscore.Metal>
0.0000

> <Gold.Chemscore.Hbonds>
donor molecule, donor type, donor heavy atom, donor atom, acceptor molecule, acceptor atom, score
      L1  H     6    43       P1  7948  2.00
      L1  H    10    36       P1  7957  0.83
      L1  H    13    37       P1  7957  1.00
      P1  H  7989  7998       L1    15  0.91

> <Gold.PLP.Chemscore.Internal.Correction>
0.0748

> <Gold.Rescore>
     Score         DG    S(hbond)    S(metal)    S(lipo)     H(rot)  DE(clash)    DE(int)     intcor
     18.23     -20.35       3.87        0.00      58.54       1.92       0.00       2.12       ----

> <Gold.Chemscore.Fitness>
18.2257

> <Gold.Chemscore.DG>
-20.3473

> <Gold.Chemscore.ZeroCoef>
-5.4800

> <Gold.Chemscore.Hbond>
3.8718

> <Gold.Chemscore.Metal>
0.0000

> <Gold.Chemscore.Lipo>
58.5439

> <Gold.Chemscore.Internal_Hbond>
0.0000

> <Gold.Chemscore.DEClash>
0.0029

> <Gold.Chemscore.DEInternal>
2.1187

> <Gold.Chemscore.Rot>
1.9196

> <Gold.Chemscore.Internal.Correction>
   9.000000E+99

> <Gold.Chemscore.Hbonds>
donor molecule, donor type, donor heavy atom, donor atom, acceptor molecule, acceptor atom, score
      L1  H     6    43       P1  7948  1.00
      L1  H    10    36       P1  7957  0.57
      L1  H    13    37       P1  7957  0.93
      P1  H  7989  7998       L1    15  0.60

> <Gold.Chemscore.Hbond.Weighted>
-12.9317

> <Gold.Chemscore.Metal.Weighted>
-0.0000

> <Gold.Chemscore.Lipo.Weighted>
-6.8496

> <Gold.Chemscore.Internal_Hbond.Weighted>
0.0000

> <Gold.Chemscore.DEClash.Weighted>
0.0029

> <Gold.Chemscore.DEInternal.Weighted>
2.1187

> <Gold.Chemscore.Rot.Weighted>
4.9141

> <Gold.Chemscore.Internal.Correction.Weighted>
   9.000000E+99

> <Gold.Protein.RotatedTorsions>
[ 6907 6896 6895 6894 ] final  149.10 input  -60.11 | X-H torsion
[ 7974 7965 7964 7962 ] final -105.86 input  175.53 | X-H torsion
[ 8008 7997 7996 7995 ] final -118.84 input   59.86 | X-H torsion
[ 10167 10162 10161 10158 ] final  157.35 input  -65.29 | X-H torsion
[ 10718 10713 10712 10709 ] final -143.30 input   66.30 | X-H torsion
[ 10763 10752 10751 10750 ] final   42.53 input  -60.55 | X-H torsion
[ 11005 11000 10999 10996 ] final -161.14 input  -57.11 | X-H torsion

> <Gold.Protein.ActiveResidues>
 VAL166  LYS551  ARG553  GLY616  TRP617  ASP618  TYR619  PRO620  LYS621  CYS622 
 ASP623  PHE694  ASN695  SER759  ASP760  ASP761  ALA762  ILE779  LEU786  VAL792 
 PHE793  MET794  SER795  GLU796  ALA797  LYS798  CYS799  TRP800  GLU811  SER814 

> <Gold.Protein.RotatedAtoms>
  152.1326  133.4417  159.4727 H   0  0  0  0  0  0  0  0  0  0  0  0  # atno 6907 bound_to 6896
  150.6879  134.2402  159.4478 H   0  0  0  0  0  0  0  0  0  0  0  0  # atno 6908 bound_to 6896
  152.0287  134.9780  160.0623 H   0  0  0  0  0  0  0  0  0  0  0  0  # atno 6909 bound_to 6896
  145.2251  140.9149  143.3237 H   0  0  0  0  0  0  0  0  0  0  0  0  # atno 7974 bound_to 7965
  155.1062  140.0396  157.2711 H   0  0  0  0  0  0  0  0  0  0  0  0  # atno 8008 bound_to 7997
  154.6720  140.2614  155.6971 H   0  0  0  0  0  0  0  0  0  0  0  0  # atno 8009 bound_to 7997
  156.2662  140.2796  156.1233 H   0  0  0  0  0  0  0  0  0  0  0  0  # atno 8010 bound_to 7997
  139.4823  144.4925  151.8287 H   0  0  0  0  0  0  0  0  0  0  0  0  # atno 10167 bound_to 10162
  156.3563  130.7715  151.1875 H   0  0  0  0  0  0  0  0  0  0  0  0  # atno 10718 bound_to 10713
  152.9881  135.6129  154.2965 H   0  0  0  0  0  0  0  0  0  0  0  0  # atno 10763 bound_to 10752
  154.2688  135.2780  155.2749 H   0  0  0  0  0  0  0  0  0  0  0  0  # atno 10764 bound_to 10752
  154.5141  135.5833  153.6685 H   0  0  0  0  0  0  0  0  0  0  0  0  # atno 10765 bound_to 10752
  140.6237  134.4723  157.5225 H   0  0  0  0  0  0  0  0  0  0  0  0  # atno 11005 bound_to 11000
  144.9729  139.3861  143.6300 LP  0  0  0  0  0  0  0  0  0  0  0  0  # atno 17320 bound_to 7965
  146.3367  139.8835  142.8820 LP  0  0  0  0  0  0  0  0  0  0  0  0  # atno 17321 bound_to 7965
  140.4411  144.1985  150.5891 LP  0  0  0  0  0  0  0  0  0  0  0  0  # atno 17342 bound_to 10162
  140.4682  143.2423  151.9126 LP  0  0  0  0  0  0  0  0  0  0  0  0  # atno 17343 bound_to 10162
  157.7468  131.0413  150.4639 LP  0  0  0  0  0  0  0  0  0  0  0  0  # atno 17370 bound_to 10713
  156.4842  130.4080  149.6444 LP  0  0  0  0  0  0  0  0  0  0  0  0  # atno 17371 bound_to 10713
  139.9143  134.8279  156.1419 LP  0  0  0  0  0  0  0  0  0  0  0  0  # atno 17394 bound_to 11000
  141.0724  133.6791  156.2168 LP  0  0  0  0  0  0  0  0  0  0  0  0  # atno 17395 bound_to 11000

$$$$
