AV-unprocessed.smi:1803|AV-procd|sdf|7283|dock9
  -GOLD-   22720 8543D 1   1.00000     0.00000
 Structure written by MMmdl.
 36 38  0  0  0  0  0  0  0  0  2 V2000
  149.6945  134.4354  155.8757 O   0  0  0  0  0  0  0  0  0  0  0  0
  149.3915  134.8658  154.7646 C   0  0  0  0  0  0  0  0  0  0  0  0
  149.9198  136.0142  154.2916 N   0  0  0  0  0  0  0  0  0  0  0  0
  150.8499  136.9260  154.8709 C   0  0  0  0  0  0  0  0  0  0  0  0
  151.8181  136.5740  155.7332 N   0  0  0  0  0  0  0  0  0  0  0  0
  152.5947  137.6581  156.1182 N   0  0  0  0  0  0  0  0  0  0  0  0
  152.1935  138.7840  155.5217 C   0  0  0  0  0  0  0  0  0  0  0  0
  150.8262  138.6284  154.4327 S   0  0  0  0  0  0  0  0  0  0  0  0
  148.5277  134.2355  153.9510 N   0  0  0  0  0  0  0  0  0  0  0  0
  147.7963  133.0099  154.2626 C   0  0  2  0  0  0  0  0  0  0  0  0
  148.7176  131.7787  154.3676 C   0  0  0  0  0  0  0  0  0  0  0  0
  147.9659  130.6638  153.6335 C   0  0  0  0  0  0  0  0  0  0  0  0
  147.2425  131.3906  152.5837 N   0  3  1  0  0  0  0  0  0  0  0  0
  146.2043  130.6718  151.8174 C   0  0  0  0  0  0  0  0  0  0  0  0
  145.7218  131.5860  150.6706 C   0  0  0  0  0  0  0  0  0  0  0  0
  145.2890  132.9805  151.1768 C   0  0  0  0  0  0  0  0  0  0  0  0
  146.3672  133.6236  152.0754 C   0  0  0  0  0  0  0  0  0  0  0  0
  146.7427  132.6345  153.1942 C   0  0  2  0  0  0  0  0  0  0  0  0
  149.6775  136.2230  153.3337 H   0  0  0  0  0  0  0  0  0  0  0  0
  152.7082  139.7121  155.7220 H   0  0  0  0  0  0  0  0  0  0  0  0
  148.3436  134.6578  153.0519 H   0  0  0  0  0  0  0  0  0  0  0  0
  147.2863  133.1305  155.2203 H   0  0  0  0  0  0  0  0  0  0  0  0
  149.6636  131.9683  153.8573 H   0  0  0  0  0  0  0  0  0  0  0  0
  148.9496  131.5144  155.3997 H   0  0  0  0  0  0  0  0  0  0  0  0
  148.6324  129.9058  153.2215 H   0  0  0  0  0  0  0  0  0  0  0  0
  147.2545  130.1758  154.3016 H   0  0  0  0  0  0  0  0  0  0  0  0
  146.6186  129.7475  151.4131 H   0  0  0  0  0  0  0  0  0  0  0  0
  145.3758  130.3975  152.4722 H   0  0  0  0  0  0  0  0  0  0  0  0
  146.5292  131.7068  149.9470 H   0  0  0  0  0  0  0  0  0  0  0  0
  144.8995  131.1113  150.1342 H   0  0  0  0  0  0  0  0  0  0  0  0
  145.0671  133.6335  150.3322 H   0  0  0  0  0  0  0  0  0  0  0  0
  144.3610  132.8837  151.7418 H   0  0  0  0  0  0  0  0  0  0  0  0
  147.2455  133.8783  151.4802 H   0  0  0  0  0  0  0  0  0  0  0  0
  145.9880  134.5543  152.4985 H   0  0  0  0  0  0  0  0  0  0  0  0
  145.8299  132.3863  153.7401 H   0  0  0  0  0  0  0  0  0  0  0  0
  147.9474  131.6720  151.9173 H   0  0  0  0  0  0  0  0  0  0  0  0
  1  2  2  0  0  0  0
  2  3  1  0  0  0  0
  2  9  1  0  0  0  0
  3  4  1  0  0  0  0
  3 19  1  0  0  0  0
  4  8  1  0  0  0  0
  4  5  2  0  0  0  0
  5  6  1  0  0  0  0
  6  7  2  0  0  0  0
  7  8  1  0  0  0  0
  7 20  1  0  0  0  0
  9 10  1  0  0  0  0
  9 21  1  0  0  0  0
 10 18  1  0  0  0  0
 10 11  1  0  0  0  0
 10 22  1  0  0  0  0
 11 12  1  0  0  0  0
 11 23  1  0  0  0  0
 11 24  1  0  0  0  0
 12 13  1  0  0  0  0
 12 25  1  0  0  0  0
 12 26  1  0  0  0  0
 13 18  1  0  0  0  0
 13 14  1  0  0  0  0
 13 36  1  0  0  0  0
 14 15  1  0  0  0  0
 14 27  1  0  0  0  0
 14 28  1  0  0  0  0
 15 16  1  0  0  0  0
 15 29  1  0  0  0  0
 15 30  1  0  0  0  0
 16 17  1  0  0  0  0
 16 31  1  0  0  0  0
 16 32  1  0  0  0  0
 17 18  1  0  0  0  0
 17 33  1  0  0  0  0
 17 34  1  0  0  0  0
 18 35  1  0  0  0  0
M  CHG  1  13   1
M  END
> <s_m_source_file>
AV-unprocessed.smi

> <i_m_source_file_index>
1803

> <i_lp_mmshare_version>
43012

> <i_f3d_flags>
0

> <s_epik_input>
czFbY0hdbm5jMVtOSF1DKD1PKVtOSF1bQ0BIXShbQ0gyXVtDSDJdMilbQ0BASF0oTjIzKVtDSDJdW0NIMl1bQ0gyXVtDSDJdMw==

> <s_epik_cmdline>
J2VwaWtfcHl0aG9uJywgJy1waCcsICc3LjAnLCAnLXRuJywgJzgnLCAnLW1hJywgJzIwMCcsICctbWV0YWxfYmluZGluZycsICctaW1hZScsICc8aW5maWxlLm1hZT4nLCAnLW9tYWUnLCAnPG91dGZpbGUubWFlPic=

> <r_lp_tautomer_probability>
1

> <r_epik_Ionization_Penalty>
0.00213286

> <r_epik_Ionization_Penalty_Charging>
0.00107044

> <r_epik_Ionization_Penalty_Neutral>
0.00106242

> <r_epik_State_Penalty>
-0

> <r_epik_Charging_Adjusted_Penalty>
0.00107044

> <i_epik_Tot_Q>
1

> <i_epik_Tot_abs_Q>
1

> <r_epik_Metal_State_Penalty>
0.292783

> <b_epik_Metal_Only>
0

> <s_lp_Force_Field>
OPLS_2005

> <r_lp_Energy>
42.6799

> <b_lp_Chiralities_Consistent>
1

> <s_lp_Variant>
AV-unprocessed.smi:1803-5

> <Gold.Version>
5.8.1

> <Gold.Id.Protein>
6NUR|6NUR_protein|mol2

> <Gold.PLP.Fitness>
40.5139

> <Gold.PLP.PLP>
-30.5541

> <Gold.PLP.part.hbond>
-5.8968

> <Gold.PLP.part.metal>
0.0000

> <Gold.PLP.part.buried>
-2.2467

> <Gold.PLP.part.nonpolar>
-23.1641

> <Gold.PLP.part.repulsive>
0.1517

> <Gold.PLP.ligand.clash>
0.0000

> <Gold.PLP.ligand.torsion>
0.2401

> <Gold.PLP.Chemscore.Hbond>
3.4796

> <Gold.PLP.Chemscore.CHOScore>
0.0000

> <Gold.PLP.Chemscore.Metal>
0.0000

> <Gold.Chemscore.Hbonds>
donor molecule, donor type, donor heavy atom, donor atom, acceptor molecule, acceptor atom, score
      L1  H     3    19       P1  7948  0.95
      L1  H     9    21       P1  7948  0.83
      L1  H    13    36       P1 10747  0.64
      P1  H 10752 10765       L1     5  1.00

> <Gold.PLP.Chemscore.Internal.Correction>
0.0013

> <Gold.Rescore>
     Score         DG    S(hbond)    S(metal)    S(lipo)     H(rot)  DE(clash)    DE(int)     intcor
     18.21     -19.18       2.60        0.00      64.76       1.00       0.60       0.37       ----

> <Gold.Chemscore.Fitness>
18.2092

> <Gold.Chemscore.DG>
-19.1771

> <Gold.Chemscore.ZeroCoef>
-5.4800

> <Gold.Chemscore.Hbond>
2.5989

> <Gold.Chemscore.Metal>
0.0000

> <Gold.Chemscore.Lipo>
64.7587

> <Gold.Chemscore.Internal_Hbond>
0.0000

> <Gold.Chemscore.DEClash>
0.5981

> <Gold.Chemscore.DEInternal>
0.3698

> <Gold.Chemscore.Rot>
1.0000

> <Gold.Chemscore.Internal.Correction>
   9.000000E+99

> <Gold.Chemscore.Hbonds>
donor molecule, donor type, donor heavy atom, donor atom, acceptor molecule, acceptor atom, score
      L1  H     3    19       P1  7948  0.21
      L1  H     9    21       P1  7948  0.42
      L1  H    13    36       P1 10747  0.64
      P1  H 10752 10765       L1     5  0.13

> <Gold.Chemscore.Hbond.Weighted>
-8.6804

> <Gold.Chemscore.Metal.Weighted>
-0.0000

> <Gold.Chemscore.Lipo.Weighted>
-7.5768

> <Gold.Chemscore.Internal_Hbond.Weighted>
0.0000

> <Gold.Chemscore.DEClash.Weighted>
0.5981

> <Gold.Chemscore.DEInternal.Weighted>
0.3698

> <Gold.Chemscore.Rot.Weighted>
2.5600

> <Gold.Chemscore.Internal.Correction.Weighted>
   9.000000E+99

> <Gold.Protein.RotatedTorsions>
[ 6907 6896 6895 6894 ] final -179.05 input  -60.11 | X-H torsion
[ 7974 7965 7964 7962 ] final   19.06 input  175.53 | X-H torsion
[ 8008 7997 7996 7995 ] final  159.38 input   59.86 | X-H torsion
[ 10167 10162 10161 10158 ] final  108.49 input  -65.29 | X-H torsion
[ 10718 10713 10712 10709 ] final  117.90 input   66.30 | X-H torsion
[ 10763 10752 10751 10750 ] final -178.06 input  -60.55 | X-H torsion
[ 11005 11000 10999 10996 ] final   25.94 input  -57.11 | X-H torsion

> <Gold.Protein.ActiveResidues>
 VAL166  LYS551  ARG553  GLY616  TRP617  ASP618  TYR619  PRO620  LYS621  CYS622 
 ASP623  PHE694  ASN695  SER759  ASP760  ASP761  ALA762  ILE779  LEU786  VAL792 
 PHE793  MET794  SER795  GLU796  ALA797  LYS798  CYS799  TRP800  GLU811  SER814 

> <Gold.Protein.RotatedAtoms>
  151.6472  133.3323  159.3143 H   0  0  0  0  0  0  0  0  0  0  0  0  # atno 6907 bound_to 6896
  150.7978  134.7055  159.6583 H   0  0  0  0  0  0  0  0  0  0  0  0  # atno 6908 bound_to 6896
  152.4067  134.6198  160.0099 H   0  0  0  0  0  0  0  0  0  0  0  0  # atno 6909 bound_to 6896
  146.2163  139.8368  142.8649 H   0  0  0  0  0  0  0  0  0  0  0  0  # atno 7974 bound_to 7965
  156.2242  140.1832  156.7403 H   0  0  0  0  0  0  0  0  0  0  0  0  # atno 8008 bound_to 7997
  154.5914  140.0650  156.9272 H   0  0  0  0  0  0  0  0  0  0  0  0  # atno 8009 bound_to 7997
  155.2330  140.3316  155.4303 H   0  0  0  0  0  0  0  0  0  0  0  0  # atno 8010 bound_to 7997
  139.6842  144.7115  151.1462 H   0  0  0  0  0  0  0  0  0  0  0  0  # atno 10167 bound_to 10162
  157.6066  131.1042  150.7681 H   0  0  0  0  0  0  0  0  0  0  0  0  # atno 10718 bound_to 10713
  154.5525  135.2814  155.0996 H   0  0  0  0  0  0  0  0  0  0  0  0  # atno 10763 bound_to 10752
  154.2436  135.6352  153.5219 H   0  0  0  0  0  0  0  0  0  0  0  0  # atno 10764 bound_to 10752
  153.0006  135.5566  154.6095 H   0  0  0  0  0  0  0  0  0  0  0  0  # atno 10765 bound_to 10752
  140.3424  134.2319  155.7688 H   0  0  0  0  0  0  0  0  0  0  0  0  # atno 11005 bound_to 11000
  145.2940  141.0175  143.3646 LP  0  0  0  0  0  0  0  0  0  0  0  0  # atno 17320 bound_to 7965
  144.9055  139.4594  143.6612 LP  0  0  0  0  0  0  0  0  0  0  0  0  # atno 17321 bound_to 7965
  140.7662  143.5655  150.9053 LP  0  0  0  0  0  0  0  0  0  0  0  0  # atno 17342 bound_to 10162
  139.9328  143.6473  152.3072 LP  0  0  0  0  0  0  0  0  0  0  0  0  # atno 17343 bound_to 10162
  156.8067  130.4939  149.5361 LP  0  0  0  0  0  0  0  0  0  0  0  0  # atno 17370 bound_to 10713
  156.1154  130.6071  151.0112 LP  0  0  0  0  0  0  0  0  0  0  0  0  # atno 17371 bound_to 10713
  141.2035  133.7911  157.0337 LP  0  0  0  0  0  0  0  0  0  0  0  0  # atno 17394 bound_to 11000
  140.0770  134.9670  157.1562 LP  0  0  0  0  0  0  0  0  0  0  0  0  # atno 17395 bound_to 11000

$$$$
