AV-unprocessed.smi:2001|AV-procd|sdf|8111|dock5
  -GOLD-   2272010343D 1   1.00000     0.00000
 Structure written by MMmdl.
 50 51  0  0  0  0  0  0  0  0  3 V2000
  147.6592  136.0528  161.1430 C   0  0  0  0  0  0  0  0  0  0  0  0
  148.0624  137.2883  160.5801 O   0  0  0  0  0  0  0  0  0  0  0  0
  149.0220  137.1287  159.5482 C   0  0  0  0  0  0  0  0  0  0  0  0
  148.3294  137.1923  158.1772 C   0  0  0  0  0  0  0  0  0  0  0  0
  149.2948  137.0988  157.0768 N   0  0  0  0  0  0  0  0  0  0  0  0
  149.9760  138.2784  156.8307 N   0  0  0  0  0  0  0  0  0  0  0  0
  150.8676  138.3397  155.8953 C   0  0  0  0  0  0  0  0  0  0  0  0
  151.6033  139.6178  155.6320 C   0  0  0  0  0  0  0  0  0  0  0  0
  152.8363  139.5119  155.5721 O   0  0  0  0  0  0  0  0  0  0  0  0
  150.8933  140.7768  155.4815 N   0  5  0  0  0  0  0  0  0  0  0  0
  150.9372  141.9142  156.3976 C   0  0  0  0  0  0  0  0  0  0  0  0
  151.7026  141.5229  157.6761 C   0  0  0  0  0  0  0  0  0  0  0  0
  151.5511  142.5442  158.7462 N   0  3  1  0  0  0  0  0  0  0  0  0
  152.4214  142.2931  159.9187 C   0  0  0  0  0  0  0  0  0  0  0  0
  152.1150  143.3032  161.0394 C   0  0  1  0  0  0  0  0  0  0  0  0
  153.0567  143.1367  162.2369 C   0  0  0  0  0  0  0  0  0  0  0  0
  152.2689  144.6306  160.5427 O   0  0  0  0  0  0  0  0  0  0  0  0
  151.4576  144.9462  159.4108 C   0  0  2  0  0  0  0  0  0  0  0  0
  149.9680  145.0757  159.7763 C   0  0  0  0  0  0  0  0  0  0  0  0
  151.7243  143.9428  158.2732 C   0  0  0  0  0  0  0  0  0  0  0  0
  151.1687  137.1653  155.0858 C   0  0  0  0  0  0  0  0  0  0  0  0
  150.4992  136.0199  155.3405 C   0  0  0  0  0  0  0  0  0  0  0  0
  149.4891  135.9300  156.3954 C   0  0  0  0  0  0  0  0  0  0  0  0
  148.8718  134.8953  156.6474 O   0  0  0  0  0  0  0  0  0  0  0  0
  146.9378  136.2328  161.9402 H   0  0  0  0  0  0  0  0  0  0  0  0
  148.5079  135.5176  161.5708 H   0  0  0  0  0  0  0  0  0  0  0  0
  147.1832  135.4161  160.3961 H   0  0  0  0  0  0  0  0  0  0  0  0
  149.7615  137.9275  159.6184 H   0  0  0  0  0  0  0  0  0  0  0  0
  149.5558  136.1835  159.6614 H   0  0  0  0  0  0  0  0  0  0  0  0
  147.5589  136.4228  158.1066 H   0  0  0  0  0  0  0  0  0  0  0  0
  147.7940  138.1399  158.0944 H   0  0  0  0  0  0  0  0  0  0  0  0
  151.4236  142.7825  155.9512 H   0  0  0  0  0  0  0  0  0  0  0  0
  149.9347  142.2443  156.6721 H   0  0  0  0  0  0  0  0  0  0  0  0
  151.3109  140.5654  158.0237 H   0  0  0  0  0  0  0  0  0  0  0  0
  152.7604  141.3567  157.4651 H   0  0  0  0  0  0  0  0  0  0  0  0
  152.2567  141.2803  160.2893 H   0  0  0  0  0  0  0  0  0  0  0  0
  153.4679  142.3598  159.6162 H   0  0  0  0  0  0  0  0  0  0  0  0
  151.0934  143.1594  161.3920 H   0  0  0  0  0  0  0  0  0  0  0  0
  152.9719  142.1390  162.6681 H   0  0  0  0  0  0  0  0  0  0  0  0
  152.8214  143.8576  163.0204 H   0  0  0  0  0  0  0  0  0  0  0  0
  154.0965  143.2889  161.9459 H   0  0  0  0  0  0  0  0  0  0  0  0
  151.7848  145.9290  159.0700 H   0  0  0  0  0  0  0  0  0  0  0  0
  149.3949  145.4522  158.9287 H   0  0  0  0  0  0  0  0  0  0  0  0
  149.8297  145.7730  160.6030 H   0  0  0  0  0  0  0  0  0  0  0  0
  149.5273  144.1218  160.0647 H   0  0  0  0  0  0  0  0  0  0  0  0
  152.7437  144.0701  157.9051 H   0  0  0  0  0  0  0  0  0  0  0  0
  151.0616  144.1518  157.4327 H   0  0  0  0  0  0  0  0  0  0  0  0
  151.9085  137.1907  154.2997 H   0  0  0  0  0  0  0  0  0  0  0  0
  150.7154  135.1423  154.7489 H   0  0  0  0  0  0  0  0  0  0  0  0
  150.6008  142.4571  159.0776 H   0  0  0  0  0  0  0  0  0  0  0  0
  1  2  1  0  0  0  0
  1 25  1  0  0  0  0
  1 26  1  0  0  0  0
  1 27  1  0  0  0  0
  2  3  1  0  0  0  0
  3  4  1  0  0  0  0
  3 28  1  0  0  0  0
  3 29  1  0  0  0  0
  4  5  1  0  0  0  0
  4 30  1  0  0  0  0
  4 31  1  0  0  0  0
  5 23  1  0  0  0  0
  5  6  1  0  0  0  0
  6  7  2  0  0  0  0
  7  8  1  0  0  0  0
  7 21  1  0  0  0  0
  8  9  2  0  0  0  0
  8 10  1  0  0  0  0
 10 11  1  0  0  0  0
 11 12  1  0  0  0  0
 11 32  1  0  0  0  0
 11 33  1  0  0  0  0
 12 13  1  0  0  0  0
 12 34  1  0  0  0  0
 12 35  1  0  0  0  0
 13 20  1  0  0  0  0
 13 14  1  0  0  0  0
 13 50  1  0  0  0  0
 14 15  1  0  0  0  0
 14 36  1  0  0  0  0
 14 37  1  0  0  0  0
 15 16  1  0  0  0  0
 15 17  1  0  0  0  0
 15 38  1  0  0  0  0
 16 39  1  0  0  0  0
 16 40  1  0  0  0  0
 16 41  1  0  0  0  0
 17 18  1  0  0  0  0
 18 19  1  0  0  0  0
 18 20  1  0  0  0  0
 18 42  1  0  0  0  0
 19 43  1  0  0  0  0
 19 44  1  0  0  0  0
 19 45  1  0  0  0  0
 20 46  1  0  0  0  0
 20 47  1  0  0  0  0
 21 22  2  0  0  0  0
 21 48  1  0  0  0  0
 22 23  1  0  0  0  0
 22 49  1  0  0  0  0
 23 24  2  0  0  0  0
M  CHG  1  10  -1
M  CHG  1  13   1
M  END
> <s_m_source_file>
AV-unprocessed.smi

> <i_m_source_file_index>
2001

> <i_lp_mmshare_version>
43012

> <i_f3d_flags>
0

> <s_epik_input>
W0NIM11PW0NIMl1bQ0gyXW4xbmMoW2NIXVtjSF1jMT1PKUMoPU8pW05IXVtDSDJdW0NIMl1OMltDSDJdW0NAQEhdKFtDSDNdKU9bQ0BASF0oW0NIM10pW0NIMl0y

> <s_epik_cmdline>
J2VwaWtfcHl0aG9uJywgJy1waCcsICc3LjAnLCAnLXRuJywgJzgnLCAnLW1hJywgJzIwMCcsICctbWV0YWxfYmluZGluZycsICctaW1hZScsICc8aW5maWxlLm1hZT4nLCAnLW9tYWUnLCAnPG91dGZpbGUubWFlPic=

> <r_lp_tautomer_probability>
1

> <r_epik_Ionization_Penalty>
6.90846

> <r_epik_Ionization_Penalty_Charging>
6.90846

> <r_epik_Ionization_Penalty_Neutral>
1.08445e-11

> <r_epik_State_Penalty>
7.54671

> <r_epik_Charging_Adjusted_Penalty>
14.4552

> <i_epik_Tot_Q>
0

> <i_epik_Tot_abs_Q>
2

> <r_epik_Metal_State_Penalty>
3.46181

> <b_epik_Metal_Only>
1

> <s_lp_Force_Field>
OPLS_2005

> <r_lp_Energy>
43.982

> <b_lp_Chiralities_Consistent>
1

> <s_lp_Variant>
AV-unprocessed.smi:2001-10

> <Gold.Version>
5.8.1

> <Gold.Id.Protein>
6NUR|6NUR_protein|mol2

> <Gold.PLP.Fitness>
48.3403

> <Gold.PLP.PLP>
-44.4766

> <Gold.PLP.part.hbond>
-4.0000

> <Gold.PLP.part.metal>
0.0000

> <Gold.PLP.part.buried>
-6.6322

> <Gold.PLP.part.nonpolar>
-33.6878

> <Gold.PLP.part.repulsive>
0.2295

> <Gold.PLP.ligand.clash>
0.0000

> <Gold.PLP.ligand.torsion>
2.1751

> <Gold.PLP.Chemscore.Hbond>
2.6750

> <Gold.PLP.Chemscore.CHOScore>
0.0000

> <Gold.PLP.Chemscore.Metal>
0.0000

> <Gold.Chemscore.Hbonds>
donor molecule, donor type, donor heavy atom, donor atom, acceptor molecule, acceptor atom, score
      P1  H  6931  6943       L1     2  0.74
      P1  H  6934  6947       L1     2  0.70
      P1  H  7989  7998       L1    10  0.26
      P1  H  7997  8008       L1     9  1.00

> <Gold.PLP.Chemscore.Internal.Correction>
0.1889

> <Gold.Rescore>
     Score         DG    S(hbond)    S(metal)    S(lipo)     H(rot)  DE(clash)    DE(int)     intcor
     18.02     -20.22       2.07        0.00     111.12       2.02       0.06       2.14       ----

> <Gold.Chemscore.Fitness>
18.0215

> <Gold.Chemscore.DG>
-20.2242

> <Gold.Chemscore.ZeroCoef>
-5.4800

> <Gold.Chemscore.Hbond>
2.0687

> <Gold.Chemscore.Metal>
0.0000

> <Gold.Chemscore.Lipo>
111.1162

> <Gold.Chemscore.Internal_Hbond>
0.0000

> <Gold.Chemscore.DEClash>
0.0594

> <Gold.Chemscore.DEInternal>
2.1432

> <Gold.Chemscore.Rot>
2.0179

> <Gold.Chemscore.Internal.Correction>
   9.000000E+99

> <Gold.Chemscore.Hbonds>
donor molecule, donor type, donor heavy atom, donor atom, acceptor molecule, acceptor atom, score
      P1  H  6931  6943       L1     2  0.18
      P1  H  6934  6947       L1     2  0.67
      P1  H  7989  7998       L1    10  0.01
      P1  H  7997  8008       L1     9  1.00

> <Gold.Chemscore.Hbond.Weighted>
-6.9095

> <Gold.Chemscore.Metal.Weighted>
-0.0000

> <Gold.Chemscore.Lipo.Weighted>
-13.0006

> <Gold.Chemscore.Internal_Hbond.Weighted>
0.0000

> <Gold.Chemscore.DEClash.Weighted>
0.0594

> <Gold.Chemscore.DEInternal.Weighted>
2.1432

> <Gold.Chemscore.Rot.Weighted>
5.1659

> <Gold.Chemscore.Internal.Correction.Weighted>
   9.000000E+99

> <Gold.Protein.RotatedTorsions>
[ 6907 6896 6895 6894 ] final   77.02 input  -60.11 | X-H torsion
[ 7974 7965 7964 7962 ] final -124.87 input  175.53 | X-H torsion
[ 8008 7997 7996 7995 ] final  -39.80 input   59.86 | X-H torsion
[ 10167 10162 10161 10158 ] final    3.55 input  -65.29 | X-H torsion
[ 10718 10713 10712 10709 ] final  122.95 input   66.30 | X-H torsion
[ 10763 10752 10751 10750 ] final   56.09 input  -60.55 | X-H torsion
[ 11005 11000 10999 10996 ] final   50.91 input  -57.11 | X-H torsion

> <Gold.Protein.ActiveResidues>
 VAL166  LYS551  ARG553  GLY616  TRP617  ASP618  TYR619  PRO620  LYS621  CYS622 
 ASP623  PHE694  ASN695  SER759  ASP760  ASP761  ALA762  ILE779  LEU786  VAL792 
 PHE793  MET794  SER795  GLU796  ALA797  LYS798  CYS799  TRP800  GLU811  SER814 

> <Gold.Protein.RotatedAtoms>
  152.5099  134.3880  159.9374 H   0  0  0  0  0  0  0  0  0  0  0  0  # atno 6907 bound_to 6896
  151.3840  133.3805  159.2721 H   0  0  0  0  0  0  0  0  0  0  0  0  # atno 6908 bound_to 6896
  150.9483  134.8906  159.7715 H   0  0  0  0  0  0  0  0  0  0  0  0  # atno 6909 bound_to 6896
  145.0035  140.7842  143.4481 H   0  0  0  0  0  0  0  0  0  0  0  0  # atno 7974 bound_to 7965
  154.4019  140.1542  156.2922 H   0  0  0  0  0  0  0  0  0  0  0  0  # atno 8008 bound_to 7997
  155.8775  140.3445  155.5842 H   0  0  0  0  0  0  0  0  0  0  0  0  # atno 8009 bound_to 7997
  155.7704  140.0829  157.2101 H   0  0  0  0  0  0  0  0  0  0  0  0  # atno 8010 bound_to 7997
  140.6580  143.7377  150.7688 H   0  0  0  0  0  0  0  0  0  0  0  0  # atno 10167 bound_to 10162
  157.5703  131.1083  150.8380 H   0  0  0  0  0  0  0  0  0  0  0  0  # atno 10718 bound_to 10713
  152.9826  135.5688  154.5172 H   0  0  0  0  0  0  0  0  0  0  0  0  # atno 10763 bound_to 10752
  154.4666  135.2783  155.1676 H   0  0  0  0  0  0  0  0  0  0  0  0  # atno 10764 bound_to 10752
  154.3241  135.6263  153.5574 H   0  0  0  0  0  0  0  0  0  0  0  0  # atno 10765 bound_to 10752
  140.0977  134.5123  155.8792 H   0  0  0  0  0  0  0  0  0  0  0  0  # atno 11005 bound_to 11000
  145.2120  139.2200  143.5138 LP  0  0  0  0  0  0  0  0  0  0  0  0  # atno 17320 bound_to 7965
  146.3456  140.1960  142.8589 LP  0  0  0  0  0  0  0  0  0  0  0  0  # atno 17321 bound_to 7965
  140.1040  143.4761  152.2408 LP  0  0  0  0  0  0  0  0  0  0  0  0  # atno 17342 bound_to 10162
  139.5807  144.7509  151.3647 LP  0  0  0  0  0  0  0  0  0  0  0  0  # atno 17343 bound_to 10162
  156.8853  130.5194  149.5289 LP  0  0  0  0  0  0  0  0  0  0  0  0  # atno 17370 bound_to 10713
  156.0748  130.5773  150.9453 LP  0  0  0  0  0  0  0  0  0  0  0  0  # atno 17371 bound_to 10713
  141.2097  133.6686  156.6455 LP  0  0  0  0  0  0  0  0  0  0  0  0  # atno 17394 bound_to 11000
  140.3263  134.7965  157.4292 LP  0  0  0  0  0  0  0  0  0  0  0  0  # atno 17395 bound_to 11000

$$$$
