AV-unprocessed.smi:2760|AV-procd|sdf|10629|dock6
  -GOLD-   2272015 73D 1   1.00000     0.00000
 Structure written by MMmdl.
 32 33  0  0  0  0  0  0  0  0  1 V2000
  150.6388  140.4868  154.9811 O   0  0  0  0  0  0  0  0  0  0  0  0
  150.9779  140.3729  156.1571 C   0  0  0  0  0  0  0  0  0  0  0  0
  151.6828  141.4598  156.8482 C   0  0  0  0  0  0  0  0  0  0  0  0
  152.0420  141.3101  158.1389 C   0  0  0  0  0  0  0  0  0  0  0  0
  152.7599  142.3578  158.9228 C   0  0  0  0  0  0  0  0  0  0  0  0
  153.2893  142.1010  160.3173 C   0  0  0  0  0  0  0  0  0  0  0  0
  152.1291  143.0468  160.1137 C   0  0  0  0  0  0  0  0  0  0  0  0
  151.7471  140.1347  158.8085 N   0  0  0  0  0  0  0  0  0  0  0  0
  151.0804  139.1161  158.1355 C   0  0  0  0  0  0  0  0  0  0  0  0
  150.7899  137.6524  159.1908 S   0  0  0  0  0  0  0  0  0  0  0  0
  148.9821  137.4446  159.1812 C   0  0  0  0  0  0  0  0  0  0  0  0
  148.5563  136.2328  160.0142 C   0  0  0  0  0  0  0  0  0  0  0  0
  148.2214  136.6728  161.3193 O   0  0  0  0  0  0  0  0  0  0  0  0
  147.6046  135.6604  162.0990 C   0  0  0  0  0  0  0  0  0  0  0  0
  146.0800  135.7929  161.9989 C   0  0  0  0  0  0  0  0  0  0  0  0
  145.7053  135.6115  160.7333 F   0  0  0  0  0  0  0  0  0  0  0  0
  145.4861  134.8716  162.7571 F   0  0  0  0  0  0  0  0  0  0  0  0
  145.6974  137.0087  162.3885 F   0  0  0  0  0  0  0  0  0  0  0  0
  150.7093  139.2057  156.8908 N   0  0  0  0  0  0  0  0  0  0  0  0
  152.0315  140.0599  159.7742 H   0  0  0  0  0  0  0  0  0  0  0  0
  151.9095  142.3738  156.3187 H   0  0  0  0  0  0  0  0  0  0  0  0
  153.3841  142.9846  158.2882 H   0  0  0  0  0  0  0  0  0  0  0  0
  153.0768  141.1405  160.7828 H   0  0  0  0  0  0  0  0  0  0  0  0
  154.2522  142.5372  160.5751 H   0  0  0  0  0  0  0  0  0  0  0  0
  152.3216  144.1108  160.2350 H   0  0  0  0  0  0  0  0  0  0  0  0
  151.1478  142.7133  160.4455 H   0  0  0  0  0  0  0  0  0  0  0  0
  148.6390  137.3202  158.1533 H   0  0  0  0  0  0  0  0  0  0  0  0
  148.5130  138.3446  159.5802 H   0  0  0  0  0  0  0  0  0  0  0  0
  147.6978  135.7430  159.5520 H   0  0  0  0  0  0  0  0  0  0  0  0
  149.3684  135.5056  160.0608 H   0  0  0  0  0  0  0  0  0  0  0  0
  147.9151  134.6757  161.7457 H   0  0  0  0  0  0  0  0  0  0  0  0
  147.9176  135.7481  163.1407 H   0  0  0  0  0  0  0  0  0  0  0  0
  1  2  2  0  0  0  0
  2 19  1  0  0  0  0
  2  3  1  0  0  0  0
  3 21  1  0  0  0  0
  3  4  2  0  0  0  0
  4  5  1  0  0  0  0
  4  8  1  0  0  0  0
  5  7  1  0  0  0  0
  5  6  1  0  0  0  0
  5 22  1  0  0  0  0
  6  7  1  0  0  0  0
  6 23  1  0  0  0  0
  6 24  1  0  0  0  0
  7 25  1  0  0  0  0
  7 26  1  0  0  0  0
  8  9  1  0  0  0  0
  8 20  1  0  0  0  0
  9 10  1  0  0  0  0
  9 19  2  0  0  0  0
 10 11  1  0  0  0  0
 11 12  1  0  0  0  0
 11 27  1  0  0  0  0
 11 28  1  0  0  0  0
 12 13  1  0  0  0  0
 12 29  1  0  0  0  0
 12 30  1  0  0  0  0
 13 14  1  0  0  0  0
 14 15  1  0  0  0  0
 14 31  1  0  0  0  0
 14 32  1  0  0  0  0
 15 16  1  0  0  0  0
 15 17  1  0  0  0  0
 15 18  1  0  0  0  0
M  END
> <s_m_source_file>
AV-unprocessed.smi

> <i_m_source_file_index>
2760

> <i_lp_mmshare_version>
43012

> <i_f3d_flags>
0

> <s_epik_input>
W09IXWMxW2NIXWMoW0NIXTJbQ0gyXVtDSDJdMiluYyhuMSlTW0NIMl1bQ0gyXU9bQ0gyXUMoRikoRilG

> <s_epik_cmdline>
J2VwaWtfcHl0aG9uJywgJy1waCcsICc3LjAnLCAnLXRuJywgJzgnLCAnLW1hJywgJzIwMCcsICctbWV0YWxfYmluZGluZycsICctaW1hZScsICc8aW5maWxlLm1hZT4nLCAnLW9tYWUnLCAnPG91dGZpbGUubWFlPic=

> <r_lp_tautomer_probability>
0.273662

> <r_epik_Ionization_Penalty>
0.0792867

> <r_epik_Ionization_Penalty_Charging>
0.0792819

> <r_epik_Ionization_Penalty_Neutral>
4.79647e-06

> <r_epik_State_Penalty>
1.03359

> <r_epik_Charging_Adjusted_Penalty>
1.11287

> <i_epik_Tot_Q>
0

> <i_epik_Tot_abs_Q>
0

> <r_epik_Metal_State_Penalty>
1.68441

> <b_epik_Metal_Only>
0

> <s_lp_Force_Field>
OPLS_2005

> <r_lp_Energy>
16.1148

> <b_lp_Chiralities_Consistent>
1

> <s_lp_Variant>
AV-unprocessed.smi:2760-2

> <Gold.Version>
5.8.1

> <Gold.Id.Protein>
6NUR|6NUR_protein|mol2

> <Gold.PLP.Fitness>
41.3669

> <Gold.PLP.PLP>
-36.3182

> <Gold.PLP.part.hbond>
-2.0000

> <Gold.PLP.part.metal>
0.0000

> <Gold.PLP.part.buried>
-6.3711

> <Gold.PLP.part.nonpolar>
-27.9977

> <Gold.PLP.part.repulsive>
0.2118

> <Gold.PLP.ligand.clash>
0.0000

> <Gold.PLP.ligand.torsion>
0.5777

> <Gold.PLP.Chemscore.Hbond>
2.0000

> <Gold.PLP.Chemscore.CHOScore>
0.0000

> <Gold.PLP.Chemscore.Metal>
0.0000

> <Gold.Chemscore.Hbonds>
donor molecule, donor type, donor heavy atom, donor atom, acceptor molecule, acceptor atom, score
      P1  H  6931  6943       L1    13  1.00
      P1  H  7989  7998       L1     1  1.00

> <Gold.PLP.Chemscore.Internal.Correction>
0.2040

> <Gold.Rescore>
     Score         DG    S(hbond)    S(metal)    S(lipo)     H(rot)  DE(clash)    DE(int)     intcor
     13.95     -14.61       1.91        0.00      79.84       2.57       0.03       0.64       ----

> <Gold.Chemscore.Fitness>
13.9469

> <Gold.Chemscore.DG>
-14.6103

> <Gold.Chemscore.ZeroCoef>
-5.4800

> <Gold.Chemscore.Hbond>
1.9052

> <Gold.Chemscore.Metal>
0.0000

> <Gold.Chemscore.Lipo>
79.8374

> <Gold.Chemscore.Internal_Hbond>
0.0000

> <Gold.Chemscore.DEClash>
0.0275

> <Gold.Chemscore.DEInternal>
0.6360

> <Gold.Chemscore.Rot>
2.5680

> <Gold.Chemscore.Internal.Correction>
   9.000000E+99

> <Gold.Chemscore.Hbonds>
donor molecule, donor type, donor heavy atom, donor atom, acceptor molecule, acceptor atom, score
      P1  H  6931  6943       L1    13  0.94
      P1  H  7989  7998       L1     1  0.96

> <Gold.Chemscore.Hbond.Weighted>
-6.3635

> <Gold.Chemscore.Metal.Weighted>
-0.0000

> <Gold.Chemscore.Lipo.Weighted>
-9.3410

> <Gold.Chemscore.Internal_Hbond.Weighted>
0.0000

> <Gold.Chemscore.DEClash.Weighted>
0.0275

> <Gold.Chemscore.DEInternal.Weighted>
0.6360

> <Gold.Chemscore.Rot.Weighted>
6.5741

> <Gold.Chemscore.Internal.Correction.Weighted>
   9.000000E+99

> <Gold.Protein.RotatedTorsions>
[ 6907 6896 6895 6894 ] final   78.17 input  -60.11 | X-H torsion
[ 7974 7965 7964 7962 ] final    7.99 input  175.53 | X-H torsion
[ 8008 7997 7996 7995 ] final -164.77 input   59.86 | X-H torsion
[ 10167 10162 10161 10158 ] final  111.13 input  -65.29 | X-H torsion
[ 10718 10713 10712 10709 ] final   84.31 input   66.30 | X-H torsion
[ 10763 10752 10751 10750 ] final -103.61 input  -60.55 | X-H torsion
[ 11005 11000 10999 10996 ] final   58.07 input  -57.11 | X-H torsion

> <Gold.Protein.ActiveResidues>
 VAL166  LYS551  ARG553  GLY616  TRP617  ASP618  TYR619  PRO620  LYS621  CYS622 
 ASP623  PHE694  ASN695  SER759  ASP760  ASP761  ALA762  ILE779  LEU786  VAL792 
 PHE793  MET794  SER795  GLU796  ALA797  LYS798  CYS799  TRP800  GLU811  SER814 

> <Gold.Protein.RotatedAtoms>
  152.5148  134.3705  159.9316 H   0  0  0  0  0  0  0  0  0  0  0  0  # atno 6907 bound_to 6896
  151.3659  133.3866  159.2702 H   0  0  0  0  0  0  0  0  0  0  0  0  # atno 6908 bound_to 6896
  150.9615  134.9022  159.7792 H   0  0  0  0  0  0  0  0  0  0  0  0  # atno 6909 bound_to 6896
  146.2421  140.0000  142.8417 H   0  0  0  0  0  0  0  0  0  0  0  0  # atno 7974 bound_to 7965
  155.8403  140.0947  157.1738 H   0  0  0  0  0  0  0  0  0  0  0  0  # atno 8008 bound_to 7997
  154.3982  140.1402  156.3782 H   0  0  0  0  0  0  0  0  0  0  0  0  # atno 8009 bound_to 7997
  155.8071  140.3451  155.5439 H   0  0  0  0  0  0  0  0  0  0  0  0  # atno 8010 bound_to 7997
  139.6634  144.7128  151.1821 H   0  0  0  0  0  0  0  0  0  0  0  0  # atno 10167 bound_to 10162
  157.6895  131.0128  150.2654 H   0  0  0  0  0  0  0  0  0  0  0  0  # atno 10718 bound_to 10713
  154.7820  135.4817  153.9864 H   0  0  0  0  0  0  0  0  0  0  0  0  # atno 10763 bound_to 10752
  153.1507  135.6790  153.8894 H   0  0  0  0  0  0  0  0  0  0  0  0  # atno 10764 bound_to 10752
  153.8539  135.3163  155.3412 H   0  0  0  0  0  0  0  0  0  0  0  0  # atno 10765 bound_to 10752
  140.0405  134.5880  155.9388 H   0  0  0  0  0  0  0  0  0  0  0  0  # atno 11005 bound_to 11000
  145.1424  140.9578  143.4481 LP  0  0  0  0  0  0  0  0  0  0  0  0  # atno 17320 bound_to 7965
  145.0283  139.3363  143.6037 LP  0  0  0  0  0  0  0  0  0  0  0  0  # atno 17321 bound_to 7965
  140.7589  143.5957  150.8750 LP  0  0  0  0  0  0  0  0  0  0  0  0  # atno 17342 bound_to 10162
  139.9617  143.6157  152.3000 LP  0  0  0  0  0  0  0  0  0  0  0  0  # atno 17343 bound_to 10162
  156.3226  130.3788  149.7562 LP  0  0  0  0  0  0  0  0  0  0  0  0  # atno 17370 bound_to 10713
  156.5127  130.8179  151.3175 LP  0  0  0  0  0  0  0  0  0  0  0  0  # atno 17371 bound_to 10713
  141.1880  133.6561  156.5307 LP  0  0  0  0  0  0  0  0  0  0  0  0  # atno 17394 bound_to 11000
  140.4077  134.7300  157.4817 LP  0  0  0  0  0  0  0  0  0  0  0  0  # atno 17395 bound_to 11000

$$$$
