#       Name:                AV-unprocessed.smi:1165
#       Creating user name   scv26
#       Creation time:       Fri Mar 27 03:51:20 2020


#       File generated by GOLD software.
#

@<TRIPOS>MOLECULE
AV-unprocessed.smi:1165
    46    47     1
SMALL
NO_CHARGES


@<TRIPOS>ATOM
      1 ****        -0.3155   2.2305  -1.0704 C.3            1 S1                 0.0000
      2 ****        -1.2125   1.5884  -2.1446 C.3            1 S1                 0.0000
      3 ****        -0.9718   0.0767  -2.3176 C.3            1 S1                 0.0000
      4 ****        -1.5777  -0.6939  -1.2185 N.3            1 S1                 0.0000
      5 ****        -1.1291  -2.3594  -1.0532 S.o2           1 S1                 0.0000
      6 ****        -1.7413  -2.8920   0.1738 O.2            1 S1                 0.0000
      7 ****        -1.3231  -3.0196  -2.3529 O.2            1 S1                 0.0000
      8 ****         0.5647  -2.1789  -0.7762 N.3            1 S1                 0.0000
      9 ****         1.0319  -1.4567   0.4061 C.3            1 S1                 0.0000
     10 ****         2.5645  -1.4277   0.4390 C.3            1 S1                 0.0000
     11 ****         3.0918  -0.6570   1.6327 C.ar           1 S1                 0.0000
     12 ****         3.4626  -1.3212   2.8200 C.ar           1 S1                 0.0000
     13 ****         3.9422  -0.5577   3.9018 C.ar           1 S1                 0.0000
     14 ****         4.0298   0.8406   3.7496 C.ar           1 S1                 0.0000
     15 ****         3.6761   1.4870   2.6177 N.ar           1 S1                 0.0000
     16 ****         3.2176   0.7477   1.5852 C.ar           1 S1                 0.0000
     17 ****        -2.9878  -0.3522  -0.9883 C.3            1 S1                 0.0000
     18 ****        -3.1603   1.1666  -0.8111 C.3            1 S1                 0.0000
     19 ****        -4.6363   1.5669  -0.7086 C.3            1 S1                 0.0000
     20 ****        -2.5956   1.8537  -1.9225 O.3            1 S1                 0.0000
     21 ****         0.7374   2.1241  -1.3324 H              1 S1                 0.0000
     22 ****        -0.4496   1.7744  -0.0902 H              1 S1                 0.0000
     23 ****        -0.5252   3.2962  -0.9759 H              1 S1                 0.0000
     24 ****        -0.9625   2.0716  -3.0894 H              1 S1                 0.0000
     25 ****        -1.4113  -0.2604  -3.2575 H              1 S1                 0.0000
     26 ****         0.0966  -0.1266  -2.3828 H              1 S1                 0.0000
     27 ****         1.0861  -1.9672  -1.6265 H              1 S1                 0.0000
     28 ****         0.6393  -0.4402   0.3844 H              1 S1                 0.0000
     29 ****         0.6370  -1.9383   1.3012 H              1 S1                 0.0000
     30 ****         2.9584  -2.4446   0.4648 H              1 S1                 0.0000
     31 ****         2.9510  -0.9693  -0.4725 H              1 S1                 0.0000
     32 ****         3.3805  -2.3950   2.9030 H              1 S1                 0.0000
     33 ****         4.2357  -1.0320   4.8267 H              1 S1                 0.0000
     34 ****         4.3933   1.4564   4.5588 H              1 S1                 0.0000
     35 ****         2.9402   1.2937   0.6952 H              1 S1                 0.0000
     36 ****        -3.5783  -0.7107  -1.8325 H              1 S1                 0.0000
     37 ****        -3.3521  -0.8691  -0.1004 H              1 S1                 0.0000
     38 ****        -2.6652   1.4828   0.1071 H              1 S1                 0.0000
     39 ****        -5.1168   1.0806   0.1408 H              1 S1                 0.0000
     40 ****        -5.1852   1.2890  -1.6088 H              1 S1                 0.0000
     41 ****        -4.7394   2.6440  -0.5753 H              1 S1                 0.0000
     42 ****        -1.1018  -0.3565  -0.4063 LP             1 S1                 0.0000
     43 ****         0.7988  -3.1072  -0.4873 LP             1 S1                 0.0000
     44 ****         3.7514   2.4816   2.5466 LP             1 S1                 0.0000
     45 ****        -3.1001   1.5864  -2.7435 LP             1 S1                 0.0000
     46 ****        -2.7041   2.8360  -1.7697 LP             1 S1                 0.0000
@<TRIPOS>BOND
    1    1    2 1     
    2    1   21 1     
    3    1   22 1     
    4    1   23 1     
    5    2   20 1     
    6    2    3 1     
    7    2   24 1     
    8    3    4 1     
    9    3   25 1     
   10    3   26 1     
   11    4    5 1     
   12    4   17 1     
   13    5    6 2     
   14    5    7 2     
   15    5    8 1     
   16    8    9 1     
   17    8   27 1     
   18    9   10 1     
   19    9   28 1     
   20    9   29 1     
   21   10   11 1     
   22   10   30 1     
   23   10   31 1     
   24   11   16 ar    
   25   11   12 ar    
   26   12   13 ar    
   27   12   32 1     
   28   13   14 ar    
   29   13   33 1     
   30   14   15 ar    
   31   14   34 1     
   32   15   16 ar    
   33   16   35 1     
   34   17   18 1     
   35   17   36 1     
   36   17   37 1     
   37   18   19 1     
   38   18   20 1     
   39   18   38 1     
   40   19   39 1     
   41   19   40 1     
   42   19   41 1     
   43    4   42 1     
   44    8   43 1     
   45   15   44 1     
   46   20   45 1     
   47   20   46 1     
@<TRIPOS>SUBSTRUCTURE
      1 S1             1
@<TRIPOS>SET
LONE_PAIRS      STATIC     ATOMS    <user>   **** ""
7 42 6 7 43 44 45 46
DONOR_HYDROGENS      STATIC     ATOMS    <user>   **** ""
1 27
ATOM$BLUE        STATIC     ATOMS    COLORGROUP SYSTEM
7 42 6 7 43 44 45 46
ATOM$RED        STATIC     ATOMS    COLORGROUP SYSTEM
1 27
