AV-unprocessed.smi:40|AV-procd|sdf|377|dock4
  -GOLD-   2262016223D 1   1.00000     0.00000
 Structure written by MMmdl.
 47 48  0  0  0  0  0  0  0  0  1 V2000
  145.3912  132.4844  151.3236 C   0  0  0  0  0  0  0  0  0  0  0  0
  146.1642  131.5140  152.2232 C   0  0  0  0  0  0  0  0  0  0  0  0
  147.1668  132.2311  153.1388 C   0  0  0  0  0  0  0  0  0  0  0  0
  148.2251  131.2805  153.7141 C   0  0  0  0  0  0  0  0  0  0  0  0
  149.2238  132.0066  154.6288 C   0  0  0  0  0  0  0  0  0  0  0  0
  149.3817  133.3620  154.2320 O   0  0  0  0  0  0  0  0  0  0  0  0
  150.0038  134.2524  155.0355 C   0  0  0  0  0  0  0  0  0  0  0  0
  150.5549  133.9576  156.0960 O   0  0  0  0  0  0  0  0  0  0  0  0
  149.8990  135.6053  154.5167 N   0  0  0  0  0  0  0  0  0  0  0  0
  150.3908  136.7544  155.0386 C   0  0  0  0  0  0  0  0  0  0  0  0
  151.6505  137.1271  154.8715 N   0  0  0  0  0  0  0  0  0  0  0  0
  152.1853  138.2728  155.3975 C   0  0  0  0  0  0  0  0  0  0  0  0
  153.3586  138.5738  155.1839 O   0  0  0  0  0  0  0  0  0  0  0  0
  151.3311  139.0875  156.1772 N   0  0  0  0  0  0  0  0  0  0  0  0
  151.8621  140.3676  156.7844 C   0  0  2  0  0  0  0  0  0  0  0  0
  151.6244  140.3202  158.1601 O   0  0  0  0  0  0  0  0  0  0  0  0
  151.1595  141.5840  158.6150 C   0  0  1  0  0  0  0  0  0  0  0  0
  152.3769  142.4210  159.0530 C   0  0  0  0  0  0  0  0  0  0  0  0
  150.3782  142.1309  157.4122 C   0  0  1  0  0  0  0  0  0  0  0  0
  150.2780  143.5415  157.4323 O   0  0  0  0  0  0  0  0  0  0  0  0
  151.1806  141.6350  156.2164 C   0  0  2  0  0  0  0  0  0  0  0  0
  150.3387  141.4024  155.1004 O   0  0  0  0  0  0  0  0  0  0  0  0
  150.0130  138.7074  156.3775 C   0  0  0  0  0  0  0  0  0  0  0  0
  149.5112  137.5731  155.8448 C   0  0  0  0  0  0  0  0  0  0  0  0
  148.2302  137.2239  156.0548 F   0  0  0  0  0  0  0  0  0  0  0  0
  152.9418  140.3725  156.6308 H   0  0  0  0  0  0  0  0  0  0  0  0
  150.4997  141.4432  159.4717 H   0  0  0  0  0  0  0  0  0  0  0  0
  149.3791  141.6919  157.4072 H   0  0  0  0  0  0  0  0  0  0  0  0
  151.9637  142.3458  155.9484 H   0  0  0  0  0  0  0  0  0  0  0  0
  144.6914  131.9465  150.6835 H   0  0  0  0  0  0  0  0  0  0  0  0
  146.0674  133.0465  150.6787 H   0  0  0  0  0  0  0  0  0  0  0  0
  144.8190  133.1995  151.9153 H   0  0  0  0  0  0  0  0  0  0  0  0
  145.4579  130.9440  152.8278 H   0  0  0  0  0  0  0  0  0  0  0  0
  146.6905  130.7905  151.5996 H   0  0  0  0  0  0  0  0  0  0  0  0
  147.6616  133.0270  152.5807 H   0  0  0  0  0  0  0  0  0  0  0  0
  146.6313  132.7142  153.9571 H   0  0  0  0  0  0  0  0  0  0  0  0
  147.7338  130.4846  154.2749 H   0  0  0  0  0  0  0  0  0  0  0  0
  148.7598  130.7976  152.8952 H   0  0  0  0  0  0  0  0  0  0  0  0
  148.9141  131.9414  155.6731 H   0  0  0  0  0  0  0  0  0  0  0  0
  150.1979  131.5218  154.5632 H   0  0  0  0  0  0  0  0  0  0  0  0
  149.4262  135.6713  153.6269 H   0  0  0  0  0  0  0  0  0  0  0  0
  152.0713  143.3923  159.4423 H   0  0  0  0  0  0  0  0  0  0  0  0
  153.0687  142.5949  158.2284 H   0  0  0  0  0  0  0  0  0  0  0  0
  152.9279  141.9132  159.8448 H   0  0  0  0  0  0  0  0  0  0  0  0
  149.9118  143.8284  156.6096 H   0  0  0  0  0  0  0  0  0  0  0  0
  149.4502  141.6062  155.3481 H   0  0  0  0  0  0  0  0  0  0  0  0
  149.3589  139.3288  156.9718 H   0  0  0  0  0  0  0  0  0  0  0  0
  1  2  1  0  0  0  0
  1 30  1  0  0  0  0
  1 31  1  0  0  0  0
  1 32  1  0  0  0  0
  2  3  1  0  0  0  0
  2 33  1  0  0  0  0
  2 34  1  0  0  0  0
  3  4  1  0  0  0  0
  3 35  1  0  0  0  0
  3 36  1  0  0  0  0
  4  5  1  0  0  0  0
  4 37  1  0  0  0  0
  4 38  1  0  0  0  0
  5  6  1  0  0  0  0
  5 39  1  0  0  0  0
  5 40  1  0  0  0  0
  6  7  1  0  0  0  0
  7  8  2  0  0  0  0
  7  9  1  0  0  0  0
  9 10  1  0  0  0  0
  9 41  1  0  0  0  0
 10 24  1  0  0  0  0
 10 11  2  0  0  0  0
 11 12  1  0  0  0  0
 12 13  2  0  0  0  0
 12 14  1  0  0  0  0
 14 15  1  0  0  0  0
 14 23  1  0  0  0  0
 15 26  1  0  0  0  0
 15 21  1  0  0  0  0
 15 16  1  0  0  0  0
 16 17  1  0  0  0  0
 17 27  1  0  0  0  0
 17 18  1  0  0  0  0
 17 19  1  0  0  0  0
 18 42  1  0  0  0  0
 18 43  1  0  0  0  0
 18 44  1  0  0  0  0
 19 28  1  0  0  0  0
 19 20  1  0  0  0  0
 19 21  1  0  0  0  0
 20 45  1  0  0  0  0
 21 29  1  0  0  0  0
 21 22  1  0  0  0  0
 22 46  1  0  0  0  0
 23 24  2  0  0  0  0
 23 47  1  0  0  0  0
 24 25  1  0  0  0  0
M  END
> <s_m_source_file>
AV-unprocessed.smi

> <i_m_source_file_index>
40

> <i_lp_mmshare_version>
43012

> <i_f3d_flags>
0

> <s_epik_input>
W0NIM11bQ0gyXVtDSDJdW0NIMl1bQ0gyXU9DKD1PKVtOSF1jMW5jKD1PKW4oW2NIXWMxRilbQ0BASF0yT1tDQEhdKFtDSDNdKVtDQEBIXShbT0hdKVtDQEhdMltPSF0=

> <s_epik_cmdline>
J2VwaWtfcHl0aG9uJywgJy1waCcsICc3LjAnLCAnLXRuJywgJzgnLCAnLW1hJywgJzIwMCcsICctbWV0YWxfYmluZGluZycsICctaW1hZScsICc8aW5maWxlLm1hZT4nLCAnLW9tYWUnLCAnPG91dGZpbGUubWFlPic=

> <r_lp_tautomer_probability>
1

> <r_epik_Ionization_Penalty>
2.29506e-06

> <r_epik_Ionization_Penalty_Charging>
8.26867e-09

> <r_epik_Ionization_Penalty_Neutral>
2.2868e-06

> <r_epik_State_Penalty>
-0

> <r_epik_Charging_Adjusted_Penalty>
8.26867e-09

> <i_epik_Tot_Q>
0

> <i_epik_Tot_abs_Q>
0

> <r_epik_Metal_State_Penalty>
-0

> <b_epik_Metal_Only>
0

> <s_epik_Chemistry_Notes>
This compound has an ester and may undergo hydrolysis at high or low pH. This compound contains an acetal/aminal-like group ( X-CH(R)-Y where X, Y are N, S, or O) that may be acid/base labile, releasing an aldehyde.

> <s_lp_Force_Field>
OPLS_2005

> <r_lp_Energy>
38.4453

> <b_lp_Chiralities_Consistent>
1

> <s_lp_Variant>
AV-unprocessed.smi:40-11

> <Gold.Version>
5.8.1

> <Gold.Id.Protein>
6NUR|6NUR_protein|mol2

> <Gold.PLP.Fitness>
47.8065

> <Gold.PLP.PLP>
-36.8008

> <Gold.PLP.part.hbond>
-5.6681

> <Gold.PLP.part.metal>
0.0000

> <Gold.PLP.part.buried>
-5.0511

> <Gold.PLP.part.nonpolar>
-26.2453

> <Gold.PLP.part.repulsive>
0.3452

> <Gold.PLP.ligand.clash>
0.0000

> <Gold.PLP.ligand.torsion>
1.1376

> <Gold.PLP.Chemscore.Hbond>
4.3466

> <Gold.PLP.Chemscore.CHOScore>
0.0000

> <Gold.PLP.Chemscore.Metal>
0.0000

> <Gold.Chemscore.Hbonds>
donor molecule, donor type, donor heavy atom, donor atom, acceptor molecule, acceptor atom, score
      L1  H     9    41       P1  7948  1.00
      L1  H    20    45       P1  8028  1.00
      P1  H  7989  7998       L1    22  0.42
      P1  H  7997  8008       L1    13  0.87
      P1  H 10752 10763       L1    11  1.00

> <Gold.PLP.Chemscore.Internal.Correction>
0.2410

> <Gold.Rescore>
     Score         DG    S(hbond)    S(metal)    S(lipo)     H(rot)  DE(clash)    DE(int)     intcor
     12.11     -14.51       3.25        0.00      65.27       3.70       0.34       2.06       ----

> <Gold.Chemscore.Fitness>
12.1088

> <Gold.Chemscore.DG>
-14.5061

> <Gold.Chemscore.ZeroCoef>
-5.4800

> <Gold.Chemscore.Hbond>
3.2487

> <Gold.Chemscore.Metal>
0.0000

> <Gold.Chemscore.Lipo>
65.2698

> <Gold.Chemscore.Internal_Hbond>
0.0000

> <Gold.Chemscore.DEClash>
0.3357

> <Gold.Chemscore.DEInternal>
2.0616

> <Gold.Chemscore.Rot>
3.6957

> <Gold.Chemscore.Internal.Correction>
   9.000000E+99

> <Gold.Chemscore.Hbonds>
donor molecule, donor type, donor heavy atom, donor atom, acceptor molecule, acceptor atom, score
      L1  H     9    41       P1  7948  0.35
      L1  H    20    45       P1  8028  0.97
      P1  H  7989  7998       L1    22  0.22
      P1  H  7997  8008       L1    13  0.80
      P1  H 10752 10763       L1    11  0.79

> <Gold.Chemscore.Hbond.Weighted>
-10.8505

> <Gold.Chemscore.Metal.Weighted>
-0.0000

> <Gold.Chemscore.Lipo.Weighted>
-7.6366

> <Gold.Chemscore.Internal_Hbond.Weighted>
0.0000

> <Gold.Chemscore.DEClash.Weighted>
0.3357

> <Gold.Chemscore.DEInternal.Weighted>
2.0616

> <Gold.Chemscore.Rot.Weighted>
9.4610

> <Gold.Chemscore.Internal.Correction.Weighted>
   9.000000E+99

> <Gold.Protein.RotatedTorsions>
[ 6907 6896 6895 6894 ] final  170.23 input  -60.11 | X-H torsion
[ 7974 7965 7964 7962 ] final  -57.11 input  175.53 | X-H torsion
[ 8008 7997 7996 7995 ] final  -19.09 input   59.86 | X-H torsion
[ 10167 10162 10161 10158 ] final -161.70 input  -65.29 | X-H torsion
[ 10718 10713 10712 10709 ] final  154.55 input   66.30 | X-H torsion
[ 10763 10752 10751 10750 ] final   48.00 input  -60.55 | X-H torsion
[ 11005 11000 10999 10996 ] final   50.92 input  -57.11 | X-H torsion

> <Gold.Protein.ActiveResidues>
 VAL166  LYS551  ARG553  GLY616  TRP617  ASP618  TYR619  PRO620  LYS621  CYS622 
 ASP623  PHE694  ASN695  SER759  ASP760  ASP761  ALA762  ILE779  LEU786  VAL792 
 PHE793  MET794  SER795  GLU796  ALA797  LYS798  CYS799  TRP800  GLU811  SER814 

> <Gold.Protein.RotatedAtoms>
  151.8194  133.3392  159.3579 H   0  0  0  0  0  0  0  0  0  0  0  0  # atno 6907 bound_to 6896
  150.7299  134.5588  159.5841 H   0  0  0  0  0  0  0  0  0  0  0  0  # atno 6908 bound_to 6896
  152.3017  134.7604  160.0407 H   0  0  0  0  0  0  0  0  0  0  0  0  # atno 6909 bound_to 6896
  145.8549  140.8326  142.9967 H   0  0  0  0  0  0  0  0  0  0  0  0  # atno 7974 bound_to 7965
  154.4861  140.2098  155.9653 H   0  0  0  0  0  0  0  0  0  0  0  0  # atno 8008 bound_to 7997
  156.1237  140.3209  155.8215 H   0  0  0  0  0  0  0  0  0  0  0  0  # atno 8009 bound_to 7997
  155.4421  140.0511  157.3000 H   0  0  0  0  0  0  0  0  0  0  0  0  # atno 8010 bound_to 7997
  139.6446  144.0197  152.2117 H   0  0  0  0  0  0  0  0  0  0  0  0  # atno 10167 bound_to 10162
  157.2301  131.0737  151.1858 H   0  0  0  0  0  0  0  0  0  0  0  0  # atno 10718 bound_to 10713
  152.9795  135.5958  154.3854 H   0  0  0  0  0  0  0  0  0  0  0  0  # atno 10763 bound_to 10752
  154.3514  135.2767  155.2371 H   0  0  0  0  0  0  0  0  0  0  0  0  # atno 10764 bound_to 10752
  154.4409  135.6013  153.6184 H   0  0  0  0  0  0  0  0  0  0  0  0  # atno 10765 bound_to 10752
  140.0977  134.5124  155.8792 H   0  0  0  0  0  0  0  0  0  0  0  0  # atno 11005 bound_to 11000
  144.6728  140.1008  143.7460 LP  0  0  0  0  0  0  0  0  0  0  0  0  # atno 17320 bound_to 7965
  145.9315  139.2609  143.1322 LP  0  0  0  0  0  0  0  0  0  0  0  0  # atno 17321 bound_to 7965
  139.9895  144.6372  150.7827 LP  0  0  0  0  0  0  0  0  0  0  0  0  # atno 17342 bound_to 10162
  140.7508  143.2961  151.3200 LP  0  0  0  0  0  0  0  0  0  0  0  0  # atno 17343 bound_to 10162
  157.3486  130.7070  149.6426 LP  0  0  0  0  0  0  0  0  0  0  0  0  # atno 17370 bound_to 10713
  155.9676  130.4259  150.4674 LP  0  0  0  0  0  0  0  0  0  0  0  0  # atno 17371 bound_to 10713
  141.2097  133.6686  156.6455 LP  0  0  0  0  0  0  0  0  0  0  0  0  # atno 17394 bound_to 11000
  140.3264  134.7965  157.4292 LP  0  0  0  0  0  0  0  0  0  0  0  0  # atno 17395 bound_to 11000

$$$$
