AV-unprocessed.smi:1723|AV-procd|sdf|6947|dock4
  -GOLD-   22720 8153D 1   1.00000     0.00000
 Structure written by MMmdl.
 37 37  0  0  0  0  0  0  0  0  2 V2000
  144.7827  143.9558  154.6742 C   0  0  0  0  0  0  0  0  0  0  0  0
  145.9920  143.0486  154.9262 C   0  0  0  0  0  0  0  0  0  0  0  0
  146.8869  142.9008  153.6859 C   0  0  0  0  0  0  0  0  0  0  0  0
  148.0531  141.9293  153.9046 C   0  0  0  0  0  0  0  0  0  0  0  0
  147.5543  140.7235  154.4732 O   0  0  0  0  0  0  0  0  0  0  0  0
  148.4386  139.6076  154.4119 C   0  0  2  0  0  0  0  0  0  0  0  0
  147.7533  138.4351  155.1288 C   0  0  0  0  0  0  0  0  0  0  0  0
  149.7820  139.9566  155.0728 C   0  0  0  0  0  0  0  0  0  0  0  0
  150.8256  139.7807  154.4446 O   0  0  0  0  0  0  0  0  0  0  0  0
  149.6987  140.4131  156.3382 N   0  0  0  0  0  0  0  0  0  0  0  0
  150.7147  140.8164  157.2220 C   0  0  0  0  0  0  0  0  0  0  0  0
  150.7671  142.0192  157.8596 C   0  0  0  0  0  0  0  0  0  0  0  0
  151.8478  142.3736  158.7710 C   0  0  0  0  0  0  0  0  0  0  0  0
  151.8952  143.6740  159.5540 C   0  0  0  0  0  0  0  0  0  0  0  0
  150.7399  144.3335  159.4632 F   0  0  0  0  0  0  0  0  0  0  0  0
  152.1287  143.4195  160.8406 F   0  0  0  0  0  0  0  0  0  0  0  0
  152.8683  144.4665  159.1043 F   0  0  0  0  0  0  0  0  0  0  0  0
  152.7635  141.3504  158.9212 C   0  0  0  0  0  0  0  0  0  0  0  0
  152.7906  140.1389  158.3241 N   0  5  0  0  0  0  0  0  0  0  0  0
  151.7799  139.8216  157.4669 C   0  0  0  0  0  0  0  0  0  0  0  0
  151.7380  138.7305  156.8970 O   0  0  0  0  0  0  0  0  0  0  0  0
  144.1675  144.0406  155.5700 H   0  0  0  0  0  0  0  0  0  0  0  0
  144.1543  143.5615  153.8753 H   0  0  0  0  0  0  0  0  0  0  0  0
  145.0959  144.9606  154.3899 H   0  0  0  0  0  0  0  0  0  0  0  0
  146.5770  143.4517  155.7536 H   0  0  0  0  0  0  0  0  0  0  0  0
  145.6422  142.0666  155.2468 H   0  0  0  0  0  0  0  0  0  0  0  0
  146.2913  142.5692  152.8346 H   0  0  0  0  0  0  0  0  0  0  0  0
  147.2884  143.8785  153.4175 H   0  0  0  0  0  0  0  0  0  0  0  0
  148.5308  141.7094  152.9489 H   0  0  0  0  0  0  0  0  0  0  0  0
  148.8045  142.3956  154.5429 H   0  0  0  0  0  0  0  0  0  0  0  0
  148.5960  139.3264  153.3687 H   0  0  0  0  0  0  0  0  0  0  0  0
  148.3894  137.5491  155.1364 H   0  0  0  0  0  0  0  0  0  0  0  0
  146.8225  138.1677  154.6282 H   0  0  0  0  0  0  0  0  0  0  0  0
  147.5102  138.6832  156.1628 H   0  0  0  0  0  0  0  0  0  0  0  0
  148.7710  140.4490  156.7356 H   0  0  0  0  0  0  0  0  0  0  0  0
  149.9962  142.7579  157.7196 H   0  0  0  0  0  0  0  0  0  0  0  0
  153.5990  141.5306  159.6310 H   0  0  0  0  0  0  0  0  0  0  0  0
  1  2  1  0  0  0  0
  1 22  1  0  0  0  0
  1 23  1  0  0  0  0
  1 24  1  0  0  0  0
  2  3  1  0  0  0  0
  2 25  1  0  0  0  0
  2 26  1  0  0  0  0
  3  4  1  0  0  0  0
  3 27  1  0  0  0  0
  3 28  1  0  0  0  0
  4  5  1  0  0  0  0
  4 29  1  0  0  0  0
  4 30  1  0  0  0  0
  5  6  1  0  0  0  0
  6  7  1  0  0  0  0
  6  8  1  0  0  0  0
  6 31  1  0  0  0  0
  7 32  1  0  0  0  0
  7 33  1  0  0  0  0
  7 34  1  0  0  0  0
  8  9  2  0  0  0  0
  8 10  1  0  0  0  0
 10 11  1  0  0  0  0
 10 35  1  0  0  0  0
 11 20  1  0  0  0  0
 11 12  2  0  0  0  0
 12 13  1  0  0  0  0
 12 36  1  0  0  0  0
 13 14  1  0  0  0  0
 13 18  2  0  0  0  0
 14 15  1  0  0  0  0
 14 16  1  0  0  0  0
 14 17  1  0  0  0  0
 18 19  1  0  0  0  0
 18 37  1  0  0  0  0
 19 20  1  0  0  0  0
 20 21  2  0  0  0  0
M  CHG  1  19  -1
M  END
> <s_m_source_file>
AV-unprocessed.smi

> <i_m_source_file_index>
1723

> <i_lp_mmshare_version>
43012

> <i_f3d_flags>
0

> <s_epik_input>
W0NIM11bQ0gyXVtDSDJdW0NIMl1PW0NASF0oW0NIM10pQyg9TylbTkhdYzFbY0hdYyhDKEYpKEYpRilbY0hdW25IXWMxPU8=

> <s_epik_cmdline>
J2VwaWtfcHl0aG9uJywgJy1waCcsICc3LjAnLCAnLXRuJywgJzgnLCAnLW1hJywgJzIwMCcsICctbWV0YWxfYmluZGluZycsICctaW1hZScsICc8aW5maWxlLm1hZT4nLCAnLW9tYWUnLCAnPG91dGZpbGUubWFlPic=

> <r_lp_tautomer_probability>
0.999

> <r_epik_Ionization_Penalty>
2.64397

> <r_epik_Ionization_Penalty_Charging>
0.0618254

> <r_epik_Ionization_Penalty_Neutral>
2.58215

> <r_epik_State_Penalty>
2.58023

> <r_epik_Charging_Adjusted_Penalty>
2.64205

> <i_epik_Tot_Q>
-1

> <i_epik_Tot_abs_Q>
1

> <r_epik_Metal_State_Penalty>
0.429101

> <b_epik_Metal_Only>
1

> <s_lp_Force_Field>
OPLS_2005

> <r_lp_Energy>
21.4098

> <b_lp_Chiralities_Consistent>
1

> <s_lp_Variant>
AV-unprocessed.smi:1723-3

> <Gold.Version>
5.8.1

> <Gold.Id.Protein>
6NUR|6NUR_protein|mol2

> <Gold.PLP.Fitness>
46.0220

> <Gold.PLP.PLP>
-38.9742

> <Gold.PLP.part.hbond>
-2.0000

> <Gold.PLP.part.metal>
0.0000

> <Gold.PLP.part.buried>
-6.5263

> <Gold.PLP.part.nonpolar>
-29.3724

> <Gold.PLP.part.repulsive>
0.2911

> <Gold.PLP.ligand.clash>
0.0000

> <Gold.PLP.ligand.torsion>
1.0726

> <Gold.PLP.Chemscore.Hbond>
3.0000

> <Gold.PLP.Chemscore.CHOScore>
0.0000

> <Gold.PLP.Chemscore.Metal>
0.0000

> <Gold.Chemscore.Hbonds>
donor molecule, donor type, donor heavy atom, donor atom, acceptor molecule, acceptor atom, score
      P1  H  7989  7998       L1     9  1.00
      P1  H  7997  8008       L1    19  1.01

> <Gold.PLP.Chemscore.Internal.Correction>
0.1931

> <Gold.Rescore>
     Score         DG    S(hbond)    S(metal)    S(lipo)     H(rot)  DE(clash)    DE(int)     intcor
     10.14     -13.86       1.59        0.00      68.80       1.95       0.21       3.51       ----

> <Gold.Chemscore.Fitness>
10.1416

> <Gold.Chemscore.DG>
-13.8584

> <Gold.Chemscore.ZeroCoef>
-5.4800

> <Gold.Chemscore.Hbond>
1.5937

> <Gold.Chemscore.Metal>
0.0000

> <Gold.Chemscore.Lipo>
68.7985

> <Gold.Chemscore.Internal_Hbond>
0.0000

> <Gold.Chemscore.DEClash>
0.2079

> <Gold.Chemscore.DEInternal>
3.5088

> <Gold.Chemscore.Rot>
1.9507

> <Gold.Chemscore.Internal.Correction>
   9.000000E+99

> <Gold.Chemscore.Hbonds>
donor molecule, donor type, donor heavy atom, donor atom, acceptor molecule, acceptor atom, score
      P1  H  7989  7998       L1     9  1.00
      P1  H  7997  8008       L1    19  0.07

> <Gold.Chemscore.Hbond.Weighted>
-5.3228

> <Gold.Chemscore.Metal.Weighted>
-0.0000

> <Gold.Chemscore.Lipo.Weighted>
-8.0494

> <Gold.Chemscore.Internal_Hbond.Weighted>
0.0000

> <Gold.Chemscore.DEClash.Weighted>
0.2079

> <Gold.Chemscore.DEInternal.Weighted>
3.5088

> <Gold.Chemscore.Rot.Weighted>
4.9939

> <Gold.Chemscore.Internal.Correction.Weighted>
   9.000000E+99

> <Gold.Protein.RotatedTorsions>
[ 6907 6896 6895 6894 ] final   19.36 input  -60.11 | X-H torsion
[ 7974 7965 7964 7962 ] final   38.44 input  175.53 | X-H torsion
[ 8008 7997 7996 7995 ] final  -75.63 input   59.86 | X-H torsion
[ 10167 10162 10161 10158 ] final  -17.77 input  -65.29 | X-H torsion
[ 10718 10713 10712 10709 ] final  -74.20 input   66.30 | X-H torsion
[ 10763 10752 10751 10750 ] final -175.88 input  -60.55 | X-H torsion
[ 11005 11000 10999 10996 ] final   57.06 input  -57.11 | X-H torsion

> <Gold.Protein.ActiveResidues>
 VAL166  LYS551  ARG553  GLY616  TRP617  ASP618  TYR619  PRO620  LYS621  CYS622 
 ASP623  PHE694  ASN695  SER759  ASP760  ASP761  ALA762  ILE779  LEU786  VAL792 
 PHE793  MET794  SER795  GLU796  ALA797  LYS798  CYS799  TRP800  GLU811  SER814 

> <Gold.Protein.RotatedAtoms>
  151.8797  135.0458  160.0487 H   0  0  0  0  0  0  0  0  0  0  0  0  # atno 6907 bound_to 6896
  152.2523  133.5221  159.5341 H   0  0  0  0  0  0  0  0  0  0  0  0  # atno 6908 bound_to 6896
  150.7088  134.0860  159.3957 H   0  0  0  0  0  0  0  0  0  0  0  0  # atno 6909 bound_to 6896
  146.1062  139.5772  142.9382 H   0  0  0  0  0  0  0  0  0  0  0  0  # atno 7974 bound_to 7965
  154.5434  140.0741  156.8548 H   0  0  0  0  0  0  0  0  0  0  0  0  # atno 8008 bound_to 7997
  155.3135  140.3391  155.4225 H   0  0  0  0  0  0  0  0  0  0  0  0  # atno 8009 bound_to 7997
  156.1895  140.1681  156.8105 H   0  0  0  0  0  0  0  0  0  0  0  0  # atno 8010 bound_to 7997
  140.7251  143.4982  150.9903 H   0  0  0  0  0  0  0  0  0  0  0  0  # atno 10167 bound_to 10162
  156.0251  130.4411  150.2856 H   0  0  0  0  0  0  0  0  0  0  0  0  # atno 10718 bound_to 10713
  154.5791  135.2834  155.0751 H   0  0  0  0  0  0  0  0  0  0  0  0  # atno 10763 bound_to 10752
  154.2094  135.6410  153.5114 H   0  0  0  0  0  0  0  0  0  0  0  0  # atno 10764 bound_to 10752
  153.0082  135.5488  154.6439 H   0  0  0  0  0  0  0  0  0  0  0  0  # atno 10765 bound_to 10752
  140.0481  134.5776  155.9297 H   0  0  0  0  0  0  0  0  0  0  0  0  # atno 11005 bound_to 11000
  145.5756  141.0389  143.2150 LP  0  0  0  0  0  0  0  0  0  0  0  0  # atno 17320 bound_to 7965
  144.7473  139.7287  143.7287 LP  0  0  0  0  0  0  0  0  0  0  0  0  # atno 17321 bound_to 7965
  139.8690  143.7217  152.3168 LP  0  0  0  0  0  0  0  0  0  0  0  0  # atno 17342 bound_to 10162
  139.7459  144.7547  151.0581 LP  0  0  0  0  0  0  0  0  0  0  0  0  # atno 17343 bound_to 10162
  157.0959  131.0182  151.3104 LP  0  0  0  0  0  0  0  0  0  0  0  0  # atno 17370 bound_to 10713
  157.4817  130.7769  149.7421 LP  0  0  0  0  0  0  0  0  0  0  0  0  # atno 17371 bound_to 10713
  141.1917  133.6572  156.5468 LP  0  0  0  0  0  0  0  0  0  0  0  0  # atno 17394 bound_to 11000
  140.3961  134.7398  157.4751 LP  0  0  0  0  0  0  0  0  0  0  0  0  # atno 17395 bound_to 11000

$$$$
