AV-unprocessed.smi:2399|AV-procd|sdf|9499|dock5
  -GOLD-   2272013133D 1   1.00000     0.00000
 Structure written by MMmdl.
 53 55  0  0  0  0  0  0  0  0  2 V2000
  146.1411  133.3182  151.8667 C   0  0  0  0  0  0  0  0  0  0  0  0
  147.2879  133.7135  152.6051 O   0  0  0  0  0  0  0  0  0  0  0  0
  148.1065  132.7267  153.1190 C   0  0  0  0  0  0  0  0  0  0  0  0
  147.8307  131.3401  153.0054 C   0  0  0  0  0  0  0  0  0  0  0  0
  148.7259  130.4096  153.5611 C   0  0  0  0  0  0  0  0  0  0  0  0
  149.8713  130.8980  154.2141 C   0  0  0  0  0  0  0  0  0  0  0  0
  150.8800  129.9533  154.8327 C   0  0  0  0  0  0  0  0  0  0  0  0
  150.1449  132.2131  154.3270 N   0  0  0  0  0  0  0  0  0  0  0  0
  149.2894  133.1214  153.7959 C   0  0  0  0  0  0  0  0  0  0  0  0
  149.5067  134.5243  153.8782 N   0  0  0  0  0  0  0  0  0  0  0  0
  150.0385  135.2290  154.8917 C   0  0  0  0  0  0  0  0  0  0  0  0
  150.4509  134.7569  155.9518 O   0  0  0  0  0  0  0  0  0  0  0  0
  150.0784  136.5382  154.6037 N   0  0  0  0  0  0  0  0  0  0  0  0
  150.6140  137.5729  155.4833 C   0  0  2  0  0  0  0  0  0  0  0  0
  149.7211  137.7225  156.7227 C   0  0  0  0  0  0  0  0  0  0  0  0
  150.2136  138.8625  157.6301 C   0  0  0  0  0  0  0  0  0  0  0  0
  150.2889  140.1558  156.8945 N   0  3  1  0  0  0  0  0  0  0  0  0
  150.6553  141.3081  157.7687 C   0  0  0  0  0  0  0  0  0  0  0  0
  150.9815  142.5970  157.0010 C   0  0  0  0  0  0  0  0  0  0  0  0
  151.7612  143.4571  157.9973 C   0  0  0  0  0  0  0  0  0  0  0  0
  152.4670  142.4739  158.9396 C   0  0  0  0  0  0  0  0  0  0  0  0
  151.9409  141.0788  158.5797 C   0  0  0  0  0  0  0  0  0  0  0  0
  151.1705  140.0377  155.6997 C   0  0  0  0  0  0  0  0  0  0  0  0
  150.6962  138.9235  154.7535 C   0  0  0  0  0  0  0  0  0  0  0  0
  145.6127  134.2066  151.5213 H   0  0  0  0  0  0  0  0  0  0  0  0
  145.4491  132.7419  152.4821 H   0  0  0  0  0  0  0  0  0  0  0  0
  146.4150  132.7350  150.9866 H   0  0  0  0  0  0  0  0  0  0  0  0
  146.9498  130.9701  152.5032 H   0  0  0  0  0  0  0  0  0  0  0  0
  148.5350  129.3494  153.4852 H   0  0  0  0  0  0  0  0  0  0  0  0
  150.4843  128.9390  154.8942 H   0  0  0  0  0  0  0  0  0  0  0  0
  151.1401  130.2769  155.8411 H   0  0  0  0  0  0  0  0  0  0  0  0
  151.7906  129.9298  154.2338 H   0  0  0  0  0  0  0  0  0  0  0  0
  149.2292  135.0485  153.0615 H   0  0  0  0  0  0  0  0  0  0  0  0
  149.7166  136.8389  153.7103 H   0  0  0  0  0  0  0  0  0  0  0  0
  151.6135  137.2814  155.8130 H   0  0  0  0  0  0  0  0  0  0  0  0
  148.6918  137.9205  156.4193 H   0  0  0  0  0  0  0  0  0  0  0  0
  149.7034  136.7877  157.2846 H   0  0  0  0  0  0  0  0  0  0  0  0
  149.5279  138.9385  158.4730 H   0  0  0  0  0  0  0  0  0  0  0  0
  151.1949  138.6193  158.0411 H   0  0  0  0  0  0  0  0  0  0  0  0
  149.8325  141.5096  158.4574 H   0  0  0  0  0  0  0  0  0  0  0  0
  151.6146  142.3721  156.1413 H   0  0  0  0  0  0  0  0  0  0  0  0
  150.0931  143.1141  156.6371 H   0  0  0  0  0  0  0  0  0  0  0  0
  152.4612  144.1271  157.4971 H   0  0  0  0  0  0  0  0  0  0  0  0
  151.0687  144.0760  158.5691 H   0  0  0  0  0  0  0  0  0  0  0  0
  153.5509  142.5202  158.8273 H   0  0  0  0  0  0  0  0  0  0  0  0
  152.2373  142.7190  159.9773 H   0  0  0  0  0  0  0  0  0  0  0  0
  151.7741  140.4710  159.4696 H   0  0  0  0  0  0  0  0  0  0  0  0
  152.6821  140.5657  157.9646 H   0  0  0  0  0  0  0  0  0  0  0  0
  151.1858  140.9718  155.1397 H   0  0  0  0  0  0  0  0  0  0  0  0
  152.1956  139.8454  156.0206 H   0  0  0  0  0  0  0  0  0  0  0  0
  151.3774  138.8526  153.9047 H   0  0  0  0  0  0  0  0  0  0  0  0
  149.7193  139.1858  154.3442 H   0  0  0  0  0  0  0  0  0  0  0  0
  149.3585  140.3440  156.5494 H   0  0  0  0  0  0  0  0  0  0  0  0
  1  2  1  0  0  0  0
  1 25  1  0  0  0  0
  1 26  1  0  0  0  0
  1 27  1  0  0  0  0
  2  3  1  0  0  0  0
  3  9  1  0  0  0  0
  3  4  2  0  0  0  0
  4  5  1  0  0  0  0
  4 28  1  0  0  0  0
  5  6  2  0  0  0  0
  5 29  1  0  0  0  0
  6  7  1  0  0  0  0
  6  8  1  0  0  0  0
  7 30  1  0  0  0  0
  7 31  1  0  0  0  0
  7 32  1  0  0  0  0
  8  9  2  0  0  0  0
  9 10  1  0  0  0  0
 10 11  1  0  0  0  0
 10 33  1  0  0  0  0
 11 12  2  0  0  0  0
 11 13  1  0  0  0  0
 13 14  1  0  0  0  0
 13 34  1  0  0  0  0
 14 24  1  0  0  0  0
 14 15  1  0  0  0  0
 14 35  1  0  0  0  0
 15 16  1  0  0  0  0
 15 36  1  0  0  0  0
 15 37  1  0  0  0  0
 16 17  1  0  0  0  0
 16 38  1  0  0  0  0
 16 39  1  0  0  0  0
 17 18  1  0  0  0  0
 17 23  1  0  0  0  0
 17 53  1  0  0  0  0
 18 22  1  0  0  0  0
 18 19  1  0  0  0  0
 18 40  1  0  0  0  0
 19 20  1  0  0  0  0
 19 41  1  0  0  0  0
 19 42  1  0  0  0  0
 20 21  1  0  0  0  0
 20 43  1  0  0  0  0
 20 44  1  0  0  0  0
 21 22  1  0  0  0  0
 21 45  1  0  0  0  0
 21 46  1  0  0  0  0
 22 47  1  0  0  0  0
 22 48  1  0  0  0  0
 23 24  1  0  0  0  0
 23 49  1  0  0  0  0
 23 50  1  0  0  0  0
 24 51  1  0  0  0  0
 24 52  1  0  0  0  0
M  CHG  1  17   1
M  END
> <s_m_source_file>
AV-unprocessed.smi

> <i_m_source_file_index>
2399

> <i_lp_mmshare_version>
43012

> <i_f3d_flags>
0

> <s_epik_input>
W0NIM11PYzFbY0hdW2NIXWMoW0NIM10pbmMxW05IXUMoPU8pW05IXVtDSF0yW0NIMl1bQ0gyXU4oW0NIMl1bQ0gyXTIpW0NIXTNbQ0gyXVtDSDJdW0NIMl1bQ0gyXTM=

> <s_epik_cmdline>
J2VwaWtfcHl0aG9uJywgJy1waCcsICc3LjAnLCAnLXRuJywgJzgnLCAnLW1hJywgJzIwMCcsICctbWV0YWxfYmluZGluZycsICctaW1hZScsICc8aW5maWxlLm1hZT4nLCAnLW9tYWUnLCAnPG91dGZpbGUubWFlPic=

> <r_lp_tautomer_probability>
1

> <r_epik_Ionization_Penalty>
0.00183805

> <r_epik_Ionization_Penalty_Charging>
0.00179121

> <r_epik_Ionization_Penalty_Neutral>
4.68398e-05

> <r_epik_State_Penalty>
0.00121448

> <r_epik_Charging_Adjusted_Penalty>
0.0030057

> <i_epik_Tot_Q>
1

> <i_epik_Tot_abs_Q>
1

> <r_epik_Metal_State_Penalty>
-0

> <b_epik_Metal_Only>
0

> <s_lp_Force_Field>
OPLS_2005

> <r_lp_Energy>
41.4811

> <b_lp_Chiralities_Consistent>
1

> <s_lp_Variant>
AV-unprocessed.smi:2399-1

> <Gold.Version>
5.8.1

> <Gold.Id.Protein>
6NUR|6NUR_protein|mol2

> <Gold.PLP.Fitness>
43.6911

> <Gold.PLP.PLP>
-39.8681

> <Gold.PLP.part.hbond>
-2.0000

> <Gold.PLP.part.metal>
0.0000

> <Gold.PLP.part.buried>
-3.7826

> <Gold.PLP.part.nonpolar>
-34.6829

> <Gold.PLP.part.repulsive>
0.2929

> <Gold.PLP.ligand.clash>
0.0000

> <Gold.PLP.ligand.torsion>
0.4929

> <Gold.PLP.Chemscore.Hbond>
1.5823

> <Gold.PLP.Chemscore.CHOScore>
0.0000

> <Gold.PLP.Chemscore.Metal>
0.0000

> <Gold.Chemscore.Hbonds>
donor molecule, donor type, donor heavy atom, donor atom, acceptor molecule, acceptor atom, score
      L1  H    10    33       P1  7948  0.55
      L1  H    13    34       P1  7948  0.84

> <Gold.PLP.Chemscore.Internal.Correction>
0.0617

> <Gold.Rescore>
     Score         DG    S(hbond)    S(metal)    S(lipo)     H(rot)  DE(clash)    DE(int)     intcor
     17.13     -17.83       1.42        0.00      95.18       1.38       0.06       0.65       ----

> <Gold.Chemscore.Fitness>
17.1266

> <Gold.Chemscore.DG>
-17.8327

> <Gold.Chemscore.ZeroCoef>
-5.4800

> <Gold.Chemscore.Hbond>
1.4240

> <Gold.Chemscore.Metal>
0.0000

> <Gold.Chemscore.Lipo>
95.1849

> <Gold.Chemscore.Internal_Hbond>
0.0000

> <Gold.Chemscore.DEClash>
0.0580

> <Gold.Chemscore.DEInternal>
0.6481

> <Gold.Chemscore.Rot>
1.3828

> <Gold.Chemscore.Internal.Correction>
   9.000000E+99

> <Gold.Chemscore.Hbonds>
donor molecule, donor type, donor heavy atom, donor atom, acceptor molecule, acceptor atom, score
      L1  H    10    33       P1  7948  0.03
      L1  H    13    34       P1  7948  0.52

> <Gold.Chemscore.Hbond.Weighted>
-4.7560

> <Gold.Chemscore.Metal.Weighted>
-0.0000

> <Gold.Chemscore.Lipo.Weighted>
-11.1366

> <Gold.Chemscore.Internal_Hbond.Weighted>
0.0000

> <Gold.Chemscore.DEClash.Weighted>
0.0580

> <Gold.Chemscore.DEInternal.Weighted>
0.6481

> <Gold.Chemscore.Rot.Weighted>
3.5399

> <Gold.Chemscore.Internal.Correction.Weighted>
   9.000000E+99

> <Gold.Protein.RotatedTorsions>
[ 6907 6896 6895 6894 ] final -119.20 input  -60.11 | X-H torsion
[ 7974 7965 7964 7962 ] final -102.67 input  175.53 | X-H torsion
[ 8008 7997 7996 7995 ] final  -35.03 input   59.86 | X-H torsion
[ 10167 10162 10161 10158 ] final    0.75 input  -65.29 | X-H torsion
[ 10718 10713 10712 10709 ] final  -99.33 input   66.30 | X-H torsion
[ 10763 10752 10751 10750 ] final  150.01 input  -60.55 | X-H torsion
[ 11005 11000 10999 10996 ] final  179.98 input  -57.11 | X-H torsion

> <Gold.Protein.ActiveResidues>
 VAL166  LYS551  ARG553  GLY616  TRP617  ASP618  TYR619  PRO620  LYS621  CYS622 
 ASP623  PHE694  ASN695  SER759  ASP760  ASP761  ALA762  ILE779  LEU786  VAL792 
 PHE793  MET794  SER795  GLU796  ALA797  LYS798  CYS799  TRP800  GLU811  SER814 

> <Gold.Protein.RotatedAtoms>
  150.8285  133.8131  159.3108 H   0  0  0  0  0  0  0  0  0  0  0  0  # atno 6907 bound_to 6896
  151.5868  135.1054  160.0039 H   0  0  0  0  0  0  0  0  0  0  0  0  # atno 6908 bound_to 6896
  152.4367  133.7333  159.6656 H   0  0  0  0  0  0  0  0  0  0  0  0  # atno 6909 bound_to 6896
  145.2657  140.9283  143.3015 H   0  0  0  0  0  0  0  0  0  0  0  0  # atno 7974 bound_to 7965
  154.4105  140.1668  156.2145 H   0  0  0  0  0  0  0  0  0  0  0  0  # atno 8008 bound_to 7997
  155.9415  140.3407  155.6308 H   0  0  0  0  0  0  0  0  0  0  0  0  # atno 8009 bound_to 7997
  155.6982  140.0742  157.2411 H   0  0  0  0  0  0  0  0  0  0  0  0  # atno 8010 bound_to 7997
  140.6714  143.7037  150.7931 H   0  0  0  0  0  0  0  0  0  0  0  0  # atno 10167 bound_to 10162
  156.0131  130.5277  150.6654 H   0  0  0  0  0  0  0  0  0  0  0  0  # atno 10718 bound_to 10713
  154.0806  135.2860  155.3291 H   0  0  0  0  0  0  0  0  0  0  0  0  # atno 10763 bound_to 10752
  154.6686  135.5308  153.8113 H   0  0  0  0  0  0  0  0  0  0  0  0  # atno 10764 bound_to 10752
  153.0450  135.6552  154.0981 H   0  0  0  0  0  0  0  0  0  0  0  0  # atno 10765 bound_to 10752
  140.4122  134.6682  157.4620 H   0  0  0  0  0  0  0  0  0  0  0  0  # atno 11005 bound_to 11000
  144.9379  139.4222  143.6463 LP  0  0  0  0  0  0  0  0  0  0  0  0  # atno 17320 bound_to 7965
  146.3262  139.8324  142.8906 LP  0  0  0  0  0  0  0  0  0  0  0  0  # atno 17321 bound_to 7965
  140.0723  143.5049  152.2573 LP  0  0  0  0  0  0  0  0  0  0  0  0  # atno 17342 bound_to 10162
  139.5984  144.7575  151.3229 LP  0  0  0  0  0  0  0  0  0  0  0  0  # atno 17343 bound_to 10162
  157.4388  131.0858  151.0965 LP  0  0  0  0  0  0  0  0  0  0  0  0  # atno 17370 bound_to 10713
  157.1515  130.6186  149.5584 LP  0  0  0  0  0  0  0  0  0  0  0  0  # atno 17371 bound_to 10713
  140.0259  134.6477  155.9173 LP  0  0  0  0  0  0  0  0  0  0  0  0  # atno 17394 bound_to 11000
  141.1817  133.6547  156.5046 LP  0  0  0  0  0  0  0  0  0  0  0  0  # atno 17395 bound_to 11000

$$$$
