#       Name:                AV-unprocessed.smi:1224
#       Creating user name   scv26
#       Creation time:       Fri Mar 27 04:18:34 2020


#       File generated by GOLD software.
#

@<TRIPOS>MOLECULE
AV-unprocessed.smi:1224
    47    49     1
SMALL
NO_CHARGES


@<TRIPOS>ATOM
      1 ****        -3.2764   4.6753   3.0315 C.3            1 S1                 0.0000
      2 ****        -2.8077   3.6000   2.0672 C.ar           1 S1                 0.0000
      3 ****        -2.8618   3.8523   0.6778 C.ar           1 S1                 0.0000
      4 ****        -2.4293   2.8815  -0.2518 C.ar           1 S1                 0.0000
      5 ****        -2.3905   2.9149  -1.6351 N.2            1 S1                 0.0000
      6 ****        -1.8829   1.7191  -1.9187 C.2            1 S1                 0.0000
      7 ****        -1.5808   0.9160  -0.8800 N.pl3          1 S1                 0.0000
      8 ****        -1.0082  -0.4170  -0.9383 C.3            1 S1                 0.0000
      9 ****         0.4782  -0.4332  -0.5320 C.3            1 S1                 0.0000
     10 ****         1.2073   0.4227  -1.3914 O.3            1 S1                 0.0000
     11 ****         1.0844  -1.8427  -0.6159 C.3            1 S1                 0.0000
     12 ****         2.4460  -1.8707  -0.0401 N.4            1 S1                 1.0000
     13 ****         3.1344  -3.1749  -0.1253 C.3            1 S1                 0.0000
     14 ****         3.4866  -3.5398  -1.5311 C.2            1 S1                 0.0000
     15 ****         2.9065  -4.4999  -2.3213 C.2            1 S1                 0.0000
     16 ****         3.4786  -4.5730  -3.6252 C.2            1 S1                 0.0000
     17 ****         4.4885  -3.6672  -3.8133 C.2            1 S1                 0.0000
     18 ****         4.7590  -2.7046  -2.3870 S.3            1 S1                 0.0000
     19 ****        -1.9356   1.6424   0.2512 C.ar           1 S1                 0.0000
     20 ****        -1.8819   1.3771   1.6309 C.ar           1 S1                 0.0000
     21 ****        -2.3186   2.3578   2.5457 C.ar           1 S1                 0.0000
     22 ****        -2.2547   2.0632   4.0340 C.3            1 S1                 0.0000
     23 ****        -3.6632   5.5453   2.5001 H              1 S1                 0.0000
     24 ****        -2.4509   5.0072   3.6615 H              1 S1                 0.0000
     25 ****        -4.0715   4.2959   3.6735 H              1 S1                 0.0000
     26 ****        -3.2352   4.7980   0.3132 H              1 S1                 0.0000
     27 ****        -1.7123   1.4122  -2.9404 H              1 S1                 0.0000
     28 ****        -1.5883  -1.0645  -0.2794 H              1 S1                 0.0000
     29 ****        -1.1327  -0.8076  -1.9495 H              1 S1                 0.0000
     30 ****         0.5738  -0.0569   0.4876 H              1 S1                 0.0000
     31 ****         0.8347   1.2904  -1.3383 H              1 S1                 0.0000
     32 ****         0.4631  -2.5479  -0.0621 H              1 S1                 0.0000
     33 ****         1.1014  -2.1797  -1.6533 H              1 S1                 0.0000
     34 ****         3.0077  -1.1818  -0.5204 H              1 S1                 0.0000
     35 ****         4.0444  -3.1190   0.4725 H              1 S1                 0.0000
     36 ****         2.5118  -3.9474   0.3281 H              1 S1                 0.0000
     37 ****         2.0970  -5.1453  -2.0134 H              1 S1                 0.0000
     38 ****         3.1344  -5.2767  -4.3688 H              1 S1                 0.0000
     39 ****         5.0877  -3.5077  -4.6981 H              1 S1                 0.0000
     40 ****        -1.5065   0.4276   1.9821 H              1 S1                 0.0000
     41 ****        -1.8409   1.0730   4.2267 H              1 S1                 0.0000
     42 ****        -3.2518   2.0999   4.4732 H              1 S1                 0.0000
     43 ****        -1.6249   2.7938   4.5420 H              1 S1                 0.0000
     44 ****         2.3797  -1.6083   0.9329 H              1 S1                 0.0000
     45 ****        -2.6705   3.6459  -2.2574 LP             1 S1                 0.0000
     46 ****         1.1477   0.0871  -2.3315 LP             1 S1                 0.0000
     47 ****         2.1657   0.4493  -1.1072 LP             1 S1                 0.0000
@<TRIPOS>BOND
    1    1    2 1     
    2    1   23 1     
    3    1   24 1     
    4    1   25 1     
    5    2   21 ar    
    6    2    3 ar    
    7    3    4 ar    
    8    3   26 1     
    9    4   19 ar    
   10    4    5 1     
   11    5    6 2     
   12    6    7 1     
   13    6   27 1     
   14    7    8 1     
   15    7   19 1     
   16    8    9 1     
   17    8   28 1     
   18    8   29 1     
   19    9   10 1     
   20    9   11 1     
   21    9   30 1     
   22   10   31 1     
   23   11   12 1     
   24   11   32 1     
   25   11   33 1     
   26   12   13 1     
   27   12   34 1     
   28   12   44 1     
   29   13   14 1     
   30   13   35 1     
   31   13   36 1     
   32   14   18 1     
   33   14   15 2     
   34   15   16 1     
   35   15   37 1     
   36   16   17 2     
   37   16   38 1     
   38   17   18 1     
   39   17   39 1     
   40   19   20 ar    
   41   20   21 ar    
   42   20   40 1     
   43   21   22 1     
   44   22   41 1     
   45   22   42 1     
   46   22   43 1     
   47    5   45 1     
   48   10   46 1     
   49   10   47 1     
@<TRIPOS>SUBSTRUCTURE
      1 S1             1
@<TRIPOS>SET
LONE_PAIRS      STATIC     ATOMS    <user>   **** ""
3 45 46 47
DONOR_HYDROGENS      STATIC     ATOMS    <user>   **** ""
3 31 34 44
ATOM$BLUE        STATIC     ATOMS    COLORGROUP SYSTEM
3 45 46 47
ATOM$RED        STATIC     ATOMS    COLORGROUP SYSTEM
3 31 34 44
