AV-unprocessed.smi:157|AV-procd|sdf|1295|dock8
  -GOLD-   2262018583D 1   1.00000     0.00000
 Structure written by MMmdl.
 35 37  0  0  0  0  0  0  0  0  1 V2000
  148.2845  142.8961  154.3685 O   0  0  0  0  0  0  0  0  0  0  0  0
  147.8488  141.5559  154.2827 C   0  0  0  0  0  0  0  0  0  0  0  0
  149.0506  140.6204  154.0809 C   0  0  1  0  0  0  0  0  0  0  0  0
  150.0668  140.9499  155.0179 O   0  0  0  0  0  0  0  0  0  0  0  0
  150.8616  139.8264  155.1764 C   0  0  1  0  0  0  0  0  0  0  0  0
  151.6263  139.9531  156.4577 N   0  0  0  0  0  0  0  0  0  0  0  0
  152.5181  139.0648  156.9127 C   0  0  0  0  0  0  0  0  0  0  0  0
  153.0733  139.3846  158.0689 N   0  0  0  0  0  0  0  0  0  0  0  0
  152.4926  140.6093  158.3932 C   0  0  0  0  0  0  0  0  0  0  0  0
  151.5960  140.9865  157.4033 C   0  0  0  0  0  0  0  0  0  0  0  0
  150.7515  142.0594  157.1855 N   0  0  0  0  0  0  0  0  0  0  0  0
  150.9624  143.1503  157.8514 C   0  0  0  0  0  0  0  0  0  0  0  0
  151.8709  143.4203  158.8644 N   0  0  0  0  0  0  0  0  0  0  0  0
  152.0693  142.5508  160.0112 C   0  0  0  0  0  0  0  0  0  0  0  0
  152.8632  141.2805  159.6844 C   0  0  2  0  0  0  0  0  0  0  0  0
  154.2379  141.5979  159.6064 O   0  0  0  0  0  0  0  0  0  0  0  0
  149.9105  138.6325  155.1971 C   0  0  0  0  0  0  0  0  0  0  0  0
  148.7314  139.1398  154.3732 C   0  0  2  0  0  0  0  0  0  0  0  0
  148.6134  138.4038  153.1723 O   0  0  0  0  0  0  0  0  0  0  0  0
  149.4614  140.7214  153.0737 H   0  0  0  0  0  0  0  0  0  0  0  0
  151.6073  139.7705  154.3813 H   0  0  0  0  0  0  0  0  0  0  0  0
  152.7478  140.5794  160.5117 H   0  0  0  0  0  0  0  0  0  0  0  0
  147.8115  139.0354  154.9501 H   0  0  0  0  0  0  0  0  0  0  0  0
  148.6486  143.0393  155.2286 H   0  0  0  0  0  0  0  0  0  0  0  0
  147.2796  141.2821  155.1718 H   0  0  0  0  0  0  0  0  0  0  0  0
  147.1732  141.4875  153.4297 H   0  0  0  0  0  0  0  0  0  0  0  0
  152.7623  138.1550  156.3843 H   0  0  0  0  0  0  0  0  0  0  0  0
  150.3493  144.0231  157.6222 H   0  0  0  0  0  0  0  0  0  0  0  0
  152.0583  144.3845  159.0983 H   0  0  0  0  0  0  0  0  0  0  0  0
  152.5433  143.1069  160.8207 H   0  0  0  0  0  0  0  0  0  0  0  0
  151.0818  142.2642  160.3761 H   0  0  0  0  0  0  0  0  0  0  0  0
  154.6498  140.9845  159.0169 H   0  0  0  0  0  0  0  0  0  0  0  0
  150.4019  137.7470  154.7919 H   0  0  0  0  0  0  0  0  0  0  0  0
  149.5916  138.4158  156.2168 H   0  0  0  0  0  0  0  0  0  0  0  0
  148.9114  138.9456  152.4576 H   0  0  0  0  0  0  0  0  0  0  0  0
  1  2  1  0  0  0  0
  1 24  1  0  0  0  0
  2  3  1  0  0  0  0
  2 25  1  0  0  0  0
  2 26  1  0  0  0  0
  3 20  1  0  0  0  0
  3 18  1  0  0  0  0
  3  4  1  0  0  0  0
  4  5  1  0  0  0  0
  5 21  1  0  0  0  0
  5  6  1  0  0  0  0
  5 17  1  0  0  0  0
  6 10  1  0  0  0  0
  6  7  1  0  0  0  0
  7  8  2  0  0  0  0
  7 27  1  0  0  0  0
  8  9  1  0  0  0  0
  9 15  1  0  0  0  0
  9 10  2  0  0  0  0
 10 11  1  0  0  0  0
 11 12  2  0  0  0  0
 12 13  1  0  0  0  0
 12 28  1  0  0  0  0
 13 14  1  0  0  0  0
 13 29  1  0  0  0  0
 14 15  1  0  0  0  0
 14 30  1  0  0  0  0
 14 31  1  0  0  0  0
 15 22  1  0  0  0  0
 15 16  1  0  0  0  0
 16 32  1  0  0  0  0
 17 18  1  0  0  0  0
 17 33  1  0  0  0  0
 17 34  1  0  0  0  0
 18 23  1  0  0  0  0
 18 19  1  0  0  0  0
 19 35  1  0  0  0  0
M  END
> <s_m_source_file>
AV-unprocessed.smi

> <i_m_source_file_index>
157

> <i_lp_mmshare_version>
43012

> <i_f3d_flags>
0

> <s_epik_input>
W09IXVtDSDJdW0NASF0xT1tDQEhdKFtDSDJdW0NAQEhdMVtPSF0pbihbY0hdbjIpYyhjMjMpTj1bQ0hdW05IXVtDSDJdW0NASF0zW09IXQ==

> <s_epik_cmdline>
J2VwaWtfcHl0aG9uJywgJy1waCcsICc3LjAnLCAnLXRuJywgJzgnLCAnLW1hJywgJzIwMCcsICctbWV0YWxfYmluZGluZycsICctaW1hZScsICc8aW5maWxlLm1hZT4nLCAnLW9tYWUnLCAnPG91dGZpbGUubWFlPic=

> <r_lp_tautomer_probability>
1

> <r_epik_Ionization_Penalty>
0.0357149

> <r_epik_Ionization_Penalty_Charging>
0.0355056

> <r_epik_Ionization_Penalty_Neutral>
0.000209255

> <r_epik_State_Penalty>
0.0296046

> <r_epik_Charging_Adjusted_Penalty>
0.0651102

> <i_epik_Tot_Q>
0

> <i_epik_Tot_abs_Q>
0

> <r_epik_Metal_State_Penalty>
3.03559e-05

> <b_epik_Metal_Only>
0

> <s_epik_Chemistry_Notes>
This compound has an imine and may undergo hydrolysis. This compound contains an acetal/aminal-like group ( X-CH(R)-Y where X, Y are N, S, or O) that may be acid/base labile, releasing an aldehyde.

> <s_lp_Force_Field>
OPLS_2005

> <r_lp_Energy>
44.773

> <b_lp_Chiralities_Consistent>
1

> <s_lp_Variant>
AV-unprocessed.smi:157-5

> <Gold.Version>
5.8.1

> <Gold.Id.Protein>
6NUR|6NUR_protein|mol2

> <Gold.PLP.Fitness>
44.2688

> <Gold.PLP.PLP>
-32.9210

> <Gold.PLP.part.hbond>
-6.1311

> <Gold.PLP.part.metal>
0.0000

> <Gold.PLP.part.buried>
-0.3894

> <Gold.PLP.part.nonpolar>
-26.1402

> <Gold.PLP.part.repulsive>
0.2094

> <Gold.PLP.ligand.clash>
0.0000

> <Gold.PLP.ligand.torsion>
0.1206

> <Gold.PLP.Chemscore.Hbond>
2.8579

> <Gold.PLP.Chemscore.CHOScore>
1.0000

> <Gold.PLP.Chemscore.Metal>
0.0000

> <Gold.Chemscore.Hbonds>
donor molecule, donor type, donor heavy atom, donor atom, acceptor molecule, acceptor atom, score
      L1  H     1    24       P1  8028  0.27
      L1  H    19    35       P1  7957  1.00
      P1  H  7997  8009       L1     8  0.67
      P1  H  8022  8030       L1     1  0.89
      L1  C    12    28       P1  8028  1.00

> <Gold.PLP.Chemscore.Internal.Correction>
0.0153

> <Gold.Rescore>
     Score         DG    S(hbond)    S(metal)    S(lipo)     H(rot)  DE(clash)    DE(int)     intcor
      6.36      -8.44       1.86        0.00      51.76       3.64       0.17       1.91       ----

> <Gold.Chemscore.Fitness>
6.3623

> <Gold.Chemscore.DG>
-8.4441

> <Gold.Chemscore.ZeroCoef>
-5.4800

> <Gold.Chemscore.Hbond>
1.8613

> <Gold.Chemscore.Metal>
0.0000

> <Gold.Chemscore.Lipo>
51.7612

> <Gold.Chemscore.Internal_Hbond>
0.0000

> <Gold.Chemscore.DEClash>
0.1670

> <Gold.Chemscore.DEInternal>
1.9148

> <Gold.Chemscore.Rot>
3.6362

> <Gold.Chemscore.Internal.Correction>
   9.000000E+99

> <Gold.Chemscore.Hbonds>
donor molecule, donor type, donor heavy atom, donor atom, acceptor molecule, acceptor atom, score
      L1  H     1    24       P1  8028  0.28
      L1  H    19    35       P1  7957  0.98
      P1  H  7997  8009       L1     8  0.02
      P1  H  8022  8030       L1     1  0.16

> <Gold.Chemscore.Hbond.Weighted>
-6.2168

> <Gold.Chemscore.Metal.Weighted>
-0.0000

> <Gold.Chemscore.Lipo.Weighted>
-6.0561

> <Gold.Chemscore.Internal_Hbond.Weighted>
0.0000

> <Gold.Chemscore.DEClash.Weighted>
0.1670

> <Gold.Chemscore.DEInternal.Weighted>
1.9148

> <Gold.Chemscore.Rot.Weighted>
9.3087

> <Gold.Chemscore.Internal.Correction.Weighted>
   9.000000E+99

> <Gold.Protein.RotatedTorsions>
[ 6907 6896 6895 6894 ] final   31.18 input  -60.11 | X-H torsion
[ 7974 7965 7964 7962 ] final -153.00 input  175.53 | X-H torsion
[ 8008 7997 7996 7995 ] final  136.95 input   59.86 | X-H torsion
[ 10167 10162 10161 10158 ] final  -54.83 input  -65.29 | X-H torsion
[ 10718 10713 10712 10709 ] final  171.99 input   66.30 | X-H torsion
[ 10763 10752 10751 10750 ] final  -64.66 input  -60.55 | X-H torsion
[ 11005 11000 10999 10996 ] final -105.14 input  -57.11 | X-H torsion

> <Gold.Protein.ActiveResidues>
 VAL166  LYS551  ARG553  GLY616  TRP617  ASP618  TYR619  PRO620  LYS621  CYS622 
 ASP623  PHE694  ASN695  SER759  ASP760  ASP761  ALA762  ILE779  LEU786  VAL792 
 PHE793  MET794  SER795  GLU796  ALA797  LYS798  CYS799  TRP800  GLU811  SER814 

> <Gold.Protein.RotatedAtoms>
  152.0566  134.9620  160.0574 H   0  0  0  0  0  0  0  0  0  0  0  0  # atno 6907 bound_to 6896
  152.1000  133.4240  159.4591 H   0  0  0  0  0  0  0  0  0  0  0  0  # atno 6908 bound_to 6896
  150.6839  134.2691  159.4624 H   0  0  0  0  0  0  0  0  0  0  0  0  # atno 6909 bound_to 6896
  144.7764  140.4586  143.5870 H   0  0  0  0  0  0  0  0  0  0  0  0  # atno 7974 bound_to 7965
  156.3003  140.2432  156.3829 H   0  0  0  0  0  0  0  0  0  0  0  0  # atno 8008 bound_to 7997
  154.8684  140.0417  157.1729 H   0  0  0  0  0  0  0  0  0  0  0  0  # atno 8009 bound_to 7997
  154.8821  140.2951  155.5423 H   0  0  0  0  0  0  0  0  0  0  0  0  # atno 8010 bound_to 7997
  140.6409  143.2507  151.4992 H   0  0  0  0  0  0  0  0  0  0  0  0  # atno 10167 bound_to 10162
  156.9854  131.0131  151.2871 H   0  0  0  0  0  0  0  0  0  0  0  0  # atno 10718 bound_to 10713
  154.3335  135.6171  153.5562 H   0  0  0  0  0  0  0  0  0  0  0  0  # atno 10763 bound_to 10752
  152.9809  135.5752  154.4935 H   0  0  0  0  0  0  0  0  0  0  0  0  # atno 10764 bound_to 10752
  154.4625  135.2856  155.1679 H   0  0  0  0  0  0  0  0  0  0  0  0  # atno 10765 bound_to 10752
  141.1068  133.8782  157.1697 H   0  0  0  0  0  0  0  0  0  0  0  0  # atno 11005 bound_to 11000
  145.6174  139.1520  143.3041 LP  0  0  0  0  0  0  0  0  0  0  0  0  # atno 17320 bound_to 7965
  146.1946  140.6287  142.9130 LP  0  0  0  0  0  0  0  0  0  0  0  0  # atno 17321 bound_to 7965
  139.5618  144.2138  152.1703 LP  0  0  0  0  0  0  0  0  0  0  0  0  # atno 17342 bound_to 10162
  140.1408  144.5204  150.6745 LP  0  0  0  0  0  0  0  0  0  0  0  0  # atno 17343 bound_to 10162
  157.5496  130.8174  149.8129 LP  0  0  0  0  0  0  0  0  0  0  0  0  # atno 17370 bound_to 10713
  156.0228  130.3790  150.1912 LP  0  0  0  0  0  0  0  0  0  0  0  0  # atno 17371 bound_to 10713
  139.9941  135.0053  157.0043 LP  0  0  0  0  0  0  0  0  0  0  0  0  # atno 17394 bound_to 11000
  140.4882  134.1220  155.7228 LP  0  0  0  0  0  0  0  0  0  0  0  0  # atno 17395 bound_to 11000

$$$$
