AV-unprocessed.smi:438|AV-procd|sdf|2564|dock1
  -GOLD-   2262022533D 1   1.00000     0.00000
 Structure written by MMmdl.
 48 49  0  0  0  0  0  0  0  0  1 V2000
  147.4059  136.7449  162.8160 C   0  0  0  0  0  0  0  0  0  0  0  0
  147.9075  136.2214  161.4816 C   0  0  0  0  0  0  0  0  0  0  0  0
  148.5542  137.1599  160.6687 N   0  0  0  0  0  0  0  0  0  0  0  0
  149.0214  136.8087  159.5133 C   0  0  0  0  0  0  0  0  0  0  0  0
  149.9155  137.8002  158.2777 S   0  0  0  0  0  0  0  0  0  0  0  0
  151.3370  138.4201  159.2286 C   0  0  0  0  0  0  0  0  0  0  0  0
  152.0767  139.5413  158.4996 C   0  0  0  0  0  0  0  0  0  0  0  0
  152.8326  139.2741  157.5662 O   0  0  0  0  0  0  0  0  0  0  0  0
  151.8680  140.7859  158.9561 N   0  0  0  0  0  0  0  0  0  0  0  0
  152.5391  142.0045  158.5040 C   0  0  1  0  0  0  0  0  0  0  0  0
  151.4931  143.0245  158.0123 C   0  0  0  0  0  0  0  0  0  0  0  0
  150.6486  143.5913  159.1661 C   0  0  0  0  0  0  0  0  0  0  0  0
  151.5375  144.2014  160.2595 C   0  0  0  0  0  0  0  0  0  0  0  0
  152.5741  143.1889  160.7710 C   0  0  0  0  0  0  0  0  0  0  0  0
  153.4270  142.6136  159.6210 C   0  0  1  0  0  0  0  0  0  0  0  0
  154.4907  141.6361  160.1497 C   0  0  0  0  0  0  0  0  0  0  0  0
  148.8822  135.4952  159.0656 N   0  0  0  0  0  0  0  0  0  0  0  0
  148.2912  134.5118  159.7796 C   0  0  0  0  0  0  0  0  0  0  0  0
  148.2299  133.3691  159.3293 O   0  0  0  0  0  0  0  0  0  0  0  0
  147.7534  134.9265  161.0868 C   0  0  0  0  0  0  0  0  0  0  0  0
  147.0757  133.8673  161.9555 C   0  0  0  0  0  0  0  0  0  0  0  0
  145.5825  134.1455  162.2027 C   0  0  0  0  0  0  0  0  0  0  0  0
  145.0435  133.2449  163.1466 O   0  0  0  0  0  0  0  0  0  0  0  0
  146.3476  136.5230  162.9492 H   0  0  0  0  0  0  0  0  0  0  0  0
  147.5282  137.8264  162.8868 H   0  0  0  0  0  0  0  0  0  0  0  0
  147.9621  136.2909  163.6363 H   0  0  0  0  0  0  0  0  0  0  0  0
  152.0197  137.6063  159.4753 H   0  0  0  0  0  0  0  0  0  0  0  0
  150.9640  138.8080  160.1770 H   0  0  0  0  0  0  0  0  0  0  0  0
  151.2231  140.8937  159.7259 H   0  0  0  0  0  0  0  0  0  0  0  0
  153.1809  141.7656  157.6542 H   0  0  0  0  0  0  0  0  0  0  0  0
  152.0040  143.8459  157.5083 H   0  0  0  0  0  0  0  0  0  0  0  0
  150.8437  142.5680  157.2640 H   0  0  0  0  0  0  0  0  0  0  0  0
  149.9590  144.3453  158.7860 H   0  0  0  0  0  0  0  0  0  0  0  0
  150.0323  142.8002  159.5928 H   0  0  0  0  0  0  0  0  0  0  0  0
  152.0503  145.0791  159.8644 H   0  0  0  0  0  0  0  0  0  0  0  0
  150.9206  144.5509  161.0880 H   0  0  0  0  0  0  0  0  0  0  0  0
  153.2187  143.6715  161.5061 H   0  0  0  0  0  0  0  0  0  0  0  0
  152.0667  142.3815  161.2984 H   0  0  0  0  0  0  0  0  0  0  0  0
  153.9675  143.4492  159.1739 H   0  0  0  0  0  0  0  0  0  0  0  0
  154.0405  140.8007  160.6867 H   0  0  0  0  0  0  0  0  0  0  0  0
  155.1726  142.1364  160.8377 H   0  0  0  0  0  0  0  0  0  0  0  0
  155.0872  141.2268  159.3341 H   0  0  0  0  0  0  0  0  0  0  0  0
  149.2592  135.2524  158.1611 H   0  0  0  0  0  0  0  0  0  0  0  0
  147.5875  133.8163  162.9163 H   0  0  0  0  0  0  0  0  0  0  0  0
  147.2059  132.8763  161.5190 H   0  0  0  0  0  0  0  0  0  0  0  0
  145.4512  135.1593  162.5816 H   0  0  0  0  0  0  0  0  0  0  0  0
  145.0122  134.0743  161.2767 H   0  0  0  0  0  0  0  0  0  0  0  0
  144.2956  132.8156  162.7601 H   0  0  0  0  0  0  0  0  0  0  0  0
  1 24  1  0  0  0  0
  1 25  1  0  0  0  0
  1 26  1  0  0  0  0
  1  2  1  0  0  0  0
  2 20  2  0  0  0  0
  2  3  1  0  0  0  0
  3  4  2  0  0  0  0
  4  5  1  0  0  0  0
  4 17  1  0  0  0  0
  5  6  1  0  0  0  0
  6  7  1  0  0  0  0
  6 27  1  0  0  0  0
  6 28  1  0  0  0  0
  7  8  2  0  0  0  0
  7  9  1  0  0  0  0
  9 10  1  0  0  0  0
  9 29  1  0  0  0  0
 10 15  1  0  0  0  0
 10 11  1  0  0  0  0
 10 30  1  0  0  0  0
 11 12  1  0  0  0  0
 11 31  1  0  0  0  0
 11 32  1  0  0  0  0
 12 13  1  0  0  0  0
 12 33  1  0  0  0  0
 12 34  1  0  0  0  0
 13 14  1  0  0  0  0
 13 35  1  0  0  0  0
 13 36  1  0  0  0  0
 14 15  1  0  0  0  0
 14 37  1  0  0  0  0
 14 38  1  0  0  0  0
 15 16  1  0  0  0  0
 15 39  1  0  0  0  0
 16 40  1  0  0  0  0
 16 41  1  0  0  0  0
 16 42  1  0  0  0  0
 17 43  1  0  0  0  0
 17 18  1  0  0  0  0
 18 19  2  0  0  0  0
 18 20  1  0  0  0  0
 20 21  1  0  0  0  0
 21 22  1  0  0  0  0
 21 44  1  0  0  0  0
 21 45  1  0  0  0  0
 22 23  1  0  0  0  0
 22 46  1  0  0  0  0
 22 47  1  0  0  0  0
 23 48  1  0  0  0  0
M  END
> <s_m_source_file>
AV-unprocessed.smi

> <i_m_source_file_index>
438

> <i_lp_mmshare_version>
43012

> <i_f3d_flags>
0

> <s_epik_input>
W09IXVtDSDJdW0NIMl1jMWMoW09IXSluYyhuYzFbQ0gzXSlTW0NIMl1DKD1PKVtOSF1bQ0BASF0yW0NIMl1bQ0gyXVtDSDJdW0NIMl1bQ0BIXTJbQ0gzXQ==

> <s_epik_cmdline>
J2VwaWtfcHl0aG9uJywgJy1waCcsICc3LjAnLCAnLXRuJywgJzgnLCAnLW1hJywgJzIwMCcsICctbWV0YWxfYmluZGluZycsICctaW1hZScsICc8aW5maWxlLm1hZT4nLCAnLW9tYWUnLCAnPG91dGZpbGUubWFlPic=

> <r_lp_tautomer_probability>
0.660323

> <r_epik_Ionization_Penalty>
0.00860626

> <r_epik_Ionization_Penalty_Charging>
0.00860522

> <r_epik_Ionization_Penalty_Neutral>
1.04215e-06

> <r_epik_State_Penalty>
0.156825

> <r_epik_Charging_Adjusted_Penalty>
0.16543

> <i_epik_Tot_Q>
0

> <i_epik_Tot_abs_Q>
0

> <r_epik_Metal_State_Penalty>
0.752038

> <b_epik_Metal_Only>
0

> <s_lp_Force_Field>
OPLS_2005

> <r_lp_Energy>
10.8925

> <b_lp_Chiralities_Consistent>
1

> <s_lp_Variant>
AV-unprocessed.smi:438-2

> <Gold.Version>
5.8.1

> <Gold.Id.Protein>
6NUR|6NUR_protein|mol2

> <Gold.PLP.Fitness>
52.2706

> <Gold.PLP.PLP>
-46.8644

> <Gold.PLP.part.hbond>
-4.4380

> <Gold.PLP.part.metal>
0.0000

> <Gold.PLP.part.buried>
-5.9322

> <Gold.PLP.part.nonpolar>
-35.2123

> <Gold.PLP.part.repulsive>
0.2488

> <Gold.PLP.ligand.clash>
0.0000

> <Gold.PLP.ligand.torsion>
0.3236

> <Gold.PLP.Chemscore.Hbond>
1.9679

> <Gold.PLP.Chemscore.CHOScore>
0.0000

> <Gold.PLP.Chemscore.Metal>
0.0000

> <Gold.Chemscore.Hbonds>
donor molecule, donor type, donor heavy atom, donor atom, acceptor molecule, acceptor atom, score
      P1  H  6931  6943       L1     3  0.76
      P1  H  6934  6947       L1     3  0.15
      P1  H  7997  8008       L1     8  1.00

> <Gold.PLP.Chemscore.Internal.Correction>
0.1497

> <Gold.Rescore>
     Score         DG    S(hbond)    S(metal)    S(lipo)     H(rot)  DE(clash)    DE(int)     intcor
     17.39     -17.76       1.66        0.00     120.17       2.86       0.03       0.34       ----

> <Gold.Chemscore.Fitness>
17.3925

> <Gold.Chemscore.DG>
-17.7630

> <Gold.Chemscore.ZeroCoef>
-5.4800

> <Gold.Chemscore.Hbond>
1.6637

> <Gold.Chemscore.Metal>
0.0000

> <Gold.Chemscore.Lipo>
120.1659

> <Gold.Chemscore.Internal_Hbond>
0.0000

> <Gold.Chemscore.DEClash>
0.0323

> <Gold.Chemscore.DEInternal>
0.3383

> <Gold.Chemscore.Rot>
2.8645

> <Gold.Chemscore.Internal.Correction>
   9.000000E+99

> <Gold.Chemscore.Hbonds>
donor molecule, donor type, donor heavy atom, donor atom, acceptor molecule, acceptor atom, score
      P1  H  6931  6943       L1     3  0.17
      P1  H  6934  6947       L1     3  0.05
      P1  H  7997  8008       L1     8  0.99

> <Gold.Chemscore.Hbond.Weighted>
-5.5567

> <Gold.Chemscore.Metal.Weighted>
-0.0000

> <Gold.Chemscore.Lipo.Weighted>
-14.0594

> <Gold.Chemscore.Internal_Hbond.Weighted>
0.0000

> <Gold.Chemscore.DEClash.Weighted>
0.0323

> <Gold.Chemscore.DEInternal.Weighted>
0.3383

> <Gold.Chemscore.Rot.Weighted>
7.3331

> <Gold.Chemscore.Internal.Correction.Weighted>
   9.000000E+99

> <Gold.Protein.RotatedTorsions>
[ 6907 6896 6895 6894 ] final  -10.63 input  -60.11 | X-H torsion
[ 7974 7965 7964 7962 ] final   82.10 input  175.53 | X-H torsion
[ 8008 7997 7996 7995 ] final  -68.15 input   59.86 | X-H torsion
[ 10167 10162 10161 10158 ] final   15.88 input  -65.29 | X-H torsion
[ 10718 10713 10712 10709 ] final -126.33 input   66.30 | X-H torsion
[ 10763 10752 10751 10750 ] final -102.58 input  -60.55 | X-H torsion
[ 11005 11000 10999 10996 ] final   34.83 input  -57.11 | X-H torsion

> <Gold.Protein.ActiveResidues>
 VAL166  LYS551  ARG553  GLY616  TRP617  ASP618  TYR619  PRO620  LYS621  CYS622 
 ASP623  PHE694  ASN695  SER759  ASP760  ASP761  ALA762  ILE779  LEU786  VAL792 
 PHE793  MET794  SER795  GLU796  ALA797  LYS798  CYS799  TRP800  GLU811  SER814 

> <Gold.Protein.RotatedAtoms>
  151.3990  135.0968  159.9549 H   0  0  0  0  0  0  0  0  0  0  0  0  # atno 6907 bound_to 6896
  152.5056  133.8907  159.7403 H   0  0  0  0  0  0  0  0  0  0  0  0  # atno 6908 bound_to 6896
  150.9377  133.6637  159.2826 H   0  0  0  0  0  0  0  0  0  0  0  0  # atno 6909 bound_to 6896
  145.6294  139.2402  143.2093 H   0  0  0  0  0  0  0  0  0  0  0  0  # atno 7974 bound_to 7965
  154.4848  140.0878  156.7462 H   0  0  0  0  0  0  0  0  0  0  0  0  # atno 8008 bound_to 7997
  155.4377  140.3452  155.4268 H   0  0  0  0  0  0  0  0  0  0  0  0  # atno 8009 bound_to 7997
  156.1245  140.1483  156.9144 H   0  0  0  0  0  0  0  0  0  0  0  0  # atno 8010 bound_to 7997
  140.5836  143.8932  150.6811 H   0  0  0  0  0  0  0  0  0  0  0  0  # atno 10167 bound_to 10162
  156.1755  130.6697  151.0236 H   0  0  0  0  0  0  0  0  0  0  0  0  # atno 10718 bound_to 10713
  154.7744  135.4855  153.9715 H   0  0  0  0  0  0  0  0  0  0  0  0  # atno 10763 bound_to 10752
  153.1410  135.6772  153.9035 H   0  0  0  0  0  0  0  0  0  0  0  0  # atno 10764 bound_to 10752
  153.8709  135.3143  155.3420 H   0  0  0  0  0  0  0  0  0  0  0  0  # atno 10765 bound_to 10752
  140.2488  134.3328  155.7898 H   0  0  0  0  0  0  0  0  0  0  0  0  # atno 11005 bound_to 11000
  146.1368  140.7111  142.9386 LP  0  0  0  0  0  0  0  0  0  0  0  0  # atno 17320 bound_to 7965
  144.7199  140.4339  143.7016 LP  0  0  0  0  0  0  0  0  0  0  0  0  # atno 17321 bound_to 7965
  140.2438  143.3644  152.1464 LP  0  0  0  0  0  0  0  0  0  0  0  0  # atno 17342 bound_to 10162
  139.5184  144.7006  151.5505 LP  0  0  0  0  0  0  0  0  0  0  0  0  # atno 17343 bound_to 10162
  157.6833  131.0832  150.7312 LP  0  0  0  0  0  0  0  0  0  0  0  0  # atno 17370 bound_to 10713
  156.7370  130.4727  149.5486 LP  0  0  0  0  0  0  0  0  0  0  0  0  # atno 17371 bound_to 10713
  141.2203  133.7341  156.9004 LP  0  0  0  0  0  0  0  0  0  0  0  0  # atno 17394 bound_to 11000
  140.1579  134.9186  157.2677 LP  0  0  0  0  0  0  0  0  0  0  0  0  # atno 17395 bound_to 11000

$$$$
