AV-unprocessed.smi:2906|AV-procd|sdf|11164|dock1
  -GOLD-   2272016 53D 1   1.00000     0.00000
 Structure written by MMmdl.
 39 40  0  0  0  0  0  0  0  0  2 V2000
  147.7017  137.7888  157.7093 C   0  0  0  0  0  0  0  0  0  0  0  0
  146.4177  138.5128  157.2720 C   0  0  0  0  0  0  0  0  0  0  0  0
  146.4424  138.9889  155.8096 C   0  0  0  0  0  0  0  0  0  0  0  0
  145.5951  138.5756  155.0160 O   0  0  0  0  0  0  0  0  0  0  0  0
  147.4046  139.8594  155.4388 N   0  0  0  0  0  0  0  0  0  0  0  0
  147.5208  140.4012  154.0875 C   0  0  0  0  0  0  0  0  0  0  0  0
  148.5815  141.4985  154.1634 C   0  0  0  0  0  0  0  0  0  0  0  0
  149.4296  141.1352  155.3819 C   0  0  1  0  0  0  0  0  0  0  0  0
  149.9928  142.3087  156.0436 N   0  0  0  0  0  0  0  0  0  0  0  0
  150.9074  142.2881  157.0238 C   0  0  0  0  0  0  0  0  0  0  0  0
  151.3359  141.2095  157.4411 O   0  0  0  0  0  0  0  0  0  0  0  0
  151.2725  143.5168  157.4565 N   0  5  0  0  0  0  0  0  0  0  0  0
  151.6330  143.6957  158.7378 C   0  0  0  0  0  0  0  0  0  0  0  0
  152.1117  142.7111  159.5063 N   0  0  0  0  0  0  0  0  0  0  0  0
  152.4258  143.1175  160.8059 C   0  0  0  0  0  0  0  0  0  0  0  0
  152.9788  142.1291  161.7871 C   0  0  0  0  0  0  0  0  0  0  0  0
  153.2581  142.7614  163.1552 C   0  0  0  0  0  0  0  0  0  0  0  0
  152.1639  144.4439  161.0322 C   0  0  0  0  0  0  0  0  0  0  0  0
  151.5183  145.2225  159.6161 S   0  0  0  0  0  0  0  0  0  0  0  0
  148.4606  140.3850  156.3030 C   0  0  0  0  0  0  0  0  0  0  0  0
  147.6251  137.4640  158.7471 H   0  0  0  0  0  0  0  0  0  0  0  0
  148.5726  138.4412  157.6336 H   0  0  0  0  0  0  0  0  0  0  0  0
  147.8880  136.9034  157.1005 H   0  0  0  0  0  0  0  0  0  0  0  0
  145.5675  137.8443  157.4115 H   0  0  0  0  0  0  0  0  0  0  0  0
  146.2571  139.3739  157.9212 H   0  0  0  0  0  0  0  0  0  0  0  0
  147.8417  139.6060  153.4133 H   0  0  0  0  0  0  0  0  0  0  0  0
  146.5713  140.7942  153.7210 H   0  0  0  0  0  0  0  0  0  0  0  0
  149.1711  141.5777  153.2493 H   0  0  0  0  0  0  0  0  0  0  0  0
  148.0892  142.4595  154.3220 H   0  0  0  0  0  0  0  0  0  0  0  0
  150.2249  140.4514  155.0786 H   0  0  0  0  0  0  0  0  0  0  0  0
  149.6674  143.2119  155.7316 H   0  0  0  0  0  0  0  0  0  0  0  0
  152.2829  141.2985  161.9108 H   0  0  0  0  0  0  0  0  0  0  0  0
  153.8994  141.6920  161.3991 H   0  0  0  0  0  0  0  0  0  0  0  0
  153.6616  142.0242  163.8494 H   0  0  0  0  0  0  0  0  0  0  0  0
  152.3470  143.1685  163.5945 H   0  0  0  0  0  0  0  0  0  0  0  0
  153.9814  143.5733  163.0726 H   0  0  0  0  0  0  0  0  0  0  0  0
  152.3082  145.0078  161.9411 H   0  0  0  0  0  0  0  0  0  0  0  0
  148.0087  141.0591  157.0329 H   0  0  0  0  0  0  0  0  0  0  0  0
  148.9796  139.5952  156.8476 H   0  0  0  0  0  0  0  0  0  0  0  0
  1  2  1  0  0  0  0
  1 21  1  0  0  0  0
  1 22  1  0  0  0  0
  1 23  1  0  0  0  0
  2  3  1  0  0  0  0
  2 24  1  0  0  0  0
  2 25  1  0  0  0  0
  3  4  2  0  0  0  0
  3  5  1  0  0  0  0
  5 20  1  0  0  0  0
  5  6  1  0  0  0  0
  6  7  1  0  0  0  0
  6 26  1  0  0  0  0
  6 27  1  0  0  0  0
  7  8  1  0  0  0  0
  7 28  1  0  0  0  0
  7 29  1  0  0  0  0
  8  9  1  0  0  0  0
  8 20  1  0  0  0  0
  8 30  1  0  0  0  0
  9 10  1  0  0  0  0
  9 31  1  0  0  0  0
 10 11  2  0  0  0  0
 10 12  1  0  0  0  0
 12 13  1  0  0  0  0
 13 19  1  0  0  0  0
 13 14  2  0  0  0  0
 14 15  1  0  0  0  0
 15 16  1  0  0  0  0
 15 18  2  0  0  0  0
 16 17  1  0  0  0  0
 16 32  1  0  0  0  0
 16 33  1  0  0  0  0
 17 34  1  0  0  0  0
 17 35  1  0  0  0  0
 17 36  1  0  0  0  0
 18 19  1  0  0  0  0
 18 37  1  0  0  0  0
 20 38  1  0  0  0  0
 20 39  1  0  0  0  0
M  CHG  1  12  -1
M  END
> <s_m_source_file>
AV-unprocessed.smi

> <i_m_source_file_index>
2906

> <i_lp_mmshare_version>
43012

> <i_f3d_flags>
0

> <s_epik_input>
W0NIM11bQ0gyXUMoPU8pTjFbQ0gyXVtDSDJdW0NASF0oW0NIMl0xKVtOSF1DKD1PKVtOSF1jMm5jKFtjSF1zMilbQ0gyXVtDSDNd

> <s_epik_cmdline>
J2VwaWtfcHl0aG9uJywgJy1waCcsICc3LjAnLCAnLXRuJywgJzgnLCAnLW1hJywgJzIwMCcsICctbWV0YWxfYmluZGluZycsICctaW1hZScsICc8aW5maWxlLm1hZT4nLCAnLW9tYWUnLCAnPG91dGZpbGUubWFlPic=

> <r_lp_tautomer_probability>
1

> <r_epik_Ionization_Penalty>
7.20119

> <r_epik_Ionization_Penalty_Charging>
5.87168

> <r_epik_Ionization_Penalty_Neutral>
1.32951

> <r_epik_State_Penalty>
5.87165

> <r_epik_Charging_Adjusted_Penalty>
11.7433

> <i_epik_Tot_Q>
-1

> <i_epik_Tot_abs_Q>
1

> <r_epik_Metal_State_Penalty>
1.83511

> <b_epik_Metal_Only>
1

> <s_lp_Force_Field>
OPLS_2005

> <r_lp_Energy>
20.3379

> <b_lp_Chiralities_Consistent>
1

> <s_lp_Variant>
AV-unprocessed.smi:2906-3

> <Gold.Version>
5.8.1

> <Gold.Id.Protein>
6NUR|6NUR_protein|mol2

> <Gold.PLP.Fitness>
40.3483

> <Gold.PLP.PLP>
-38.0699

> <Gold.PLP.part.hbond>
-1.0000

> <Gold.PLP.part.metal>
0.0000

> <Gold.PLP.part.buried>
-6.4988

> <Gold.PLP.part.nonpolar>
-30.5137

> <Gold.PLP.part.repulsive>
0.3471

> <Gold.PLP.ligand.clash>
0.0000

> <Gold.PLP.ligand.torsion>
0.4477

> <Gold.PLP.Chemscore.Hbond>
1.0000

> <Gold.PLP.Chemscore.CHOScore>
0.0000

> <Gold.PLP.Chemscore.Metal>
0.0000

> <Gold.Chemscore.Hbonds>
donor molecule, donor type, donor heavy atom, donor atom, acceptor molecule, acceptor atom, score
      L1  H     9    31       P1  8028  1.00

> <Gold.PLP.Chemscore.Internal.Correction>
0.1738

> <Gold.Rescore>
     Score         DG    S(hbond)    S(metal)    S(lipo)     H(rot)  DE(clash)    DE(int)     intcor
     12.85     -15.20       1.00        0.00      84.90       1.39       0.32       2.04       ----

> <Gold.Chemscore.Fitness>
12.8452

> <Gold.Chemscore.DG>
-15.1985

> <Gold.Chemscore.ZeroCoef>
-5.4800

> <Gold.Chemscore.Hbond>
0.9978

> <Gold.Chemscore.Metal>
0.0000

> <Gold.Chemscore.Lipo>
84.8964

> <Gold.Chemscore.Internal_Hbond>
0.0000

> <Gold.Chemscore.DEClash>
0.3175

> <Gold.Chemscore.DEInternal>
2.0358

> <Gold.Chemscore.Rot>
1.3856

> <Gold.Chemscore.Internal.Correction>
   9.000000E+99

> <Gold.Chemscore.Hbonds>
donor molecule, donor type, donor heavy atom, donor atom, acceptor molecule, acceptor atom, score
      L1  H     9    31       P1  8028  1.00

> <Gold.Chemscore.Hbond.Weighted>
-3.3327

> <Gold.Chemscore.Metal.Weighted>
-0.0000

> <Gold.Chemscore.Lipo.Weighted>
-9.9329

> <Gold.Chemscore.Internal_Hbond.Weighted>
0.0000

> <Gold.Chemscore.DEClash.Weighted>
0.3175

> <Gold.Chemscore.DEInternal.Weighted>
2.0358

> <Gold.Chemscore.Rot.Weighted>
3.5471

> <Gold.Chemscore.Internal.Correction.Weighted>
   9.000000E+99

> <Gold.Protein.RotatedTorsions>
[ 6907 6896 6895 6894 ] final  110.81 input  -60.11 | X-H torsion
[ 7974 7965 7964 7962 ] final  -90.97 input  175.53 | X-H torsion
[ 8008 7997 7996 7995 ] final   18.02 input   59.86 | X-H torsion
[ 10167 10162 10161 10158 ] final  173.35 input  -65.29 | X-H torsion
[ 10718 10713 10712 10709 ] final  172.78 input   66.30 | X-H torsion
[ 10763 10752 10751 10750 ] final  -15.70 input  -60.55 | X-H torsion
[ 11005 11000 10999 10996 ] final   -1.55 input  -57.11 | X-H torsion

> <Gold.Protein.ActiveResidues>
 VAL166  LYS551  ARG553  GLY616  TRP617  ASP618  TYR619  PRO620  LYS621  CYS622 
 ASP623  PHE694  ASN695  SER759  ASP760  ASP761  ALA762  ILE779  LEU786  VAL792 
 PHE793  MET794  SER795  GLU796  ALA797  LYS798  CYS799  TRP800  GLU811  SER814 

> <Gold.Protein.RotatedAtoms>
  152.5001  133.8747  159.7315 H   0  0  0  0  0  0  0  0  0  0  0  0  # atno 6907 bound_to 6896
  150.9225  133.6855  159.2835 H   0  0  0  0  0  0  0  0  0  0  0  0  # atno 6908 bound_to 6896
  151.4227  135.1004  159.9671 H   0  0  0  0  0  0  0  0  0  0  0  0  # atno 6909 bound_to 6896
  145.4194  140.9550  143.2189 H   0  0  0  0  0  0  0  0  0  0  0  0  # atno 7974 bound_to 7965
  154.8999  140.2999  155.5323 H   0  0  0  0  0  0  0  0  0  0  0  0  # atno 8008 bound_to 7997
  156.3019  140.2409  156.3961 H   0  0  0  0  0  0  0  0  0  0  0  0  # atno 8009 bound_to 7997
  154.8532  140.0408  157.1606 H   0  0  0  0  0  0  0  0  0  0  0  0  # atno 8010 bound_to 7997
  139.5105  144.3270  152.0148 H   0  0  0  0  0  0  0  0  0  0  0  0  # atno 10167 bound_to 10162
  156.9740  131.0098  151.2898 H   0  0  0  0  0  0  0  0  0  0  0  0  # atno 10718 bound_to 10713
  153.5473  135.7012  153.5608 H   0  0  0  0  0  0  0  0  0  0  0  0  # atno 10763 bound_to 10752
  153.3547  135.3986  155.1673 H   0  0  0  0  0  0  0  0  0  0  0  0  # atno 10764 bound_to 10752
  154.8666  135.3774  154.4982 H   0  0  0  0  0  0  0  0  0  0  0  0  # atno 10765 bound_to 10752
  140.6486  133.9425  155.8367 H   0  0  0  0  0  0  0  0  0  0  0  0  # atno 11005 bound_to 11000
  144.8256  139.5717  143.6967 LP  0  0  0  0  0  0  0  0  0  0  0  0  # atno 17320 bound_to 7965
  146.2664  139.6531  142.9326 LP  0  0  0  0  0  0  0  0  0  0  0  0  # atno 17321 bound_to 7965
  140.2711  144.3963  150.6151 LP  0  0  0  0  0  0  0  0  0  0  0  0  # atno 17342 bound_to 10162
  140.6088  143.2168  151.6928 LP  0  0  0  0  0  0  0  0  0  0  0  0  # atno 17343 bound_to 10162
  157.5573  130.8222  149.8220 LP  0  0  0  0  0  0  0  0  0  0  0  0  # atno 17370 bound_to 10713
  156.0271  130.3776  150.1791 LP  0  0  0  0  0  0  0  0  0  0  0  0  # atno 17371 bound_to 10713
  141.0554  134.0424  157.3730 LP  0  0  0  0  0  0  0  0  0  0  0  0  # atno 17394 bound_to 11000
  139.9054  135.0178  156.7461 LP  0  0  0  0  0  0  0  0  0  0  0  0  # atno 17395 bound_to 11000

$$$$
