AV-unprocessed.smi:1833|AV-procd|sdf|7467|dock3
  -GOLD-   22720 9163D 1   1.00000     0.00000
 Structure written by MMmdl.
 42 43  0  0  0  0  0  0  0  0  2 V2000
  146.4095  133.1247  151.1272 C   0  0  0  0  0  0  0  0  0  0  0  0
  145.6503  134.4372  150.8832 C   0  0  0  0  0  0  0  0  0  0  0  0
  146.1007  135.5259  151.7859 N   0  3  1  0  0  0  0  0  0  0  0  0
  145.5744  136.8546  151.3777 C   0  0  0  0  0  0  0  0  0  0  0  0
  146.1768  137.9808  152.2359 C   0  0  0  0  0  0  0  0  0  0  0  0
  145.9588  137.7213  153.7360 C   0  0  0  0  0  0  0  0  0  0  0  0
  146.4626  136.3220  154.1317 C   0  0  2  0  0  0  0  0  0  0  0  0
  147.9238  136.2820  154.0663 N   0  0  0  0  0  0  0  0  0  0  0  0
  148.7521  136.7672  155.0013 C   0  0  0  0  0  0  0  0  0  0  0  0
  148.3738  137.2792  156.0546 O   0  0  0  0  0  0  0  0  0  0  0  0
  150.0378  136.6381  154.6433 N   0  0  0  0  0  0  0  0  0  0  0  0
  151.1826  137.0994  155.4252 C   0  0  0  0  0  0  0  0  0  0  0  0
  151.7924  138.4011  154.8703 C   0  0  0  0  0  0  0  0  0  0  0  0
  151.2419  139.6473  155.4863 C   0  0  0  0  0  0  0  0  0  0  0  0
  150.4941  140.5289  154.8167 N   0  0  0  0  0  0  0  0  0  0  0  0
  150.1371  141.6300  155.5985 C   0  0  0  0  0  0  0  0  0  0  0  0
  150.6304  141.5770  156.8774 C   0  0  0  0  0  0  0  0  0  0  0  0
  151.5665  140.1333  157.1484 S   0  0  0  0  0  0  0  0  0  0  0  0
  145.8164  135.2551  153.2204 C   0  0  0  0  0  0  0  0  0  0  0  0
  146.1165  132.3714  150.3958 H   0  0  0  0  0  0  0  0  0  0  0  0
  146.2084  132.7098  152.1143 H   0  0  0  0  0  0  0  0  0  0  0  0
  147.4864  133.2701  151.0367 H   0  0  0  0  0  0  0  0  0  0  0  0
  145.8251  134.7320  149.8478 H   0  0  0  0  0  0  0  0  0  0  0  0
  144.5743  134.2871  150.9837 H   0  0  0  0  0  0  0  0  0  0  0  0
  145.8114  137.0411  150.3294 H   0  0  0  0  0  0  0  0  0  0  0  0
  144.4864  136.8571  151.4617 H   0  0  0  0  0  0  0  0  0  0  0  0
  147.2437  138.0672  152.0266 H   0  0  0  0  0  0  0  0  0  0  0  0
  145.7336  138.9374  151.9574 H   0  0  0  0  0  0  0  0  0  0  0  0
  146.4542  138.4904  154.3302 H   0  0  0  0  0  0  0  0  0  0  0  0
  144.8946  137.7983  153.9626 H   0  0  0  0  0  0  0  0  0  0  0  0
  146.1668  136.1321  155.1651 H   0  0  0  0  0  0  0  0  0  0  0  0
  148.3316  135.8918  153.2291 H   0  0  0  0  0  0  0  0  0  0  0  0
  150.2431  136.2062  153.7541 H   0  0  0  0  0  0  0  0  0  0  0  0
  150.9058  137.2343  156.4720 H   0  0  0  0  0  0  0  0  0  0  0  0
  151.9372  136.3129  155.4123 H   0  0  0  0  0  0  0  0  0  0  0  0
  152.8730  138.3900  155.0173 H   0  0  0  0  0  0  0  0  0  0  0  0
  151.6323  138.4518  153.7929 H   0  0  0  0  0  0  0  0  0  0  0  0
  149.5290  142.4089  155.1628 H   0  0  0  0  0  0  0  0  0  0  0  0
  150.5005  142.2967  157.6718 H   0  0  0  0  0  0  0  0  0  0  0  0
  144.7365  135.2389  153.3763 H   0  0  0  0  0  0  0  0  0  0  0  0
  146.1763  134.2662  153.5012 H   0  0  0  0  0  0  0  0  0  0  0  0
  147.1048  135.5776  151.6900 H   0  0  0  0  0  0  0  0  0  0  0  0
  1  2  1  0  0  0  0
  1 20  1  0  0  0  0
  1 21  1  0  0  0  0
  1 22  1  0  0  0  0
  2  3  1  0  0  0  0
  2 23  1  0  0  0  0
  2 24  1  0  0  0  0
  3 19  1  0  0  0  0
  3  4  1  0  0  0  0
  3 42  1  0  0  0  0
  4  5  1  0  0  0  0
  4 25  1  0  0  0  0
  4 26  1  0  0  0  0
  5  6  1  0  0  0  0
  5 27  1  0  0  0  0
  5 28  1  0  0  0  0
  6  7  1  0  0  0  0
  6 29  1  0  0  0  0
  6 30  1  0  0  0  0
  7  8  1  0  0  0  0
  7 19  1  0  0  0  0
  7 31  1  0  0  0  0
  8  9  1  0  0  0  0
  8 32  1  0  0  0  0
  9 10  2  0  0  0  0
  9 11  1  0  0  0  0
 11 12  1  0  0  0  0
 11 33  1  0  0  0  0
 12 13  1  0  0  0  0
 12 34  1  0  0  0  0
 12 35  1  0  0  0  0
 13 14  1  0  0  0  0
 13 36  1  0  0  0  0
 13 37  1  0  0  0  0
 14 18  1  0  0  0  0
 14 15  2  0  0  0  0
 15 16  1  0  0  0  0
 16 17  2  0  0  0  0
 16 38  1  0  0  0  0
 17 18  1  0  0  0  0
 17 39  1  0  0  0  0
 19 40  1  0  0  0  0
 19 41  1  0  0  0  0
M  CHG  1   3   1
M  END
> <s_m_source_file>
AV-unprocessed.smi

> <i_m_source_file_index>
1833

> <i_lp_mmshare_version>
43012

> <i_f3d_flags>
0

> <s_epik_input>
W0NIM11bQ0gyXU4xW0NIMl1bQ0gyXVtDSDJdW0NASF0oW0NIMl0xKVtOSF1DKD1PKVtOSF1bQ0gyXVtDSDJdYzJuW2NIXVtjSF1zMg==

> <s_epik_cmdline>
J2VwaWtfcHl0aG9uJywgJy1waCcsICc3LjAnLCAnLXRuJywgJzgnLCAnLW1hJywgJzIwMCcsICctbWV0YWxfYmluZGluZycsICctaW1hZScsICc8aW5maWxlLm1hZT4nLCAnLW9tYWUnLCAnPG91dGZpbGUubWFlPic=

> <r_lp_tautomer_probability>
1

> <r_epik_Ionization_Penalty>
0.00269629

> <r_epik_Ionization_Penalty_Charging>
0.00233899

> <r_epik_Ionization_Penalty_Neutral>
0.000357304

> <r_epik_State_Penalty>
-0

> <r_epik_Charging_Adjusted_Penalty>
0.00233899

> <i_epik_Tot_Q>
1

> <i_epik_Tot_abs_Q>
1

> <r_epik_Metal_State_Penalty>
-0

> <b_epik_Metal_Only>
0

> <s_lp_Force_Field>
OPLS_2005

> <r_lp_Energy>
15.7918

> <b_lp_Chiralities_Consistent>
1

> <s_lp_Variant>
AV-unprocessed.smi:1833-3

> <Gold.Version>
5.8.1

> <Gold.Id.Protein>
6NUR|6NUR_protein|mol2

> <Gold.PLP.Fitness>
43.1776

> <Gold.PLP.PLP>
-29.3915

> <Gold.PLP.part.hbond>
-3.6585

> <Gold.PLP.part.metal>
0.0000

> <Gold.PLP.part.buried>
-1.5503

> <Gold.PLP.part.nonpolar>
-25.0551

> <Gold.PLP.part.repulsive>
0.2116

> <Gold.PLP.ligand.clash>
0.0000

> <Gold.PLP.ligand.torsion>
0.7208

> <Gold.PLP.Chemscore.Hbond>
4.0561

> <Gold.PLP.Chemscore.CHOScore>
1.0000

> <Gold.PLP.Chemscore.Metal>
0.0000

> <Gold.Chemscore.Hbonds>
donor molecule, donor type, donor heavy atom, donor atom, acceptor molecule, acceptor atom, score
      L1  H     3    42       P1  7948  2.00
      L1  H     8    32       P1  7948  0.91
      L1  H    11    33       P1  7948  0.15
      P1  H  7989  7998       L1    15  0.94
      L1  C    16    38       P1  8028  1.00

> <Gold.PLP.Chemscore.Internal.Correction>
0.0592

> <Gold.Rescore>
     Score         DG    S(hbond)    S(metal)    S(lipo)     H(rot)  DE(clash)    DE(int)     intcor
     17.70     -18.44       2.80        0.00      68.50       1.71       0.09       0.65       ----

> <Gold.Chemscore.Fitness>
17.7019

> <Gold.Chemscore.DG>
-18.4411

> <Gold.Chemscore.ZeroCoef>
-5.4800

> <Gold.Chemscore.Hbond>
2.7951

> <Gold.Chemscore.Metal>
0.0000

> <Gold.Chemscore.Lipo>
68.5046

> <Gold.Chemscore.Internal_Hbond>
0.0000

> <Gold.Chemscore.DEClash>
0.0905

> <Gold.Chemscore.DEInternal>
0.6487

> <Gold.Chemscore.Rot>
1.7147

> <Gold.Chemscore.Internal.Correction>
   9.000000E+99

> <Gold.Chemscore.Hbonds>
donor molecule, donor type, donor heavy atom, donor atom, acceptor molecule, acceptor atom, score
      L1  H     3    42       P1  7948  0.99
      L1  H     8    32       P1  7948  0.84
      L1  H    11    33       P1  7948  0.01
      P1  H  7989  7998       L1    15  0.18

> <Gold.Chemscore.Hbond.Weighted>
-9.3357

> <Gold.Chemscore.Metal.Weighted>
-0.0000

> <Gold.Chemscore.Lipo.Weighted>
-8.0150

> <Gold.Chemscore.Internal_Hbond.Weighted>
0.0000

> <Gold.Chemscore.DEClash.Weighted>
0.0905

> <Gold.Chemscore.DEInternal.Weighted>
0.6487

> <Gold.Chemscore.Rot.Weighted>
4.3896

> <Gold.Chemscore.Internal.Correction.Weighted>
   9.000000E+99

> <Gold.Protein.RotatedTorsions>
[ 6907 6896 6895 6894 ] final  -48.95 input  -60.11 | X-H torsion
[ 7974 7965 7964 7962 ] final   61.70 input  175.53 | X-H torsion
[ 8008 7997 7996 7995 ] final -142.63 input   59.86 | X-H torsion
[ 10167 10162 10161 10158 ] final -124.50 input  -65.29 | X-H torsion
[ 10718 10713 10712 10709 ] final   83.32 input   66.30 | X-H torsion
[ 10763 10752 10751 10750 ] final    1.33 input  -60.55 | X-H torsion
[ 11005 11000 10999 10996 ] final  -44.67 input  -57.11 | X-H torsion

> <Gold.Protein.ActiveResidues>
 VAL166  LYS551  ARG553  GLY616  TRP617  ASP618  TYR619  PRO620  LYS621  CYS622 
 ASP623  PHE694  ASN695  SER759  ASP760  ASP761  ALA762  ILE779  LEU786  VAL792 
 PHE793  MET794  SER795  GLU796  ALA797  LYS798  CYS799  TRP800  GLU811  SER814 

> <Gold.Protein.RotatedAtoms>
  150.8854  134.8251  159.7254 H   0  0  0  0  0  0  0  0  0  0  0  0  # atno 6907 bound_to 6896
  152.4804  134.4731  159.9652 H   0  0  0  0  0  0  0  0  0  0  0  0  # atno 6908 bound_to 6896
  151.4801  133.3510  159.2872 H   0  0  0  0  0  0  0  0  0  0  0  0  # atno 6909 bound_to 6896
  145.8817  139.3448  143.0702 H   0  0  0  0  0  0  0  0  0  0  0  0  # atno 7974 bound_to 7965
  155.4974  140.0573  157.2944 H   0  0  0  0  0  0  0  0  0  0  0  0  # atno 8008 bound_to 7997
  154.4600  140.1991  156.0222 H   0  0  0  0  0  0  0  0  0  0  0  0  # atno 8009 bound_to 7997
  156.0871  140.3238  155.7772 H   0  0  0  0  0  0  0  0  0  0  0  0  # atno 8010 bound_to 7997
  139.9921  143.5630  152.2338 H   0  0  0  0  0  0  0  0  0  0  0  0  # atno 10167 bound_to 10162
  157.6876  131.0086  150.2505 H   0  0  0  0  0  0  0  0  0  0  0  0  # atno 10718 bound_to 10713
  153.3093  135.6961  153.7130 H   0  0  0  0  0  0  0  0  0  0  0  0  # atno 10763 bound_to 10752
  153.6013  135.3461  155.2947 H   0  0  0  0  0  0  0  0  0  0  0  0  # atno 10764 bound_to 10752
  154.8571  135.4341  154.2227 H   0  0  0  0  0  0  0  0  0  0  0  0  # atno 10765 bound_to 10752
  141.0465  133.6759  156.2904 H   0  0  0  0  0  0  0  0  0  0  0  0  # atno 11005 bound_to 11000
  145.9015  140.9240  143.0500 LP  0  0  0  0  0  0  0  0  0  0  0  0  # atno 17320 bound_to 7965
  144.6727  140.1039  143.7459 LP  0  0  0  0  0  0  0  0  0  0  0  0  # atno 17321 bound_to 7965
  139.6333  144.7647  151.2491 LP  0  0  0  0  0  0  0  0  0  0  0  0  # atno 17342 bound_to 10162
  140.7451  143.6442  150.8307 LP  0  0  0  0  0  0  0  0  0  0  0  0  # atno 17343 bound_to 10162
  156.3103  130.3771  149.7668 LP  0  0  0  0  0  0  0  0  0  0  0  0  # atno 17370 bound_to 10713
  156.5270  130.8240  151.3224 LP  0  0  0  0  0  0  0  0  0  0  0  0  # atno 17371 bound_to 10713
  140.6136  134.5433  157.5537 LP  0  0  0  0  0  0  0  0  0  0  0  0  # atno 17394 bound_to 11000
  139.9316  134.7953  156.0915 LP  0  0  0  0  0  0  0  0  0  0  0  0  # atno 17395 bound_to 11000

$$$$
