AV-unprocessed.smi:1958|AV-procd|sdf|7907|dock9
  -GOLD-   2272010 63D 1   1.00000     0.00000
 Structure written by MMmdl.
 47 48  0  0  0  0  0  0  0  0  1 V2000
  151.7864  143.9349  157.3846 C   0  0  0  0  0  0  0  0  0  0  0  0
  151.7692  142.9187  158.3711 O   0  0  0  0  0  0  0  0  0  0  0  0
  151.4187  141.6508  157.8404 C   0  0  0  0  0  0  0  0  0  0  0  0
  151.1377  140.6737  158.9937 C   0  0  0  0  0  0  0  0  0  0  0  0
  151.2433  139.2753  158.5619 N   0  0  0  0  0  0  0  0  0  0  0  0
  150.1182  138.5153  158.8346 N   0  0  0  0  0  0  0  0  0  0  0  0
  150.0891  137.2600  158.5221 C   0  0  0  0  0  0  0  0  0  0  0  0
  148.9014  136.4075  158.8056 C   0  0  0  0  0  0  0  0  0  0  0  0
  148.9429  135.1806  158.7010 O   0  0  0  0  0  0  0  0  0  0  0  0
  147.7922  137.0746  159.1742 N   0  0  0  0  0  0  0  0  0  0  0  0
  146.5004  136.4763  159.5030 C   0  0  0  0  0  0  0  0  0  0  0  0
  146.3614  136.1272  161.0121 C   0  0  1  0  0  0  0  0  0  0  0  0
  146.1907  137.4385  161.8207 C   0  0  0  0  0  0  0  0  0  0  0  0
  145.2886  135.1422  161.2885 N   0  0  0  0  0  0  0  0  0  0  0  0
  145.5420  133.8408  160.6583 C   0  0  0  0  0  0  0  0  0  0  0  0
  144.4196  132.8206  160.9165 C   0  0  0  0  0  0  0  0  0  0  0  0
  143.1800  133.3481  160.4655 O   0  0  0  0  0  0  0  0  0  0  0  0
  142.8557  134.5709  161.1120 C   0  0  0  0  0  0  0  0  0  0  0  0
  143.9653  135.6045  160.8528 C   0  0  0  0  0  0  0  0  0  0  0  0
  151.2268  136.6282  157.8752 C   0  0  0  0  0  0  0  0  0  0  0  0
  152.3170  137.3824  157.6144 C   0  0  0  0  0  0  0  0  0  0  0  0
  152.3787  138.8021  157.9654 C   0  0  0  0  0  0  0  0  0  0  0  0
  153.3641  139.5068  157.7482 O   0  0  0  0  0  0  0  0  0  0  0  0
  152.0586  144.8854  157.8434 H   0  0  0  0  0  0  0  0  0  0  0  0
  150.8059  144.0528  156.9216 H   0  0  0  0  0  0  0  0  0  0  0  0
  152.5178  143.7153  156.6056 H   0  0  0  0  0  0  0  0  0  0  0  0
  150.5256  141.7507  157.2222 H   0  0  0  0  0  0  0  0  0  0  0  0
  152.2150  141.2709  157.1983 H   0  0  0  0  0  0  0  0  0  0  0  0
  151.8278  140.8708  159.8162 H   0  0  0  0  0  0  0  0  0  0  0  0
  150.1433  140.8628  159.4016 H   0  0  0  0  0  0  0  0  0  0  0  0
  147.8512  138.0813  159.2320 H   0  0  0  0  0  0  0  0  0  0  0  0
  145.6707  137.1110  159.1873 H   0  0  0  0  0  0  0  0  0  0  0  0
  146.4537  135.5821  158.8844 H   0  0  0  0  0  0  0  0  0  0  0  0
  147.3092  135.6848  161.3231 H   0  0  0  0  0  0  0  0  0  0  0  0
  146.9657  138.1696  161.5954 H   0  0  0  0  0  0  0  0  0  0  0  0
  146.2631  137.2776  162.8952 H   0  0  0  0  0  0  0  0  0  0  0  0
  145.2281  137.9068  161.6122 H   0  0  0  0  0  0  0  0  0  0  0  0
  145.6728  133.9697  159.5826 H   0  0  0  0  0  0  0  0  0  0  0  0
  146.4620  133.4012  161.0390 H   0  0  0  0  0  0  0  0  0  0  0  0
  144.6241  131.8907  160.3855 H   0  0  0  0  0  0  0  0  0  0  0  0
  144.3564  132.5753  161.9778 H   0  0  0  0  0  0  0  0  0  0  0  0
  141.9027  134.9346  160.7277 H   0  0  0  0  0  0  0  0  0  0  0  0
  142.7263  134.4035  162.1825 H   0  0  0  0  0  0  0  0  0  0  0  0
  143.6788  136.5107  161.3827 H   0  0  0  0  0  0  0  0  0  0  0  0
  143.9902  135.8506  159.7900 H   0  0  0  0  0  0  0  0  0  0  0  0
  151.2095  135.5821  157.6061 H   0  0  0  0  0  0  0  0  0  0  0  0
  153.1697  136.9257  157.1338 H   0  0  0  0  0  0  0  0  0  0  0  0
  1  2  1  0  0  0  0
  1 24  1  0  0  0  0
  1 25  1  0  0  0  0
  1 26  1  0  0  0  0
  2  3  1  0  0  0  0
  3  4  1  0  0  0  0
  3 27  1  0  0  0  0
  3 28  1  0  0  0  0
  4  5  1  0  0  0  0
  4 29  1  0  0  0  0
  4 30  1  0  0  0  0
  5 22  1  0  0  0  0
  5  6  1  0  0  0  0
  6  7  2  0  0  0  0
  7  8  1  0  0  0  0
  7 20  1  0  0  0  0
  8  9  2  0  0  0  0
  8 10  1  0  0  0  0
 10 11  1  0  0  0  0
 10 31  1  0  0  0  0
 11 12  1  0  0  0  0
 11 32  1  0  0  0  0
 11 33  1  0  0  0  0
 12 13  1  0  0  0  0
 12 14  1  0  0  0  0
 12 34  1  0  0  0  0
 13 35  1  0  0  0  0
 13 36  1  0  0  0  0
 13 37  1  0  0  0  0
 14 19  1  0  0  0  0
 14 15  1  0  0  0  0
 15 16  1  0  0  0  0
 15 38  1  0  0  0  0
 15 39  1  0  0  0  0
 16 17  1  0  0  0  0
 16 40  1  0  0  0  0
 16 41  1  0  0  0  0
 17 18  1  0  0  0  0
 18 19  1  0  0  0  0
 18 42  1  0  0  0  0
 18 43  1  0  0  0  0
 19 44  1  0  0  0  0
 19 45  1  0  0  0  0
 20 21  2  0  0  0  0
 20 46  1  0  0  0  0
 21 22  1  0  0  0  0
 21 47  1  0  0  0  0
 22 23  2  0  0  0  0
M  END
> <s_m_source_file>
AV-unprocessed.smi

> <i_m_source_file_index>
1958

> <i_lp_mmshare_version>
43012

> <i_f3d_flags>
0

> <s_epik_input>
W0NIM11PW0NIMl1bQ0gyXW4xbmMoW2NIXVtjSF1jMT1PKUMoPU8pW05IXVtDSDJdW0NASF0oW0NIM10pTjJbQ0gyXVtDSDJdT1tDSDJdW0NIMl0y

> <s_epik_cmdline>
J2VwaWtfcHl0aG9uJywgJy1waCcsICc3LjAnLCAnLXRuJywgJzgnLCAnLW1hJywgJzIwMCcsICctbWV0YWxfYmluZGluZycsICctaW1hZScsICc8aW5maWxlLm1hZT4nLCAnLW9tYWUnLCAnPG91dGZpbGUubWFlPic=

> <r_lp_tautomer_probability>
1

> <r_epik_Ionization_Penalty>
0.206669

> <r_epik_Ionization_Penalty_Charging>
5.75808e-09

> <r_epik_Ionization_Penalty_Neutral>
0.206669

> <r_epik_State_Penalty>
0.196651

> <r_epik_Charging_Adjusted_Penalty>
0.196651

> <i_epik_Tot_Q>
0

> <i_epik_Tot_abs_Q>
0

> <r_epik_Metal_State_Penalty>
0.198415

> <b_epik_Metal_Only>
0

> <s_lp_Force_Field>
OPLS_2005

> <r_lp_Energy>
50.1951

> <b_lp_Chiralities_Consistent>
1

> <s_lp_Variant>
AV-unprocessed.smi:1958-2

> <Gold.Version>
5.8.1

> <Gold.Id.Protein>
6NUR|6NUR_protein|mol2

> <Gold.PLP.Fitness>
41.3248

> <Gold.PLP.PLP>
-36.3105

> <Gold.PLP.part.hbond>
-2.2115

> <Gold.PLP.part.metal>
0.0000

> <Gold.PLP.part.buried>
-6.1262

> <Gold.PLP.part.nonpolar>
-28.7902

> <Gold.PLP.part.repulsive>
0.3168

> <Gold.PLP.ligand.clash>
0.0000

> <Gold.PLP.ligand.torsion>
0.5534

> <Gold.PLP.Chemscore.Hbond>
1.9913

> <Gold.PLP.Chemscore.CHOScore>
0.0000

> <Gold.PLP.Chemscore.Metal>
0.0000

> <Gold.Chemscore.Hbonds>
donor molecule, donor type, donor heavy atom, donor atom, acceptor molecule, acceptor atom, score
      P1  H  6896  6907       L1     9  0.99
      P1  H  7997  8010       L1    23  0.96

> <Gold.PLP.Chemscore.Internal.Correction>
0.1473

> <Gold.Rescore>
     Score         DG    S(hbond)    S(metal)    S(lipo)     H(rot)  DE(clash)    DE(int)     intcor
     15.06     -17.03       1.84        0.00      90.86       2.04       0.19       1.78       ----

> <Gold.Chemscore.Fitness>
15.0646

> <Gold.Chemscore.DG>
-17.0328

> <Gold.Chemscore.ZeroCoef>
-5.4800

> <Gold.Chemscore.Hbond>
1.8408

> <Gold.Chemscore.Metal>
0.0000

> <Gold.Chemscore.Lipo>
90.8571

> <Gold.Chemscore.Internal_Hbond>
0.0000

> <Gold.Chemscore.DEClash>
0.1906

> <Gold.Chemscore.DEInternal>
1.7776

> <Gold.Chemscore.Rot>
2.0413

> <Gold.Chemscore.Internal.Correction>
   9.000000E+99

> <Gold.Chemscore.Hbonds>
donor molecule, donor type, donor heavy atom, donor atom, acceptor molecule, acceptor atom, score
      P1  H  6896  6907       L1     9  0.84
      P1  H  7997  8010       L1    23  0.90

> <Gold.Chemscore.Hbond.Weighted>
-6.1482

> <Gold.Chemscore.Metal.Weighted>
-0.0000

> <Gold.Chemscore.Lipo.Weighted>
-10.6303

> <Gold.Chemscore.Internal_Hbond.Weighted>
0.0000

> <Gold.Chemscore.DEClash.Weighted>
0.1906

> <Gold.Chemscore.DEInternal.Weighted>
1.7776

> <Gold.Chemscore.Rot.Weighted>
5.2257

> <Gold.Chemscore.Internal.Correction.Weighted>
   9.000000E+99

> <Gold.Protein.RotatedTorsions>
[ 6907 6896 6895 6894 ] final  -87.83 input  -60.11 | X-H torsion
[ 7974 7965 7964 7962 ] final  130.06 input  175.53 | X-H torsion
[ 8008 7997 7996 7995 ] final   38.81 input   59.86 | X-H torsion
[ 10167 10162 10161 10158 ] final  -32.82 input  -65.29 | X-H torsion
[ 10718 10713 10712 10709 ] final   38.56 input   66.30 | X-H torsion
[ 10763 10752 10751 10750 ] final   25.42 input  -60.55 | X-H torsion
[ 11005 11000 10999 10996 ] final  -70.57 input  -57.11 | X-H torsion

> <Gold.Protein.ActiveResidues>
 VAL166  LYS551  ARG553  GLY616  TRP617  ASP618  TYR619  PRO620  LYS621  CYS622 
 ASP623  PHE694  ASN695  SER759  ASP760  ASP761  ALA762  ILE779  LEU786  VAL792 
 PHE793  MET794  SER795  GLU796  ALA797  LYS798  CYS799  TRP800  GLU811  SER814 

> <Gold.Protein.RotatedAtoms>
  150.6867  134.2835  159.4636 H   0  0  0  0  0  0  0  0  0  0  0  0  # atno 6907 bound_to 6896
  152.0747  134.9508  160.0583 H   0  0  0  0  0  0  0  0  0  0  0  0  # atno 6908 bound_to 6896
  152.0884  133.4153  159.4569 H   0  0  0  0  0  0  0  0  0  0  0  0  # atno 6909 bound_to 6896
  145.0220  139.4123  143.5193 H   0  0  0  0  0  0  0  0  0  0  0  0  # atno 7974 bound_to 7965
  155.2264  140.3335  155.4309 H   0  0  0  0  0  0  0  0  0  0  0  0  # atno 8008 bound_to 7997
  156.2313  140.1852  156.7282 H   0  0  0  0  0  0  0  0  0  0  0  0  # atno 8009 bound_to 7997
  154.5982  140.0627  156.9318 H   0  0  0  0  0  0  0  0  0  0  0  0  # atno 8010 bound_to 7997
  140.7215  143.3666  151.1859 H   0  0  0  0  0  0  0  0  0  0  0  0  # atno 10167 bound_to 10162
  157.3602  130.7645  149.7042 H   0  0  0  0  0  0  0  0  0  0  0  0  # atno 10718 bound_to 10713
  153.0693  135.6583  154.0283 H   0  0  0  0  0  0  0  0  0  0  0  0  # atno 10763 bound_to 10752
  153.9932  135.2944  155.3411 H   0  0  0  0  0  0  0  0  0  0  0  0  # atno 10764 bound_to 10752
  154.7062  135.5224  153.8669 H   0  0  0  0  0  0  0  0  0  0  0  0  # atno 10765 bound_to 10752
  141.1576  133.6793  156.6772 H   0  0  0  0  0  0  0  0  0  0  0  0  # atno 11005 bound_to 11000
  146.3487  139.9723  142.8705 LP  0  0  0  0  0  0  0  0  0  0  0  0  # atno 17320 bound_to 7965
  145.1883  140.9800  143.4226 LP  0  0  0  0  0  0  0  0  0  0  0  0  # atno 17321 bound_to 7965
  139.7229  143.9194  152.2992 LP  0  0  0  0  0  0  0  0  0  0  0  0  # atno 17342 bound_to 10162
  139.8957  144.6940  150.8720 LP  0  0  0  0  0  0  0  0  0  0  0  0  # atno 17343 bound_to 10162
  155.9736  130.4116  150.3988 LP  0  0  0  0  0  0  0  0  0  0  0  0  # atno 17370 bound_to 10713
  157.2065  131.0450  151.2622 LP  0  0  0  0  0  0  0  0  0  0  0  0  # atno 17371 bound_to 10713
  140.3130  134.8071  157.4191 LP  0  0  0  0  0  0  0  0  0  0  0  0  # atno 17394 bound_to 11000
  140.1162  134.5279  155.8222 LP  0  0  0  0  0  0  0  0  0  0  0  0  # atno 17395 bound_to 11000

$$$$
