AV-unprocessed.smi:1153|AV-procd|sdf|4899|dock7
  -GOLD-   22720 3473D 1   1.00000     0.00000
 Structure written by MMmdl.
 26 27  0  0  0  0  0  0  0  0  1 V2000
  153.5299  139.0580  157.8401 O   0  0  0  0  0  0  0  0  0  0  0  0
  153.0691  139.0285  158.9821 C   0  0  0  0  0  0  0  0  0  0  0  0
  153.7624  139.7750  160.1281 C   0  0  0  0  0  0  0  0  0  0  0  0
  153.3190  141.1552  160.2403 N   0  0  0  0  0  0  0  0  0  0  0  0
  153.4757  142.0237  161.2995 C   0  0  0  0  0  0  0  0  0  0  0  0
  152.8938  143.2064  160.9443 C   0  0  0  0  0  0  0  0  0  0  0  0
  152.3949  142.9669  159.6308 C   0  0  0  0  0  0  0  0  0  0  0  0
  151.6521  143.9143  158.7258 C   0  0  0  0  0  0  0  0  0  0  0  0
  151.2591  143.2759  157.6236 F   0  0  0  0  0  0  0  0  0  0  0  0
  150.5766  144.3994  159.3462 F   0  0  0  0  0  0  0  0  0  0  0  0
  152.4433  144.9303  158.3814 F   0  0  0  0  0  0  0  0  0  0  0  0
  152.6516  141.7326  159.2183 N   0  0  0  0  0  0  0  0  0  0  0  0
  151.9507  138.3641  159.3088 N   0  0  0  0  0  0  0  0  0  0  0  0
  151.1444  137.6040  158.4094 C   0  0  0  0  0  0  0  0  0  0  0  0
  149.7513  138.1149  158.1116 C   0  0  0  0  0  0  0  0  0  0  0  0
  149.9317  136.8994  158.9782 C   0  0  0  0  0  0  0  0  0  0  0  0
  153.5687  139.2518  161.0656 H   0  0  0  0  0  0  0  0  0  0  0  0
  154.8427  139.7752  159.9767 H   0  0  0  0  0  0  0  0  0  0  0  0
  153.9854  141.7316  162.2059 H   0  0  0  0  0  0  0  0  0  0  0  0
  152.8333  144.1091  161.5340 H   0  0  0  0  0  0  0  0  0  0  0  0
  151.6453  138.4002  160.2705 H   0  0  0  0  0  0  0  0  0  0  0  0
  151.6513  137.0949  157.5909 H   0  0  0  0  0  0  0  0  0  0  0  0
  149.4309  139.0348  158.5973 H   0  0  0  0  0  0  0  0  0  0  0  0
  149.3660  137.9618  157.1054 H   0  0  0  0  0  0  0  0  0  0  0  0
  149.6667  135.9343  158.5510 H   0  0  0  0  0  0  0  0  0  0  0  0
  149.7314  137.0078  160.0426 H   0  0  0  0  0  0  0  0  0  0  0  0
  1  2  2  0  0  0  0
  2  3  1  0  0  0  0
  2 13  1  0  0  0  0
  3  4  1  0  0  0  0
  3 17  1  0  0  0  0
  3 18  1  0  0  0  0
  4 12  1  0  0  0  0
  4  5  1  0  0  0  0
  5  6  2  0  0  0  0
  5 19  1  0  0  0  0
  6  7  1  0  0  0  0
  6 20  1  0  0  0  0
  7  8  1  0  0  0  0
  7 12  2  0  0  0  0
  8  9  1  0  0  0  0
  8 10  1  0  0  0  0
  8 11  1  0  0  0  0
 13 14  1  0  0  0  0
 13 21  1  0  0  0  0
 14 16  1  0  0  0  0
 14 15  1  0  0  0  0
 14 22  1  0  0  0  0
 15 16  1  0  0  0  0
 15 23  1  0  0  0  0
 15 24  1  0  0  0  0
 16 25  1  0  0  0  0
 16 26  1  0  0  0  0
M  END
> <s_m_source_file>
AV-unprocessed.smi

> <i_m_source_file_index>
1153

> <i_lp_mmshare_version>
43012

> <i_f3d_flags>
0

> <s_epik_input>
W0NIMl0xW0NIMl1bQ0hdMVtOSF1DKD1PKVtDSDJdbjJbY0hdW2NIXWMobjIpQyhGKShGKUY=

> <s_epik_cmdline>
J2VwaWtfcHl0aG9uJywgJy1waCcsICc3LjAnLCAnLXRuJywgJzgnLCAnLW1hJywgJzIwMCcsICctbWV0YWxfYmluZGluZycsICctaW1hZScsICc8aW5maWxlLm1hZT4nLCAnLW9tYWUnLCAnPG91dGZpbGUubWFlPic=

> <r_lp_tautomer_probability>
1

> <r_epik_Ionization_Penalty>
7.21317e-08

> <r_epik_Ionization_Penalty_Charging>
0

> <r_epik_Ionization_Penalty_Neutral>
7.21317e-08

> <r_epik_State_Penalty>
-0

> <r_epik_Charging_Adjusted_Penalty>
0

> <i_epik_Tot_Q>
0

> <i_epik_Tot_abs_Q>
0

> <r_epik_Metal_State_Penalty>
-0

> <b_epik_Metal_Only>
0

> <s_lp_Force_Field>
OPLS_2005

> <r_lp_Energy>
18.4383

> <b_lp_Chiralities_Consistent>
1

> <s_lp_Variant>
AV-unprocessed.smi:1153-1

> <Gold.Version>
5.8.1

> <Gold.Id.Protein>
6NUR|6NUR_protein|mol2

> <Gold.PLP.Fitness>
39.5910

> <Gold.PLP.PLP>
-37.9057

> <Gold.PLP.part.hbond>
-1.0000

> <Gold.PLP.part.metal>
0.0000

> <Gold.PLP.part.buried>
-5.5992

> <Gold.PLP.part.nonpolar>
-31.5343

> <Gold.PLP.part.repulsive>
0.1113

> <Gold.PLP.ligand.clash>
0.0000

> <Gold.PLP.ligand.torsion>
0.6792

> <Gold.PLP.Chemscore.Hbond>
1.0000

> <Gold.PLP.Chemscore.CHOScore>
0.0000

> <Gold.PLP.Chemscore.Metal>
0.0000

> <Gold.Chemscore.Hbonds>
donor molecule, donor type, donor heavy atom, donor atom, acceptor molecule, acceptor atom, score
      P1  H  7997  8009       L1     1  1.00

> <Gold.PLP.Chemscore.Internal.Correction>
0.0435

> <Gold.Rescore>
     Score         DG    S(hbond)    S(metal)    S(lipo)     H(rot)  DE(clash)    DE(int)     intcor
     11.74     -12.25       1.00        0.00      65.22       1.64       0.01       0.50       ----

> <Gold.Chemscore.Fitness>
11.7357

> <Gold.Chemscore.DG>
-12.2519

> <Gold.Chemscore.ZeroCoef>
-5.4800

> <Gold.Chemscore.Hbond>
0.9977

> <Gold.Chemscore.Metal>
0.0000

> <Gold.Chemscore.Lipo>
65.2202

> <Gold.Chemscore.Internal_Hbond>
0.0000

> <Gold.Chemscore.DEClash>
0.0146

> <Gold.Chemscore.DEInternal>
0.5016

> <Gold.Chemscore.Rot>
1.6372

> <Gold.Chemscore.Internal.Correction>
   9.000000E+99

> <Gold.Chemscore.Hbonds>
donor molecule, donor type, donor heavy atom, donor atom, acceptor molecule, acceptor atom, score
      P1  H  7997  8009       L1     1  1.00

> <Gold.Chemscore.Hbond.Weighted>
-3.3325

> <Gold.Chemscore.Metal.Weighted>
-0.0000

> <Gold.Chemscore.Lipo.Weighted>
-7.6308

> <Gold.Chemscore.Internal_Hbond.Weighted>
0.0000

> <Gold.Chemscore.DEClash.Weighted>
0.0146

> <Gold.Chemscore.DEInternal.Weighted>
0.5016

> <Gold.Chemscore.Rot.Weighted>
4.1913

> <Gold.Chemscore.Internal.Correction.Weighted>
   9.000000E+99

> <Gold.Protein.RotatedTorsions>
[ 6907 6896 6895 6894 ] final -103.34 input  -60.11 | X-H torsion
[ 7974 7965 7964 7962 ] final -125.27 input  175.53 | X-H torsion
[ 8008 7997 7996 7995 ] final  158.99 input   59.86 | X-H torsion
[ 10167 10162 10161 10158 ] final  156.51 input  -65.29 | X-H torsion
[ 10718 10713 10712 10709 ] final   95.29 input   66.30 | X-H torsion
[ 10763 10752 10751 10750 ] final   -6.71 input  -60.55 | X-H torsion
[ 11005 11000 10999 10996 ] final  -99.87 input  -57.11 | X-H torsion

> <Gold.Protein.ActiveResidues>
 VAL166  LYS551  ARG553  GLY616  TRP617  ASP618  TYR619  PRO620  LYS621  CYS622 
 ASP623  PHE694  ASN695  SER759  ASP760  ASP761  ALA762  ILE779  LEU786  VAL792 
 PHE793  MET794  SER795  GLU796  ALA797  LYS798  CYS799  TRP800  GLU811  SER814 

> <Gold.Protein.RotatedAtoms>
  150.7236  134.0444  159.3776 H   0  0  0  0  0  0  0  0  0  0  0  0  # atno 6907 bound_to 6896
  151.8418  135.0585  160.0458 H   0  0  0  0  0  0  0  0  0  0  0  0  # atno 6908 bound_to 6896
  152.2856  133.5476  159.5562 H   0  0  0  0  0  0  0  0  0  0  0  0  # atno 6909 bound_to 6896
  144.9993  140.7805  143.4506 H   0  0  0  0  0  0  0  0  0  0  0  0  # atno 7974 bound_to 7965
  156.2268  140.1843  156.7344 H   0  0  0  0  0  0  0  0  0  0  0  0  # atno 8008 bound_to 7997
  154.5954  140.0644  156.9324 H   0  0  0  0  0  0  0  0  0  0  0  0  # atno 8009 bound_to 7997
  155.2265  140.3311  155.4311 H   0  0  0  0  0  0  0  0  0  0  0  0  # atno 8010 bound_to 7997
  139.4821  144.5002  151.8179 H   0  0  0  0  0  0  0  0  0  0  0  0  # atno 10167 bound_to 10162
  157.6940  131.0541  150.4317 H   0  0  0  0  0  0  0  0  0  0  0  0  # atno 10718 bound_to 10713
  153.4161  135.7009  153.6326 H   0  0  0  0  0  0  0  0  0  0  0  0  # atno 10763 bound_to 10752
  153.4800  135.3696  155.2437 H   0  0  0  0  0  0  0  0  0  0  0  0  # atno 10764 bound_to 10752
  154.8719  135.4063  154.3521 H   0  0  0  0  0  0  0  0  0  0  0  0  # atno 10765 bound_to 10752
  141.1292  133.8355  157.1028 H   0  0  0  0  0  0  0  0  0  0  0  0  # atno 11005 bound_to 11000
  145.2175  139.2175  143.5110 LP  0  0  0  0  0  0  0  0  0  0  0  0  # atno 17320 bound_to 7965
  146.3448  140.2026  142.8589 LP  0  0  0  0  0  0  0  0  0  0  0  0  # atno 17321 bound_to 7965
  140.4495  144.1875  150.5896 LP  0  0  0  0  0  0  0  0  0  0  0  0  # atno 17342 bound_to 10162
  140.4600  143.2453  151.9233 LP  0  0  0  0  0  0  0  0  0  0  0  0  # atno 17343 bound_to 10162
  156.4683  130.4047  149.6534 LP  0  0  0  0  0  0  0  0  0  0  0  0  # atno 17370 bound_to 10713
  156.3624  130.7488  151.2462 LP  0  0  0  0  0  0  0  0  0  0  0  0  # atno 17371 bound_to 10713
  140.0323  134.9895  157.0804 LP  0  0  0  0  0  0  0  0  0  0  0  0  # atno 17394 bound_to 11000
  140.4266  134.1825  155.7166 LP  0  0  0  0  0  0  0  0  0  0  0  0  # atno 17395 bound_to 11000

$$$$
