AV-unprocessed.smi:1525|AV-procd|sdf|6145|dock8
  -GOLD-   22720 6293D 1   1.00000     0.00000
 Structure written by MMmdl.
 49 51  0  0  0  0  0  0  0  0  4 V2000
  152.7973  138.3088  156.2343 O   0  0  0  0  0  0  0  0  0  0  0  0
  151.6123  138.1014  155.9494 C   0  0  0  0  0  0  0  0  0  0  0  0
  151.0689  136.9753  155.4153 N   0  5  0  0  0  0  0  0  0  0  0  0
  149.6999  136.5176  155.6459 C   0  0  0  0  0  0  0  0  0  0  0  0
  149.5706  135.0278  155.2678 C   0  0  0  0  0  0  0  0  0  0  0  0
  148.3972  134.7745  154.3909 N   0  3  0  0  0  0  0  0  0  0  0  0
  148.3219  133.3833  153.8719 C   0  0  0  0  0  0  0  0  0  0  0  0
  147.1197  133.2286  152.9262 C   0  0  0  0  0  0  0  0  0  0  0  0
  145.9251  133.5882  153.6096 O   0  0  0  0  0  0  0  0  0  0  0  0
  145.9463  134.9430  154.0416 C   0  0  0  0  0  0  0  0  0  0  0  0
  147.1108  135.1560  155.0229 C   0  0  0  0  0  0  0  0  0  0  0  0
  150.6850  139.0464  156.1746 N   0  0  0  0  0  0  0  0  0  0  0  0
  150.8458  140.3225  156.7807 C   0  0  0  0  0  0  0  0  0  0  0  0
  151.8822  140.5762  157.7138 C   0  0  0  0  0  0  0  0  0  0  0  0
  152.0303  141.8654  158.2616 C   0  0  0  0  0  0  0  0  0  0  0  0
  151.1485  142.8848  157.8582 C   0  0  0  0  0  0  0  0  0  0  0  0
  150.1826  142.6161  156.9548 N   0  3  0  0  0  0  0  0  0  0  0  0
  149.9936  141.3969  156.4011 C   0  0  0  0  0  0  0  0  0  0  0  0
  148.9354  141.3043  155.4807 N   0  0  0  0  0  0  0  0  0  0  0  0
  147.7446  140.5859  155.9252 C   0  0  0  0  0  0  0  0  0  0  0  0
  147.4329  139.5481  154.8427 C   0  0  0  0  0  0  0  0  0  0  0  0
  148.0687  140.1441  153.5915 C   0  0  0  0  0  0  0  0  0  0  0  0
  149.3032  140.8559  154.1433 C   0  0  0  0  0  0  0  0  0  0  0  0
  149.3850  136.6534  156.6816 H   0  0  0  0  0  0  0  0  0  0  0  0
  148.9921  137.0958  155.0518 H   0  0  0  0  0  0  0  0  0  0  0  0
  150.4820  134.6641  154.7903 H   0  0  0  0  0  0  0  0  0  0  0  0
  149.4655  134.4527  156.1893 H   0  0  0  0  0  0  0  0  0  0  0  0
  149.2389  133.1261  153.3406 H   0  0  0  0  0  0  0  0  0  0  0  0
  148.2304  132.6855  154.7058 H   0  0  0  0  0  0  0  0  0  0  0  0
  147.2440  133.8444  152.0340 H   0  0  0  0  0  0  0  0  0  0  0  0
  147.0370  132.1948  152.5908 H   0  0  0  0  0  0  0  0  0  0  0  0
  146.0342  135.6103  153.1826 H   0  0  0  0  0  0  0  0  0  0  0  0
  144.9985  135.1738  154.5281 H   0  0  0  0  0  0  0  0  0  0  0  0
  146.9559  134.5632  155.9257 H   0  0  0  0  0  0  0  0  0  0  0  0
  147.1440  136.2033  155.3261 H   0  0  0  0  0  0  0  0  0  0  0  0
  149.7318  138.7610  156.0039 H   0  0  0  0  0  0  0  0  0  0  0  0
  152.5754  139.8016  158.0054 H   0  0  0  0  0  0  0  0  0  0  0  0
  152.8145  142.0695  158.9759 H   0  0  0  0  0  0  0  0  0  0  0  0
  151.1898  143.9009  158.2224 H   0  0  0  0  0  0  0  0  0  0  0  0
  147.8632  140.1225  156.9056 H   0  0  0  0  0  0  0  0  0  0  0  0
  146.9285  141.3048  156.0023 H   0  0  0  0  0  0  0  0  0  0  0  0
  147.9155  138.6005  155.0847 H   0  0  0  0  0  0  0  0  0  0  0  0
  146.3648  139.3598  154.7312 H   0  0  0  0  0  0  0  0  0  0  0  0
  148.3113  139.3955  152.8366 H   0  0  0  0  0  0  0  0  0  0  0  0
  147.3902  140.8712  153.1430 H   0  0  0  0  0  0  0  0  0  0  0  0
  149.5889  141.7003  153.5158 H   0  0  0  0  0  0  0  0  0  0  0  0
  150.1503  140.1702  154.1810 H   0  0  0  0  0  0  0  0  0  0  0  0
  148.5098  135.3846  153.5936 H   0  0  0  0  0  0  0  0  0  0  0  0
  149.5592  143.3736  156.6746 H   0  0  0  0  0  0  0  0  0  0  0  0
  1  2  2  0  0  0  0
  2  3  1  0  0  0  0
  2 12  1  0  0  0  0
  3  4  1  0  0  0  0
  4  5  1  0  0  0  0
  4 24  1  0  0  0  0
  4 25  1  0  0  0  0
  5  6  1  0  0  0  0
  5 26  1  0  0  0  0
  5 27  1  0  0  0  0
  6 11  1  0  0  0  0
  6  7  1  0  0  0  0
  6 48  1  0  0  0  0
  7  8  1  0  0  0  0
  7 28  1  0  0  0  0
  7 29  1  0  0  0  0
  8  9  1  0  0  0  0
  8 30  1  0  0  0  0
  8 31  1  0  0  0  0
  9 10  1  0  0  0  0
 10 11  1  0  0  0  0
 10 32  1  0  0  0  0
 10 33  1  0  0  0  0
 11 34  1  0  0  0  0
 11 35  1  0  0  0  0
 12 13  1  0  0  0  0
 12 36  1  0  0  0  0
 13 18  1  0  0  0  0
 13 14  2  0  0  0  0
 14 15  1  0  0  0  0
 14 37  1  0  0  0  0
 15 16  2  0  0  0  0
 15 38  1  0  0  0  0
 16 17  1  0  0  0  0
 16 39  1  0  0  0  0
 17 18  2  0  0  0  0
 17 49  1  0  0  0  0
 18 19  1  0  0  0  0
 19 23  1  0  0  0  0
 19 20  1  0  0  0  0
 20 21  1  0  0  0  0
 20 40  1  0  0  0  0
 20 41  1  0  0  0  0
 21 22  1  0  0  0  0
 21 42  1  0  0  0  0
 21 43  1  0  0  0  0
 22 23  1  0  0  0  0
 22 44  1  0  0  0  0
 22 45  1  0  0  0  0
 23 46  1  0  0  0  0
 23 47  1  0  0  0  0
M  CHG  1   3  -1
M  CHG  1   6   1
M  CHG  1  17   1
M  END
> <s_m_source_file>
AV-unprocessed.smi

> <i_m_source_file_index>
1525

> <i_lp_mmshare_version>
43012

> <i_f3d_flags>
0

> <s_epik_input>
W0NIMl0xW0NIMl1PW0NIMl1bQ0gyXU4xW0NIMl1bQ0gyXVtOSF1DKD1PKVtOSF1jMltjSF1bY0hdW2NIXW5jMk4zW0NIMl1bQ0gyXVtDSDJdW0NIMl0z

> <s_epik_cmdline>
J2VwaWtfcHl0aG9uJywgJy1waCcsICc3LjAnLCAnLXRuJywgJzgnLCAnLW1hJywgJzIwMCcsICctbWV0YWxfYmluZGluZycsICctaW1hZScsICc8aW5maWxlLm1hZT4nLCAnLW9tYWUnLCAnPG91dGZpbGUubWFlPic=

> <r_lp_tautomer_probability>
0.999994

> <r_epik_Ionization_Penalty>
8.59159

> <r_epik_Ionization_Penalty_Charging>
8.59159

> <r_epik_Ionization_Penalty_Neutral>
3.55275e-06

> <r_epik_State_Penalty>
8.58545

> <r_epik_Charging_Adjusted_Penalty>
17.177

> <i_epik_Tot_Q>
1

> <i_epik_Tot_abs_Q>
3

> <r_epik_Metal_State_Penalty>
4.58086

> <b_epik_Metal_Only>
1

> <s_lp_Force_Field>
OPLS_2005

> <r_lp_Energy>
45.7376

> <b_lp_Chiralities_Consistent>
1

> <s_lp_Variant>
AV-unprocessed.smi:1525-5

> <Gold.Version>
5.8.1

> <Gold.Id.Protein>
6NUR|6NUR_protein|mol2

> <Gold.PLP.Fitness>
48.8773

> <Gold.PLP.PLP>
-30.6916

> <Gold.PLP.part.hbond>
-4.0000

> <Gold.PLP.part.metal>
0.0000

> <Gold.PLP.part.buried>
-1.3725

> <Gold.PLP.part.nonpolar>
-22.9230

> <Gold.PLP.part.repulsive>
0.4034

> <Gold.PLP.ligand.clash>
0.0000

> <Gold.PLP.ligand.torsion>
0.9625

> <Gold.PLP.Chemscore.Hbond>
6.6450

> <Gold.PLP.Chemscore.CHOScore>
0.0000

> <Gold.PLP.Chemscore.Metal>
0.0000

> <Gold.Chemscore.Hbonds>
donor molecule, donor type, donor heavy atom, donor atom, acceptor molecule, acceptor atom, score
      L1  H     6    48       P1  7948  2.00
      L1  H    17    49       P1  8028  2.00
      P1  H  7997  8010       L1     1  0.08

> <Gold.PLP.Chemscore.Internal.Correction>
0.1756

> <Gold.Rescore>
     Score         DG    S(hbond)    S(metal)    S(lipo)     H(rot)  DE(clash)    DE(int)     intcor
     16.89     -20.48       3.05        0.00      77.55       1.66       1.33       2.25       ----

> <Gold.Chemscore.Fitness>
16.8914

> <Gold.Chemscore.DG>
-20.4780

> <Gold.Chemscore.ZeroCoef>
-5.4800

> <Gold.Chemscore.Hbond>
3.0485

> <Gold.Chemscore.Metal>
0.0000

> <Gold.Chemscore.Lipo>
77.5533

> <Gold.Chemscore.Internal_Hbond>
0.0000

> <Gold.Chemscore.DEClash>
1.3318

> <Gold.Chemscore.DEInternal>
2.2547

> <Gold.Chemscore.Rot>
1.6632

> <Gold.Chemscore.Internal.Correction>
   9.000000E+99

> <Gold.Chemscore.Hbonds>
donor molecule, donor type, donor heavy atom, donor atom, acceptor molecule, acceptor atom, score
      L1  H     6    48       P1  7948  0.96
      L1  H    17    49       P1  8028  0.99
      P1  H  7997  8010       L1     1  0.12
      P1  H 10752 10763       L1     3  0.02

> <Gold.Chemscore.Hbond.Weighted>
-10.1820

> <Gold.Chemscore.Metal.Weighted>
-0.0000

> <Gold.Chemscore.Lipo.Weighted>
-9.0737

> <Gold.Chemscore.Internal_Hbond.Weighted>
0.0000

> <Gold.Chemscore.DEClash.Weighted>
1.3318

> <Gold.Chemscore.DEInternal.Weighted>
2.2547

> <Gold.Chemscore.Rot.Weighted>
4.2577

> <Gold.Chemscore.Internal.Correction.Weighted>
   9.000000E+99

> <Gold.Protein.RotatedTorsions>
[ 6907 6896 6895 6894 ] final   20.76 input  -60.11 | X-H torsion
[ 7974 7965 7964 7962 ] final    3.92 input  175.53 | X-H torsion
[ 8008 7997 7996 7995 ] final   86.41 input   59.86 | X-H torsion
[ 10167 10162 10161 10158 ] final   -4.20 input  -65.29 | X-H torsion
[ 10718 10713 10712 10709 ] final  -65.96 input   66.30 | X-H torsion
[ 10763 10752 10751 10750 ] final   57.58 input  -60.55 | X-H torsion
[ 11005 11000 10999 10996 ] final  -86.36 input  -57.11 | X-H torsion

> <Gold.Protein.ActiveResidues>
 VAL166  LYS551  ARG553  GLY616  TRP617  ASP618  TYR619  PRO620  LYS621  CYS622 
 ASP623  PHE694  ASN695  SER759  ASP760  ASP761  ALA762  ILE779  LEU786  VAL792 
 PHE793  MET794  SER795  GLU796  ALA797  LYS798  CYS799  TRP800  GLU811  SER814 

> <Gold.Protein.RotatedAtoms>
  151.9014  135.0377  160.0506 H   0  0  0  0  0  0  0  0  0  0  0  0  # atno 6907 bound_to 6896
  152.2355  133.5088  159.5248 H   0  0  0  0  0  0  0  0  0  0  0  0  # atno 6908 bound_to 6896
  150.7038  134.1076  159.4031 H   0  0  0  0  0  0  0  0  0  0  0  0  # atno 6909 bound_to 6896
  146.2445  140.0613  142.8368 H   0  0  0  0  0  0  0  0  0  0  0  0  # atno 7974 bound_to 7965
  155.9625  140.3392  155.6503 H   0  0  0  0  0  0  0  0  0  0  0  0  # atno 8008 bound_to 7997
  155.6780  140.0734  157.2513 H   0  0  0  0  0  0  0  0  0  0  0  0  # atno 8009 bound_to 7997
  154.4146  140.1679  156.1939 H   0  0  0  0  0  0  0  0  0  0  0  0  # atno 8010 bound_to 7997
  140.6919  143.6451  150.8400 H   0  0  0  0  0  0  0  0  0  0  0  0  # atno 10167 bound_to 10162
  156.0639  130.4255  150.1639 H   0  0  0  0  0  0  0  0  0  0  0  0  # atno 10718 bound_to 10713
  152.9853  135.5636  154.5414 H   0  0  0  0  0  0  0  0  0  0  0  0  # atno 10763 bound_to 10752
  154.4867  135.2791  155.1530 H   0  0  0  0  0  0  0  0  0  0  0  0  # atno 10764 bound_to 10752
  154.3016  135.6306  153.5480 H   0  0  0  0  0  0  0  0  0  0  0  0  # atno 10765 bound_to 10752
  141.1631  133.7450  156.9150 H   0  0  0  0  0  0  0  0  0  0  0  0  # atno 11005 bound_to 11000
  145.0897  140.9276  143.4776 LP  0  0  0  0  0  0  0  0  0  0  0  0  # atno 17320 bound_to 7965
  145.0783  139.2979  143.5796 LP  0  0  0  0  0  0  0  0  0  0  0  0  # atno 17321 bound_to 7965
  140.0165  143.5587  152.2818 LP  0  0  0  0  0  0  0  0  0  0  0  0  # atno 17342 bound_to 10162
  139.6330  144.7646  151.2496 LP  0  0  0  0  0  0  0  0  0  0  0  0  # atno 17343 bound_to 10162
  156.9703  130.9832  151.3460 LP  0  0  0  0  0  0  0  0  0  0  0  0  # atno 17370 bound_to 10713
  157.5668  130.8283  149.8338 LP  0  0  0  0  0  0  0  0  0  0  0  0  # atno 17371 bound_to 10713
  140.1490  134.9242  157.2568 LP  0  0  0  0  0  0  0  0  0  0  0  0  # atno 17394 bound_to 11000
  140.2745  134.3422  155.7363 LP  0  0  0  0  0  0  0  0  0  0  0  0  # atno 17395 bound_to 11000

$$$$
