AV-unprocessed.smi:261|AV-procd|sdf|1984|dock3
  -GOLD-   2262021163D 1   1.00000     0.00000
 Structure written by MMmdl.
 51 54  0  0  0  0  0  0  0  0  1 V2000
  152.6706  140.9643  158.5014 C   0  0  0  0  0  0  0  0  0  0  0  0
  152.8200  139.6078  158.1157 O   0  0  0  0  0  0  0  0  0  0  0  0
  152.1199  139.2768  156.9253 C   0  0  2  0  0  0  0  0  0  0  0  0
  150.6414  139.6761  156.9573 C   0  0  0  0  0  0  0  0  0  0  0  0
  149.9643  138.7160  155.9644 C   0  0  1  0  0  0  0  0  0  0  0  0
  149.9154  139.3033  154.5426 C   0  0  0  0  0  0  0  0  0  0  0  0
  149.4514  138.5040  153.5794 N   0  0  0  0  0  0  0  0  0  0  0  0
  150.2746  140.4576  154.3154 O   0  0  0  0  0  0  0  0  0  0  0  0
  150.8014  137.5155  156.0321 N   0  0  0  0  0  0  0  0  0  0  0  0
  150.3644  136.2723  155.6887 C   0  0  0  0  0  0  0  0  0  0  0  0
  151.2269  135.2283  155.8126 N   0  0  0  0  0  0  0  0  0  0  0  0
  150.8496  133.9875  155.4956 C   0  0  0  0  0  0  0  0  0  0  0  0
  149.6705  133.5669  155.0389 N   0  0  0  0  0  0  0  0  0  0  0  0
  148.7951  134.6038  154.9093 C   0  0  0  0  0  0  0  0  0  0  0  0
  149.0535  135.9741  155.2066 C   0  0  0  0  0  0  0  0  0  0  0  0
  147.9114  136.7247  154.9449 N   0  0  0  0  0  0  0  0  0  0  0  0
  147.0340  135.8537  154.5299 C   0  0  0  0  0  0  0  0  0  0  0  0
  147.4792  134.5536  154.4837 N   0  0  0  0  0  0  0  0  0  0  0  0
  146.7186  133.3848  154.0729 C   0  0  0  0  0  0  0  0  0  0  0  0
  145.3969  133.7168  153.3443 C   0  0  2  0  0  0  0  0  0  0  0  0
  144.3348  133.8586  154.2682 O   0  0  0  0  0  0  0  0  0  0  0  0
  145.0054  132.7405  152.2106 C   0  0  2  0  0  0  0  0  0  0  0  0
  146.0495  132.5330  151.1158 C   0  0  0  0  0  0  0  0  0  0  0  0
  145.2227  131.8965  150.0155 C   0  0  0  0  0  0  0  0  0  0  0  0
  143.8161  132.4622  150.2430 C   0  0  0  0  0  0  0  0  0  0  0  0
  143.8549  133.1528  151.4879 O   0  0  0  0  0  0  0  0  0  0  0  0
  152.0504  137.7604  156.7407 C   0  0  0  0  0  0  0  0  0  0  0  0
  152.6077  139.7181  156.0538 H   0  0  0  0  0  0  0  0  0  0  0  0
  148.9502  138.5032  156.3074 H   0  0  0  0  0  0  0  0  0  0  0  0
  153.2603  141.1546  159.3981 H   0  0  0  0  0  0  0  0  0  0  0  0
  151.6319  141.2044  158.7297 H   0  0  0  0  0  0  0  0  0  0  0  0
  153.0225  141.6384  157.7195 H   0  0  0  0  0  0  0  0  0  0  0  0
  150.2369  139.5050  157.9561 H   0  0  0  0  0  0  0  0  0  0  0  0
  150.4845  140.7290  156.7189 H   0  0  0  0  0  0  0  0  0  0  0  0
  149.3903  138.8414  152.6299 H   0  0  0  0  0  0  0  0  0  0  0  0
  149.1555  137.5659  153.8073 H   0  0  0  0  0  0  0  0  0  0  0  0
  151.6001  133.2225  155.6286 H   0  0  0  0  0  0  0  0  0  0  0  0
  146.0298  136.1371  154.2508 H   0  0  0  0  0  0  0  0  0  0  0  0
  147.3553  132.7710  153.4346 H   0  0  0  0  0  0  0  0  0  0  0  0
  146.5082  132.7822  154.9573 H   0  0  0  0  0  0  0  0  0  0  0  0
  145.5243  134.6999  152.8899 H   0  0  0  0  0  0  0  0  0  0  0  0
  143.8596  133.0430  154.3066 H   0  0  0  0  0  0  0  0  0  0  0  0
  144.7747  131.7706  152.6554 H   0  0  0  0  0  0  0  0  0  0  0  0
  146.4489  133.4863  150.7682 H   0  0  0  0  0  0  0  0  0  0  0  0
  146.8842  131.9091  151.4363 H   0  0  0  0  0  0  0  0  0  0  0  0
  145.6103  132.1189  149.0211 H   0  0  0  0  0  0  0  0  0  0  0  0
  145.2104  130.8126  150.1373 H   0  0  0  0  0  0  0  0  0  0  0  0
  143.5255  133.1552  149.4533 H   0  0  0  0  0  0  0  0  0  0  0  0
  143.0749  131.6631  150.2823 H   0  0  0  0  0  0  0  0  0  0  0  0
  152.9152  137.3980  156.1843 H   0  0  0  0  0  0  0  0  0  0  0  0
  152.0169  137.2537  157.7065 H   0  0  0  0  0  0  0  0  0  0  0  0
  1  2  1  0  0  0  0
  1 30  1  0  0  0  0
  1 31  1  0  0  0  0
  1 32  1  0  0  0  0
  2  3  1  0  0  0  0
  3 28  1  0  0  0  0
  3 27  1  0  0  0  0
  3  4  1  0  0  0  0
  4  5  1  0  0  0  0
  4 33  1  0  0  0  0
  4 34  1  0  0  0  0
  5 29  1  0  0  0  0
  5  6  1  0  0  0  0
  5  9  1  0  0  0  0
  6  7  1  0  0  0  0
  6  8  2  0  0  0  0
  7 35  1  0  0  0  0
  7 36  1  0  0  0  0
  9 10  1  0  0  0  0
  9 27  1  0  0  0  0
 10 15  1  0  0  0  0
 10 11  2  0  0  0  0
 11 12  1  0  0  0  0
 12 13  2  0  0  0  0
 12 37  1  0  0  0  0
 13 14  1  0  0  0  0
 14 18  1  0  0  0  0
 14 15  2  0  0  0  0
 15 16  1  0  0  0  0
 16 17  2  0  0  0  0
 17 18  1  0  0  0  0
 17 38  1  0  0  0  0
 18 19  1  0  0  0  0
 19 20  1  0  0  0  0
 19 39  1  0  0  0  0
 19 40  1  0  0  0  0
 20 21  1  0  0  0  0
 20 22  1  0  0  0  0
 20 41  1  0  0  0  0
 21 42  1  0  0  0  0
 22 26  1  0  0  0  0
 22 23  1  0  0  0  0
 22 43  1  0  0  0  0
 23 24  1  0  0  0  0
 23 44  1  0  0  0  0
 23 45  1  0  0  0  0
 24 25  1  0  0  0  0
 24 46  1  0  0  0  0
 24 47  1  0  0  0  0
 25 26  1  0  0  0  0
 25 48  1  0  0  0  0
 25 49  1  0  0  0  0
 27 50  1  0  0  0  0
 27 51  1  0  0  0  0
M  END
> <s_m_source_file>
AV-unprocessed.smi

> <i_m_source_file_index>
261

> <i_lp_mmshare_version>
43012

> <i_f3d_flags>
0

> <s_epik_input>
W0NIM11PW0NASF0xW0NIMl1bQ0BASF0oQyg9TylbTkgyXSlOKFtDSDJdMSljKG5bY0hdbjIpYyhjMjMpbltjSF1uM1tDSDJdW0NASF0oW09IXSlbQ0BASF00W0NIMl1bQ0gyXVtDSDJdTzQ=

> <s_epik_cmdline>
J2VwaWtfcHl0aG9uJywgJy1waCcsICc3LjAnLCAnLXRuJywgJzgnLCAnLW1hJywgJzIwMCcsICctbWV0YWxfYmluZGluZycsICctaW1hZScsICc8aW5maWxlLm1hZT4nLCAnLW9tYWUnLCAnPG91dGZpbGUubWFlPic=

> <r_lp_tautomer_probability>
1

> <r_epik_Ionization_Penalty>
0.000713824

> <r_epik_Ionization_Penalty_Charging>
0

> <r_epik_Ionization_Penalty_Neutral>
0.000713824

> <r_epik_State_Penalty>
0.000402132

> <r_epik_Charging_Adjusted_Penalty>
0.000402132

> <i_epik_Tot_Q>
0

> <i_epik_Tot_abs_Q>
0

> <r_epik_Metal_State_Penalty>
-0

> <b_epik_Metal_Only>
0

> <s_lp_Force_Field>
OPLS_2005

> <r_lp_Energy>
44.2831

> <b_lp_Chiralities_Consistent>
1

> <s_lp_Variant>
AV-unprocessed.smi:261-2

> <Gold.Version>
5.8.1

> <Gold.Id.Protein>
6NUR|6NUR_protein|mol2

> <Gold.PLP.Fitness>
43.8703

> <Gold.PLP.PLP>
-32.4855

> <Gold.PLP.part.hbond>
-5.3457

> <Gold.PLP.part.metal>
0.0000

> <Gold.PLP.part.buried>
-6.5554

> <Gold.PLP.part.nonpolar>
-20.5348

> <Gold.PLP.part.repulsive>
0.5910

> <Gold.PLP.ligand.clash>
0.0000

> <Gold.PLP.ligand.torsion>
0.7212

> <Gold.PLP.Chemscore.Hbond>
4.2189

> <Gold.PLP.Chemscore.CHOScore>
0.0000

> <Gold.PLP.Chemscore.Metal>
0.0000

> <Gold.Chemscore.Hbonds>
donor molecule, donor type, donor heavy atom, donor atom, acceptor molecule, acceptor atom, score
      L1  H     7    35       P1  7957  1.00
      L1  H     7    36       P1  7948  0.04
      L1  H    21    42       P1 10957  1.00
      P1  H  7989  7998       L1     8  0.93
      P1  H  7997  8008       L1     2  0.29
      P1  H 10752 10763       L1    11  0.98

> <Gold.PLP.Chemscore.Internal.Correction>
0.1705

> <Gold.Rescore>
     Score         DG    S(hbond)    S(metal)    S(lipo)     H(rot)  DE(clash)    DE(int)     intcor
     12.09     -15.83       3.11        0.00      69.16       3.18       0.00       3.73       ----

> <Gold.Chemscore.Fitness>
12.0922

> <Gold.Chemscore.DG>
-15.8265

> <Gold.Chemscore.ZeroCoef>
-5.4800

> <Gold.Chemscore.Hbond>
3.1148

> <Gold.Chemscore.Metal>
0.0000

> <Gold.Chemscore.Lipo>
69.1595

> <Gold.Chemscore.Internal_Hbond>
0.0000

> <Gold.Chemscore.DEClash>
0.0028

> <Gold.Chemscore.DEInternal>
3.7315

> <Gold.Chemscore.Rot>
3.1831

> <Gold.Chemscore.Internal.Correction>
   9.000000E+99

> <Gold.Chemscore.Hbonds>
donor molecule, donor type, donor heavy atom, donor atom, acceptor molecule, acceptor atom, score
      L1  H     7    35       P1  7957  0.90
      L1  H     7    36       P1  7948  0.05
      L1  H    21    42       P1 10957  1.00
      P1  H  7989  7998       L1     8  0.89
      P1  H 10752 10763       L1    11  0.41

> <Gold.Chemscore.Hbond.Weighted>
-10.4035

> <Gold.Chemscore.Metal.Weighted>
-0.0000

> <Gold.Chemscore.Lipo.Weighted>
-8.0917

> <Gold.Chemscore.Internal_Hbond.Weighted>
0.0000

> <Gold.Chemscore.DEClash.Weighted>
0.0028

> <Gold.Chemscore.DEInternal.Weighted>
3.7315

> <Gold.Chemscore.Rot.Weighted>
8.1486

> <Gold.Chemscore.Internal.Correction.Weighted>
   9.000000E+99

> <Gold.Protein.RotatedTorsions>
[ 6907 6896 6895 6894 ] final  -93.39 input  -60.11 | X-H torsion
[ 7974 7965 7964 7962 ] final  -51.71 input  175.53 | X-H torsion
[ 8008 7997 7996 7995 ] final  -89.55 input   59.86 | X-H torsion
[ 10167 10162 10161 10158 ] final   18.69 input  -65.29 | X-H torsion
[ 10718 10713 10712 10709 ] final  154.35 input   66.30 | X-H torsion
[ 10763 10752 10751 10750 ] final   81.43 input  -60.55 | X-H torsion
[ 11005 11000 10999 10996 ] final  -86.42 input  -57.11 | X-H torsion

> <Gold.Protein.ActiveResidues>
 VAL166  LYS551  ARG553  GLY616  TRP617  ASP618  TYR619  PRO620  LYS621  CYS622 
 ASP623  PHE694  ASN695  SER759  ASP760  ASP761  ALA762  ILE779  LEU786  VAL792 
 PHE793  MET794  SER795  GLU796  ALA797  LYS798  CYS799  TRP800  GLU811  SER814 

> <Gold.Protein.RotatedAtoms>
  150.6922  134.1975  159.4308 H   0  0  0  0  0  0  0  0  0  0  0  0  # atno 6907 bound_to 6896
  151.9943  134.9960  160.0572 H   0  0  0  0  0  0  0  0  0  0  0  0  # atno 6908 bound_to 6896
  152.1638  133.4564  159.4911 H   0  0  0  0  0  0  0  0  0  0  0  0  # atno 6909 bound_to 6896
  145.9160  140.7875  142.9671 H   0  0  0  0  0  0  0  0  0  0  0  0  # atno 7974 bound_to 7965
  154.6879  140.0540  157.0333 H   0  0  0  0  0  0  0  0  0  0  0  0  # atno 8008 bound_to 7997
  155.0858  140.3214  155.4569 H   0  0  0  0  0  0  0  0  0  0  0  0  # atno 8009 bound_to 7997
  156.2718  140.2057  156.5985 H   0  0  0  0  0  0  0  0  0  0  0  0  # atno 8010 bound_to 7997
  140.5634  143.9295  150.6659 H   0  0  0  0  0  0  0  0  0  0  0  0  # atno 10167 bound_to 10162
  157.2328  131.0742  151.1842 H   0  0  0  0  0  0  0  0  0  0  0  0  # atno 10718 bound_to 10713
  153.1116  135.4765  154.9045 H   0  0  0  0  0  0  0  0  0  0  0  0  # atno 10763 bound_to 10752
  154.7486  135.3100  154.8601 H   0  0  0  0  0  0  0  0  0  0  0  0  # atno 10764 bound_to 10752
  153.9188  135.6857  153.4802 H   0  0  0  0  0  0  0  0  0  0  0  0  # atno 10765 bound_to 10752
  141.1630  133.7454  156.9159 H   0  0  0  0  0  0  0  0  0  0  0  0  # atno 11005 bound_to 11000
  144.6748  140.1900  143.7397 LP  0  0  0  0  0  0  0  0  0  0  0  0  # atno 17320 bound_to 7965
  145.8611  139.2223  143.1716 LP  0  0  0  0  0  0  0  0  0  0  0  0  # atno 17321 bound_to 7965
  140.2752  143.3428  152.1202 LP  0  0  0  0  0  0  0  0  0  0  0  0  # atno 17342 bound_to 10162
  139.5081  144.6844  151.5926 LP  0  0  0  0  0  0  0  0  0  0  0  0  # atno 17343 bound_to 10162
  157.3460  130.7057  149.6411 LP  0  0  0  0  0  0  0  0  0  0  0  0  # atno 17370 bound_to 10713
  155.9674  130.4266  150.4707 LP  0  0  0  0  0  0  0  0  0  0  0  0  # atno 17371 bound_to 10713
  140.1485  134.9246  157.2561 LP  0  0  0  0  0  0  0  0  0  0  0  0  # atno 17394 bound_to 11000
  140.2751  134.3414  155.7361 LP  0  0  0  0  0  0  0  0  0  0  0  0  # atno 17395 bound_to 11000

$$$$
