AV-unprocessed.smi:1495|AV-procd|sdf|6054|dock9
  -GOLD-   22720 6173D 1   1.00000     0.00000
 Structure written by MMmdl.
 40 41  0  0  0  0  0  0  0  0  1 V2000
  152.2347  144.9167  159.0077 C   0  0  0  0  0  0  0  0  0  0  0  0
  150.8749  144.2366  159.2071 C   0  0  0  0  0  0  0  0  0  0  0  0
  150.7377  142.9268  158.4155 C   0  0  1  0  0  0  0  0  0  0  0  0
  150.9113  143.1489  156.9010 C   0  0  0  0  0  0  0  0  0  0  0  0
  150.7999  141.8491  156.2241 N   0  0  0  0  0  0  0  0  0  0  0  0
  149.8948  141.5093  155.2750 C   0  0  0  0  0  0  0  0  0  0  0  0
  150.0145  140.5219  154.5490 O   0  0  0  0  0  0  0  0  0  0  0  0
  148.8145  142.3055  155.2378 N   0  0  0  0  0  0  0  0  0  0  0  0
  147.7159  142.2276  154.2803 C   0  0  0  0  0  0  0  0  0  0  0  0
  146.3513  142.3028  154.9884 C   0  0  0  0  0  0  0  0  0  0  0  0
  145.5321  143.4870  154.5613 C   0  0  0  0  0  0  0  0  0  0  0  0
  144.4385  144.0083  155.2072 C   0  0  0  0  0  0  0  0  0  0  0  0
  143.7572  145.3594  154.3447 S   0  0  0  0  0  0  0  0  0  0  0  0
  145.0095  145.1710  153.1231 C   0  0  0  0  0  0  0  0  0  0  0  0
  145.1197  146.0435  151.9202 C   0  0  0  0  0  0  0  0  0  0  0  0
  145.8464  144.1621  153.3776 N   0  0  0  0  0  0  0  0  0  0  0  0
  151.8525  140.9403  156.6819 C   0  0  0  0  0  0  0  0  0  0  0  0
  151.6968  140.7518  158.2019 C   0  0  0  0  0  0  0  0  0  0  0  0
  151.7463  142.0176  158.8568 O   0  0  0  0  0  0  0  0  0  0  0  0
  152.2982  145.8346  159.5922 H   0  0  0  0  0  0  0  0  0  0  0  0
  152.3983  145.1775  157.9617 H   0  0  0  0  0  0  0  0  0  0  0  0
  153.0499  144.2650  159.3227 H   0  0  0  0  0  0  0  0  0  0  0  0
  150.7410  144.0318  160.2700 H   0  0  0  0  0  0  0  0  0  0  0  0
  150.0769  144.9240  158.9244 H   0  0  0  0  0  0  0  0  0  0  0  0
  149.7532  142.4963  158.6084 H   0  0  0  0  0  0  0  0  0  0  0  0
  150.1964  143.8918  156.5465 H   0  0  0  0  0  0  0  0  0  0  0  0
  151.8958  143.5717  156.6943 H   0  0  0  0  0  0  0  0  0  0  0  0
  148.7778  143.0688  155.8981 H   0  0  0  0  0  0  0  0  0  0  0  0
  147.7867  143.0010  153.5144 H   0  0  0  0  0  0  0  0  0  0  0  0
  147.8042  141.2735  153.7600 H   0  0  0  0  0  0  0  0  0  0  0  0
  145.7987  141.3837  154.7893 H   0  0  0  0  0  0  0  0  0  0  0  0
  146.5073  142.3246  156.0676 H   0  0  0  0  0  0  0  0  0  0  0  0
  143.9871  143.6723  156.1291 H   0  0  0  0  0  0  0  0  0  0  0  0
  146.1634  146.2965  151.7308 H   0  0  0  0  0  0  0  0  0  0  0  0
  144.5592  146.9666  152.0695 H   0  0  0  0  0  0  0  0  0  0  0  0
  144.7187  145.5274  151.0476 H   0  0  0  0  0  0  0  0  0  0  0  0
  151.8129  139.9667  156.1915 H   0  0  0  0  0  0  0  0  0  0  0  0
  152.8297  141.3649  156.4478 H   0  0  0  0  0  0  0  0  0  0  0  0
  150.7564  140.2501  158.4361 H   0  0  0  0  0  0  0  0  0  0  0  0
  152.4990  140.1233  158.5887 H   0  0  0  0  0  0  0  0  0  0  0  0
  1  2  1  0  0  0  0
  1 20  1  0  0  0  0
  1 21  1  0  0  0  0
  1 22  1  0  0  0  0
  2  3  1  0  0  0  0
  2 23  1  0  0  0  0
  2 24  1  0  0  0  0
  3 19  1  0  0  0  0
  3  4  1  0  0  0  0
  3 25  1  0  0  0  0
  4  5  1  0  0  0  0
  4 26  1  0  0  0  0
  4 27  1  0  0  0  0
  5  6  1  0  0  0  0
  5 17  1  0  0  0  0
  6  7  2  0  0  0  0
  6  8  1  0  0  0  0
  8  9  1  0  0  0  0
  8 28  1  0  0  0  0
  9 10  1  0  0  0  0
  9 29  1  0  0  0  0
  9 30  1  0  0  0  0
 10 11  1  0  0  0  0
 10 31  1  0  0  0  0
 10 32  1  0  0  0  0
 11 16  1  0  0  0  0
 11 12  2  0  0  0  0
 12 13  1  0  0  0  0
 12 33  1  0  0  0  0
 13 14  1  0  0  0  0
 14 15  1  0  0  0  0
 14 16  2  0  0  0  0
 15 34  1  0  0  0  0
 15 35  1  0  0  0  0
 15 36  1  0  0  0  0
 17 18  1  0  0  0  0
 17 37  1  0  0  0  0
 17 38  1  0  0  0  0
 18 19  1  0  0  0  0
 18 39  1  0  0  0  0
 18 40  1  0  0  0  0
M  END
> <s_m_source_file>
AV-unprocessed.smi

> <i_m_source_file_index>
1495

> <i_lp_mmshare_version>
43012

> <i_f3d_flags>
0

> <s_epik_input>
W0NIM11bQ0gyXVtDQEBIXTFbQ0gyXU4oW0NIMl1bQ0gyXU8xKUMoPU8pW05IXVtDSDJdW0NIMl1jMltjSF1zYyhuMilbQ0gzXQ==

> <s_epik_cmdline>
J2VwaWtfcHl0aG9uJywgJy1waCcsICc3LjAnLCAnLXRuJywgJzgnLCAnLW1hJywgJzIwMCcsICctbWV0YWxfYmluZGluZycsICctaW1hZScsICc8aW5maWxlLm1hZT4nLCAnLW9tYWUnLCAnPG91dGZpbGUubWFlPic=

> <r_epik_Ionization_Penalty>
0.00206013

> <r_epik_Ionization_Penalty_Charging>
0

> <r_epik_Ionization_Penalty_Neutral>
0.00206013

> <r_epik_State_Penalty>
0.00138662

> <r_epik_Charging_Adjusted_Penalty>
0.00138662

> <i_epik_Tot_Q>
0

> <i_epik_Tot_abs_Q>
0

> <r_epik_Metal_State_Penalty>
-0

> <b_epik_Metal_Only>
0

> <s_lp_Force_Field>
OPLS_2005

> <r_lp_Energy>
24.1464

> <b_lp_Chiralities_Consistent>
1

> <s_lp_Variant>
AV-unprocessed.smi:1495-2

> <Gold.Version>
5.8.1

> <Gold.Id.Protein>
6NUR|6NUR_protein|mol2

> <Gold.PLP.Fitness>
45.2603

> <Gold.PLP.PLP>
-41.7389

> <Gold.PLP.part.hbond>
-3.0000

> <Gold.PLP.part.metal>
0.0000

> <Gold.PLP.part.buried>
-0.6078

> <Gold.PLP.part.nonpolar>
-38.2190

> <Gold.PLP.part.repulsive>
0.4943

> <Gold.PLP.ligand.clash>
0.0000

> <Gold.PLP.ligand.torsion>
0.7954

> <Gold.PLP.Chemscore.Hbond>
1.6960

> <Gold.PLP.Chemscore.CHOScore>
0.0000

> <Gold.PLP.Chemscore.Metal>
0.0000

> <Gold.Chemscore.Hbonds>
donor molecule, donor type, donor heavy atom, donor atom, acceptor molecule, acceptor atom, score
      L1  H     8    28       P1  8028  0.61
      P1  H  7989  7998       L1     7  0.86

> <Gold.PLP.Chemscore.Internal.Correction>
0.0241

> <Gold.Rescore>
     Score         DG    S(hbond)    S(metal)    S(lipo)     H(rot)  DE(clash)    DE(int)     intcor
     13.79     -18.23       1.07        0.00     109.41       1.42       3.66       0.78       ----

> <Gold.Chemscore.Fitness>
13.7912

> <Gold.Chemscore.DG>
-18.2256

> <Gold.Chemscore.ZeroCoef>
-5.4800

> <Gold.Chemscore.Hbond>
1.0729

> <Gold.Chemscore.Metal>
0.0000

> <Gold.Chemscore.Lipo>
109.4101

> <Gold.Chemscore.Internal_Hbond>
0.0000

> <Gold.Chemscore.DEClash>
3.6551

> <Gold.Chemscore.DEInternal>
0.7793

> <Gold.Chemscore.Rot>
1.4214

> <Gold.Chemscore.Internal.Correction>
   9.000000E+99

> <Gold.Chemscore.Hbonds>
donor molecule, donor type, donor heavy atom, donor atom, acceptor molecule, acceptor atom, score
      L1  H     8    28       P1  8028  0.60
      P1  H  7989  7998       L1     7  0.38

> <Gold.Chemscore.Hbond.Weighted>
-3.5835

> <Gold.Chemscore.Metal.Weighted>
-0.0000

> <Gold.Chemscore.Lipo.Weighted>
-12.8010

> <Gold.Chemscore.Internal_Hbond.Weighted>
0.0000

> <Gold.Chemscore.DEClash.Weighted>
3.6551

> <Gold.Chemscore.DEInternal.Weighted>
0.7793

> <Gold.Chemscore.Rot.Weighted>
3.6388

> <Gold.Chemscore.Internal.Correction.Weighted>
   9.000000E+99

> <Gold.Protein.RotatedTorsions>
[ 6907 6896 6895 6894 ] final -142.47 input  -60.11 | X-H torsion
[ 7974 7965 7964 7962 ] final  -69.54 input  175.53 | X-H torsion
[ 8008 7997 7996 7995 ] final  -78.98 input   59.86 | X-H torsion
[ 10167 10162 10161 10158 ] final   86.46 input  -65.29 | X-H torsion
[ 10718 10713 10712 10709 ] final -132.05 input   66.30 | X-H torsion
[ 10763 10752 10751 10750 ] final -164.10 input  -60.55 | X-H torsion
[ 11005 11000 10999 10996 ] final  169.61 input  -57.11 | X-H torsion

> <Gold.Protein.ActiveResidues>
 VAL166  LYS551  ARG553  GLY616  TRP617  ASP618  TYR619  PRO620  LYS621  CYS622 
 ASP623  PHE694  ASN695  SER759  ASP760  ASP761  ALA762  ILE779  LEU786  VAL792 
 PHE793  MET794  SER795  GLU796  ALA797  LYS798  CYS799  TRP800  GLU811  SER814 

> <Gold.Protein.RotatedAtoms>
  151.0875  133.5342  159.2616 H   0  0  0  0  0  0  0  0  0  0  0  0  # atno 6907 bound_to 6896
  151.2222  135.0522  159.8964 H   0  0  0  0  0  0  0  0  0  0  0  0  # atno 6908 bound_to 6896
  152.5430  134.0676  159.8233 H   0  0  0  0  0  0  0  0  0  0  0  0  # atno 6909 bound_to 6896
  145.7024  140.9111  143.0724 H   0  0  0  0  0  0  0  0  0  0  0  0  # atno 7974 bound_to 7965
  154.5741  140.0685  156.9008 H   0  0  0  0  0  0  0  0  0  0  0  0  # atno 8008 bound_to 7997
  155.2581  140.3356  155.4257 H   0  0  0  0  0  0  0  0  0  0  0  0  # atno 8009 bound_to 7997
  156.2140  140.1771  156.7615 H   0  0  0  0  0  0  0  0  0  0  0  0  # atno 8010 bound_to 7997
  139.8873  144.6406  150.8777 H   0  0  0  0  0  0  0  0  0  0  0  0  # atno 10167 bound_to 10162
  156.2306  130.7035  151.0854 H   0  0  0  0  0  0  0  0  0  0  0  0  # atno 10718 bound_to 10713
  154.7060  135.2997  154.9270 H   0  0  0  0  0  0  0  0  0  0  0  0  # atno 10763 bound_to 10752
  154.0186  135.6685  153.4775 H   0  0  0  0  0  0  0  0  0  0  0  0  # atno 10764 bound_to 10752
  153.0717  135.5057  154.8231 H   0  0  0  0  0  0  0  0  0  0  0  0  # atno 10765 bound_to 10752
  140.2996  134.7607  157.3905 H   0  0  0  0  0  0  0  0  0  0  0  0  # atno 11005 bound_to 11000
  144.6965  139.8965  143.7456 LP  0  0  0  0  0  0  0  0  0  0  0  0  # atno 17320 bound_to 7965
  146.0786  139.3774  143.0478 LP  0  0  0  0  0  0  0  0  0  0  0  0  # atno 17321 bound_to 7965
  140.7733  143.3538  151.1962 LP  0  0  0  0  0  0  0  0  0  0  0  0  # atno 17342 bound_to 10162
  139.7141  143.9328  152.2959 LP  0  0  0  0  0  0  0  0  0  0  0  0  # atno 17343 bound_to 10162
  157.7131  131.0724  150.6428 LP  0  0  0  0  0  0  0  0  0  0  0  0  # atno 17370 bound_to 10713
  156.6495  130.4481  149.5724 LP  0  0  0  0  0  0  0  0  0  0  0  0  # atno 17371 bound_to 10713
  140.1122  134.5331  155.8256 LP  0  0  0  0  0  0  0  0  0  0  0  0  # atno 17394 bound_to 11000
  141.2131  133.6728  156.6709 LP  0  0  0  0  0  0  0  0  0  0  0  0  # atno 17395 bound_to 11000

$$$$
