AV-unprocessed.smi:915|AV-procd|sdf|4156|dock2
  -GOLD-   22720 2 63D 1   1.00000     0.00000
 Structure written by MMmdl.
 33 34  0  0  0  0  0  0  0  0  2 V2000
  155.0341  134.5686  163.8099 C   0  0  0  0  0  0  0  0  0  0  0  0
  154.7201  135.8798  164.5395 C   0  0  0  0  0  0  0  0  0  0  0  0
  154.9351  137.0814  163.6703 C   0  0  0  0  0  0  0  0  0  0  0  0
  155.7904  138.1263  163.9059 C   0  0  0  0  0  0  0  0  0  0  0  0
  155.7189  139.3148  162.6365 S   0  0  0  0  0  0  0  0  0  0  0  0
  154.5119  138.3341  161.8017 C   0  0  0  0  0  0  0  0  0  0  0  0
  153.9340  138.6565  160.6331 N   0  5  0  0  0  0  0  0  0  0  0  0
  154.3646  139.7370  159.9430 C   0  0  0  0  0  0  0  0  0  0  0  0
  155.3603  139.7912  159.2174 O   0  0  0  0  0  0  0  0  0  0  0  0
  153.5976  140.8240  160.1075 N   0  0  0  0  0  0  0  0  0  0  0  0
  153.8300  142.1322  159.5030 C   0  0  0  0  0  0  0  0  0  0  0  0
  152.5974  143.0499  159.6073 C   0  0  2  0  0  0  0  0  0  0  0  0
  152.5347  144.1364  158.5239 C   0  0  0  0  0  0  0  0  0  0  0  0
  151.6069  145.2312  159.0512 C   0  0  0  0  0  0  0  0  0  0  0  0
  152.0196  145.4866  160.5016 C   0  0  0  0  0  0  0  0  0  0  0  0
  152.5232  143.8973  161.2101 S   0  0  0  0  0  0  0  0  0  0  0  0
  154.2160  137.2200  162.4802 N   0  0  0  0  0  0  0  0  0  0  0  0
  154.8667  133.7112  164.4619 H   0  0  0  0  0  0  0  0  0  0  0  0
  156.0736  134.5398  163.4815 H   0  0  0  0  0  0  0  0  0  0  0  0
  154.4011  134.4482  162.9302 H   0  0  0  0  0  0  0  0  0  0  0  0
  153.6890  135.8548  164.8935 H   0  0  0  0  0  0  0  0  0  0  0  0
  155.3409  135.9516  165.4334 H   0  0  0  0  0  0  0  0  0  0  0  0
  156.4541  138.2701  164.7448 H   0  0  0  0  0  0  0  0  0  0  0  0
  152.7908  140.7346  160.7074 H   0  0  0  0  0  0  0  0  0  0  0  0
  154.6961  142.6048  159.9687 H   0  0  0  0  0  0  0  0  0  0  0  0
  154.0912  141.9772  158.4559 H   0  0  0  0  0  0  0  0  0  0  0  0
  151.6893  142.4493  159.5405 H   0  0  0  0  0  0  0  0  0  0  0  0
  153.5282  144.5553  158.3567 H   0  0  0  0  0  0  0  0  0  0  0  0
  152.1873  143.7368  157.5705 H   0  0  0  0  0  0  0  0  0  0  0  0
  151.6607  146.1379  158.4482 H   0  0  0  0  0  0  0  0  0  0  0  0
  150.5749  144.8792  159.0191 H   0  0  0  0  0  0  0  0  0  0  0  0
  152.8767  146.1598  160.5336 H   0  0  0  0  0  0  0  0  0  0  0  0
  151.2173  145.9397  161.0846 H   0  0  0  0  0  0  0  0  0  0  0  0
  1  2  1  0  0  0  0
  1 18  1  0  0  0  0
  1 19  1  0  0  0  0
  1 20  1  0  0  0  0
  2  3  1  0  0  0  0
  2 21  1  0  0  0  0
  2 22  1  0  0  0  0
  3 17  1  0  0  0  0
  3  4  2  0  0  0  0
  4  5  1  0  0  0  0
  4 23  1  0  0  0  0
  5  6  1  0  0  0  0
  6  7  1  0  0  0  0
  6 17  2  0  0  0  0
  7  8  1  0  0  0  0
  8  9  2  0  0  0  0
  8 10  1  0  0  0  0
 10 11  1  0  0  0  0
 10 24  1  0  0  0  0
 11 12  1  0  0  0  0
 11 25  1  0  0  0  0
 11 26  1  0  0  0  0
 12 16  1  0  0  0  0
 12 13  1  0  0  0  0
 12 27  1  0  0  0  0
 13 14  1  0  0  0  0
 13 28  1  0  0  0  0
 13 29  1  0  0  0  0
 14 15  1  0  0  0  0
 14 30  1  0  0  0  0
 14 31  1  0  0  0  0
 15 16  1  0  0  0  0
 15 32  1  0  0  0  0
 15 33  1  0  0  0  0
M  CHG  1   7  -1
M  END
> <s_m_source_file>
AV-unprocessed.smi

> <i_m_source_file_index>
915

> <i_lp_mmshare_version>
43012

> <i_f3d_flags>
0

> <s_epik_input>
W0NIM11bQ0gyXWMxW2NIXXNjKG4xKVtOSF1DKD1PKVtOSF1bQ0gyXVtDQEBIXTJbQ0gyXVtDSDJdW0NIMl1TMg==

> <s_epik_cmdline>
J2VwaWtfcHl0aG9uJywgJy1waCcsICc3LjAnLCAnLXRuJywgJzgnLCAnLW1hJywgJzIwMCcsICctbWV0YWxfYmluZGluZycsICctaW1hZScsICc8aW5maWxlLm1hZT4nLCAnLW9tYWUnLCAnPG91dGZpbGUubWFlPic=

> <r_lp_tautomer_probability>
0.999

> <r_epik_Ionization_Penalty>
8.73043

> <r_epik_Ionization_Penalty_Charging>
6.79141

> <r_epik_Ionization_Penalty_Neutral>
1.93902

> <r_epik_State_Penalty>
6.79158

> <r_epik_Charging_Adjusted_Penalty>
13.583

> <i_epik_Tot_Q>
-1

> <i_epik_Tot_abs_Q>
1

> <r_epik_Metal_State_Penalty>
2.71141

> <b_epik_Metal_Only>
1

> <s_lp_Force_Field>
OPLS_2005

> <r_lp_Energy>
4.53782

> <b_lp_Chiralities_Consistent>
1

> <s_lp_Variant>
AV-unprocessed.smi:915-3

> <Gold.Version>
5.8.1

> <Gold.Id.Protein>
6NUR|6NUR_protein|mol2

> <Gold.PLP.Fitness>
43.1722

> <Gold.PLP.PLP>
-42.1504

> <Gold.PLP.part.hbond>
-1.0000

> <Gold.PLP.part.metal>
0.0000

> <Gold.PLP.part.buried>
-5.4816

> <Gold.PLP.part.nonpolar>
-36.5421

> <Gold.PLP.part.repulsive>
0.0824

> <Gold.PLP.ligand.clash>
0.0000

> <Gold.PLP.ligand.torsion>
1.0893

> <Gold.PLP.Chemscore.Hbond>
1.0000

> <Gold.PLP.Chemscore.CHOScore>
0.0000

> <Gold.PLP.Chemscore.Metal>
0.0000

> <Gold.Chemscore.Hbonds>
donor molecule, donor type, donor heavy atom, donor atom, acceptor molecule, acceptor atom, score
      P1  H  7997  8008       L1     9  1.00

> <Gold.PLP.Chemscore.Internal.Correction>
0.2004

> <Gold.Rescore>
     Score         DG    S(hbond)    S(metal)    S(lipo)     H(rot)  DE(clash)    DE(int)     intcor
     17.23     -18.36       1.00        0.00     110.69       1.33       0.09       1.04       ----

> <Gold.Chemscore.Fitness>
17.2286

> <Gold.Chemscore.DG>
-18.3628

> <Gold.Chemscore.ZeroCoef>
-5.4800

> <Gold.Chemscore.Hbond>
0.9995

> <Gold.Chemscore.Metal>
0.0000

> <Gold.Chemscore.Lipo>
110.6877

> <Gold.Chemscore.Internal_Hbond>
0.0000

> <Gold.Chemscore.DEClash>
0.0929

> <Gold.Chemscore.DEInternal>
1.0413

> <Gold.Chemscore.Rot>
1.3305

> <Gold.Chemscore.Internal.Correction>
   9.000000E+99

> <Gold.Chemscore.Hbonds>
donor molecule, donor type, donor heavy atom, donor atom, acceptor molecule, acceptor atom, score
      P1  H  7997  8008       L1     9  0.99

> <Gold.Chemscore.Hbond.Weighted>
-3.3384

> <Gold.Chemscore.Metal.Weighted>
-0.0000

> <Gold.Chemscore.Lipo.Weighted>
-12.9505

> <Gold.Chemscore.Internal_Hbond.Weighted>
0.0000

> <Gold.Chemscore.DEClash.Weighted>
0.0929

> <Gold.Chemscore.DEInternal.Weighted>
1.0413

> <Gold.Chemscore.Rot.Weighted>
3.4060

> <Gold.Chemscore.Internal.Correction.Weighted>
   9.000000E+99

> <Gold.Protein.RotatedTorsions>
[ 6907 6896 6895 6894 ] final  121.93 input  -60.11 | X-H torsion
[ 7974 7965 7964 7962 ] final -170.48 input  175.53 | X-H torsion
[ 8008 7997 7996 7995 ] final -131.42 input   59.86 | X-H torsion
[ 10167 10162 10161 10158 ] final   -4.94 input  -65.29 | X-H torsion
[ 10718 10713 10712 10709 ] final  163.90 input   66.30 | X-H torsion
[ 10763 10752 10751 10750 ] final -122.54 input  -60.55 | X-H torsion
[ 11005 11000 10999 10996 ] final   77.27 input  -57.11 | X-H torsion

> <Gold.Protein.ActiveResidues>
 VAL166  LYS551  ARG553  GLY616  TRP617  ASP618  TYR619  PRO620  LYS621  CYS622 
 ASP623  PHE694  ASN695  SER759  ASP760  ASP761  ALA762  ILE779  LEU786  VAL792 
 PHE793  MET794  SER795  GLU796  ALA797  LYS798  CYS799  TRP800  GLU811  SER814 

> <Gold.Protein.RotatedAtoms>
  152.4283  133.7233  159.6545 H   0  0  0  0  0  0  0  0  0  0  0  0  # atno 6907 bound_to 6896
  150.8161  133.8324  159.3166 H   0  0  0  0  0  0  0  0  0  0  0  0  # atno 6908 bound_to 6896
  151.6020  135.1049  160.0114 H   0  0  0  0  0  0  0  0  0  0  0  0  # atno 6909 bound_to 6896
  144.7169  140.2066  143.6332 H   0  0  0  0  0  0  0  0  0  0  0  0  # atno 7974 bound_to 7965
  155.3121  140.0458  157.3035 H   0  0  0  0  0  0  0  0  0  0  0  0  # atno 8008 bound_to 7997
  154.5427  140.2293  155.8581 H   0  0  0  0  0  0  0  0  0  0  0  0  # atno 8009 bound_to 7997
  156.1895  140.3054  155.9312 H   0  0  0  0  0  0  0  0  0  0  0  0  # atno 8010 bound_to 7997
  140.6946  143.6365  150.8474 H   0  0  0  0  0  0  0  0  0  0  0  0  # atno 10167 bound_to 10162
  157.1020  131.0445  151.2494 H   0  0  0  0  0  0  0  0  0  0  0  0  # atno 10718 bound_to 10713
  154.8691  135.4129  154.2799 H   0  0  0  0  0  0  0  0  0  0  0  0  # atno 10763 bound_to 10752
  153.3694  135.7007  153.6655 H   0  0  0  0  0  0  0  0  0  0  0  0  # atno 10764 bound_to 10752
  153.5524  135.3626  155.2737 H   0  0  0  0  0  0  0  0  0  0  0  0  # atno 10765 bound_to 10752
  139.9262  134.7669  156.1500 H   0  0  0  0  0  0  0  0  0  0  0  0  # atno 11005 bound_to 11000
  145.8630  139.2232  143.1705 LP  0  0  0  0  0  0  0  0  0  0  0  0  # atno 17320 bound_to 7965
  146.0155  140.8396  142.9949 LP  0  0  0  0  0  0  0  0  0  0  0  0  # atno 17321 bound_to 7965
  140.0082  143.5671  152.2849 LP  0  0  0  0  0  0  0  0  0  0  0  0  # atno 17342 bound_to 10162
  139.6385  144.7652  151.2387 LP  0  0  0  0  0  0  0  0  0  0  0  0  # atno 17343 bound_to 10162
  157.4633  130.7666  149.7255 LP  0  0  0  0  0  0  0  0  0  0  0  0  # atno 17370 bound_to 10713
  155.9871  130.3969  150.3180 LP  0  0  0  0  0  0  0  0  0  0  0  0  # atno 17371 bound_to 10713
  141.0820  133.6750  156.2357 LP  0  0  0  0  0  0  0  0  0  0  0  0  # atno 17394 bound_to 11000
  140.6331  134.5244  157.5561 LP  0  0  0  0  0  0  0  0  0  0  0  0  # atno 17395 bound_to 11000

$$$$
