AV-unprocessed.smi:579|AV-procd|sdf|2987|dock5
  -GOLD-   2262023493D 1   1.00000     0.00000
 Structure written by MMmdl.
 26 27  0  0  0  0  0  0  0  0  1 V2000
  150.0965  139.2198  153.7750 N   0  0  0  0  0  0  0  0  0  0  0  0
  150.5885  139.9255  154.8719 C   0  0  0  0  0  0  0  0  0  0  0  0
  149.8820  141.0246  155.3985 C   0  0  0  0  0  0  0  0  0  0  0  0
  150.4178  141.7065  156.5078 C   0  0  0  0  0  0  0  0  0  0  0  0
  151.6427  141.2636  157.0498 C   0  0  0  0  0  0  0  0  0  0  0  0
  152.1790  141.9381  158.1557 N   0  0  0  0  0  0  0  0  0  0  0  0
  151.8359  143.3543  158.1918 C   0  0  0  0  0  0  0  0  0  0  0  0
  152.5637  144.0423  159.3598 C   0  0  0  0  0  0  0  0  0  0  0  0
  152.2480  143.3757  160.5790 O   0  0  0  0  0  0  0  0  0  0  0  0
  152.6522  142.0092  160.5627 C   0  0  0  0  0  0  0  0  0  0  0  0
  151.9252  141.2701  159.4262 C   0  0  0  0  0  0  0  0  0  0  0  0
  152.3252  140.2069  156.5456 N   0  0  0  0  0  0  0  0  0  0  0  0
  151.8051  139.5576  155.4822 C   0  0  0  0  0  0  0  0  0  0  0  0
  150.5943  138.4304  153.3891 H   0  0  0  0  0  0  0  0  0  0  0  0
  149.2221  139.4697  153.3352 H   0  0  0  0  0  0  0  0  0  0  0  0
  148.9457  141.3422  154.9631 H   0  0  0  0  0  0  0  0  0  0  0  0
  149.8975  142.5525  156.9326 H   0  0  0  0  0  0  0  0  0  0  0  0
  152.1117  143.8261  157.2480 H   0  0  0  0  0  0  0  0  0  0  0  0
  150.7574  143.4705  158.3088 H   0  0  0  0  0  0  0  0  0  0  0  0
  153.6433  144.0397  159.2005 H   0  0  0  0  0  0  0  0  0  0  0  0
  152.2545  145.0848  159.4340 H   0  0  0  0  0  0  0  0  0  0  0  0
  153.7345  141.9405  160.4417 H   0  0  0  0  0  0  0  0  0  0  0  0
  152.4091  141.5549  161.5233 H   0  0  0  0  0  0  0  0  0  0  0  0
  150.8530  141.2491  159.6260 H   0  0  0  0  0  0  0  0  0  0  0  0
  152.2652  140.2350  159.3739 H   0  0  0  0  0  0  0  0  0  0  0  0
  152.3783  138.7210  155.1101 H   0  0  0  0  0  0  0  0  0  0  0  0
  1  2  1  0  0  0  0
  1 14  1  0  0  0  0
  1 15  1  0  0  0  0
  2 13  1  0  0  0  0
  2  3  2  0  0  0  0
  3  4  1  0  0  0  0
  3 16  1  0  0  0  0
  4  5  2  0  0  0  0
  4 17  1  0  0  0  0
  5  6  1  0  0  0  0
  5 12  1  0  0  0  0
  6 11  1  0  0  0  0
  6  7  1  0  0  0  0
  7  8  1  0  0  0  0
  7 18  1  0  0  0  0
  7 19  1  0  0  0  0
  8  9  1  0  0  0  0
  8 20  1  0  0  0  0
  8 21  1  0  0  0  0
  9 10  1  0  0  0  0
 10 11  1  0  0  0  0
 10 22  1  0  0  0  0
 10 23  1  0  0  0  0
 11 24  1  0  0  0  0
 11 25  1  0  0  0  0
 12 13  2  0  0  0  0
 13 26  1  0  0  0  0
M  END
> <s_m_source_file>
AV-unprocessed.smi

> <i_m_source_file_index>
579

> <i_lp_mmshare_version>
43012

> <i_f3d_flags>
0

> <s_epik_input>
W05IMl1jMVtjSF1bY0hdYyhuW2NIXTEpTjJbQ0gyXVtDSDJdT1tDSDJdW0NIMl0y

> <s_epik_cmdline>
J2VwaWtfcHl0aG9uJywgJy1waCcsICc3LjAnLCAnLXRuJywgJzgnLCAnLW1hJywgJzIwMCcsICctbWV0YWxfYmluZGluZycsICctaW1hZScsICc8aW5maWxlLm1hZT4nLCAnLW9tYWUnLCAnPG91dGZpbGUubWFlPic=

> <r_lp_tautomer_probability>
1

> <r_epik_Ionization_Penalty>
0.00957298

> <r_epik_Ionization_Penalty_Charging>
0

> <r_epik_Ionization_Penalty_Neutral>
0.00957298

> <r_epik_State_Penalty>
0.00726246

> <r_epik_Charging_Adjusted_Penalty>
0.00726246

> <i_epik_Tot_Q>
0

> <i_epik_Tot_abs_Q>
0

> <r_epik_Metal_State_Penalty>
7.30711e-06

> <b_epik_Metal_Only>
0

> <s_lp_Force_Field>
OPLS_2005

> <r_lp_Energy>
21.013

> <b_lp_Chiralities_Consistent>
1

> <s_lp_Variant>
AV-unprocessed.smi:579-1

> <Gold.Version>
5.8.1

> <Gold.Id.Protein>
6NUR|6NUR_protein|mol2

> <Gold.PLP.Fitness>
29.1765

> <Gold.PLP.PLP>
-27.2682

> <Gold.PLP.part.hbond>
-2.0000

> <Gold.PLP.part.metal>
0.0000

> <Gold.PLP.part.buried>
-0.7248

> <Gold.PLP.part.nonpolar>
-23.4810

> <Gold.PLP.part.repulsive>
0.1754

> <Gold.PLP.ligand.clash>
0.0003

> <Gold.PLP.ligand.torsion>
0.6612

> <Gold.PLP.Chemscore.Hbond>
1.0429

> <Gold.PLP.Chemscore.CHOScore>
0.0000

> <Gold.PLP.Chemscore.Metal>
0.0000

> <Gold.Chemscore.Hbonds>
donor molecule, donor type, donor heavy atom, donor atom, acceptor molecule, acceptor atom, score
      L1  H     1    15       P1  7957  0.07
      P1  H  7997  8009       L1    12  1.00

> <Gold.PLP.Chemscore.Internal.Correction>
0.1023

> <Gold.Rescore>
     Score         DG    S(hbond)    S(metal)    S(lipo)     H(rot)  DE(clash)    DE(int)     intcor
     13.26     -13.98       0.85        0.00      70.13       1.00       0.02       0.70       ----

> <Gold.Chemscore.Fitness>
13.2591

> <Gold.Chemscore.DG>
-13.9763

> <Gold.Chemscore.ZeroCoef>
-5.4800

> <Gold.Chemscore.Hbond>
0.8536

> <Gold.Chemscore.Metal>
0.0000

> <Gold.Chemscore.Lipo>
70.1292

> <Gold.Chemscore.Internal_Hbond>
0.0000

> <Gold.Chemscore.DEClash>
0.0186

> <Gold.Chemscore.DEInternal>
0.6985

> <Gold.Chemscore.Rot>
1.0000

> <Gold.Chemscore.Internal.Correction>
   9.000000E+99

> <Gold.Chemscore.Hbonds>
donor molecule, donor type, donor heavy atom, donor atom, acceptor molecule, acceptor atom, score
      L1  H     1    15       P1  7957  0.07
      P1  H  7997  8009       L1    12  0.61

> <Gold.Chemscore.Hbond.Weighted>
-2.8512

> <Gold.Chemscore.Metal.Weighted>
-0.0000

> <Gold.Chemscore.Lipo.Weighted>
-8.2051

> <Gold.Chemscore.Internal_Hbond.Weighted>
0.0000

> <Gold.Chemscore.DEClash.Weighted>
0.0186

> <Gold.Chemscore.DEInternal.Weighted>
0.6985

> <Gold.Chemscore.Rot.Weighted>
2.5600

> <Gold.Chemscore.Internal.Correction.Weighted>
   9.000000E+99

> <Gold.Protein.RotatedTorsions>
[ 6907 6896 6895 6894 ] final  -54.86 input  -60.11 | X-H torsion
[ 7974 7965 7964 7962 ] final  108.09 input  175.53 | X-H torsion
[ 8008 7997 7996 7995 ] final -165.78 input   59.86 | X-H torsion
[ 10167 10162 10161 10158 ] final   32.70 input  -65.29 | X-H torsion
[ 10718 10713 10712 10709 ] final  -73.13 input   66.30 | X-H torsion
[ 10763 10752 10751 10750 ] final  -45.09 input  -60.55 | X-H torsion
[ 11005 11000 10999 10996 ] final  -55.69 input  -57.11 | X-H torsion

> <Gold.Protein.ActiveResidues>
 VAL166  LYS551  ARG553  GLY616  TRP617  ASP618  TYR619  PRO620  LYS621  CYS622 
 ASP623  PHE694  ASN695  SER759  ASP760  ASP761  ALA762  ILE779  LEU786  VAL792 
 PHE793  MET794  SER795  GLU796  ALA797  LYS798  CYS799  TRP800  GLU811  SER814 

> <Gold.Protein.RotatedAtoms>
  150.8301  134.7550  159.6845 H   0  0  0  0  0  0  0  0  0  0  0  0  # atno 6907 bound_to 6896
  152.4407  134.5594  159.9899 H   0  0  0  0  0  0  0  0  0  0  0  0  # atno 6908 bound_to 6896
  151.5757  133.3346  159.3034 H   0  0  0  0  0  0  0  0  0  0  0  0  # atno 6909 bound_to 6896
  145.2852  139.2619  143.3894 H   0  0  0  0  0  0  0  0  0  0  0  0  # atno 7974 bound_to 7965
  155.8545  140.0968  157.1653 H   0  0  0  0  0  0  0  0  0  0  0  0  # atno 8008 bound_to 7997
  154.3987  140.1377  156.3947 H   0  0  0  0  0  0  0  0  0  0  0  0  # atno 8009 bound_to 7997
  155.7924  140.3455  155.5359 H   0  0  0  0  0  0  0  0  0  0  0  0  # atno 8010 bound_to 7997
  140.4474  144.1098  150.6185 H   0  0  0  0  0  0  0  0  0  0  0  0  # atno 10167 bound_to 10162
  156.0292  130.4387  150.2696 H   0  0  0  0  0  0  0  0  0  0  0  0  # atno 10718 bound_to 10713
  154.0228  135.6667  153.4774 H   0  0  0  0  0  0  0  0  0  0  0  0  # atno 10763 bound_to 10752
  153.0573  135.5048  154.8007 H   0  0  0  0  0  0  0  0  0  0  0  0  # atno 10764 bound_to 10752
  154.6927  135.3064  154.9421 H   0  0  0  0  0  0  0  0  0  0  0  0  # atno 10765 bound_to 10752
  141.1085  133.6612  156.4507 H   0  0  0  0  0  0  0  0  0  0  0  0  # atno 11005 bound_to 11000
  146.3203  140.3330  142.8642 LP  0  0  0  0  0  0  0  0  0  0  0  0  # atno 17320 bound_to 7965
  144.9219  140.7877  143.5743 LP  0  0  0  0  0  0  0  0  0  0  0  0  # atno 17321 bound_to 7965
  140.4247  143.2595  151.9671 LP  0  0  0  0  0  0  0  0  0  0  0  0  # atno 17342 bound_to 10162
  139.4794  144.5799  151.7950 LP  0  0  0  0  0  0  0  0  0  0  0  0  # atno 17343 bound_to 10162
  157.0799  131.0140  151.3160 LP  0  0  0  0  0  0  0  0  0  0  0  0  # atno 17370 bound_to 10713
  157.4935  130.7836  149.7532 LP  0  0  0  0  0  0  0  0  0  0  0  0  # atno 17371 bound_to 10713
  140.4837  134.6640  157.5182 LP  0  0  0  0  0  0  0  0  0  0  0  0  # atno 17394 bound_to 11000
  139.9967  134.6900  155.9597 LP  0  0  0  0  0  0  0  0  0  0  0  0  # atno 17395 bound_to 11000

$$$$
