#       Name:                AV-unprocessed.smi:2098
#       Creating user name   scv26
#       Creation time:       Fri Mar 27 11:29:23 2020


#       File generated by GOLD software.
#

@<TRIPOS>MOLECULE
AV-unprocessed.smi:2098
    41    43     1
SMALL
NO_CHARGES


@<TRIPOS>ATOM
      1 ****        -0.6334  -0.6601   0.9894 O.3            1 S1                 0.0000
      2 ****        -0.2052  -0.2986  -0.3093 C.3            1 S1                 0.0000
      3 ****         1.3307  -0.2450  -0.3166 C.3            1 S1                 0.0000
      4 ****         1.8386  -1.5649  -0.4617 O.3            1 S1                 0.0000
      5 ****         3.2060  -1.7404  -0.4724 C.ar           1 S1                 0.0000
      6 ****         3.6801  -3.0608  -0.6174 C.ar           1 S1                 0.0000
      7 ****         5.0617  -3.3332  -0.6354 C.ar           1 S1                 0.0000
      8 ****         5.9874  -2.2816  -0.5075 C.ar           1 S1                 0.0000
      9 ****         7.3162  -2.5416  -0.5222 F              1 S1                 0.0000
     10 ****         5.5291  -0.9589  -0.3645 C.ar           1 S1                 0.0000
     11 ****         4.1471  -0.6865  -0.3475 C.ar           1 S1                 0.0000
     12 ****        -0.8260   1.0616  -0.6829 C.3            1 S1                 0.0000
     13 ****        -2.2782   1.0391  -0.6635 N.pl3          1 S1                 0.0000
     14 ****        -3.0925   0.5383  -1.6123 C.2            1 S1                 0.0000
     15 ****        -4.4025   0.6238  -1.3992 N.2            1 S1                 0.0000
     16 ****        -4.4441   1.2546  -0.1676 C.ar           1 S1                 0.0000
     17 ****        -5.5470   1.6448   0.6258 C.ar           1 S1                 0.0000
     18 ****        -5.3441   2.2840   1.8667 C.ar           1 S1                 0.0000
     19 ****        -4.0386   2.5421   2.3328 C.ar           1 S1                 0.0000
     20 ****        -2.9242   2.1633   1.5597 C.ar           1 S1                 0.0000
     21 ****        -3.1307   1.5273   0.3213 C.ar           1 S1                 0.0000
     22 ****        -0.2653  -1.5047   1.2005 H              1 S1                 0.0000
     23 ****        -0.5505  -1.0524  -1.0182 H              1 S1                 0.0000
     24 ****         1.6687   0.3461  -1.1697 H              1 S1                 0.0000
     25 ****         1.7025   0.2350   0.5905 H              1 S1                 0.0000
     26 ****         2.9765  -3.8746  -0.7155 H              1 S1                 0.0000
     27 ****         5.4103  -4.3494  -0.7466 H              1 S1                 0.0000
     28 ****         6.2385  -0.1504  -0.2670 H              1 S1                 0.0000
     29 ****         3.8355   0.3409  -0.2370 H              1 S1                 0.0000
     30 ****        -0.4780   1.8398  -0.0024 H              1 S1                 0.0000
     31 ****        -0.5060   1.3587  -1.6824 H              1 S1                 0.0000
     32 ****        -2.7004   0.0854  -2.5113 H              1 S1                 0.0000
     33 ****        -6.5512   1.4518   0.2788 H              1 S1                 0.0000
     34 ****        -6.1946   2.5778   2.4643 H              1 S1                 0.0000
     35 ****        -3.8931   3.0313   3.2847 H              1 S1                 0.0000
     36 ****        -1.9232   2.3574   1.9149 H              1 S1                 0.0000
     37 ****        -1.6318  -0.7111   1.0139 LP             1 S1                 0.0000
     38 ****        -0.3181   0.0206   1.6507 LP             1 S1                 0.0000
     39 ****         1.4870  -1.9243  -1.3261 LP             1 S1                 0.0000
     40 ****         1.4763  -2.1068   0.2966 LP             1 S1                 0.0000
     41 ****        -5.1581   0.3141  -1.9764 LP             1 S1                 0.0000
@<TRIPOS>BOND
    1    1    2 1     
    2    1   22 1     
    3    2    3 1     
    4    2   12 1     
    5    2   23 1     
    6    3    4 1     
    7    3   24 1     
    8    3   25 1     
    9    4    5 1     
   10    5   11 ar    
   11    5    6 ar    
   12    6    7 ar    
   13    6   26 1     
   14    7    8 ar    
   15    7   27 1     
   16    8    9 1     
   17    8   10 ar    
   18   10   11 ar    
   19   10   28 1     
   20   11   29 1     
   21   12   13 1     
   22   12   30 1     
   23   12   31 1     
   24   13   21 1     
   25   13   14 1     
   26   14   15 2     
   27   14   32 1     
   28   15   16 1     
   29   16   21 ar    
   30   16   17 ar    
   31   17   18 ar    
   32   17   33 1     
   33   18   19 ar    
   34   18   34 1     
   35   19   20 ar    
   36   19   35 1     
   37   20   21 ar    
   38   20   36 1     
   39    1   37 1     
   40    1   38 1     
   41    4   39 1     
   42    4   40 1     
   43   15   41 1     
@<TRIPOS>SUBSTRUCTURE
      1 S1             1
@<TRIPOS>SET
LONE_PAIRS      STATIC     ATOMS    <user>   **** ""
5 37 38 39 40 41
DONOR_HYDROGENS      STATIC     ATOMS    <user>   **** ""
1 22
ATOM$BLUE        STATIC     ATOMS    COLORGROUP SYSTEM
5 37 38 39 40 41
ATOM$RED        STATIC     ATOMS    COLORGROUP SYSTEM
1 22
