AV-unprocessed.smi:2456|AV-procd|sdf|9701|dock6
  -GOLD-   2272013343D 1   1.00000     0.00000
 Structure written by MMmdl.
 34 35  0  0  0  0  0  0  0  0  1 V2000
  147.8229  141.9592  154.1571 C   0  0  0  0  0  0  0  0  0  0  0  0
  148.2269  140.4931  154.4267 C   0  0  1  0  0  0  0  0  0  0  0  0
  147.8108  139.5908  153.3476 N   0  0  0  0  0  0  0  0  0  0  0  0
  146.8018  138.7037  153.3550 C   0  0  0  0  0  0  0  0  0  0  0  0
  146.0164  138.5639  154.2923 O   0  0  0  0  0  0  0  0  0  0  0  0
  146.7652  138.0083  152.2049 N   0  0  0  0  0  0  0  0  0  0  0  0
  145.8600  136.9819  151.8273 C   0  0  0  0  0  0  0  0  0  0  0  0
  145.9830  136.2343  150.7243 N   0  0  0  0  0  0  0  0  0  0  0  0
  144.9494  135.3022  150.6045 C   0  0  0  0  0  0  0  0  0  0  0  0
  144.0411  135.3549  151.6324 C   0  0  0  0  0  0  0  0  0  0  0  0
  144.4509  136.5837  152.7989 S   0  0  0  0  0  0  0  0  0  0  0  0
  149.7125  140.2997  154.7961 C   0  0  0  0  0  0  0  0  0  0  0  0
  150.4322  139.6358  154.0489 O   0  0  0  0  0  0  0  0  0  0  0  0
  150.1876  140.8478  155.9365 N   0  0  0  0  0  0  0  0  0  0  0  0
  151.5539  140.7395  156.4499 C   0  0  0  0  0  0  0  0  0  0  0  0
  151.6318  141.7030  157.6344 C   0  0  0  0  0  0  0  0  0  0  0  0
  150.1933  141.8196  158.1169 C   0  0  0  0  0  0  0  0  0  0  0  0
  149.3596  141.6347  156.8493 C   0  0  0  0  0  0  0  0  0  0  0  0
  148.0087  142.5790  155.0349 H   0  0  0  0  0  0  0  0  0  0  0  0
  146.7603  142.0358  153.9254 H   0  0  0  0  0  0  0  0  0  0  0  0
  148.3755  142.4024  153.3286 H   0  0  0  0  0  0  0  0  0  0  0  0
  147.6430  140.1908  155.2961 H   0  0  0  0  0  0  0  0  0  0  0  0
  148.3762  139.6268  152.5124 H   0  0  0  0  0  0  0  0  0  0  0  0
  147.4711  138.2349  151.5204 H   0  0  0  0  0  0  0  0  0  0  0  0
  144.9381  134.6377  149.7532 H   0  0  0  0  0  0  0  0  0  0  0  0
  143.1596  134.7472  151.7732 H   0  0  0  0  0  0  0  0  0  0  0  0
  151.7290  139.7154  156.7824 H   0  0  0  0  0  0  0  0  0  0  0  0
  152.3055  140.9893  155.7012 H   0  0  0  0  0  0  0  0  0  0  0  0
  152.3133  141.3609  158.4138 H   0  0  0  0  0  0  0  0  0  0  0  0
  151.9802  142.6775  157.2899 H   0  0  0  0  0  0  0  0  0  0  0  0
  149.9767  141.0130  158.8184 H   0  0  0  0  0  0  0  0  0  0  0  0
  149.9913  142.7647  158.6218 H   0  0  0  0  0  0  0  0  0  0  0  0
  149.1455  142.5998  156.3879 H   0  0  0  0  0  0  0  0  0  0  0  0
  148.4090  141.1461  157.0696 H   0  0  0  0  0  0  0  0  0  0  0  0
  1  2  1  0  0  0  0
  1 19  1  0  0  0  0
  1 20  1  0  0  0  0
  1 21  1  0  0  0  0
  2  3  1  0  0  0  0
  2 12  1  0  0  0  0
  2 22  1  0  0  0  0
  3  4  1  0  0  0  0
  3 23  1  0  0  0  0
  4  5  2  0  0  0  0
  4  6  1  0  0  0  0
  6  7  1  0  0  0  0
  6 24  1  0  0  0  0
  7 11  1  0  0  0  0
  7  8  2  0  0  0  0
  8  9  1  0  0  0  0
  9 10  2  0  0  0  0
  9 25  1  0  0  0  0
 10 11  1  0  0  0  0
 10 26  1  0  0  0  0
 12 13  2  0  0  0  0
 12 14  1  0  0  0  0
 14 18  1  0  0  0  0
 14 15  1  0  0  0  0
 15 16  1  0  0  0  0
 15 27  1  0  0  0  0
 15 28  1  0  0  0  0
 16 17  1  0  0  0  0
 16 29  1  0  0  0  0
 16 30  1  0  0  0  0
 17 18  1  0  0  0  0
 17 31  1  0  0  0  0
 17 32  1  0  0  0  0
 18 33  1  0  0  0  0
 18 34  1  0  0  0  0
M  END
> <s_m_source_file>
AV-unprocessed.smi

> <i_m_source_file_index>
2456

> <i_lp_mmshare_version>
43012

> <i_f3d_flags>
0

> <s_epik_input>
W0NIMl0xW0NIMl1bQ0gyXVtDSDJdTjFDKD1PKVtDQEhdKFtDSDNdKVtOSF1DKD1PKVtOSF1jMm5bY0hdW2NIXXMy

> <s_epik_cmdline>
J2VwaWtfcHl0aG9uJywgJy1waCcsICc3LjAnLCAnLXRuJywgJzgnLCAnLW1hJywgJzIwMCcsICctbWV0YWxfYmluZGluZycsICctaW1hZScsICc8aW5maWxlLm1hZT4nLCAnLW9tYWUnLCAnPG91dGZpbGUubWFlPic=

> <r_lp_tautomer_probability>
1

> <r_epik_Ionization_Penalty>
0.000150201

> <r_epik_Ionization_Penalty_Charging>
0

> <r_epik_Ionization_Penalty_Neutral>
0.000150201

> <r_epik_State_Penalty>
-0

> <r_epik_Charging_Adjusted_Penalty>
0

> <i_epik_Tot_Q>
0

> <i_epik_Tot_abs_Q>
0

> <r_epik_Metal_State_Penalty>
0.0705602

> <b_epik_Metal_Only>
0

> <s_lp_Force_Field>
OPLS_2005

> <r_lp_Energy>
30.7

> <b_lp_Chiralities_Consistent>
1

> <s_lp_Variant>
AV-unprocessed.smi:2456-2

> <Gold.Version>
5.8.1

> <Gold.Id.Protein>
6NUR|6NUR_protein|mol2

> <Gold.PLP.Fitness>
39.8985

> <Gold.PLP.PLP>
-31.3634

> <Gold.PLP.part.hbond>
-3.0000

> <Gold.PLP.part.metal>
0.0000

> <Gold.PLP.part.buried>
-3.9881

> <Gold.PLP.part.nonpolar>
-25.2533

> <Gold.PLP.part.repulsive>
1.0517

> <Gold.PLP.ligand.clash>
0.0000

> <Gold.PLP.ligand.torsion>
0.2668

> <Gold.PLP.Chemscore.Hbond>
2.0000

> <Gold.PLP.Chemscore.CHOScore>
0.9758

> <Gold.PLP.Chemscore.Metal>
0.0000

> <Gold.Chemscore.Hbonds>
donor molecule, donor type, donor heavy atom, donor atom, acceptor molecule, acceptor atom, score
      L1  H     3    23       P1  7957  1.00
      P1  H  7989  7998       L1    13  1.00
      L1  C     9    25       P1  7921  0.99

> <Gold.PLP.Chemscore.Internal.Correction>
0.1413

> <Gold.Rescore>
     Score         DG    S(hbond)    S(metal)    S(lipo)     H(rot)  DE(clash)    DE(int)     intcor
     12.28     -14.14       1.90        0.00      49.25       1.34       0.35       1.51       ----

> <Gold.Chemscore.Fitness>
12.2806

> <Gold.Chemscore.DG>
-14.1367

> <Gold.Chemscore.ZeroCoef>
-5.4800

> <Gold.Chemscore.Hbond>
1.8972

> <Gold.Chemscore.Metal>
0.0000

> <Gold.Chemscore.Lipo>
49.2542

> <Gold.Chemscore.Internal_Hbond>
0.0000

> <Gold.Chemscore.DEClash>
0.3487

> <Gold.Chemscore.DEInternal>
1.5074

> <Gold.Chemscore.Rot>
1.3448

> <Gold.Chemscore.Internal.Correction>
   9.000000E+99

> <Gold.Chemscore.Hbonds>
donor molecule, donor type, donor heavy atom, donor atom, acceptor molecule, acceptor atom, score
      L1  H     3    23       P1  7957  1.00
      P1  H  7989  7998       L1    13  0.34

> <Gold.Chemscore.Hbond.Weighted>
-6.3367

> <Gold.Chemscore.Metal.Weighted>
-0.0000

> <Gold.Chemscore.Lipo.Weighted>
-5.7627

> <Gold.Chemscore.Internal_Hbond.Weighted>
0.0000

> <Gold.Chemscore.DEClash.Weighted>
0.3487

> <Gold.Chemscore.DEInternal.Weighted>
1.5074

> <Gold.Chemscore.Rot.Weighted>
3.4427

> <Gold.Chemscore.Internal.Correction.Weighted>
   9.000000E+99

> <Gold.Protein.RotatedTorsions>
[ 6907 6896 6895 6894 ] final  164.45 input  -60.11 | X-H torsion
[ 7974 7965 7964 7962 ] final   61.28 input  175.53 | X-H torsion
[ 8008 7997 7996 7995 ] final  107.43 input   59.86 | X-H torsion
[ 10167 10162 10161 10158 ] final   59.67 input  -65.29 | X-H torsion
[ 10718 10713 10712 10709 ] final   32.29 input   66.30 | X-H torsion
[ 10763 10752 10751 10750 ] final  120.02 input  -60.55 | X-H torsion
[ 11005 11000 10999 10996 ] final  -68.13 input  -57.11 | X-H torsion

> <Gold.Protein.ActiveResidues>
 VAL166  LYS551  ARG553  GLY616  TRP617  ASP618  TYR619  PRO620  LYS621  CYS622 
 ASP623  PHE694  ASN695  SER759  ASP760  ASP761  ALA762  ILE779  LEU786  VAL792 
 PHE793  MET794  SER795  GLU796  ALA797  LYS798  CYS799  TRP800  GLU811  SER814 

> <Gold.Protein.RotatedAtoms>
  151.9097  133.3558  159.3858 H   0  0  0  0  0  0  0  0  0  0  0  0  # atno 6907 bound_to 6896
  150.7061  134.4745  159.5450 H   0  0  0  0  0  0  0  0  0  0  0  0  # atno 6908 bound_to 6896
  152.2349  134.8286  160.0519 H   0  0  0  0  0  0  0  0  0  0  0  0  # atno 6909 bound_to 6896
  145.8865  139.3480  143.0675 H   0  0  0  0  0  0  0  0  0  0  0  0  # atno 7974 bound_to 7965
  156.1823  140.3095  155.9172 H   0  0  0  0  0  0  0  0  0  0  0  0  # atno 8008 bound_to 7997
  155.3357  140.0463  157.3061 H   0  0  0  0  0  0  0  0  0  0  0  0  # atno 8009 bound_to 7997
  154.5356  140.2245  155.8738 H   0  0  0  0  0  0  0  0  0  0  0  0  # atno 8010 bound_to 7997
  140.1739  144.4249  150.6648 H   0  0  0  0  0  0  0  0  0  0  0  0  # atno 10167 bound_to 10162
  157.2834  130.7266  149.6569 H   0  0  0  0  0  0  0  0  0  0  0  0  # atno 10718 bound_to 10713
  153.5920  135.3464  155.2914 H   0  0  0  0  0  0  0  0  0  0  0  0  # atno 10763 bound_to 10752
  154.8651  135.4207  154.2506 H   0  0  0  0  0  0  0  0  0  0  0  0  # atno 10764 bound_to 10752
  153.3315  135.7044  153.7014 H   0  0  0  0  0  0  0  0  0  0  0  0  # atno 10765 bound_to 10752
  141.1525  133.6734  156.6399 H   0  0  0  0  0  0  0  0  0  0  0  0  # atno 11005 bound_to 11000
  145.8960  140.9273  143.0527 LP  0  0  0  0  0  0  0  0  0  0  0  0  # atno 17320 bound_to 7965
  144.6729  140.0969  143.7462 LP  0  0  0  0  0  0  0  0  0  0  0  0  # atno 17321 bound_to 7965
  140.6564  143.2239  151.5958 LP  0  0  0  0  0  0  0  0  0  0  0  0  # atno 17342 bound_to 10162
  139.5326  144.2873  152.1181 LP  0  0  0  0  0  0  0  0  0  0  0  0  # atno 17343 bound_to 10162
  155.9665  130.4331  150.4992 LP  0  0  0  0  0  0  0  0  0  0  0  0  # atno 17370 bound_to 10713
  157.2940  131.0632  151.2114 LP  0  0  0  0  0  0  0  0  0  0  0  0  # atno 17371 bound_to 10713
  140.3401  134.7856  157.4391 LP  0  0  0  0  0  0  0  0  0  0  0  0  # atno 17394 bound_to 11000
  140.0945  134.5556  155.8412 LP  0  0  0  0  0  0  0  0  0  0  0  0  # atno 17395 bound_to 11000

$$$$
