AV-unprocessed.smi:2107|AV-procd|sdf|8602|dock10
  -GOLD-   2272011343D 1   1.00000     0.00000
 Structure written by MMmdl.
 45 46  0  0  0  0  0  0  0  0  2 V2000
  146.0087  133.6858  162.0691 C   0  0  0  0  0  0  0  0  0  0  0  0
  146.9801  134.0895  160.9501 C   0  0  0  0  0  0  0  0  0  0  0  0
  147.2308  135.5442  160.9140 N   0  0  0  0  0  0  0  0  0  0  0  0
  146.6005  136.3664  161.9673 C   0  0  0  0  0  0  0  0  0  0  0  0
  147.5697  136.7404  163.0987 C   0  0  0  0  0  0  0  0  0  0  0  0
  148.4112  136.2234  159.8192 S   0  0  0  0  0  0  0  0  0  0  0  0
  149.4288  136.8428  160.6824 O   0  0  0  0  0  0  0  0  0  0  0  0
  148.8468  135.1237  158.9402 O   0  0  0  0  0  0  0  0  0  0  0  0
  147.4690  137.3443  159.1035 N   0  5  0  0  0  0  0  0  0  0  0  0
  147.5972  137.6765  157.6916 C   0  0  0  0  0  0  0  0  0  0  0  0
  147.7694  139.1875  157.4838 C   0  0  0  0  0  0  0  0  0  0  0  0
  146.6299  140.0126  157.6498 C   0  0  0  0  0  0  0  0  0  0  0  0
  146.7404  141.4027  157.4698 C   0  0  0  0  0  0  0  0  0  0  0  0
  147.9945  141.9300  157.1246 C   0  0  0  0  0  0  0  0  0  0  0  0
  149.0931  141.1682  156.9592 N   0  0  0  0  0  0  0  0  0  0  0  0
  149.0028  139.8237  157.1268 C   0  0  0  0  0  0  0  0  0  0  0  0
  150.2073  139.1126  156.9313 N   0  0  0  0  0  0  0  0  0  0  0  0
  150.7712  139.2606  155.5940 C   0  0  0  0  0  0  0  0  0  0  0  0
  152.0230  138.3790  155.4406 C   0  0  0  0  0  0  0  0  0  0  0  0
  152.9584  138.6893  156.4692 O   0  0  0  0  0  0  0  0  0  0  0  0
  152.4220  138.4500  157.7673 C   0  0  0  0  0  0  0  0  0  0  0  0
  151.1868  139.3396  157.9870 C   0  0  0  0  0  0  0  0  0  0  0  0
  145.7791  132.6220  162.0131 H   0  0  0  0  0  0  0  0  0  0  0  0
  145.0688  134.2312  162.0032 H   0  0  0  0  0  0  0  0  0  0  0  0
  146.4350  133.8742  163.0543 H   0  0  0  0  0  0  0  0  0  0  0  0
  147.9293  133.5712  161.0852 H   0  0  0  0  0  0  0  0  0  0  0  0
  146.5960  133.7584  159.9849 H   0  0  0  0  0  0  0  0  0  0  0  0
  146.1952  137.2771  161.5274 H   0  0  0  0  0  0  0  0  0  0  0  0
  145.7498  135.8209  162.3759 H   0  0  0  0  0  0  0  0  0  0  0  0
  147.0903  137.4176  163.8055 H   0  0  0  0  0  0  0  0  0  0  0  0
  148.4530  137.2436  162.7111 H   0  0  0  0  0  0  0  0  0  0  0  0
  147.9003  135.8667  163.6596 H   0  0  0  0  0  0  0  0  0  0  0  0
  148.4560  137.1803  157.2385 H   0  0  0  0  0  0  0  0  0  0  0  0
  146.7386  137.3377  157.1124 H   0  0  0  0  0  0  0  0  0  0  0  0
  145.6639  139.6022  157.9131 H   0  0  0  0  0  0  0  0  0  0  0  0
  145.8824  142.0468  157.5921 H   0  0  0  0  0  0  0  0  0  0  0  0
  148.1205  142.9922  156.9777 H   0  0  0  0  0  0  0  0  0  0  0  0
  150.0239  138.9843  154.8491 H   0  0  0  0  0  0  0  0  0  0  0  0
  151.0363  140.3032  155.4153 H   0  0  0  0  0  0  0  0  0  0  0  0
  151.7670  137.3203  155.4780 H   0  0  0  0  0  0  0  0  0  0  0  0
  152.4888  138.5567  154.4716 H   0  0  0  0  0  0  0  0  0  0  0  0
  152.1697  137.3950  157.8812 H   0  0  0  0  0  0  0  0  0  0  0  0
  153.1840  138.6758  158.5131 H   0  0  0  0  0  0  0  0  0  0  0  0
  151.4855  140.3887  157.9950 H   0  0  0  0  0  0  0  0  0  0  0  0
  150.7377  139.1232  158.9570 H   0  0  0  0  0  0  0  0  0  0  0  0
  1  2  1  0  0  0  0
  1 23  1  0  0  0  0
  1 24  1  0  0  0  0
  1 25  1  0  0  0  0
  2  3  1  0  0  0  0
  2 26  1  0  0  0  0
  2 27  1  0  0  0  0
  3  4  1  0  0  0  0
  3  6  1  0  0  0  0
  4  5  1  0  0  0  0
  4 28  1  0  0  0  0
  4 29  1  0  0  0  0
  5 30  1  0  0  0  0
  5 31  1  0  0  0  0
  5 32  1  0  0  0  0
  6  7  2  0  0  0  0
  6  8  2  0  0  0  0
  6  9  1  0  0  0  0
  9 10  1  0  0  0  0
 10 11  1  0  0  0  0
 10 33  1  0  0  0  0
 10 34  1  0  0  0  0
 11 16  1  0  0  0  0
 11 12  2  0  0  0  0
 12 13  1  0  0  0  0
 12 35  1  0  0  0  0
 13 14  2  0  0  0  0
 13 36  1  0  0  0  0
 14 15  1  0  0  0  0
 14 37  1  0  0  0  0
 15 16  2  0  0  0  0
 16 17  1  0  0  0  0
 17 22  1  0  0  0  0
 17 18  1  0  0  0  0
 18 19  1  0  0  0  0
 18 38  1  0  0  0  0
 18 39  1  0  0  0  0
 19 20  1  0  0  0  0
 19 40  1  0  0  0  0
 19 41  1  0  0  0  0
 20 21  1  0  0  0  0
 21 22  1  0  0  0  0
 21 42  1  0  0  0  0
 21 43  1  0  0  0  0
 22 44  1  0  0  0  0
 22 45  1  0  0  0  0
M  CHG  1   9  -1
M  END
> <s_m_source_file>
AV-unprocessed.smi

> <i_m_source_file_index>
2107

> <i_lp_mmshare_version>
43012

> <i_f3d_flags>
0

> <s_epik_input>
W0NIM11bQ0gyXU4oW0NIMl1bQ0gzXSlTKD1PKSg9TylbTkhdW0NIMl1jMVtjSF1bY0hdW2NIXW5jMU4yW0NIMl1bQ0gyXU9bQ0gyXVtDSDJdMg==

> <s_epik_cmdline>
J2VwaWtfcHl0aG9uJywgJy1waCcsICc3LjAnLCAnLXRuJywgJzgnLCAnLW1hJywgJzIwMCcsICctbWV0YWxfYmluZGluZycsICctaW1hZScsICc8aW5maWxlLm1hZT4nLCAnLW9tYWUnLCAnPG91dGZpbGUubWFlPic=

> <r_lp_tautomer_probability>
1

> <r_epik_Ionization_Penalty>
2.49252

> <r_epik_Ionization_Penalty_Charging>
2.41478

> <r_epik_Ionization_Penalty_Neutral>
0.0777344

> <r_epik_State_Penalty>
2.68884

> <r_epik_Charging_Adjusted_Penalty>
5.10362

> <i_epik_Tot_Q>
-1

> <i_epik_Tot_abs_Q>
1

> <r_epik_Metal_State_Penalty>
0.584574

> <b_epik_Metal_Only>
0

> <s_lp_Force_Field>
OPLS_2005

> <r_lp_Energy>
22.2252

> <b_lp_Chiralities_Consistent>
1

> <s_lp_Variant>
AV-unprocessed.smi:2107-3

> <Gold.Version>
5.8.1

> <Gold.Id.Protein>
6NUR|6NUR_protein|mol2

> <Gold.PLP.Fitness>
39.0380

> <Gold.PLP.PLP>
-27.8238

> <Gold.PLP.part.hbond>
-3.6308

> <Gold.PLP.part.metal>
0.0000

> <Gold.PLP.part.buried>
-0.1598

> <Gold.PLP.part.nonpolar>
-24.6704

> <Gold.PLP.part.repulsive>
0.0712

> <Gold.PLP.ligand.clash>
0.1083

> <Gold.PLP.ligand.torsion>
2.1613

> <Gold.PLP.Chemscore.Hbond>
3.1090

> <Gold.PLP.Chemscore.CHOScore>
0.9999

> <Gold.PLP.Chemscore.Metal>
0.0000

> <Gold.Chemscore.Hbonds>
donor molecule, donor type, donor heavy atom, donor atom, acceptor molecule, acceptor atom, score
      P1  H  6896  6909       L1     8  0.96
      P1  H  6931  6943       L1     7  0.66
      P1  H  7997  8008       L1    20  1.00
      L1  C    14    37       P1  8028  0.95

> <Gold.PLP.Chemscore.Internal.Correction>
3.3183

> <Gold.Rescore>
     Score         DG    S(hbond)    S(metal)    S(lipo)     H(rot)  DE(clash)    DE(int)     intcor
     13.89     -16.87       2.84        0.00      52.55       1.66       0.00       2.98       ----

> <Gold.Chemscore.Fitness>
13.8898

> <Gold.Chemscore.DG>
-16.8686

> <Gold.Chemscore.ZeroCoef>
-5.4800

> <Gold.Chemscore.Hbond>
2.8444

> <Gold.Chemscore.Metal>
0.0000

> <Gold.Chemscore.Lipo>
52.5541

> <Gold.Chemscore.Internal_Hbond>
0.0000

> <Gold.Chemscore.DEClash>
0.0000

> <Gold.Chemscore.DEInternal>
2.9788

> <Gold.Chemscore.Rot>
1.6642

> <Gold.Chemscore.Internal.Correction>
   9.000000E+99

> <Gold.Chemscore.Hbonds>
donor molecule, donor type, donor heavy atom, donor atom, acceptor molecule, acceptor atom, score
      P1  H  6896  6909       L1     8  0.35
      P1  H  6931  6943       L1     7  0.66
      P1  H  6934  6947       L1     9  0.01
      P1  H  7997  8008       L1    20  0.83

> <Gold.Chemscore.Hbond.Weighted>
-9.5002

> <Gold.Chemscore.Metal.Weighted>
-0.0000

> <Gold.Chemscore.Lipo.Weighted>
-6.1488

> <Gold.Chemscore.Internal_Hbond.Weighted>
0.0000

> <Gold.Chemscore.DEClash.Weighted>
0.0000

> <Gold.Chemscore.DEInternal.Weighted>
2.9788

> <Gold.Chemscore.Rot.Weighted>
4.2604

> <Gold.Chemscore.Internal.Correction.Weighted>
   9.000000E+99

> <Gold.Protein.RotatedTorsions>
[ 6907 6896 6895 6894 ] final   60.80 input  -60.11 | X-H torsion
[ 7974 7965 7964 7962 ] final   35.21 input  175.53 | X-H torsion
[ 8008 7997 7996 7995 ] final  -50.90 input   59.86 | X-H torsion
[ 10167 10162 10161 10158 ] final  -35.33 input  -65.29 | X-H torsion
[ 10718 10713 10712 10709 ] final  115.42 input   66.30 | X-H torsion
[ 10763 10752 10751 10750 ] final  -18.88 input  -60.55 | X-H torsion
[ 11005 11000 10999 10996 ] final   92.18 input  -57.11 | X-H torsion

> <Gold.Protein.ActiveResidues>
 VAL166  LYS551  ARG553  GLY616  TRP617  ASP618  TYR619  PRO620  LYS621  CYS622 
 ASP623  PHE694  ASN695  SER759  ASP760  ASP761  ALA762  ILE779  LEU786  VAL792 
 PHE793  MET794  SER795  GLU796  ALA797  LYS798  CYS799  TRP800  GLU811  SER814 

> <Gold.Protein.RotatedAtoms>
  152.4034  134.6247  160.0059 H   0  0  0  0  0  0  0  0  0  0  0  0  # atno 6907 bound_to 6896
  151.6446  133.3318  159.3146 H   0  0  0  0  0  0  0  0  0  0  0  0  # atno 6908 bound_to 6896
  150.7932  134.7014  159.6597 H   0  0  0  0  0  0  0  0  0  0  0  0  # atno 6909 bound_to 6896
  146.1299  139.6171  142.9234 H   0  0  0  0  0  0  0  0  0  0  0  0  # atno 7974 bound_to 7965
  154.4071  140.1261  156.4741 H   0  0  0  0  0  0  0  0  0  0  0  0  # atno 8008 bound_to 7997
  155.7150  140.3493  155.4971 H   0  0  0  0  0  0  0  0  0  0  0  0  # atno 8009 bound_to 7997
  155.9266  140.1062  157.1155 H   0  0  0  0  0  0  0  0  0  0  0  0  # atno 8010 bound_to 7997
  140.7167  143.3485  151.2206 H   0  0  0  0  0  0  0  0  0  0  0  0  # atno 10167 bound_to 10162
  157.6223  131.1012  150.7327 H   0  0  0  0  0  0  0  0  0  0  0  0  # atno 10718 bound_to 10713
  153.5961  135.7001  153.5403 H   0  0  0  0  0  0  0  0  0  0  0  0  # atno 10763 bound_to 10752
  153.3137  135.4094  155.1357 H   0  0  0  0  0  0  0  0  0  0  0  0  # atno 10764 bound_to 10752
  154.8591  135.3678  154.5495 H   0  0  0  0  0  0  0  0  0  0  0  0  # atno 10765 bound_to 10752
  139.8827  134.8718  156.3535 H   0  0  0  0  0  0  0  0  0  0  0  0  # atno 11005 bound_to 11000
  145.5284  141.0428  143.2396 LP  0  0  0  0  0  0  0  0  0  0  0  0  # atno 17320 bound_to 7965
  144.7679  139.6801  143.7207 LP  0  0  0  0  0  0  0  0  0  0  0  0  # atno 17321 bound_to 7965
  139.7010  143.9533  152.2905 LP  0  0  0  0  0  0  0  0  0  0  0  0  # atno 17342 bound_to 10162
  139.9226  144.6790  150.8445 LP  0  0  0  0  0  0  0  0  0  0  0  0  # atno 17343 bound_to 10162
  156.7682  130.4820  149.5423 LP  0  0  0  0  0  0  0  0  0  0  0  0  # atno 17370 bound_to 10713
  156.1375  130.6221  151.0420 LP  0  0  0  0  0  0  0  0  0  0  0  0  # atno 17371 bound_to 10713
  140.9578  133.7408  156.0359 LP  0  0  0  0  0  0  0  0  0  0  0  0  # atno 17394 bound_to 11000
  140.8027  134.3490  157.5435 LP  0  0  0  0  0  0  0  0  0  0  0  0  # atno 17395 bound_to 11000

$$$$
