AV-unprocessed.smi:2470|AV-procd|sdf|9736|dock5
  -GOLD-   2272013373D 1   1.00000     0.00000
 Structure written by MMmdl.
 33 34  0  0  0  0  0  0  0  0  1 V2000
  151.1069  134.7106  155.7613 C   0  0  0  0  0  0  0  0  0  0  0  0
  151.8510  135.8646  156.1349 O   0  0  0  0  0  0  0  0  0  0  0  0
  151.4900  137.0779  155.5871 C   0  0  0  0  0  0  0  0  0  0  0  0
  151.7685  138.2650  156.2947 C   0  0  0  0  0  0  0  0  0  0  0  0
  151.3844  139.4866  155.6975 C   0  0  0  0  0  0  0  0  0  0  0  0
  151.6895  140.6581  156.4397 N   0  0  0  0  0  0  0  0  0  0  0  0
  151.8905  140.7717  157.7642 C   0  0  0  0  0  0  0  0  0  0  0  0
  151.8697  139.8405  158.5695 O   0  0  0  0  0  0  0  0  0  0  0  0
  152.1255  142.0463  158.1103 N   0  0  0  0  0  0  0  0  0  0  0  0
  152.3774  142.5257  159.4660 C   0  0  1  0  0  0  0  0  0  0  0  0
  153.5305  141.7260  160.0925 C   0  0  0  0  0  0  0  0  0  0  0  0
  152.6648  144.0144  159.5091 C   0  0  0  0  0  0  0  0  0  0  0  0
  151.7175  144.9717  160.1917 C   0  0  0  0  0  0  0  0  0  0  0  0
  151.8574  144.9890  158.6859 C   0  0  0  0  0  0  0  0  0  0  0  0
  150.7701  139.4849  154.4884 N   0  0  0  0  0  0  0  0  0  0  0  0
  150.5504  138.3076  153.9004 C   0  0  0  0  0  0  0  0  0  0  0  0
  150.8755  137.1066  154.3798 N   0  0  0  0  0  0  0  0  0  0  0  0
  151.5064  133.8400  156.2812 H   0  0  0  0  0  0  0  0  0  0  0  0
  151.1806  134.5192  154.6899 H   0  0  0  0  0  0  0  0  0  0  0  0
  150.0555  134.8061  156.0365 H   0  0  0  0  0  0  0  0  0  0  0  0
  152.2595  138.2335  157.2564 H   0  0  0  0  0  0  0  0  0  0  0  0
  151.7525  141.5094  155.9014 H   0  0  0  0  0  0  0  0  0  0  0  0
  152.1237  142.7429  157.3799 H   0  0  0  0  0  0  0  0  0  0  0  0
  151.4833  142.3534  160.0688 H   0  0  0  0  0  0  0  0  0  0  0  0
  153.7224  142.0505  161.1157 H   0  0  0  0  0  0  0  0  0  0  0  0
  154.4540  141.8506  159.5261 H   0  0  0  0  0  0  0  0  0  0  0  0
  153.3014  140.6604  160.1266 H   0  0  0  0  0  0  0  0  0  0  0  0
  153.7224  144.2491  159.6170 H   0  0  0  0  0  0  0  0  0  0  0  0
  150.7961  144.5664  160.6053 H   0  0  0  0  0  0  0  0  0  0  0  0
  152.1544  145.7988  160.7476 H   0  0  0  0  0  0  0  0  0  0  0  0
  152.3872  145.8276  158.2386 H   0  0  0  0  0  0  0  0  0  0  0  0
  151.0289  144.5952  158.1003 H   0  0  0  0  0  0  0  0  0  0  0  0
  150.0600  138.3292  152.9385 H   0  0  0  0  0  0  0  0  0  0  0  0
  1  2  1  0  0  0  0
  1 18  1  0  0  0  0
  1 19  1  0  0  0  0
  1 20  1  0  0  0  0
  2  3  1  0  0  0  0
  3 17  1  0  0  0  0
  3  4  2  0  0  0  0
  4  5  1  0  0  0  0
  4 21  1  0  0  0  0
  5  6  1  0  0  0  0
  5 15  2  0  0  0  0
  6  7  1  0  0  0  0
  6 22  1  0  0  0  0
  7  8  2  0  0  0  0
  7  9  1  0  0  0  0
  9 10  1  0  0  0  0
  9 23  1  0  0  0  0
 10 11  1  0  0  0  0
 10 12  1  0  0  0  0
 10 24  1  0  0  0  0
 11 25  1  0  0  0  0
 11 26  1  0  0  0  0
 11 27  1  0  0  0  0
 12 14  1  0  0  0  0
 12 13  1  0  0  0  0
 12 28  1  0  0  0  0
 13 14  1  0  0  0  0
 13 29  1  0  0  0  0
 13 30  1  0  0  0  0
 14 31  1  0  0  0  0
 14 32  1  0  0  0  0
 15 16  1  0  0  0  0
 16 17  2  0  0  0  0
 16 33  1  0  0  0  0
M  END
> <s_m_source_file>
AV-unprocessed.smi

> <i_m_source_file_index>
2470

> <i_lp_mmshare_version>
43012

> <i_f3d_flags>
0

> <s_epik_input>
W0NIM11PYzFbY0hdYyhuW2NIXW4xKVtOSF1DKD1PKVtOSF1bQ0BIXShbQ0gzXSlbQ0hdMltDSDJdW0NIMl0y

> <s_epik_cmdline>
J2VwaWtfcHl0aG9uJywgJy1waCcsICc3LjAnLCAnLXRuJywgJzgnLCAnLW1hJywgJzIwMCcsICctbWV0YWxfYmluZGluZycsICctaW1hZScsICc8aW5maWxlLm1hZT4nLCAnLW9tYWUnLCAnPG91dGZpbGUubWFlPic=

> <r_lp_tautomer_probability>
1

> <r_epik_Ionization_Penalty>
2.81207e-05

> <r_epik_Ionization_Penalty_Charging>
0

> <r_epik_Ionization_Penalty_Neutral>
2.81207e-05

> <r_epik_State_Penalty>
-0

> <r_epik_Charging_Adjusted_Penalty>
0

> <i_epik_Tot_Q>
0

> <i_epik_Tot_abs_Q>
0

> <r_epik_Metal_State_Penalty>
-0

> <b_epik_Metal_Only>
0

> <s_lp_Force_Field>
OPLS_2005

> <r_lp_Energy>
11.1381

> <b_lp_Chiralities_Consistent>
1

> <s_lp_Variant>
AV-unprocessed.smi:2470-2

> <Gold.Version>
5.8.1

> <Gold.Id.Protein>
6NUR|6NUR_protein|mol2

> <Gold.PLP.Fitness>
43.0578

> <Gold.PLP.PLP>
-33.7806

> <Gold.PLP.part.hbond>
-2.0000

> <Gold.PLP.part.metal>
0.0000

> <Gold.PLP.part.buried>
-4.3187

> <Gold.PLP.part.nonpolar>
-28.2084

> <Gold.PLP.part.repulsive>
0.5637

> <Gold.PLP.ligand.clash>
0.0000

> <Gold.PLP.ligand.torsion>
1.3650

> <Gold.PLP.Chemscore.Hbond>
2.0000

> <Gold.PLP.Chemscore.CHOScore>
1.6450

> <Gold.PLP.Chemscore.Metal>
0.0000

> <Gold.Chemscore.Hbonds>
donor molecule, donor type, donor heavy atom, donor atom, acceptor molecule, acceptor atom, score
      P1  H  7989  7998       L1    15  1.00
      P1  H 10752 10763       L1     2  0.70
      L1  C    16    33       P1  7948  0.82
      L1  C    16    33       P1  7957  1.00

> <Gold.PLP.Chemscore.Internal.Correction>
1.0721

> <Gold.Rescore>
     Score         DG    S(hbond)    S(metal)    S(lipo)     H(rot)  DE(clash)    DE(int)     intcor
      9.70     -12.61       0.96        0.00      68.90       1.61       0.04       2.86       ----

> <Gold.Chemscore.Fitness>
9.7023

> <Gold.Chemscore.DG>
-12.6084

> <Gold.Chemscore.ZeroCoef>
-5.4800

> <Gold.Chemscore.Hbond>
0.9554

> <Gold.Chemscore.Metal>
0.0000

> <Gold.Chemscore.Lipo>
68.9017

> <Gold.Chemscore.Internal_Hbond>
0.0000

> <Gold.Chemscore.DEClash>
0.0442

> <Gold.Chemscore.DEInternal>
2.8618

> <Gold.Chemscore.Rot>
1.6109

> <Gold.Chemscore.Internal.Correction>
   9.000000E+99

> <Gold.Chemscore.Hbonds>
donor molecule, donor type, donor heavy atom, donor atom, acceptor molecule, acceptor atom, score
      P1  H  7989  7998       L1    15  0.48
      P1  H 10752 10763       L1     2  0.03

> <Gold.Chemscore.Hbond.Weighted>
-3.1909

> <Gold.Chemscore.Metal.Weighted>
-0.0000

> <Gold.Chemscore.Lipo.Weighted>
-8.0615

> <Gold.Chemscore.Internal_Hbond.Weighted>
0.0000

> <Gold.Chemscore.DEClash.Weighted>
0.0442

> <Gold.Chemscore.DEInternal.Weighted>
2.8618

> <Gold.Chemscore.Rot.Weighted>
4.1240

> <Gold.Chemscore.Internal.Correction.Weighted>
   9.000000E+99

> <Gold.Protein.RotatedTorsions>
[ 6907 6896 6895 6894 ] final -162.37 input  -60.11 | X-H torsion
[ 7974 7965 7964 7962 ] final   52.10 input  175.53 | X-H torsion
[ 8008 7997 7996 7995 ] final   34.30 input   59.86 | X-H torsion
[ 10167 10162 10161 10158 ] final   70.62 input  -65.29 | X-H torsion
[ 10718 10713 10712 10709 ] final  -64.05 input   66.30 | X-H torsion
[ 10763 10752 10751 10750 ] final  102.12 input  -60.55 | X-H torsion
[ 11005 11000 10999 10996 ] final  132.77 input  -57.11 | X-H torsion

> <Gold.Protein.ActiveResidues>
 VAL166  LYS551  ARG553  GLY616  TRP617  ASP618  TYR619  PRO620  LYS621  CYS622 
 ASP623  PHE694  ASN695  SER759  ASP760  ASP761  ALA762  ILE779  LEU786  VAL792 
 PHE793  MET794  SER795  GLU796  ALA797  LYS798  CYS799  TRP800  GLU811  SER814 

> <Gold.Protein.RotatedAtoms>
  151.3792  133.3827  159.2707 H   0  0  0  0  0  0  0  0  0  0  0  0  # atno 6907 bound_to 6896
  150.9591  134.8982  159.7730 H   0  0  0  0  0  0  0  0  0  0  0  0  # atno 6908 bound_to 6896
  152.5142  134.3750  159.9383 H   0  0  0  0  0  0  0  0  0  0  0  0  # atno 6909 bound_to 6896
  145.9847  139.4277  143.0110 H   0  0  0  0  0  0  0  0  0  0  0  0  # atno 7974 bound_to 7965
  155.1526  140.3276  155.4428 H   0  0  0  0  0  0  0  0  0  0  0  0  # atno 8008 bound_to 7997
  156.2569  140.1974  156.6587 H   0  0  0  0  0  0  0  0  0  0  0  0  # atno 8009 bound_to 7997
  154.6462  140.0564  156.9889 H   0  0  0  0  0  0  0  0  0  0  0  0  # atno 8010 bound_to 7997
  140.0550  144.5280  150.7336 H   0  0  0  0  0  0  0  0  0  0  0  0  # atno 10167 bound_to 10162
  156.0753  130.4228  150.1365 H   0  0  0  0  0  0  0  0  0  0  0  0  # atno 10718 bound_to 10713
  153.3355  135.4021  155.1530 H   0  0  0  0  0  0  0  0  0  0  0  0  # atno 10763 bound_to 10752
  154.8632  135.3621  154.5415 H   0  0  0  0  0  0  0  0  0  0  0  0  # atno 10764 bound_to 10752
  153.5856  135.7075  153.5504 H   0  0  0  0  0  0  0  0  0  0  0  0  # atno 10765 bound_to 10752
  139.9810  134.9548  156.9629 H   0  0  0  0  0  0  0  0  0  0  0  0  # atno 11005 bound_to 11000
  145.7719  140.9893  143.1145 LP  0  0  0  0  0  0  0  0  0  0  0  0  # atno 17320 bound_to 7965
  144.6871  139.9457  143.7476 LP  0  0  0  0  0  0  0  0  0  0  0  0  # atno 17321 bound_to 7965
  140.7199  143.2579  151.4313 LP  0  0  0  0  0  0  0  0  0  0  0  0  # atno 17342 bound_to 10162
  139.5929  144.1459  152.2110 LP  0  0  0  0  0  0  0  0  0  0  0  0  # atno 17343 bound_to 10162
  156.9408  130.9744  151.3516 LP  0  0  0  0  0  0  0  0  0  0  0  0  # atno 17370 bound_to 10713
  157.5845  130.8399  149.8569 LP  0  0  0  0  0  0  0  0  0  0  0  0  # atno 17371 bound_to 10713
  140.5096  134.1015  155.7267 LP  0  0  0  0  0  0  0  0  0  0  0  0  # atno 17394 bound_to 11000
  141.1482  133.9016  157.2163 LP  0  0  0  0  0  0  0  0  0  0  0  0  # atno 17395 bound_to 11000

$$$$
