#       Name:                AV-unprocessed.smi:3335
#       Creating user name   scv26
#       Creation time:       Fri Mar 27 19:22:33 2020


#       File generated by GOLD software.
#

@<TRIPOS>MOLECULE
AV-unprocessed.smi:3335
    50    51     1
SMALL
NO_CHARGES


@<TRIPOS>ATOM
      1 ****        -4.1869  -2.1091   2.3025 C.3            1 S1                 0.0000
      2 ****        -3.8210  -0.8053   1.6545 C.2            1 S1                 0.0000
      3 ****        -3.9407   0.5055   2.1955 C.2            1 S1                 0.0000
      4 ****        -3.5152   1.4431   1.3654 N.2            1 S1                 0.0000
      5 ****        -3.1219   0.7720   0.2592 N.pl3          1 S1                 0.0000
      6 ****        -2.5413   1.4759  -0.8825 C.3            1 S1                 0.0000
      7 ****        -3.2876   2.7887  -1.1940 C.3            1 S1                 0.0000
      8 ****        -1.0069   1.6709  -0.7448 C.3            1 S1                 0.0000
      9 ****        -0.5872   2.4176   0.5398 C.3            1 S1                 0.0000
     10 ****        -0.3433   0.3459  -0.8372 N.4            1 S1                 1.0000
     11 ****         1.1343   0.3072  -0.9731 C.3            1 S1                 0.0000
     12 ****         1.5931   0.8815  -2.3275 C.3            1 S1                 0.0000
     13 ****         1.6289  -1.1446  -0.8270 C.2            1 S1                 0.0000
     14 ****         0.9111  -2.0602  -1.2336 O.2            1 S1                 0.0000
     15 ****         2.8378  -1.3826  -0.2728 N.am           1 S1                 0.0000
     16 ****         3.7768  -0.3801   0.2327 C.3            1 S1                 0.0000
     17 ****         5.0773  -1.1338   0.5116 C.3            1 S1                 0.0000
     18 ****         4.6270  -2.5626   0.7775 C.3            1 S1                 0.0000
     19 ****         3.3835  -2.7278  -0.0955 C.3            1 S1                 0.0000
     20 ****        -3.2922  -0.5888   0.4142 C.2            1 S1                 0.0000
     21 ****        -4.4661  -1.9783   3.3482 H              1 S1                 0.0000
     22 ****        -3.3581  -2.8169   2.2788 H              1 S1                 0.0000
     23 ****        -5.0305  -2.5840   1.8015 H              1 S1                 0.0000
     24 ****        -4.3149   0.8007   3.1647 H              1 S1                 0.0000
     25 ****        -2.7082   0.8359  -1.7510 H              1 S1                 0.0000
     26 ****        -2.9007   3.2516  -2.1020 H              1 S1                 0.0000
     27 ****        -3.1987   3.5193  -0.3902 H              1 S1                 0.0000
     28 ****        -4.3505   2.6029  -1.3517 H              1 S1                 0.0000
     29 ****        -0.6882   2.2637  -1.6015 H              1 S1                 0.0000
     30 ****        -1.1547   3.3385   0.6696 H              1 S1                 0.0000
     31 ****         0.4628   2.7062   0.5138 H              1 S1                 0.0000
     32 ****        -0.7385   1.8070   1.4303 H              1 S1                 0.0000
     33 ****        -0.5890  -0.1740  -0.0065 H              1 S1                 0.0000
     34 ****         1.5601   0.8987  -0.1654 H              1 S1                 0.0000
     35 ****         2.6656   0.7502  -2.4759 H              1 S1                 0.0000
     36 ****         1.3975   1.9510  -2.3985 H              1 S1                 0.0000
     37 ****         1.0858   0.3928  -3.1601 H              1 S1                 0.0000
     38 ****         3.9425   0.4343  -0.4731 H              1 S1                 0.0000
     39 ****         3.3813   0.0433   1.1571 H              1 S1                 0.0000
     40 ****         5.7110  -1.1114  -0.3760 H              1 S1                 0.0000
     41 ****         5.6456  -0.7081   1.3390 H              1 S1                 0.0000
     42 ****         5.4002  -3.2995   0.5574 H              1 S1                 0.0000
     43 ****         4.3530  -2.6687   1.8280 H              1 S1                 0.0000
     44 ****         2.6646  -3.4067   0.3661 H              1 S1                 0.0000
     45 ****         3.6533  -3.1326  -1.0722 H              1 S1                 0.0000
     46 ****        -3.0199  -1.2878  -0.3630 H              1 S1                 0.0000
     47 ****        -0.7286  -0.1428  -1.6328 H              1 S1                 0.0000
     48 ****        -3.4899   2.4306   1.5214 LP             1 S1                 0.0000
     49 ****         0.0252  -1.8541  -1.6494 LP             1 S1                 0.0000
     50 ****         1.2144  -3.0092  -1.1477 LP             1 S1                 0.0000
@<TRIPOS>BOND
    1    1    2 1     
    2    1   21 1     
    3    1   22 1     
    4    1   23 1     
    5    2   20 2     
    6    2    3 1     
    7    3    4 2     
    8    3   24 1     
    9    4    5 1     
   10    5    6 1     
   11    5   20 1     
   12    6    7 1     
   13    6    8 1     
   14    6   25 1     
   15    7   26 1     
   16    7   27 1     
   17    7   28 1     
   18    8    9 1     
   19    8   10 1     
   20    8   29 1     
   21    9   30 1     
   22    9   31 1     
   23    9   32 1     
   24   10   11 1     
   25   10   33 1     
   26   10   47 1     
   27   11   12 1     
   28   11   13 1     
   29   11   34 1     
   30   12   35 1     
   31   12   36 1     
   32   12   37 1     
   33   13   14 2     
   34   13   15 am    
   35   15   19 1     
   36   15   16 1     
   37   16   17 1     
   38   16   38 1     
   39   16   39 1     
   40   17   18 1     
   41   17   40 1     
   42   17   41 1     
   43   18   19 1     
   44   18   42 1     
   45   18   43 1     
   46   19   44 1     
   47   19   45 1     
   48   20   46 1     
   49    4   48 1     
   50   14   49 1     
   51   14   50 1     
@<TRIPOS>SUBSTRUCTURE
      1 S1             1
@<TRIPOS>SET
LONE_PAIRS      STATIC     ATOMS    <user>   **** ""
3 48 49 50
DONOR_HYDROGENS      STATIC     ATOMS    <user>   **** ""
2 33 47
ATOM$BLUE        STATIC     ATOMS    COLORGROUP SYSTEM
3 48 49 50
ATOM$RED        STATIC     ATOMS    COLORGROUP SYSTEM
2 33 47
