#       Name:                AV-unprocessed.smi:1005
#       Creating user name   scv26
#       Creation time:       Fri Mar 27 02:26:25 2020


#       File generated by GOLD software.
#

@<TRIPOS>MOLECULE
AV-unprocessed.smi:1005
    62    64     1
SMALL
NO_CHARGES


@<TRIPOS>ATOM
      1 ****        -6.7397   0.3732  -2.0888 C.3            1 S1                 0.0000
      2 ****        -5.4305   1.0396  -1.7040 C.ar           1 S1                 0.0000
      3 ****        -5.4445   2.0825  -0.7502 C.ar           1 S1                 0.0000
      4 ****        -4.2492   2.7294  -0.3667 C.ar           1 S1                 0.0000
      5 ****        -4.0322   3.7585   0.5337 N.2            1 S1                 0.0000
      6 ****        -2.7147   3.9172   0.4472 C.2            1 S1                 0.0000
      7 ****        -2.0507   3.1069  -0.3995 N.pl3          1 S1                 0.0000
      8 ****        -0.6224   3.0900  -0.6615 C.3            1 S1                 0.0000
      9 ****         0.0905   1.9104   0.0285 C.3            1 S1                 0.0000
     10 ****        -0.1056   2.0241   1.4256 O.3            1 S1                 0.0000
     11 ****         1.6041   1.9002  -0.2731 C.3            1 S1                 0.0000
     12 ****         2.2251   0.5756  -0.3194 N.3            1 S1                 0.0000
     13 ****         3.5896   0.6581  -0.8282 C.3            1 S1                 0.0000
     14 ****         4.2663  -0.7213  -0.8824 C.3            1 S1                 0.0000
     15 ****         4.2400  -1.3120   0.4128 O.3            1 S1                 0.0000
     16 ****         2.9197  -1.4674   0.9277 C.3            1 S1                 0.0000
     17 ****         3.0208  -2.1091   2.3230 C.3            1 S1                 0.0000
     18 ****         3.6160  -3.4692   2.2867 N.4            1 S1                 1.0000
     19 ****         2.6918  -4.5038   1.7673 C.3            1 S1                 0.0000
     20 ****         4.1887  -3.8605   3.5937 C.3            1 S1                 0.0000
     21 ****         2.2447  -0.0822   0.9849 C.3            1 S1                 0.0000
     22 ****        -3.0300   2.3002  -0.9680 C.ar           1 S1                 0.0000
     23 ****        -3.0028   1.2635  -1.9173 C.ar           1 S1                 0.0000
     24 ****        -4.2059   0.6278  -2.2889 C.ar           1 S1                 0.0000
     25 ****        -4.1662  -0.4904  -3.3156 C.3            1 S1                 0.0000
     26 ****        -7.5860   0.8318  -1.5762 H              1 S1                 0.0000
     27 ****        -6.7214  -0.6847  -1.8249 H              1 S1                 0.0000
     28 ****        -6.9126   0.4601  -3.1619 H              1 S1                 0.0000
     29 ****        -6.3767   2.3961  -0.3039 H              1 S1                 0.0000
     30 ****        -2.2009   4.6626   1.0368 H              1 S1                 0.0000
     31 ****        -0.4797   3.0380  -1.7416 H              1 S1                 0.0000
     32 ****        -0.1942   4.0394  -0.3356 H              1 S1                 0.0000
     33 ****        -0.3602   0.9781  -0.3147 H              1 S1                 0.0000
     34 ****        -1.0350   2.0163   1.5981 H              1 S1                 0.0000
     35 ****         1.7404   2.3571  -1.2542 H              1 S1                 0.0000
     36 ****         2.1369   2.5504   0.4230 H              1 S1                 0.0000
     37 ****         3.5873   1.0965  -1.8270 H              1 S1                 0.0000
     38 ****         4.1805   1.3240  -0.1971 H              1 S1                 0.0000
     39 ****         3.7627  -1.3723  -1.5988 H              1 S1                 0.0000
     40 ****         5.3016  -0.6235  -1.2096 H              1 S1                 0.0000
     41 ****         2.3443  -2.1071   0.2577 H              1 S1                 0.0000
     42 ****         3.6340  -1.4613   2.9516 H              1 S1                 0.0000
     43 ****         2.0389  -2.1554   2.7965 H              1 S1                 0.0000
     44 ****         1.8063  -4.5897   2.3986 H              1 S1                 0.0000
     45 ****         3.1833  -5.4769   1.7405 H              1 S1                 0.0000
     46 ****         2.3677  -4.2804   0.7516 H              1 S1                 0.0000
     47 ****         3.4134  -3.9163   4.3592 H              1 S1                 0.0000
     48 ****         4.9410  -3.1411   3.9191 H              1 S1                 0.0000
     49 ****         4.6743  -4.8346   3.5268 H              1 S1                 0.0000
     50 ****         2.7642   0.5491   1.7078 H              1 S1                 0.0000
     51 ****         1.2274  -0.2089   1.3544 H              1 S1                 0.0000
     52 ****        -2.0630   0.9611  -2.3554 H              1 S1                 0.0000
     53 ****        -3.1435  -0.7143  -3.6207 H              1 S1                 0.0000
     54 ****        -4.7278  -0.2089  -4.2066 H              1 S1                 0.0000
     55 ****        -4.5995  -1.4030  -2.9060 H              1 S1                 0.0000
     56 ****         4.3950  -3.4217   1.6447 H              1 S1                 0.0000
     57 ****        -4.6922   4.2523   1.0999 LP             1 S1                 0.0000
     58 ****         0.2916   2.8811   1.7537 LP             1 S1                 0.0000
     59 ****         0.3308   1.2544   1.8916 LP             1 S1                 0.0000
     60 ****         1.6620   0.0268  -0.9372 LP             1 S1                 0.0000
     61 ****         4.7597  -0.7306   1.0388 LP             1 S1                 0.0000
     62 ****         4.6698  -2.2134   0.3607 LP             1 S1                 0.0000
@<TRIPOS>BOND
    1    1    2 1     
    2    1   26 1     
    3    1   27 1     
    4    1   28 1     
    5    2   24 ar    
    6    2    3 ar    
    7    3    4 ar    
    8    3   29 1     
    9    4   22 ar    
   10    4    5 1     
   11    5    6 2     
   12    6    7 1     
   13    6   30 1     
   14    7    8 1     
   15    7   22 1     
   16    8    9 1     
   17    8   31 1     
   18    8   32 1     
   19    9   10 1     
   20    9   11 1     
   21    9   33 1     
   22   10   34 1     
   23   11   12 1     
   24   11   35 1     
   25   11   36 1     
   26   12   21 1     
   27   12   13 1     
   28   13   14 1     
   29   13   37 1     
   30   13   38 1     
   31   14   15 1     
   32   14   39 1     
   33   14   40 1     
   34   15   16 1     
   35   16   17 1     
   36   16   21 1     
   37   16   41 1     
   38   17   18 1     
   39   17   42 1     
   40   17   43 1     
   41   18   19 1     
   42   18   20 1     
   43   18   56 1     
   44   19   44 1     
   45   19   45 1     
   46   19   46 1     
   47   20   47 1     
   48   20   48 1     
   49   20   49 1     
   50   21   50 1     
   51   21   51 1     
   52   22   23 ar    
   53   23   24 ar    
   54   23   52 1     
   55   24   25 1     
   56   25   53 1     
   57   25   54 1     
   58   25   55 1     
   59    5   57 1     
   60   10   58 1     
   61   10   59 1     
   62   12   60 1     
   63   15   61 1     
   64   15   62 1     
@<TRIPOS>SUBSTRUCTURE
      1 S1             1
@<TRIPOS>SET
LONE_PAIRS      STATIC     ATOMS    <user>   **** ""
6 57 58 59 60 61 62
DONOR_HYDROGENS      STATIC     ATOMS    <user>   **** ""
2 34 56
ATOM$BLUE        STATIC     ATOMS    COLORGROUP SYSTEM
6 57 58 59 60 61 62
ATOM$RED        STATIC     ATOMS    COLORGROUP SYSTEM
2 34 56
