AV-unprocessed.smi:2134|AV-procd|sdf|8697|dock10
  -GOLD-   2272011453D 1   1.00000     0.00000
 Structure written by MMmdl.
 35 36  0  0  0  0  0  0  0  0  3 V2000
  153.2526  142.4623  161.1227 C   0  0  0  0  0  0  0  0  0  0  0  0
  152.6164  142.5101  159.8068 N   0  0  0  0  0  0  0  0  0  0  0  0
  152.7127  141.3263  159.1060 N   0  0  0  0  0  0  0  0  0  0  0  0
  152.0194  141.0929  158.0351 C   0  0  0  0  0  0  0  0  0  0  0  0
  152.1486  139.7736  157.3482 C   0  0  0  0  0  0  0  0  0  0  0  0
  153.1973  139.1589  157.5760 O   0  0  0  0  0  0  0  0  0  0  0  0
  151.1326  139.3622  156.5326 N   0  5  0  0  0  0  0  0  0  0  0  0
  151.2891  138.8866  155.1579 C   0  0  0  0  0  0  0  0  0  0  0  0
  149.9118  138.4876  154.5842 C   0  0  0  0  0  0  0  0  0  0  0  0
  148.9357  139.6498  154.4288 C   0  0  0  0  0  0  0  0  0  0  0  0
  147.6137  139.4316  153.9768 C   0  0  0  0  0  0  0  0  0  0  0  0
  146.7389  140.5289  153.8354 C   0  0  0  0  0  0  0  0  0  0  0  0
  147.2029  141.8222  154.1509 C   0  0  0  0  0  0  0  0  0  0  0  0
  148.4700  141.9947  154.5860 N   0  3  0  0  0  0  0  0  0  0  0  0
  149.3366  140.9703  154.7382 C   0  0  0  0  0  0  0  0  0  0  0  0
  151.0505  142.1355  157.5091 C   0  0  0  0  0  0  0  0  0  0  0  0
  151.4640  143.5648  157.9101 C   0  0  0  0  0  0  0  0  0  0  0  0
  152.0126  143.6320  159.3381 C   0  0  0  0  0  0  0  0  0  0  0  0
  151.9073  144.6785  159.9777 O   0  0  0  0  0  0  0  0  0  0  0  0
  153.2301  143.4117  161.6590 H   0  0  0  0  0  0  0  0  0  0  0  0
  154.2989  142.1706  161.0236 H   0  0  0  0  0  0  0  0  0  0  0  0
  152.7563  141.7201  161.7491 H   0  0  0  0  0  0  0  0  0  0  0  0
  151.7317  139.6431  154.5083 H   0  0  0  0  0  0  0  0  0  0  0  0
  151.9538  138.0237  155.1099 H   0  0  0  0  0  0  0  0  0  0  0  0
  150.0526  138.0217  153.6085 H   0  0  0  0  0  0  0  0  0  0  0  0
  149.4546  137.7235  155.2146 H   0  0  0  0  0  0  0  0  0  0  0  0
  147.2765  138.4346  153.7331 H   0  0  0  0  0  0  0  0  0  0  0  0
  145.7282  140.3800  153.4851 H   0  0  0  0  0  0  0  0  0  0  0  0
  146.6041  142.7172  154.0673 H   0  0  0  0  0  0  0  0  0  0  0  0
  150.3262  141.2349  155.0822 H   0  0  0  0  0  0  0  0  0  0  0  0
  150.9900  142.0925  156.4212 H   0  0  0  0  0  0  0  0  0  0  0  0
  150.0495  141.9175  157.8831 H   0  0  0  0  0  0  0  0  0  0  0  0
  152.2480  143.9210  157.2411 H   0  0  0  0  0  0  0  0  0  0  0  0
  150.6215  144.2481  157.7987 H   0  0  0  0  0  0  0  0  0  0  0  0
  148.7884  142.9387  154.8054 H   0  0  0  0  0  0  0  0  0  0  0  0
  1  2  1  0  0  0  0
  1 20  1  0  0  0  0
  1 21  1  0  0  0  0
  1 22  1  0  0  0  0
  2 18  1  0  0  0  0
  2  3  1  0  0  0  0
  3  4  2  0  0  0  0
  4  5  1  0  0  0  0
  4 16  1  0  0  0  0
  5  6  2  0  0  0  0
  5  7  1  0  0  0  0
  7  8  1  0  0  0  0
  8  9  1  0  0  0  0
  8 23  1  0  0  0  0
  8 24  1  0  0  0  0
  9 10  1  0  0  0  0
  9 25  1  0  0  0  0
  9 26  1  0  0  0  0
 10 15  1  0  0  0  0
 10 11  2  0  0  0  0
 11 12  1  0  0  0  0
 11 27  1  0  0  0  0
 12 13  2  0  0  0  0
 12 28  1  0  0  0  0
 13 14  1  0  0  0  0
 13 29  1  0  0  0  0
 14 15  2  0  0  0  0
 14 35  1  0  0  0  0
 15 30  1  0  0  0  0
 16 17  1  0  0  0  0
 16 31  1  0  0  0  0
 16 32  1  0  0  0  0
 17 18  1  0  0  0  0
 17 33  1  0  0  0  0
 17 34  1  0  0  0  0
 18 19  2  0  0  0  0
M  CHG  1   7  -1
M  CHG  1  14   1
M  END
> <s_m_source_file>
AV-unprocessed.smi

> <i_m_source_file_index>
2134

> <i_lp_mmshare_version>
43012

> <i_f3d_flags>
0

> <s_epik_input>
Tz1DMVtDSDJdW0NIMl1DKD1OTjFbQ0gzXSlDKD1PKVtOSF1bQ0gyXVtDSDJdYzJbY0hdW2NIXVtjSF1uW2NIXTI=

> <s_epik_cmdline>
J2VwaWtfcHl0aG9uJywgJy1waCcsICc3LjAnLCAnLXRuJywgJzgnLCAnLW1hJywgJzIwMCcsICctbWV0YWxfYmluZGluZycsICctaW1hZScsICc8aW5maWxlLm1hZT4nLCAnLW9tYWUnLCAnPG91dGZpbGUubWFlPic=

> <r_epik_Ionization_Penalty>
7.05425

> <r_epik_Ionization_Penalty_Charging>
7.05425

> <r_epik_Ionization_Penalty_Neutral>
3.33049e-09

> <r_epik_State_Penalty>
7.67337

> <r_epik_Charging_Adjusted_Penalty>
14.7276

> <i_epik_Tot_Q>
0

> <i_epik_Tot_abs_Q>
2

> <r_epik_Metal_State_Penalty>
3.75463

> <b_epik_Metal_Only>
1

> <s_epik_Chemistry_Notes>
This compound has an imine and may undergo hydrolysis.

> <s_lp_Force_Field>
OPLS_2005

> <r_lp_Energy>
23.3893

> <b_lp_Chiralities_Consistent>
1

> <s_lp_Variant>
AV-unprocessed.smi:2134-4

> <Gold.Version>
5.8.1

> <Gold.Id.Protein>
6NUR|6NUR_protein|mol2

> <Gold.PLP.Fitness>
50.3336

> <Gold.PLP.PLP>
-42.6309

> <Gold.PLP.part.hbond>
-2.0000

> <Gold.PLP.part.metal>
0.0000

> <Gold.PLP.part.buried>
-4.1395

> <Gold.PLP.part.nonpolar>
-37.3332

> <Gold.PLP.part.repulsive>
0.8383

> <Gold.PLP.ligand.clash>
0.0000

> <Gold.PLP.ligand.torsion>
0.6583

> <Gold.PLP.Chemscore.Hbond>
3.0000

> <Gold.PLP.Chemscore.CHOScore>
0.0000

> <Gold.PLP.Chemscore.Metal>
0.0000

> <Gold.Chemscore.Hbonds>
donor molecule, donor type, donor heavy atom, donor atom, acceptor molecule, acceptor atom, score
      L1  H    14    35       P1  8028  2.00
      P1  H  7997  8009       L1     6  1.00

> <Gold.PLP.Chemscore.Internal.Correction>
0.0193

> <Gold.Rescore>
     Score         DG    S(hbond)    S(metal)    S(lipo)     H(rot)  DE(clash)    DE(int)     intcor
     16.60     -17.44       1.84        0.00      82.09       1.49       0.06       0.79       ----

> <Gold.Chemscore.Fitness>
16.5977

> <Gold.Chemscore.DG>
-17.4425

> <Gold.Chemscore.ZeroCoef>
-5.4800

> <Gold.Chemscore.Hbond>
1.8446

> <Gold.Chemscore.Metal>
0.0000

> <Gold.Chemscore.Lipo>
82.0870

> <Gold.Chemscore.Internal_Hbond>
0.0000

> <Gold.Chemscore.DEClash>
0.0578

> <Gold.Chemscore.DEInternal>
0.7870

> <Gold.Chemscore.Rot>
1.4854

> <Gold.Chemscore.Internal.Correction>
   9.000000E+99

> <Gold.Chemscore.Hbonds>
donor molecule, donor type, donor heavy atom, donor atom, acceptor molecule, acceptor atom, score
      L1  H    14    35       P1  8028  0.98
      P1  H  7997  8009       L1     6  0.39

> <Gold.Chemscore.Hbond.Weighted>
-6.1610

> <Gold.Chemscore.Metal.Weighted>
-0.0000

> <Gold.Chemscore.Lipo.Weighted>
-9.6042

> <Gold.Chemscore.Internal_Hbond.Weighted>
0.0000

> <Gold.Chemscore.DEClash.Weighted>
0.0578

> <Gold.Chemscore.DEInternal.Weighted>
0.7870

> <Gold.Chemscore.Rot.Weighted>
3.8026

> <Gold.Chemscore.Internal.Correction.Weighted>
   9.000000E+99

> <Gold.Protein.RotatedTorsions>
[ 6907 6896 6895 6894 ] final  167.90 input  -60.11 | X-H torsion
[ 7974 7965 7964 7962 ] final -171.70 input  175.53 | X-H torsion
[ 8008 7997 7996 7995 ] final -178.96 input   59.86 | X-H torsion
[ 10167 10162 10161 10158 ] final  -22.34 input  -65.29 | X-H torsion
[ 10718 10713 10712 10709 ] final  -66.38 input   66.30 | X-H torsion
[ 10763 10752 10751 10750 ] final   41.99 input  -60.55 | X-H torsion
[ 11005 11000 10999 10996 ] final  161.31 input  -57.11 | X-H torsion

> <Gold.Protein.ActiveResidues>
 VAL166  LYS551  ARG553  GLY616  TRP617  ASP618  TYR619  PRO620  LYS621  CYS622 
 ASP623  PHE694  ASN695  SER759  ASP760  ASP761  ALA762  ILE779  LEU786  VAL792 
 PHE793  MET794  SER795  GLU796  ALA797  LYS798  CYS799  TRP800  GLU811  SER814 

> <Gold.Protein.RotatedAtoms>
  151.8560  133.3448  159.3688 H   0  0  0  0  0  0  0  0  0  0  0  0  # atno 6907 bound_to 6896
  150.7192  134.5252  159.5682 H   0  0  0  0  0  0  0  0  0  0  0  0  # atno 6908 bound_to 6896
  152.2756  134.7886  160.0457 H   0  0  0  0  0  0  0  0  0  0  0  0  # atno 6909 bound_to 6896
  144.7154  140.1883  143.6351 H   0  0  0  0  0  0  0  0  0  0  0  0  # atno 7974 bound_to 7965
  156.0250  140.1269  157.0318 H   0  0  0  0  0  0  0  0  0  0  0  0  # atno 8008 bound_to 7997
  154.4326  140.1061  156.6088 H   0  0  0  0  0  0  0  0  0  0  0  0  # atno 8009 bound_to 7997
  155.5890  140.3469  155.4563 H   0  0  0  0  0  0  0  0  0  0  0  0  # atno 8010 bound_to 7997
  140.7285  143.4544  151.0469 H   0  0  0  0  0  0  0  0  0  0  0  0  # atno 10167 bound_to 10162
  156.0616  130.4261  150.1700 H   0  0  0  0  0  0  0  0  0  0  0  0  # atno 10718 bound_to 10713
  152.9894  135.6145  154.2877 H   0  0  0  0  0  0  0  0  0  0  0  0  # atno 10763 bound_to 10752
  154.2603  135.2782  155.2782 H   0  0  0  0  0  0  0  0  0  0  0  0  # atno 10764 bound_to 10752
  154.5211  135.5814  153.6739 H   0  0  0  0  0  0  0  0  0  0  0  0  # atno 10765 bound_to 10752
  140.2145  134.8242  157.3156 H   0  0  0  0  0  0  0  0  0  0  0  0  # atno 11005 bound_to 11000
  145.8792  139.2313  143.1615 LP  0  0  0  0  0  0  0  0  0  0  0  0  # atno 17320 bound_to 7965
  146.0011  140.8519  143.0018 LP  0  0  0  0  0  0  0  0  0  0  0  0  # atno 17321 bound_to 7965
  139.8223  143.7803  152.3177 LP  0  0  0  0  0  0  0  0  0  0  0  0  # atno 17342 bound_to 10162
  139.7890  144.7417  150.9982 LP  0  0  0  0  0  0  0  0  0  0  0  0  # atno 17343 bound_to 10162
  156.9768  130.9851  151.3446 LP  0  0  0  0  0  0  0  0  0  0  0  0  # atno 17370 bound_to 10713
  157.5628  130.8257  149.8288 LP  0  0  0  0  0  0  0  0  0  0  0  0  # atno 17371 bound_to 10713
  140.1915  134.4366  155.7713 LP  0  0  0  0  0  0  0  0  0  0  0  0  # atno 17394 bound_to 11000
  141.2225  133.7029  156.8035 LP  0  0  0  0  0  0  0  0  0  0  0  0  # atno 17395 bound_to 11000

$$$$
