AV-unprocessed.smi:3345|AV-procd|sdf|12902|dock8
  -GOLD-   2272019313D 1   1.00000     0.00000
 Structure written by MMmdl.
 40 41  0  0  0  0  0  0  0  0  1 V2000
  147.1822  133.0765  155.0858 C   0  0  0  0  0  0  0  0  0  0  0  0
  148.3201  133.1933  154.0636 C   0  0  1  0  0  0  0  0  0  0  0  0
  149.1249  131.8800  153.9539 C   0  0  0  0  0  0  0  0  0  0  0  0
  149.9235  131.5320  155.1316 N   0  0  0  0  0  0  0  0  0  0  0  0
  150.7800  130.3692  154.9122 C   0  0  0  0  0  0  0  0  0  0  0  0
  151.6058  130.0255  156.1638 C   0  0  0  0  0  0  0  0  0  0  0  0
  152.3751  131.1579  156.5555 O   0  0  0  0  0  0  0  0  0  0  0  0
  151.5719  132.3037  156.8190 C   0  0  0  0  0  0  0  0  0  0  0  0
  150.7457  132.6536  155.5691 C   0  0  0  0  0  0  0  0  0  0  0  0
  147.7679  133.5343  152.7548 N   0  0  0  0  0  0  0  0  0  0  0  0
  146.8515  132.8232  152.0785 C   0  0  0  0  0  0  0  0  0  0  0  0
  146.4934  131.6913  152.4061 O   0  0  0  0  0  0  0  0  0  0  0  0
  146.2136  133.5317  150.8744 C   0  0  1  0  0  0  0  0  0  0  0  0
  145.4457  132.5682  149.9459 C   0  0  0  0  0  0  0  0  0  0  0  0
  145.3794  134.6320  151.3455 N   0  0  0  0  0  0  0  0  0  0  0  0
  145.6211  135.9451  151.3588 C   0  0  0  0  0  0  0  0  0  0  0  0
  144.6657  136.6642  151.9306 N   0  0  0  0  0  0  0  0  0  0  0  0
  143.8083  135.6618  152.2851 C   0  0  0  0  0  0  0  0  0  0  0  0
  144.1922  134.4255  151.9686 N   0  0  0  0  0  0  0  0  0  0  0  0
  147.5694  132.8304  156.0749 H   0  0  0  0  0  0  0  0  0  0  0  0
  146.4706  132.2994  154.8043 H   0  0  0  0  0  0  0  0  0  0  0  0
  146.6341  134.0154  155.1712 H   0  0  0  0  0  0  0  0  0  0  0  0
  148.9848  133.9833  154.4153 H   0  0  0  0  0  0  0  0  0  0  0  0
  148.4491  131.0582  153.7128 H   0  0  0  0  0  0  0  0  0  0  0  0
  149.7943  131.9736  153.0973 H   0  0  0  0  0  0  0  0  0  0  0  0
  150.1808  129.5005  154.6432 H   0  0  0  0  0  0  0  0  0  0  0  0
  151.4529  130.5575  154.0744 H   0  0  0  0  0  0  0  0  0  0  0  0
  150.9540  129.7182  156.9828 H   0  0  0  0  0  0  0  0  0  0  0  0
  152.2768  129.1913  155.9585 H   0  0  0  0  0  0  0  0  0  0  0  0
  150.9203  132.1106  157.6721 H   0  0  0  0  0  0  0  0  0  0  0  0
  152.2182  133.1379  157.0923 H   0  0  0  0  0  0  0  0  0  0  0  0
  151.4177  132.9562  154.7646 H   0  0  0  0  0  0  0  0  0  0  0  0
  150.1123  133.5142  155.7874 H   0  0  0  0  0  0  0  0  0  0  0  0
  148.0055  134.4474  152.3958 H   0  0  0  0  0  0  0  0  0  0  0  0
  147.0229  133.9707  150.2885 H   0  0  0  0  0  0  0  0  0  0  0  0
  146.1036  131.7899  149.5580 H   0  0  0  0  0  0  0  0  0  0  0  0
  145.0319  133.1017  149.0899 H   0  0  0  0  0  0  0  0  0  0  0  0
  144.6183  132.0755  150.4585 H   0  0  0  0  0  0  0  0  0  0  0  0
  146.5202  136.3830  150.9508 H   0  0  0  0  0  0  0  0  0  0  0  0
  142.8777  135.8481  152.8007 H   0  0  0  0  0  0  0  0  0  0  0  0
  1  2  1  0  0  0  0
  1 20  1  0  0  0  0
  1 21  1  0  0  0  0
  1 22  1  0  0  0  0
  2  3  1  0  0  0  0
  2 10  1  0  0  0  0
  2 23  1  0  0  0  0
  3  4  1  0  0  0  0
  3 24  1  0  0  0  0
  3 25  1  0  0  0  0
  4  9  1  0  0  0  0
  4  5  1  0  0  0  0
  5  6  1  0  0  0  0
  5 26  1  0  0  0  0
  5 27  1  0  0  0  0
  6  7  1  0  0  0  0
  6 28  1  0  0  0  0
  6 29  1  0  0  0  0
  7  8  1  0  0  0  0
  8  9  1  0  0  0  0
  8 30  1  0  0  0  0
  8 31  1  0  0  0  0
  9 32  1  0  0  0  0
  9 33  1  0  0  0  0
 10 11  1  0  0  0  0
 10 34  1  0  0  0  0
 11 12  2  0  0  0  0
 11 13  1  0  0  0  0
 13 14  1  0  0  0  0
 13 15  1  0  0  0  0
 13 35  1  0  0  0  0
 14 36  1  0  0  0  0
 14 37  1  0  0  0  0
 14 38  1  0  0  0  0
 15 19  1  0  0  0  0
 15 16  1  0  0  0  0
 16 17  2  0  0  0  0
 16 39  1  0  0  0  0
 17 18  1  0  0  0  0
 18 19  2  0  0  0  0
 18 40  1  0  0  0  0
M  END
> <s_m_source_file>
AV-unprocessed.smi

> <i_m_source_file_index>
3345

> <i_lp_mmshare_version>
43012

> <i_f3d_flags>
0

> <s_epik_input>
W0NIMl0xW0NIMl1PW0NIMl1bQ0gyXU4xW0NIMl1bQ0BASF0oW0NIM10pW05IXUMoPU8pW0NASF0oW0NIM10pbjJbY0hdbltjSF1uMg==

> <s_epik_cmdline>
J2VwaWtfcHl0aG9uJywgJy1waCcsICc3LjAnLCAnLXRuJywgJzgnLCAnLW1hJywgJzIwMCcsICctbWV0YWxfYmluZGluZycsICctaW1hZScsICc8aW5maWxlLm1hZT4nLCAnLW9tYWUnLCAnPG91dGZpbGUubWFlPic=

> <r_lp_tautomer_probability>
1

> <r_epik_Ionization_Penalty>
0.211373

> <r_epik_Ionization_Penalty_Charging>
0

> <r_epik_Ionization_Penalty_Neutral>
0.211373

> <r_epik_State_Penalty>
0.201459

> <r_epik_Charging_Adjusted_Penalty>
0.201459

> <i_epik_Tot_Q>
0

> <i_epik_Tot_abs_Q>
0

> <r_epik_Metal_State_Penalty>
0.201458

> <b_epik_Metal_Only>
0

> <s_lp_Force_Field>
OPLS_2005

> <r_lp_Energy>
29.1888

> <b_lp_Chiralities_Consistent>
1

> <s_lp_Variant>
AV-unprocessed.smi:3345-4

> <Gold.Version>
5.8.1

> <Gold.Id.Protein>
6NUR|6NUR_protein|mol2

> <Gold.PLP.Fitness>
33.8612

> <Gold.PLP.PLP>
-28.9818

> <Gold.PLP.part.hbond>
-1.0000

> <Gold.PLP.part.metal>
0.0000

> <Gold.PLP.part.buried>
-5.5816

> <Gold.PLP.part.nonpolar>
-23.0597

> <Gold.PLP.part.repulsive>
0.9432

> <Gold.PLP.ligand.clash>
0.0000

> <Gold.PLP.ligand.torsion>
0.6278

> <Gold.PLP.Chemscore.Hbond>
0.9913

> <Gold.PLP.Chemscore.CHOScore>
0.9986

> <Gold.PLP.Chemscore.Metal>
0.0000

> <Gold.Chemscore.Hbonds>
donor molecule, donor type, donor heavy atom, donor atom, acceptor molecule, acceptor atom, score
      L1  H    10    34       P1  7948  0.98
      L1  C    16    39       P1  7948  0.93

> <Gold.PLP.Chemscore.Internal.Correction>
0.1657

> <Gold.Rescore>
     Score         DG    S(hbond)    S(metal)    S(lipo)     H(rot)  DE(clash)    DE(int)     intcor
      5.87      -7.22       0.81        0.00      47.39       2.54       0.00       1.35       ----

> <Gold.Chemscore.Fitness>
5.8692

> <Gold.Chemscore.DG>
-7.2237

> <Gold.Chemscore.ZeroCoef>
-5.4800

> <Gold.Chemscore.Hbond>
0.8051

> <Gold.Chemscore.Metal>
0.0000

> <Gold.Chemscore.Lipo>
47.3942

> <Gold.Chemscore.Internal_Hbond>
0.0000

> <Gold.Chemscore.DEClash>
0.0015

> <Gold.Chemscore.DEInternal>
1.3530

> <Gold.Chemscore.Rot>
2.5353

> <Gold.Chemscore.Internal.Correction>
   9.000000E+99

> <Gold.Chemscore.Hbonds>
donor molecule, donor type, donor heavy atom, donor atom, acceptor molecule, acceptor atom, score
      L1  H    10    34       P1  7948  0.32

> <Gold.Chemscore.Hbond.Weighted>
-2.6890

> <Gold.Chemscore.Metal.Weighted>
-0.0000

> <Gold.Chemscore.Lipo.Weighted>
-5.5451

> <Gold.Chemscore.Internal_Hbond.Weighted>
0.0000

> <Gold.Chemscore.DEClash.Weighted>
0.0015

> <Gold.Chemscore.DEInternal.Weighted>
1.3530

> <Gold.Chemscore.Rot.Weighted>
6.4905

> <Gold.Chemscore.Internal.Correction.Weighted>
   9.000000E+99

> <Gold.Protein.RotatedTorsions>
[ 6907 6896 6895 6894 ] final  133.90 input  -60.11 | X-H torsion
[ 7974 7965 7964 7962 ] final  -70.68 input  175.53 | X-H torsion
[ 8008 7997 7996 7995 ] final   77.80 input   59.86 | X-H torsion
[ 10167 10162 10161 10158 ] final   16.56 input  -65.29 | X-H torsion
[ 10718 10713 10712 10709 ] final  136.41 input   66.30 | X-H torsion
[ 10763 10752 10751 10750 ] final  114.18 input  -60.55 | X-H torsion
[ 11005 11000 10999 10996 ] final  163.37 input  -57.11 | X-H torsion

> <Gold.Protein.ActiveResidues>
 VAL166  LYS551  ARG553  GLY616  TRP617  ASP618  TYR619  PRO620  LYS621  CYS622 
 ASP623  PHE694  ASN695  SER759  ASP760  ASP761  ALA762  ILE779  LEU786  VAL792 
 PHE793  MET794  SER795  GLU796  ALA797  LYS798  CYS799  TRP800  GLU811  SER814 

> <Gold.Protein.RotatedAtoms>
  152.3170  133.5813  159.5718 H   0  0  0  0  0  0  0  0  0  0  0  0  # atno 6907 bound_to 6896
  150.7352  134.0067  159.3665 H   0  0  0  0  0  0  0  0  0  0  0  0  # atno 6908 bound_to 6896
  151.7955  135.0724  160.0444 H   0  0  0  0  0  0  0  0  0  0  0  0  # atno 6909 bound_to 6896
  145.6879  140.9164  143.0797 H   0  0  0  0  0  0  0  0  0  0  0  0  # atno 7974 bound_to 7965
  155.8468  140.3460  155.5667 H   0  0  0  0  0  0  0  0  0  0  0  0  # atno 8008 bound_to 7997
  155.8081  140.0895  157.1939 H   0  0  0  0  0  0  0  0  0  0  0  0  # atno 8009 bound_to 7997
  154.4006  140.1453  156.3342 H   0  0  0  0  0  0  0  0  0  0  0  0  # atno 8010 bound_to 7997
  140.5788  143.9020  150.6773 H   0  0  0  0  0  0  0  0  0  0  0  0  # atno 10167 bound_to 10162
  157.4469  131.1062  151.0079 H   0  0  0  0  0  0  0  0  0  0  0  0  # atno 10718 bound_to 10713
  153.5034  135.3633  155.2551 H   0  0  0  0  0  0  0  0  0  0  0  0  # atno 10763 bound_to 10752
  154.8746  135.4005  154.3452 H   0  0  0  0  0  0  0  0  0  0  0  0  # atno 10764 bound_to 10752
  153.4092  135.7077  153.6437 H   0  0  0  0  0  0  0  0  0  0  0  0  # atno 10765 bound_to 10752
  140.2351  134.8094  157.3356 H   0  0  0  0  0  0  0  0  0  0  0  0  # atno 11005 bound_to 11000
  144.7005  139.8783  143.7445 LP  0  0  0  0  0  0  0  0  0  0  0  0  # atno 17320 bound_to 7965
  146.0907  139.3897  143.0407 LP  0  0  0  0  0  0  0  0  0  0  0  0  # atno 17321 bound_to 7965
  140.2514  143.3590  152.1402 LP  0  0  0  0  0  0  0  0  0  0  0  0  # atno 17342 bound_to 10162
  139.5158  144.6968  151.5607 LP  0  0  0  0  0  0  0  0  0  0  0  0  # atno 17343 bound_to 10162
  157.0922  130.5947  149.5442 LP  0  0  0  0  0  0  0  0  0  0  0  0  # atno 17370 bound_to 10713
  155.9971  130.5042  150.7522 LP  0  0  0  0  0  0  0  0  0  0  0  0  # atno 17371 bound_to 10713
  140.1710  134.4608  155.7831 LP  0  0  0  0  0  0  0  0  0  0  0  0  # atno 17394 bound_to 11000
  141.2215  133.6942  156.7708 LP  0  0  0  0  0  0  0  0  0  0  0  0  # atno 17395 bound_to 11000

$$$$
