AV-unprocessed.smi:2745|AV-procd|sdf|10570|dock7
  -GOLD-   2272015 23D 1   1.00000     0.00000
 Structure written by MMmdl.
 19 19  0  0  0  0  0  0  0  0  2 V2000
  142.2914  132.4107  148.3129 N   0  3  0  0  0  0  0  0  0  0  0  0
  143.7428  132.6046  148.4685 C   0  0  0  0  0  0  0  0  0  0  0  0
  144.0609  133.5337  149.6486 C   0  0  0  0  0  0  0  0  0  0  0  0
  145.0451  132.9237  150.6001 C   0  0  0  0  0  0  0  0  0  0  0  0
  145.0375  131.6378  151.0838 C   0  0  0  0  0  0  0  0  0  0  0  0
  146.3713  131.3396  152.1660 S   0  0  0  0  0  0  0  0  0  0  0  0
  146.8916  132.9987  151.9158 C   0  0  0  0  0  0  0  0  0  0  0  0
  148.0160  133.5086  152.5410 N   0  0  0  0  0  0  0  0  0  0  0  0
  146.1109  133.6900  151.0842 N   0  0  0  0  0  0  0  0  0  0  0  0
  142.0235  131.5288  148.7258 H   0  0  0  0  0  0  0  0  0  0  0  0
  142.0550  132.4067  147.3308 H   0  0  0  0  0  0  0  0  0  0  0  0
  144.2129  131.6314  148.6143 H   0  0  0  0  0  0  0  0  0  0  0  0
  144.1398  133.0186  147.5411 H   0  0  0  0  0  0  0  0  0  0  0  0
  144.4508  134.4806  149.2724 H   0  0  0  0  0  0  0  0  0  0  0  0
  143.1385  133.7795  150.1767 H   0  0  0  0  0  0  0  0  0  0  0  0
  144.3312  130.8491  150.8710 H   0  0  0  0  0  0  0  0  0  0  0  0
  148.5753  132.9425  153.1627 H   0  0  0  0  0  0  0  0  0  0  0  0
  148.3545  134.4385  152.3393 H   0  0  0  0  0  0  0  0  0  0  0  0
  141.7982  133.1615  148.7746 H   0  0  0  0  0  0  0  0  0  0  0  0
  1  2  1  0  0  0  0
  1 10  1  0  0  0  0
  1 11  1  0  0  0  0
  1 19  1  0  0  0  0
  2  3  1  0  0  0  0
  2 12  1  0  0  0  0
  2 13  1  0  0  0  0
  3  4  1  0  0  0  0
  3 14  1  0  0  0  0
  3 15  1  0  0  0  0
  4  9  1  0  0  0  0
  4  5  2  0  0  0  0
  5  6  1  0  0  0  0
  5 16  1  0  0  0  0
  6  7  1  0  0  0  0
  7  8  1  0  0  0  0
  7  9  2  0  0  0  0
  8 17  1  0  0  0  0
  8 18  1  0  0  0  0
M  CHG  1   1   1
M  END
> <s_m_source_file>
AV-unprocessed.smi

> <i_m_source_file_index>
2745

> <i_lp_mmshare_version>
43012

> <i_f3d_flags>
0

> <s_epik_input>
W05IMl1bQ0gyXVtDSDJdYzFbY0hdc2MobjEpW05IMl0=

> <s_epik_cmdline>
J2VwaWtfcHl0aG9uJywgJy1waCcsICc3LjAnLCAnLXRuJywgJzgnLCAnLW1hJywgJzIwMCcsICctbWV0YWxfYmluZGluZycsICctaW1hZScsICc8aW5maWxlLm1hZT4nLCAnLW9tYWUnLCAnPG91dGZpbGUubWFlPic=

> <r_lp_tautomer_probability>
1

> <r_epik_Ionization_Penalty>
0.00283573

> <r_epik_Ionization_Penalty_Charging>
0.00199846

> <r_epik_Ionization_Penalty_Neutral>
0.000837263

> <r_epik_State_Penalty>
-0

> <r_epik_Charging_Adjusted_Penalty>
0.00199846

> <i_epik_Tot_Q>
1

> <i_epik_Tot_abs_Q>
1

> <r_epik_Metal_State_Penalty>
-0

> <b_epik_Metal_Only>
0

> <s_lp_Force_Field>
OPLS_2005

> <r_lp_Energy>
-1.00424

> <b_lp_Chiralities_Consistent>
1

> <s_lp_Variant>
AV-unprocessed.smi:2745-1

> <Gold.Version>
5.8.1

> <Gold.Id.Protein>
6NUR|6NUR_protein|mol2

> <Gold.PLP.Fitness>
35.1641

> <Gold.PLP.PLP>
-21.2572

> <Gold.PLP.part.hbond>
-4.0000

> <Gold.PLP.part.metal>
0.0000

> <Gold.PLP.part.buried>
-2.3490

> <Gold.PLP.part.nonpolar>
-14.6531

> <Gold.PLP.part.repulsive>
0.3861

> <Gold.PLP.ligand.clash>
0.0000

> <Gold.PLP.ligand.torsion>
0.5466

> <Gold.PLP.Chemscore.Hbond>
5.0000

> <Gold.PLP.Chemscore.CHOScore>
0.0000

> <Gold.PLP.Chemscore.Metal>
0.0000

> <Gold.Chemscore.Hbonds>
donor molecule, donor type, donor heavy atom, donor atom, acceptor molecule, acceptor atom, score
      L1  H     1    10       P1 10952  1.00
      L1  H     1    11       P1 10195  1.00
      L1  H     1    19       P1 10186  2.00
      L1  H     8    18       P1  7948  0.70

> <Gold.PLP.Chemscore.Internal.Correction>
0.0001

> <Gold.Rescore>
     Score         DG    S(hbond)    S(metal)    S(lipo)     H(rot)  DE(clash)    DE(int)     intcor
     18.70     -19.43       3.69        0.00      46.49       1.49       0.16       0.58       ----

> <Gold.Chemscore.Fitness>
18.6963

> <Gold.Chemscore.DG>
-19.4285

> <Gold.Chemscore.ZeroCoef>
-5.4800

> <Gold.Chemscore.Hbond>
3.6866

> <Gold.Chemscore.Metal>
0.0000

> <Gold.Chemscore.Lipo>
46.4894

> <Gold.Chemscore.Internal_Hbond>
0.0000

> <Gold.Chemscore.DEClash>
0.1568

> <Gold.Chemscore.DEInternal>
0.5754

> <Gold.Chemscore.Rot>
1.4859

> <Gold.Chemscore.Internal.Correction>
   9.000000E+99

> <Gold.Chemscore.Hbonds>
donor molecule, donor type, donor heavy atom, donor atom, acceptor molecule, acceptor atom, score
      L1  H     1    10       P1 10952  0.97
      L1  H     1    11       P1 10195  0.97
      L1  H     1    19       P1 10186  1.00
      L1  H     8    18       P1  7948  0.07

> <Gold.Chemscore.Hbond.Weighted>
-12.3132

> <Gold.Chemscore.Metal.Weighted>
-0.0000

> <Gold.Chemscore.Lipo.Weighted>
-5.4393

> <Gold.Chemscore.Internal_Hbond.Weighted>
0.0000

> <Gold.Chemscore.DEClash.Weighted>
0.1568

> <Gold.Chemscore.DEInternal.Weighted>
0.5754

> <Gold.Chemscore.Rot.Weighted>
3.8039

> <Gold.Chemscore.Internal.Correction.Weighted>
   9.000000E+99

> <Gold.Protein.RotatedTorsions>
[ 6907 6896 6895 6894 ] final  -77.61 input  -60.11 | X-H torsion
[ 7974 7965 7964 7962 ] final -138.19 input  175.53 | X-H torsion
[ 8008 7997 7996 7995 ] final   29.79 input   59.86 | X-H torsion
[ 10167 10162 10161 10158 ] final  -94.17 input  -65.29 | X-H torsion
[ 10718 10713 10712 10709 ] final   33.61 input   66.30 | X-H torsion
[ 10763 10752 10751 10750 ] final   75.33 input  -60.55 | X-H torsion
[ 11005 11000 10999 10996 ] final    9.22 input  -57.11 | X-H torsion

> <Gold.Protein.ActiveResidues>
 VAL166  LYS551  ARG553  GLY616  TRP617  ASP618  TYR619  PRO620  LYS621  CYS622 
 ASP623  PHE694  ASN695  SER759  ASP760  ASP761  ALA762  ILE779  LEU786  VAL792 
 PHE793  MET794  SER795  GLU796  ALA797  LYS798  CYS799  TRP800  GLU811  SER814 

> <Gold.Protein.RotatedAtoms>
  150.6994  134.4396  159.5285 H   0  0  0  0  0  0  0  0  0  0  0  0  # atno 6907 bound_to 6896
  152.2109  134.8500  160.0506 H   0  0  0  0  0  0  0  0  0  0  0  0  # atno 6908 bound_to 6896
  151.9386  133.3596  159.3993 H   0  0  0  0  0  0  0  0  0  0  0  0  # atno 6909 bound_to 6896
  144.8779  140.6464  143.5225 H   0  0  0  0  0  0  0  0  0  0  0  0  # atno 7974 bound_to 7965
  155.0801  140.3209  155.4604 H   0  0  0  0  0  0  0  0  0  0  0  0  # atno 8008 bound_to 7997
  156.2769  140.2096  156.5874 H   0  0  0  0  0  0  0  0  0  0  0  0  # atno 8009 bound_to 7997
  154.6986  140.0509  157.0422 H   0  0  0  0  0  0  0  0  0  0  0  0  # atno 8010 bound_to 7997
  140.3172  143.3070  152.0085 H   0  0  0  0  0  0  0  0  0  0  0  0  # atno 10167 bound_to 10162
  157.3000  130.7345  149.6661 H   0  0  0  0  0  0  0  0  0  0  0  0  # atno 10718 bound_to 10713
  153.0647  135.4992  154.8174 H   0  0  0  0  0  0  0  0  0  0  0  0  # atno 10763 bound_to 10752
  154.6936  135.2989  154.9446 H   0  0  0  0  0  0  0  0  0  0  0  0  # atno 10764 bound_to 10752
  154.0192  135.6744  153.4824 H   0  0  0  0  0  0  0  0  0  0  0  0  # atno 10765 bound_to 10752
  140.5282  134.0492  155.7865 H   0  0  0  0  0  0  0  0  0  0  0  0  # atno 11005 bound_to 11000
  145.4009  139.1598  143.4178 LP  0  0  0  0  0  0  0  0  0  0  0  0  # atno 17320 bound_to 7965
  146.2975  140.4105  142.8716 LP  0  0  0  0  0  0  0  0  0  0  0  0  # atno 17321 bound_to 7965
  139.4881  144.6339  151.7014 LP  0  0  0  0  0  0  0  0  0  0  0  0  # atno 17342 bound_to 10162
  140.5516  144.0416  150.6129 LP  0  0  0  0  0  0  0  0  0  0  0  0  # atno 17343 bound_to 10162
  155.9671  130.4283  150.4782 LP  0  0  0  0  0  0  0  0  0  0  0  0  # atno 17370 bound_to 10713
  157.2760  131.0597  151.2228 LP  0  0  0  0  0  0  0  0  0  0  0  0  # atno 17371 bound_to 10713
  141.1296  133.9324  157.2563 LP  0  0  0  0  0  0  0  0  0  0  0  0  # atno 17394 bound_to 11000
  139.9568  135.0163  156.9152 LP  0  0  0  0  0  0  0  0  0  0  0  0  # atno 17395 bound_to 11000

$$$$
