AV-unprocessed.smi:3196|AV-procd|sdf|12222|dock1
  -GOLD-   2272018 53D 1   1.00000     0.00000
 Structure written by MMmdl.
 33 34  0  0  0  0  0  0  0  0  1 V2000
  147.0200  144.6727  161.5881 C   0  0  0  0  0  0  0  0  0  0  0  0
  148.3914  145.3200  161.3686 C   0  0  0  0  0  0  0  0  0  0  0  0
  149.1462  144.7096  160.1801 C   0  0  0  0  0  0  0  0  0  0  0  0
  150.5334  145.3038  160.0098 C   0  0  1  0  0  0  0  0  0  0  0  0
  151.7612  144.4352  160.0746 C   0  0  0  0  0  0  0  0  0  0  0  0
  151.3639  145.0786  158.7612 C   0  0  1  0  0  0  0  0  0  0  0  0
  150.8639  144.2117  157.7352 N   0  0  0  0  0  0  0  0  0  0  0  0
  151.2638  142.9610  157.4441 C   0  0  0  0  0  0  0  0  0  0  0  0
  152.1364  142.4085  158.1097 O   0  0  0  0  0  0  0  0  0  0  0  0
  150.5990  142.3961  156.4161 N   0  0  0  0  0  0  0  0  0  0  0  0
  150.7368  141.1039  155.8359 C   0  0  0  0  0  0  0  0  0  0  0  0
  151.7488  140.1695  156.1679 C   0  0  0  0  0  0  0  0  0  0  0  0
  151.7630  138.9253  155.5055 C   0  0  0  0  0  0  0  0  0  0  0  0
  150.8639  138.5722  154.5630 N   0  0  0  0  0  0  0  0  0  0  0  0
  149.9047  139.4665  154.2443 C   0  0  0  0  0  0  0  0  0  0  0  0
  149.7994  140.7360  154.8468 C   0  0  0  0  0  0  0  0  0  0  0  0
  148.8106  141.5863  154.4780 F   0  0  0  0  0  0  0  0  0  0  0  0
  146.5079  145.1258  162.4371 H   0  0  0  0  0  0  0  0  0  0  0  0
  147.1165  143.6054  161.7885 H   0  0  0  0  0  0  0  0  0  0  0  0
  146.3828  144.7936  160.7118 H   0  0  0  0  0  0  0  0  0  0  0  0
  148.2612  146.3911  161.2090 H   0  0  0  0  0  0  0  0  0  0  0  0
  148.9890  145.2128  162.2746 H   0  0  0  0  0  0  0  0  0  0  0  0
  149.2247  143.6299  160.3132 H   0  0  0  0  0  0  0  0  0  0  0  0
  148.5861  144.8735  159.2588 H   0  0  0  0  0  0  0  0  0  0  0  0
  150.6293  146.2945  160.4505 H   0  0  0  0  0  0  0  0  0  0  0  0
  152.6314  144.8378  160.5890 H   0  0  0  0  0  0  0  0  0  0  0  0
  151.6159  143.3616  160.1808 H   0  0  0  0  0  0  0  0  0  0  0  0
  152.0054  145.9012  158.4487 H   0  0  0  0  0  0  0  0  0  0  0  0
  150.0785  144.5658  157.2083 H   0  0  0  0  0  0  0  0  0  0  0  0
  149.8808  142.9704  155.9992 H   0  0  0  0  0  0  0  0  0  0  0  0
  152.5117  140.3707  156.9025 H   0  0  0  0  0  0  0  0  0  0  0  0
  152.5218  138.1931  155.7390 H   0  0  0  0  0  0  0  0  0  0  0  0
  149.1998  139.1617  153.4851 H   0  0  0  0  0  0  0  0  0  0  0  0
  1  2  1  0  0  0  0
  1 18  1  0  0  0  0
  1 19  1  0  0  0  0
  1 20  1  0  0  0  0
  2  3  1  0  0  0  0
  2 21  1  0  0  0  0
  2 22  1  0  0  0  0
  3  4  1  0  0  0  0
  3 23  1  0  0  0  0
  3 24  1  0  0  0  0
  4  6  1  0  0  0  0
  4  5  1  0  0  0  0
  4 25  1  0  0  0  0
  5  6  1  0  0  0  0
  5 26  1  0  0  0  0
  5 27  1  0  0  0  0
  6  7  1  0  0  0  0
  6 28  1  0  0  0  0
  7  8  1  0  0  0  0
  7 29  1  0  0  0  0
  8  9  2  0  0  0  0
  8 10  1  0  0  0  0
 10 11  1  0  0  0  0
 10 30  1  0  0  0  0
 11 16  1  0  0  0  0
 11 12  2  0  0  0  0
 12 13  1  0  0  0  0
 12 31  1  0  0  0  0
 13 14  2  0  0  0  0
 13 32  1  0  0  0  0
 14 15  1  0  0  0  0
 15 16  2  0  0  0  0
 15 33  1  0  0  0  0
 16 17  1  0  0  0  0
M  END
> <s_m_source_file>
AV-unprocessed.smi

> <i_m_source_file_index>
3196

> <i_lp_mmshare_version>
43012

> <i_f3d_flags>
0

> <s_epik_input>
W0NIM11bQ0gyXVtDSDJdW0NAQEhdMVtDSDJdW0NASF0xW05IXUMoPU8pW05IXWMyW2NIXVtjSF1uW2NIXWMyRg==

> <s_epik_cmdline>
J2VwaWtfcHl0aG9uJywgJy1waCcsICc3LjAnLCAnLXRuJywgJzgnLCAnLW1hJywgJzIwMCcsICctbWV0YWxfYmluZGluZycsICctaW1hZScsICc8aW5maWxlLm1hZT4nLCAnLW9tYWUnLCAnPG91dGZpbGUubWFlPic=

> <r_epik_Ionization_Penalty>
0.00341997

> <r_epik_Ionization_Penalty_Charging>
0

> <r_epik_Ionization_Penalty_Neutral>
0.00341997

> <r_epik_State_Penalty>
0.00239198

> <r_epik_Charging_Adjusted_Penalty>
0.00239198

> <i_epik_Tot_Q>
0

> <i_epik_Tot_abs_Q>
0

> <r_epik_Metal_State_Penalty>
-0

> <b_epik_Metal_Only>
0

> <s_lp_Force_Field>
OPLS_2005

> <r_lp_Energy>
35.1311

> <b_lp_Chiralities_Consistent>
1

> <s_lp_Variant>
AV-unprocessed.smi:3196-2

> <Gold.Version>
5.8.1

> <Gold.Id.Protein>
6NUR|6NUR_protein|mol2

> <Gold.PLP.Fitness>
49.2648

> <Gold.PLP.PLP>
-41.8004

> <Gold.PLP.part.hbond>
-2.0000

> <Gold.PLP.part.metal>
0.0000

> <Gold.PLP.part.buried>
-2.5562

> <Gold.PLP.part.nonpolar>
-36.5214

> <Gold.PLP.part.repulsive>
0.2907

> <Gold.PLP.ligand.clash>
0.0000

> <Gold.PLP.ligand.torsion>
0.6857

> <Gold.PLP.Chemscore.Hbond>
2.0000

> <Gold.PLP.Chemscore.CHOScore>
0.7572

> <Gold.PLP.Chemscore.Metal>
0.0000

> <Gold.Chemscore.Hbonds>
donor molecule, donor type, donor heavy atom, donor atom, acceptor molecule, acceptor atom, score
      L1  H     7    29       P1  8028  1.00
      L1  H    10    30       P1  8028  0.98
      L1  C    15    33       P1  7957  0.73

> <Gold.PLP.Chemscore.Internal.Correction>
0.5641

> <Gold.Rescore>
     Score         DG    S(hbond)    S(metal)    S(lipo)     H(rot)  DE(clash)    DE(int)     intcor
     14.15     -17.83       1.65        0.00      88.78       1.39       0.37       3.31       ----

> <Gold.Chemscore.Fitness>
14.1532

> <Gold.Chemscore.DG>
-17.8333

> <Gold.Chemscore.ZeroCoef>
-5.4800

> <Gold.Chemscore.Hbond>
1.6503

> <Gold.Chemscore.Metal>
0.0000

> <Gold.Chemscore.Lipo>
88.7809

> <Gold.Chemscore.Internal_Hbond>
0.0000

> <Gold.Chemscore.DEClash>
0.3711

> <Gold.Chemscore.DEInternal>
3.3091

> <Gold.Chemscore.Rot>
1.3852

> <Gold.Chemscore.Internal.Correction>
   9.000000E+99

> <Gold.Chemscore.Hbonds>
donor molecule, donor type, donor heavy atom, donor atom, acceptor molecule, acceptor atom, score
      L1  H     7    29       P1  8028  0.39
      L1  H    10    30       P1  8028  0.89

> <Gold.Chemscore.Hbond.Weighted>
-5.5120

> <Gold.Chemscore.Metal.Weighted>
-0.0000

> <Gold.Chemscore.Lipo.Weighted>
-10.3874

> <Gold.Chemscore.Internal_Hbond.Weighted>
0.0000

> <Gold.Chemscore.DEClash.Weighted>
0.3711

> <Gold.Chemscore.DEInternal.Weighted>
3.3091

> <Gold.Chemscore.Rot.Weighted>
3.5460

> <Gold.Chemscore.Internal.Correction.Weighted>
   9.000000E+99

> <Gold.Protein.RotatedTorsions>
[ 6907 6896 6895 6894 ] final  179.31 input  -60.11 | X-H torsion
[ 7974 7965 7964 7962 ] final  140.29 input  175.53 | X-H torsion
[ 8008 7997 7996 7995 ] final   16.01 input   59.86 | X-H torsion
[ 10167 10162 10161 10158 ] final  -64.50 input  -65.29 | X-H torsion
[ 10718 10713 10712 10709 ] final  169.41 input   66.30 | X-H torsion
[ 10763 10752 10751 10750 ] final  -62.90 input  -60.55 | X-H torsion
[ 11005 11000 10999 10996 ] final   24.38 input  -57.11 | X-H torsion

> <Gold.Protein.ActiveResidues>
 VAL166  LYS551  ARG553  GLY616  TRP617  ASP618  TYR619  PRO620  LYS621  CYS622 
 ASP623  PHE694  ASN695  SER759  ASP760  ASP761  ALA762  ILE779  LEU786  VAL792 
 PHE793  MET794  SER795  GLU796  ALA797  LYS798  CYS799  TRP800  GLU811  SER814 

> <Gold.Protein.RotatedAtoms>
  151.6736  133.3313  159.3202 H   0  0  0  0  0  0  0  0  0  0  0  0  # atno 6907 bound_to 6896
  150.7856  134.6841  159.6469 H   0  0  0  0  0  0  0  0  0  0  0  0  # atno 6908 bound_to 6896
  152.3924  134.6423  160.0154 H   0  0  0  0  0  0  0  0  0  0  0  0  # atno 6909 bound_to 6896
  144.9200  139.5180  143.5668 H   0  0  0  0  0  0  0  0  0  0  0  0  # atno 7974 bound_to 7965
  154.8709  140.2958  155.5482 H   0  0  0  0  0  0  0  0  0  0  0  0  # atno 8008 bound_to 7997
  156.3021  140.2460  156.3630 H   0  0  0  0  0  0  0  0  0  0  0  0  # atno 8009 bound_to 7997
  154.8818  140.0397  157.1776 H   0  0  0  0  0  0  0  0  0  0  0  0  # atno 8010 bound_to 7997
  140.5796  143.2326  151.6370 H   0  0  0  0  0  0  0  0  0  0  0  0  # atno 10167 bound_to 10162
  157.0231  131.0237  151.2768 H   0  0  0  0  0  0  0  0  0  0  0  0  # atno 10718 bound_to 10713
  154.3069  135.6223  153.5448 H   0  0  0  0  0  0  0  0  0  0  0  0  # atno 10763 bound_to 10752
  152.9834  135.5692  154.5221 H   0  0  0  0  0  0  0  0  0  0  0  0  # atno 10764 bound_to 10752
  154.4863  135.2865  155.1508 H   0  0  0  0  0  0  0  0  0  0  0  0  # atno 10765 bound_to 10752
  140.3593  134.2142  155.7673 H   0  0  0  0  0  0  0  0  0  0  0  0  # atno 11005 bound_to 11000
  146.3200  139.8073  142.8953 LP  0  0  0  0  0  0  0  0  0  0  0  0  # atno 17320 bound_to 7965
  145.3311  141.0267  143.3446 LP  0  0  0  0  0  0  0  0  0  0  0  0  # atno 17321 bound_to 7965
  139.5162  144.3354  152.0789 LP  0  0  0  0  0  0  0  0  0  0  0  0  # atno 17342 bound_to 10162
  140.2502  144.4177  150.6225 LP  0  0  0  0  0  0  0  0  0  0  0  0  # atno 17343 bound_to 10162
  157.5235  130.8013  149.7835 LP  0  0  0  0  0  0  0  0  0  0  0  0  # atno 17370 bound_to 10713
  156.0095  130.3839  150.2313 LP  0  0  0  0  0  0  0  0  0  0  0  0  # atno 17371 bound_to 10713
  141.1989  133.8025  157.0562 LP  0  0  0  0  0  0  0  0  0  0  0  0  # atno 17394 bound_to 11000
  140.0639  134.9739  157.1353 LP  0  0  0  0  0  0  0  0  0  0  0  0  # atno 17395 bound_to 11000

$$$$
