#       Name:                AV-unprocessed.smi:1560
#       Creating user name   scv26
#       Creation time:       Fri Mar 27 06:47:33 2020


#       File generated by GOLD software.
#

@<TRIPOS>MOLECULE
AV-unprocessed.smi:1560
    56    57     1
SMALL
NO_CHARGES


@<TRIPOS>ATOM
      1 ****        -3.3010  -0.8287   0.4932 C.3            1 S1                 0.0000
      2 ****        -1.7880  -0.5541   0.4112 C.3            1 S1                 0.0000
      3 ****        -1.3046   0.1914  -0.8733 C.3            1 S1                 0.0000
      4 ****        -1.8837   1.6295  -0.7880 C.3            1 S1                 0.0000
      5 ****         0.2551   0.2910  -0.8383 C.3            1 S1                 0.0000
      6 ****         0.7780   1.0341   0.3081 N.am           1 S1                 0.0000
      7 ****         1.3714   0.5000   1.3867 C.2            1 S1                 0.0000
      8 ****         1.5146  -0.7123   1.5511 O.2            1 S1                 0.0000
      9 ****         1.8415   1.4928   2.4578 C.3            1 S1                 0.0000
     10 ****         3.0986   1.0816   3.1033 N.am           1 S1                 0.0000
     11 ****         3.0164   0.4463   4.3552 C.2            1 S1                 0.0000
     12 ****         4.1153   0.0360   5.0169 C.2            1 S1                 0.0000
     13 ****         5.4173   0.2655   4.4026 C.2            1 S1                 0.0000
     14 ****         6.4319  -0.0973   4.9949 O.2            1 S1                 0.0000
     15 ****         5.4443   0.8807   3.1839 N.pl3          1 S1                -1.0000
     16 ****         4.3184   1.2911   2.5217 C.2            1 S1                 0.0000
     17 ****         4.3655   1.8438   1.4219 O.2            1 S1                 0.0000
     18 ****        -1.7921  -0.4971  -2.1024 N.3            1 S1                 0.0000
     19 ****        -1.3616  -1.8935  -2.2476 C.3            1 S1                 0.0000
     20 ****        -2.0230  -2.5773  -3.4559 C.3            1 S1                 0.0000
     21 ****        -1.7369  -1.8409  -4.6389 O.3            1 S1                 0.0000
     22 ****        -2.1882  -0.4942  -4.5627 C.3            1 S1                 0.0000
     23 ****        -1.5279   0.2068  -3.3631 C.3            1 S1                 0.0000
     24 ****        -3.5424  -1.3534   1.4175 H              1 S1                 0.0000
     25 ****        -3.6468  -1.4511  -0.3319 H              1 S1                 0.0000
     26 ****        -3.8812   0.0935   0.4843 H              1 S1                 0.0000
     27 ****        -1.5174   0.0196   1.2978 H              1 S1                 0.0000
     28 ****        -1.2524  -1.4967   0.5253 H              1 S1                 0.0000
     29 ****        -1.7431   2.0703   0.1995 H              1 S1                 0.0000
     30 ****        -2.9538   1.6458  -0.9968 H              1 S1                 0.0000
     31 ****        -1.4040   2.3052  -1.4963 H              1 S1                 0.0000
     32 ****         0.7101  -0.6992  -0.8714 H              1 S1                 0.0000
     33 ****         0.6234   0.8117  -1.7214 H              1 S1                 0.0000
     34 ****         0.7004   2.0399   0.2674 H              1 S1                 0.0000
     35 ****         1.9542   2.4875   2.0221 H              1 S1                 0.0000
     36 ****         1.0460   1.5926   3.1974 H              1 S1                 0.0000
     37 ****         2.0153   0.3093   4.7371 H              1 S1                 0.0000
     38 ****         4.0352  -0.4530   5.9767 H              1 S1                 0.0000
     39 ****        -0.2799  -1.9456  -2.3696 H              1 S1                 0.0000
     40 ****        -1.6072  -2.4739  -1.3603 H              1 S1                 0.0000
     41 ****        -1.6450  -3.5935  -3.5693 H              1 S1                 0.0000
     42 ****        -3.1025  -2.6504  -3.3146 H              1 S1                 0.0000
     43 ****        -1.9333   0.0198  -5.4896 H              1 S1                 0.0000
     44 ****        -3.2753  -0.4712  -4.4722 H              1 S1                 0.0000
     45 ****        -1.9060   1.2270  -3.3273 H              1 S1                 0.0000
     46 ****        -0.4552   0.2719  -3.5444 H              1 S1                 0.0000
     47 ****         1.1804  -1.3535   0.8603 LP             1 S1                 0.0000
     48 ****         1.9650  -1.0554   2.3754 LP             1 S1                 0.0000
     49 ****         6.3576  -0.5437   5.8867 LP             1 S1                 0.0000
     50 ****         7.3313   0.0540   4.5849 LP             1 S1                 0.0000
     51 ****         6.3324   1.0397   2.7527 LP             1 S1                 0.0000
     52 ****         3.5209   2.1308   0.9700 LP             1 S1                 0.0000
     53 ****         5.2484   2.0055   0.9810 LP             1 S1                 0.0000
     54 ****        -2.7785  -0.4854  -1.9381 LP             1 S1                 0.0000
     55 ****        -2.1878  -2.2873  -5.4118 LP             1 S1                 0.0000
     56 ****        -0.7477  -1.8402  -4.7852 LP             1 S1                 0.0000
@<TRIPOS>BOND
    1    1    2 1     
    2    1   24 1     
    3    1   25 1     
    4    1   26 1     
    5    2    3 1     
    6    2   27 1     
    7    2   28 1     
    8    3    4 1     
    9    3    5 1     
   10    3   18 1     
   11    4   29 1     
   12    4   30 1     
   13    4   31 1     
   14    5    6 1     
   15    5   32 1     
   16    5   33 1     
   17    6    7 am    
   18    6   34 1     
   19    7    8 2     
   20    7    9 1     
   21    9   10 1     
   22    9   35 1     
   23    9   36 1     
   24   10   16 am    
   25   10   11 1     
   26   11   12 2     
   27   11   37 1     
   28   12   13 1     
   29   12   38 1     
   30   13   14 2     
   31   13   15 1     
   32   15   16 1     
   33   16   17 2     
   34   18   23 1     
   35   18   19 1     
   36   19   20 1     
   37   19   39 1     
   38   19   40 1     
   39   20   21 1     
   40   20   41 1     
   41   20   42 1     
   42   21   22 1     
   43   22   23 1     
   44   22   43 1     
   45   22   44 1     
   46   23   45 1     
   47   23   46 1     
   48    8   47 1     
   49    8   48 1     
   50   14   49 1     
   51   14   50 1     
   52   15   51 1     
   53   17   52 1     
   54   17   53 1     
   55   18   54 1     
   56   21   55 1     
   57   21   56 1     
@<TRIPOS>SUBSTRUCTURE
      1 S1             1
@<TRIPOS>SET
LONE_PAIRS      STATIC     ATOMS    <user>   **** ""
10 47 48 49 50 51 52 53 54 55 56
DONOR_HYDROGENS      STATIC     ATOMS    <user>   **** ""
1 34
ATOM$BLUE        STATIC     ATOMS    COLORGROUP SYSTEM
10 47 48 49 50 51 52 53 54 55 56
ATOM$RED        STATIC     ATOMS    COLORGROUP SYSTEM
1 34
