AV-unprocessed.smi:2753|AV-procd|sdf|10612|dock3
  -GOLD-   2272015 63D 1   1.00000     0.00000
 Structure written by MMmdl.
 28 29  0  0  0  0  0  0  0  0  2 V2000
  146.6203  127.9668  153.3635 F   0  0  0  0  0  0  0  0  0  0  0  0
  147.2679  128.6567  152.4253 C   0  0  0  0  0  0  0  0  0  0  0  0
  148.4545  128.9988  152.9252 F   0  0  0  0  0  0  0  0  0  0  0  0
  147.4845  127.8348  151.3991 F   0  0  0  0  0  0  0  0  0  0  0  0
  146.4953  129.8611  151.9985 C   0  0  0  0  0  0  0  0  0  0  0  0
  145.2250  129.9965  151.4846 C   0  0  0  0  0  0  0  0  0  0  0  0
  144.9530  131.3448  151.2452 N   0  0  0  0  0  0  0  0  0  0  0  0
  146.0574  131.9866  151.6169 C   0  0  0  0  0  0  0  0  0  0  0  0
  146.2635  133.4686  151.5529 C   0  0  1  0  0  0  0  0  0  0  0  0
  145.1041  134.1823  150.8315 C   0  0  0  0  0  0  0  0  0  0  0  0
  145.3381  135.7007  150.8042 C   0  0  0  0  0  0  0  0  0  0  0  0
  145.5775  136.2451  152.2220 C   0  0  0  0  0  0  0  0  0  0  0  0
  146.7050  135.5393  152.8686 N   0  3  0  0  0  0  0  0  0  0  0  0
  146.4993  134.0763  152.9514 C   0  0  0  0  0  0  0  0  0  0  0  0
  146.9988  131.1490  152.0683 N   0  0  0  0  0  0  0  0  0  0  0  0
  147.9172  131.4068  152.4004 H   0  0  0  0  0  0  0  0  0  0  0  0
  144.4899  129.2343  151.2712 H   0  0  0  0  0  0  0  0  0  0  0  0
  147.1676  133.6416  150.9660 H   0  0  0  0  0  0  0  0  0  0  0  0
  145.0007  133.8030  149.8141 H   0  0  0  0  0  0  0  0  0  0  0  0
  144.1623  133.9706  151.3399 H   0  0  0  0  0  0  0  0  0  0  0  0
  146.1980  135.9284  150.1729 H   0  0  0  0  0  0  0  0  0  0  0  0
  144.4815  136.2014  150.3518 H   0  0  0  0  0  0  0  0  0  0  0  0
  145.7980  137.3123  152.1864 H   0  0  0  0  0  0  0  0  0  0  0  0
  144.6809  136.1245  152.8315 H   0  0  0  0  0  0  0  0  0  0  0  0
  147.5442  135.7177  152.3354 H   0  0  0  0  0  0  0  0  0  0  0  0
  145.6489  133.8762  153.6048 H   0  0  0  0  0  0  0  0  0  0  0  0
  147.3741  133.6246  153.4200 H   0  0  0  0  0  0  0  0  0  0  0  0
  146.8282  135.9054  153.8020 H   0  0  0  0  0  0  0  0  0  0  0  0
  1  2  1  0  0  0  0
  2  3  1  0  0  0  0
  2  4  1  0  0  0  0
  2  5  1  0  0  0  0
  5  6  2  0  0  0  0
  5 15  1  0  0  0  0
  6 17  1  0  0  0  0
  6  7  1  0  0  0  0
  7  8  2  0  0  0  0
  8 15  1  0  0  0  0
  8  9  1  0  0  0  0
  9 14  1  0  0  0  0
  9 10  1  0  0  0  0
  9 18  1  0  0  0  0
 10 11  1  0  0  0  0
 10 19  1  0  0  0  0
 10 20  1  0  0  0  0
 11 12  1  0  0  0  0
 11 21  1  0  0  0  0
 11 22  1  0  0  0  0
 12 13  1  0  0  0  0
 12 23  1  0  0  0  0
 12 24  1  0  0  0  0
 13 14  1  0  0  0  0
 13 25  1  0  0  0  0
 13 28  1  0  0  0  0
 14 26  1  0  0  0  0
 14 27  1  0  0  0  0
 15 16  1  0  0  0  0
M  CHG  1  13   1
M  END
> <s_m_source_file>
AV-unprocessed.smi

> <i_m_source_file_index>
2753

> <i_lp_mmshare_version>
43012

> <i_f3d_flags>
0

> <s_epik_input>
RkMoRikoRiljMVtjSF1bbkhdYyhuMSlbQ0BASF0yW0NIMl1bQ0gyXVtDSDJdW05IXVtDSDJdMg==

> <s_epik_cmdline>
J2VwaWtfcHl0aG9uJywgJy1waCcsICc3LjAnLCAnLXRuJywgJzgnLCAnLW1hJywgJzIwMCcsICctbWV0YWxfYmluZGluZycsICctaW1hZScsICc8aW5maWxlLm1hZT4nLCAnLW9tYWUnLCAnPG91dGZpbGUubWFlPic=

> <r_lp_tautomer_probability>
0.5

> <r_epik_Ionization_Penalty>
0.0187699

> <r_epik_Ionization_Penalty_Charging>
0.00116734

> <r_epik_Ionization_Penalty_Neutral>
0.0176026

> <r_epik_State_Penalty>
1.08926

> <r_epik_Charging_Adjusted_Penalty>
1.09042

> <i_epik_Tot_Q>
1

> <i_epik_Tot_abs_Q>
1

> <r_epik_Metal_State_Penalty>
1.1514

> <b_epik_Metal_Only>
0

> <s_lp_Force_Field>
OPLS_2005

> <r_lp_Energy>
13.0643

> <b_lp_Chiralities_Consistent>
1

> <s_lp_Variant>
AV-unprocessed.smi:2753-4

> <Gold.Version>
5.8.1

> <Gold.Id.Protein>
6NUR|6NUR_protein|mol2

> <Gold.PLP.Fitness>
36.4307

> <Gold.PLP.PLP>
-30.5670

> <Gold.PLP.part.hbond>
-2.0000

> <Gold.PLP.part.metal>
0.0000

> <Gold.PLP.part.buried>
-4.3955

> <Gold.PLP.part.nonpolar>
-24.0842

> <Gold.PLP.part.repulsive>
0.1442

> <Gold.PLP.ligand.clash>
0.0000

> <Gold.PLP.ligand.torsion>
0.0824

> <Gold.PLP.Chemscore.Hbond>
2.0000

> <Gold.PLP.Chemscore.CHOScore>
0.0000

> <Gold.PLP.Chemscore.Metal>
0.0000

> <Gold.Chemscore.Hbonds>
donor molecule, donor type, donor heavy atom, donor atom, acceptor molecule, acceptor atom, score
      L1  H    13    25       P1  7948  2.00

> <Gold.PLP.Chemscore.Internal.Correction>
0.0286

> <Gold.Rescore>
     Score         DG    S(hbond)    S(metal)    S(lipo)     H(rot)  DE(clash)    DE(int)     intcor
     12.47     -12.56       1.00        0.00      53.82       1.00       0.06       0.03       ----

> <Gold.Chemscore.Fitness>
12.4686

> <Gold.Chemscore.DG>
-12.5570

> <Gold.Chemscore.ZeroCoef>
-5.4800

> <Gold.Chemscore.Hbond>
1.0000

> <Gold.Chemscore.Metal>
0.0000

> <Gold.Chemscore.Lipo>
53.8211

> <Gold.Chemscore.Internal_Hbond>
0.0000

> <Gold.Chemscore.DEClash>
0.0628

> <Gold.Chemscore.DEInternal>
0.0256

> <Gold.Chemscore.Rot>
1.0000

> <Gold.Chemscore.Internal.Correction>
   9.000000E+99

> <Gold.Chemscore.Hbonds>
donor molecule, donor type, donor heavy atom, donor atom, acceptor molecule, acceptor atom, score
      L1  H    13    25       P1  7948  0.95

> <Gold.Chemscore.Hbond.Weighted>
-3.3399

> <Gold.Chemscore.Metal.Weighted>
-0.0000

> <Gold.Chemscore.Lipo.Weighted>
-6.2971

> <Gold.Chemscore.Internal_Hbond.Weighted>
0.0000

> <Gold.Chemscore.DEClash.Weighted>
0.0628

> <Gold.Chemscore.DEInternal.Weighted>
0.0256

> <Gold.Chemscore.Rot.Weighted>
2.5600

> <Gold.Chemscore.Internal.Correction.Weighted>
   9.000000E+99

> <Gold.Protein.RotatedTorsions>
[ 6907 6896 6895 6894 ] final -121.44 input  -60.11 | X-H torsion
[ 7974 7965 7964 7962 ] final  170.69 input  175.53 | X-H torsion
[ 8008 7997 7996 7995 ] final  123.12 input   59.86 | X-H torsion
[ 10167 10162 10161 10158 ] final  -50.97 input  -65.29 | X-H torsion
[ 10718 10713 10712 10709 ] final  -11.02 input   66.30 | X-H torsion
[ 10763 10752 10751 10750 ] final  106.74 input  -60.55 | X-H torsion
[ 11005 11000 10999 10996 ] final -124.93 input  -57.11 | X-H torsion

> <Gold.Protein.ActiveResidues>
 VAL166  LYS551  ARG553  GLY616  TRP617  ASP618  TYR619  PRO620  LYS621  CYS622 
 ASP623  PHE694  ASN695  SER759  ASP760  ASP761  ALA762  ILE779  LEU786  VAL792 
 PHE793  MET794  SER795  GLU796  ALA797  LYS798  CYS799  TRP800  GLU811  SER814 

> <Gold.Protein.RotatedAtoms>
  150.8484  133.7825  159.3034 H   0  0  0  0  0  0  0  0  0  0  0  0  # atno 6907 bound_to 6896
  151.5505  135.1066  159.9958 H   0  0  0  0  0  0  0  0  0  0  0  0  # atno 6908 bound_to 6896
  152.4532  133.7628  159.6812 H   0  0  0  0  0  0  0  0  0  0  0  0  # atno 6909 bound_to 6896
  144.7316  139.9239  143.6421 H   0  0  0  0  0  0  0  0  0  0  0  0  # atno 7974 bound_to 7965
  156.2754  140.2770  156.1577 H   0  0  0  0  0  0  0  0  0  0  0  0  # atno 8008 bound_to 7997
  155.0786  140.0387  157.2649 H   0  0  0  0  0  0  0  0  0  0  0  0  # atno 8009 bound_to 7997
  154.6982  140.2643  155.6751 H   0  0  0  0  0  0  0  0  0  0  0  0  # atno 8010 bound_to 7997
  140.6611  143.2637  151.4436 H   0  0  0  0  0  0  0  0  0  0  0  0  # atno 10167 bound_to 10162
  156.6650  130.4993  149.6018 H   0  0  0  0  0  0  0  0  0  0  0  0  # atno 10718 bound_to 10713
  153.3971  135.3867  155.1962 H   0  0  0  0  0  0  0  0  0  0  0  0  # atno 10763 bound_to 10752
  154.8725  135.3762  154.4665 H   0  0  0  0  0  0  0  0  0  0  0  0  # atno 10764 bound_to 10752
  153.5158  135.7087  153.5818 H   0  0  0  0  0  0  0  0  0  0  0  0  # atno 10765 bound_to 10752
  140.9802  134.0683  157.3773 H   0  0  0  0  0  0  0  0  0  0  0  0  # atno 11005 bound_to 11000
  146.0908  139.3898  143.0407 LP  0  0  0  0  0  0  0  0  0  0  0  0  # atno 17320 bound_to 7965
  145.7713  140.9895  143.1148 LP  0  0  0  0  0  0  0  0  0  0  0  0  # atno 17321 bound_to 7965
  139.5846  144.1634  152.2012 LP  0  0  0  0  0  0  0  0  0  0  0  0  # atno 17342 bound_to 10162
  140.0969  144.5572  150.7015 LP  0  0  0  0  0  0  0  0  0  0  0  0  # atno 17343 bound_to 10162
  156.1982  130.6603  151.1138 LP  0  0  0  0  0  0  0  0  0  0  0  0  # atno 17370 bound_to 10713
  157.7097  131.0740  150.6545 LP  0  0  0  0  0  0  0  0  0  0  0  0  # atno 17371 bound_to 10713
  139.8947  135.0137  156.6965 LP  0  0  0  0  0  0  0  0  0  0  0  0  # atno 17394 bound_to 11000
  140.7197  133.9151  155.8139 LP  0  0  0  0  0  0  0  0  0  0  0  0  # atno 17395 bound_to 11000

$$$$
