AV-unprocessed.smi:1718|AV-procd|sdf|6927|dock2
  -GOLD-   22720 8133D 1   1.00000     0.00000
 Structure written by MMmdl.
 39 40  0  0  0  0  0  0  0  0  2 V2000
  149.1437  140.5140  155.6182 C   0  0  0  0  0  0  0  0  0  0  0  0
  149.6667  140.2621  157.0403 C   0  0  1  0  0  0  0  0  0  0  0  0
  149.6703  141.5140  157.7212 O   0  0  0  0  0  0  0  0  0  0  0  0
  150.5858  142.4814  157.2192 C   0  0  0  0  0  0  0  0  0  0  0  0
  150.8020  143.5544  158.2926 C   0  0  2  0  0  0  0  0  0  0  0  0
  151.8101  144.6343  157.9063 C   0  0  0  0  0  0  0  0  0  0  0  0
  152.2204  145.1591  159.2632 C   0  0  0  0  0  0  0  0  0  0  0  0
  152.2346  143.8871  160.1092 C   0  0  0  0  0  0  0  0  0  0  0  0
  151.3354  142.9763  159.4798 O   0  0  0  0  0  0  0  0  0  0  0  0
  148.7877  139.2479  157.7908 C   0  0  0  0  0  0  0  0  0  0  0  0
  147.6185  139.5351  158.0473 O   0  0  0  0  0  0  0  0  0  0  0  0
  149.3934  138.0883  158.1139 N   0  0  0  0  0  0  0  0  0  0  0  0
  148.8953  136.9882  158.8324 C   0  0  0  0  0  0  0  0  0  0  0  0
  148.2447  137.0693  160.0261 C   0  0  0  0  0  0  0  0  0  0  0  0
  147.7655  135.8898  160.7354 C   0  0  0  0  0  0  0  0  0  0  0  0
  146.9511  135.9490  162.0157 C   0  0  0  0  0  0  0  0  0  0  0  0
  146.6354  134.7253  162.4400 F   0  0  0  0  0  0  0  0  0  0  0  0
  147.6542  136.5517  162.9733 F   0  0  0  0  0  0  0  0  0  0  0  0
  145.8230  136.6353  161.8336 F   0  0  0  0  0  0  0  0  0  0  0  0
  148.0426  134.7203  160.0545 C   0  0  0  0  0  0  0  0  0  0  0  0
  148.7032  134.5510  158.8883 N   0  5  0  0  0  0  0  0  0  0  0  0
  149.1488  135.6609  158.2346 C   0  0  0  0  0  0  0  0  0  0  0  0
  149.7543  135.5793  157.1653 O   0  0  0  0  0  0  0  0  0  0  0  0
  149.1030  139.5893  155.0414 H   0  0  0  0  0  0  0  0  0  0  0  0
  149.7959  141.2056  155.0847 H   0  0  0  0  0  0  0  0  0  0  0  0
  148.1434  140.9484  155.6284 H   0  0  0  0  0  0  0  0  0  0  0  0
  150.6895  139.8873  156.9663 H   0  0  0  0  0  0  0  0  0  0  0  0
  151.5425  142.0172  156.9783 H   0  0  0  0  0  0  0  0  0  0  0  0
  150.2019  142.9329  156.3032 H   0  0  0  0  0  0  0  0  0  0  0  0
  149.8496  144.0201  158.5514 H   0  0  0  0  0  0  0  0  0  0  0  0
  152.6708  144.1961  157.3987 H   0  0  0  0  0  0  0  0  0  0  0  0
  151.3843  145.4022  157.2600 H   0  0  0  0  0  0  0  0  0  0  0  0
  153.1805  145.6759  159.2528 H   0  0  0  0  0  0  0  0  0  0  0  0
  151.4646  145.8507  159.6379 H   0  0  0  0  0  0  0  0  0  0  0  0
  153.2297  143.4414  160.1164 H   0  0  0  0  0  0  0  0  0  0  0  0
  151.9432  144.0795  161.1420 H   0  0  0  0  0  0  0  0  0  0  0  0
  150.3358  137.9667  157.7718 H   0  0  0  0  0  0  0  0  0  0  0  0
  148.0802  138.0210  160.5034 H   0  0  0  0  0  0  0  0  0  0  0  0
  147.6743  133.7786  160.5148 H   0  0  0  0  0  0  0  0  0  0  0  0
  1  2  1  0  0  0  0
  1 24  1  0  0  0  0
  1 25  1  0  0  0  0
  1 26  1  0  0  0  0
  2  3  1  0  0  0  0
  2 10  1  0  0  0  0
  2 27  1  0  0  0  0
  3  4  1  0  0  0  0
  4  5  1  0  0  0  0
  4 28  1  0  0  0  0
  4 29  1  0  0  0  0
  5  9  1  0  0  0  0
  5  6  1  0  0  0  0
  5 30  1  0  0  0  0
  6  7  1  0  0  0  0
  6 31  1  0  0  0  0
  6 32  1  0  0  0  0
  7  8  1  0  0  0  0
  7 33  1  0  0  0  0
  7 34  1  0  0  0  0
  8  9  1  0  0  0  0
  8 35  1  0  0  0  0
  8 36  1  0  0  0  0
 10 11  2  0  0  0  0
 10 12  1  0  0  0  0
 12 13  1  0  0  0  0
 12 37  1  0  0  0  0
 13 22  1  0  0  0  0
 13 14  2  0  0  0  0
 14 15  1  0  0  0  0
 14 38  1  0  0  0  0
 15 16  1  0  0  0  0
 15 20  2  0  0  0  0
 16 17  1  0  0  0  0
 16 18  1  0  0  0  0
 16 19  1  0  0  0  0
 20 21  1  0  0  0  0
 20 39  1  0  0  0  0
 21 22  1  0  0  0  0
 22 23  2  0  0  0  0
M  CHG  1  21  -1
M  END
> <s_m_source_file>
AV-unprocessed.smi

> <i_m_source_file_index>
1718

> <i_lp_mmshare_version>
43012

> <i_f3d_flags>
0

> <s_epik_input>
TzFbQ0gyXVtDSDJdW0NIMl1bQ0BIXTFbQ0gyXU9bQ0BASF0oW0NIM10pQyg9TylbTkhdYzJbY0hdYyhDKEYpKEYpRilbY0hdW25IXWMyPU8=

> <s_epik_cmdline>
J2VwaWtfcHl0aG9uJywgJy1waCcsICc3LjAnLCAnLXRuJywgJzgnLCAnLW1hJywgJzIwMCcsICctbWV0YWxfYmluZGluZycsICctaW1hZScsICc8aW5maWxlLm1hZT4nLCAnLW9tYWUnLCAnPG91dGZpbGUubWFlPic=

> <r_epik_Ionization_Penalty>
2.5466

> <r_epik_Ionization_Penalty_Charging>
0.0575837

> <r_epik_Ionization_Penalty_Neutral>
2.48901

> <r_epik_State_Penalty>
2.6532

> <r_epik_Charging_Adjusted_Penalty>
2.71078

> <i_epik_Tot_Q>
-1

> <i_epik_Tot_abs_Q>
1

> <r_epik_Metal_State_Penalty>
0.516196

> <b_epik_Metal_Only>
0

> <s_lp_Force_Field>
OPLS_2005

> <r_lp_Energy>
37.0387

> <b_lp_Chiralities_Consistent>
1

> <s_lp_Variant>
AV-unprocessed.smi:1718-6

> <Gold.Version>
5.8.1

> <Gold.Id.Protein>
6NUR|6NUR_protein|mol2

> <Gold.PLP.Fitness>
44.6814

> <Gold.PLP.PLP>
-42.6521

> <Gold.PLP.part.hbond>
-1.9921

> <Gold.PLP.part.metal>
0.0000

> <Gold.PLP.part.buried>
-5.1295

> <Gold.PLP.part.nonpolar>
-36.1181

> <Gold.PLP.part.repulsive>
0.1611

> <Gold.PLP.ligand.clash>
0.0000

> <Gold.PLP.ligand.torsion>
0.5991

> <Gold.PLP.Chemscore.Hbond>
1.0000

> <Gold.PLP.Chemscore.CHOScore>
0.0000

> <Gold.PLP.Chemscore.Metal>
0.0000

> <Gold.Chemscore.Hbonds>
donor molecule, donor type, donor heavy atom, donor atom, acceptor molecule, acceptor atom, score
      P1  H  6896  6909       L1    21  0.86

> <Gold.PLP.Chemscore.Internal.Correction>
0.2275

> <Gold.Rescore>
     Score         DG    S(hbond)    S(metal)    S(lipo)     H(rot)  DE(clash)    DE(int)     intcor
     11.48     -12.04       0.00        0.00      96.45       1.85       0.03       0.53       ----

> <Gold.Chemscore.Fitness>
11.4819

> <Gold.Chemscore.DG>
-12.0412

> <Gold.Chemscore.ZeroCoef>
-5.4800

> <Gold.Chemscore.Hbond>
0.0003

> <Gold.Chemscore.Metal>
0.0000

> <Gold.Chemscore.Lipo>
96.4495

> <Gold.Chemscore.Internal_Hbond>
0.0000

> <Gold.Chemscore.DEClash>
0.0252

> <Gold.Chemscore.DEInternal>
0.5341

> <Gold.Chemscore.Rot>
1.8455

> <Gold.Chemscore.Internal.Correction>
   9.000000E+99

> <Gold.Chemscore.Hbonds>
donor molecule, donor type, donor heavy atom, donor atom, acceptor molecule, acceptor atom, score
      P1  H  6896  6909       L1    21  0.02

> <Gold.Chemscore.Hbond.Weighted>
-0.0011

> <Gold.Chemscore.Metal.Weighted>
-0.0000

> <Gold.Chemscore.Lipo.Weighted>
-11.2846

> <Gold.Chemscore.Internal_Hbond.Weighted>
0.0000

> <Gold.Chemscore.DEClash.Weighted>
0.0252

> <Gold.Chemscore.DEInternal.Weighted>
0.5341

> <Gold.Chemscore.Rot.Weighted>
4.7245

> <Gold.Chemscore.Internal.Correction.Weighted>
   9.000000E+99

> <Gold.Protein.RotatedTorsions>
[ 6907 6896 6895 6894 ] final   12.25 input  -60.11 | X-H torsion
[ 7974 7965 7964 7962 ] final -134.82 input  175.53 | X-H torsion
[ 8008 7997 7996 7995 ] final   18.81 input   59.86 | X-H torsion
[ 10167 10162 10161 10158 ] final  136.39 input  -65.29 | X-H torsion
[ 10718 10713 10712 10709 ] final  129.59 input   66.30 | X-H torsion
[ 10763 10752 10751 10750 ] final   97.42 input  -60.55 | X-H torsion
[ 11005 11000 10999 10996 ] final   54.00 input  -57.11 | X-H torsion

> <Gold.Protein.ActiveResidues>
 VAL166  LYS551  ARG553  GLY616  TRP617  ASP618  TYR619  PRO620  LYS621  CYS622 
 ASP623  PHE694  ASN695  SER759  ASP760  ASP761  ALA762  ILE779  LEU786  VAL792 
 PHE793  MET794  SER795  GLU796  ALA797  LYS798  CYS799  TRP800  GLU811  SER814 

> <Gold.Protein.RotatedAtoms>
  151.7673  135.0795  160.0354 H   0  0  0  0  0  0  0  0  0  0  0  0  # atno 6907 bound_to 6896
  152.3312  133.5956  159.5819 H   0  0  0  0  0  0  0  0  0  0  0  0  # atno 6908 bound_to 6896
  150.7424  133.9780  159.3609 H   0  0  0  0  0  0  0  0  0  0  0  0  # atno 6909 bound_to 6896
  144.9068  140.6844  143.5050 H   0  0  0  0  0  0  0  0  0  0  0  0  # atno 7974 bound_to 7965
  154.9115  140.3015  155.5263 H   0  0  0  0  0  0  0  0  0  0  0  0  # atno 8008 bound_to 7997
  156.3014  140.2388  156.4091 H   0  0  0  0  0  0  0  0  0  0  0  0  # atno 8009 bound_to 7997
  154.8420  140.0413  157.1536 H   0  0  0  0  0  0  0  0  0  0  0  0  # atno 8010 bound_to 7997
  139.5182  144.6467  151.5420 H   0  0  0  0  0  0  0  0  0  0  0  0  # atno 10167 bound_to 10162
  157.5140  131.1097  150.9251 H   0  0  0  0  0  0  0  0  0  0  0  0  # atno 10718 bound_to 10713
  153.2766  135.4184  155.1039 H   0  0  0  0  0  0  0  0  0  0  0  0  # atno 10763 bound_to 10752
  154.8475  135.3485  154.6169 H   0  0  0  0  0  0  0  0  0  0  0  0  # atno 10764 bound_to 10752
  153.6590  135.7049  153.5241 H   0  0  0  0  0  0  0  0  0  0  0  0  # atno 10765 bound_to 10752
  140.0721  134.5455  155.9035 H   0  0  0  0  0  0  0  0  0  0  0  0  # atno 11005 bound_to 11000
  145.3521  139.1703  143.4429 LP  0  0  0  0  0  0  0  0  0  0  0  0  # atno 17320 bound_to 7965
  146.3138  140.3574  142.8661 LP  0  0  0  0  0  0  0  0  0  0  0  0  # atno 17321 bound_to 7965
  140.6255  143.9177  150.6561 LP  0  0  0  0  0  0  0  0  0  0  0  0  # atno 17342 bound_to 10162
  140.2465  143.3625  152.1442 LP  0  0  0  0  0  0  0  0  0  0  0  0  # atno 17343 bound_to 10162
  156.9882  130.5553  149.5301 LP  0  0  0  0  0  0  0  0  0  0  0  0  # atno 17370 bound_to 10713
  156.0308  130.5399  150.8529 LP  0  0  0  0  0  0  0  0  0  0  0  0  # atno 17371 bound_to 10713
  141.2016  133.6619  156.5958 LP  0  0  0  0  0  0  0  0  0  0  0  0  # atno 17394 bound_to 11000
  140.3611  134.7686  157.4534 LP  0  0  0  0  0  0  0  0  0  0  0  0  # atno 17395 bound_to 11000

$$$$
