AV-unprocessed.smi:1174|AV-procd|sdf|4947|dock8
  -GOLD-   22720 3533D 1   1.00000     0.00000
 Structure written by MMmdl.
 41 42  0  0  0  0  0  0  0  0  1 V2000
  152.5325  138.3951  157.2983 C   0  0  0  0  0  0  0  0  0  0  0  0
  151.5835  139.3417  158.0492 C   0  0  1  0  0  0  0  0  0  0  0  0
  152.2441  140.7077  158.3185 C   0  0  0  0  0  0  0  0  0  0  0  0
  153.1300  140.6777  159.4692 N   0  0  0  0  0  0  0  0  0  0  0  0
  153.0192  141.3749  160.6541 C   0  0  0  0  0  0  0  0  0  0  0  0
  154.0791  141.0168  161.4366 C   0  0  0  0  0  0  0  0  0  0  0  0
  154.7926  140.0845  160.6324 C   0  0  0  0  0  0  0  0  0  0  0  0
  154.2229  139.8848  159.4549 N   0  0  0  0  0  0  0  0  0  0  0  0
  150.3541  139.5271  157.2815 N   0  0  0  0  0  0  0  0  0  0  0  0
  150.2843  139.9318  156.0044 C   0  0  0  0  0  0  0  0  0  0  0  0
  151.2722  140.2332  155.3344 O   0  0  0  0  0  0  0  0  0  0  0  0
  148.8801  140.0043  155.3919 C   0  0  2  0  0  0  0  0  0  0  0  0
  148.7491  139.0621  154.1720 C   0  0  0  0  0  0  0  0  0  0  0  0
  147.3891  139.2273  153.4670 C   0  0  0  0  0  0  0  0  0  0  0  0
  147.1003  140.7092  153.1653 C   0  0  0  0  0  0  0  0  0  0  0  0
  147.1712  141.4708  154.4240 N   0  0  0  0  0  0  0  0  0  0  0  0
  146.1162  141.9455  155.1329 C   0  0  0  0  0  0  0  0  0  0  0  0
  144.9156  141.7120  154.5943 N   0  0  0  0  0  0  0  0  0  0  0  0
  146.2259  142.5807  156.1804 O   0  0  0  0  0  0  0  0  0  0  0  0
  148.5298  141.4517  154.9805 C   0  0  0  0  0  0  0  0  0  0  0  0
  153.4516  138.2339  157.8623 H   0  0  0  0  0  0  0  0  0  0  0  0
  152.8068  138.7986  156.3231 H   0  0  0  0  0  0  0  0  0  0  0  0
  152.0724  137.4195  157.1382 H   0  0  0  0  0  0  0  0  0  0  0  0
  151.3424  138.8870  159.0120 H   0  0  0  0  0  0  0  0  0  0  0  0
  152.8244  141.0238  157.4503 H   0  0  0  0  0  0  0  0  0  0  0  0
  151.4857  141.4748  158.4816 H   0  0  0  0  0  0  0  0  0  0  0  0
  152.2029  142.0573  160.8407 H   0  0  0  0  0  0  0  0  0  0  0  0
  154.3096  141.3672  162.4317 H   0  0  0  0  0  0  0  0  0  0  0  0
  155.7018  139.5511  160.8677 H   0  0  0  0  0  0  0  0  0  0  0  0
  149.4882  139.3090  157.7526 H   0  0  0  0  0  0  0  0  0  0  0  0
  148.1594  139.6827  156.1466 H   0  0  0  0  0  0  0  0  0  0  0  0
  149.5418  139.2729  153.4523 H   0  0  0  0  0  0  0  0  0  0  0  0
  148.8818  138.0239  154.4796 H   0  0  0  0  0  0  0  0  0  0  0  0
  147.3747  138.6464  152.5444 H   0  0  0  0  0  0  0  0  0  0  0  0
  146.5977  138.8237  154.1002 H   0  0  0  0  0  0  0  0  0  0  0  0
  147.8454  141.0980  152.4697 H   0  0  0  0  0  0  0  0  0  0  0  0
  146.1465  140.8011  152.6463 H   0  0  0  0  0  0  0  0  0  0  0  0
  144.0814  142.0328  155.0634 H   0  0  0  0  0  0  0  0  0  0  0  0
  144.8494  141.2128  153.7192 H   0  0  0  0  0  0  0  0  0  0  0  0
  148.6384  142.1272  155.8311 H   0  0  0  0  0  0  0  0  0  0  0  0
  149.2292  141.8170  154.2267 H   0  0  0  0  0  0  0  0  0  0  0  0
  1  2  1  0  0  0  0
  1 21  1  0  0  0  0
  1 22  1  0  0  0  0
  1 23  1  0  0  0  0
  2  3  1  0  0  0  0
  2  9  1  0  0  0  0
  2 24  1  0  0  0  0
  3  4  1  0  0  0  0
  3 25  1  0  0  0  0
  3 26  1  0  0  0  0
  4  8  1  0  0  0  0
  4  5  1  0  0  0  0
  5  6  2  0  0  0  0
  5 27  1  0  0  0  0
  6  7  1  0  0  0  0
  6 28  1  0  0  0  0
  7  8  2  0  0  0  0
  7 29  1  0  0  0  0
  9 10  1  0  0  0  0
  9 30  1  0  0  0  0
 10 11  2  0  0  0  0
 10 12  1  0  0  0  0
 12 20  1  0  0  0  0
 12 13  1  0  0  0  0
 12 31  1  0  0  0  0
 13 14  1  0  0  0  0
 13 32  1  0  0  0  0
 13 33  1  0  0  0  0
 14 15  1  0  0  0  0
 14 34  1  0  0  0  0
 14 35  1  0  0  0  0
 15 16  1  0  0  0  0
 15 36  1  0  0  0  0
 15 37  1  0  0  0  0
 16 17  1  0  0  0  0
 16 20  1  0  0  0  0
 17 18  1  0  0  0  0
 17 19  2  0  0  0  0
 18 38  1  0  0  0  0
 18 39  1  0  0  0  0
 20 40  1  0  0  0  0
 20 41  1  0  0  0  0
M  END
> <s_m_source_file>
AV-unprocessed.smi

> <i_m_source_file_index>
1174

> <i_lp_mmshare_version>
43012

> <i_f3d_flags>
0

> <s_epik_input>
bjFbY0hdW2NIXVtjSF1uMVtDSDJdW0NAQEhdKFtDSDNdKVtOSF1DKD1PKVtDQEBIXTJbQ0gyXVtDSDJdW0NIMl1OKFtDSDJdMilDKD1PKVtOSDJd

> <s_epik_cmdline>
J2VwaWtfcHl0aG9uJywgJy1waCcsICc3LjAnLCAnLXRuJywgJzgnLCAnLW1hJywgJzIwMCcsICctbWV0YWxfYmluZGluZycsICctaW1hZScsICc8aW5maWxlLm1hZT4nLCAnLW9tYWUnLCAnPG91dGZpbGUubWFlPic=

> <r_lp_tautomer_probability>
1

> <r_epik_Ionization_Penalty>
0.000372452

> <r_epik_Ionization_Penalty_Charging>
0

> <r_epik_Ionization_Penalty_Neutral>
0.000372452

> <r_epik_State_Penalty>
-0

> <r_epik_Charging_Adjusted_Penalty>
0

> <i_epik_Tot_Q>
0

> <i_epik_Tot_abs_Q>
0

> <r_epik_Metal_State_Penalty>
-0

> <b_epik_Metal_Only>
0

> <s_lp_Force_Field>
OPLS_2005

> <r_lp_Energy>
26.6636

> <b_lp_Chiralities_Consistent>
1

> <s_lp_Variant>
AV-unprocessed.smi:1174-2

> <Gold.Version>
5.8.1

> <Gold.Id.Protein>
6NUR|6NUR_protein|mol2

> <Gold.PLP.Fitness>
41.9585

> <Gold.PLP.PLP>
-33.7495

> <Gold.PLP.part.hbond>
-3.0000

> <Gold.PLP.part.metal>
0.0000

> <Gold.PLP.part.buried>
-3.9292

> <Gold.PLP.part.nonpolar>
-28.1093

> <Gold.PLP.part.repulsive>
0.1910

> <Gold.PLP.ligand.clash>
0.0000

> <Gold.PLP.ligand.torsion>
0.3135

> <Gold.PLP.Chemscore.Hbond>
2.9273

> <Gold.PLP.Chemscore.CHOScore>
0.0000

> <Gold.PLP.Chemscore.Metal>
0.0000

> <Gold.Chemscore.Hbonds>
donor molecule, donor type, donor heavy atom, donor atom, acceptor molecule, acceptor atom, score
      L1  H    18    39       P1 10175  0.88
      P1  H  7989  7998       L1    11  1.00
      P1  H  7997  8009       L1     8  0.36

> <Gold.PLP.Chemscore.Internal.Correction>
0.0542

> <Gold.Rescore>
     Score         DG    S(hbond)    S(metal)    S(lipo)     H(rot)  DE(clash)    DE(int)     intcor
     16.61     -18.41       2.71        0.00      72.86       1.82       0.03       1.76       ----

> <Gold.Chemscore.Fitness>
16.6124

> <Gold.Chemscore.DG>
-18.4098

> <Gold.Chemscore.ZeroCoef>
-5.4800

> <Gold.Chemscore.Hbond>
2.7142

> <Gold.Chemscore.Metal>
0.0000

> <Gold.Chemscore.Lipo>
72.8640

> <Gold.Chemscore.Internal_Hbond>
0.0000

> <Gold.Chemscore.DEClash>
0.0343

> <Gold.Chemscore.DEInternal>
1.7631

> <Gold.Chemscore.Rot>
1.8206

> <Gold.Chemscore.Internal.Correction>
   9.000000E+99

> <Gold.Chemscore.Hbonds>
donor molecule, donor type, donor heavy atom, donor atom, acceptor molecule, acceptor atom, score
      L1  H    18    39       P1 10175  0.43
      P1  H  7989  7998       L1    11  0.95
      P1  H  7997  8009       L1     8  0.16

> <Gold.Chemscore.Hbond.Weighted>
-9.0654

> <Gold.Chemscore.Metal.Weighted>
-0.0000

> <Gold.Chemscore.Lipo.Weighted>
-8.5251

> <Gold.Chemscore.Internal_Hbond.Weighted>
0.0000

> <Gold.Chemscore.DEClash.Weighted>
0.0343

> <Gold.Chemscore.DEInternal.Weighted>
1.7631

> <Gold.Chemscore.Rot.Weighted>
4.6607

> <Gold.Chemscore.Internal.Correction.Weighted>
   9.000000E+99

> <Gold.Protein.RotatedTorsions>
[ 6907 6896 6895 6894 ] final -171.36 input  -60.11 | X-H torsion
[ 7974 7965 7964 7962 ] final   80.76 input  175.53 | X-H torsion
[ 8008 7997 7996 7995 ] final  128.59 input   59.86 | X-H torsion
[ 10167 10162 10161 10158 ] final -126.87 input  -65.29 | X-H torsion
[ 10718 10713 10712 10709 ] final   14.98 input   66.30 | X-H torsion
[ 10763 10752 10751 10750 ] final  -70.07 input  -60.55 | X-H torsion
[ 11005 11000 10999 10996 ] final  124.09 input  -57.11 | X-H torsion

> <Gold.Protein.ActiveResidues>
 VAL166  LYS551  ARG553  GLY616  TRP617  ASP618  TYR619  PRO620  LYS621  CYS622 
 ASP623  PHE694  ASN695  SER759  ASP760  ASP761  ALA762  ILE779  LEU786  VAL792 
 PHE793  MET794  SER795  GLU796  ALA797  LYS798  CYS799  TRP800  GLU811  SER814 

> <Gold.Protein.RotatedAtoms>
  151.5226  133.3464  159.2903 H   0  0  0  0  0  0  0  0  0  0  0  0  # atno 6907 bound_to 6896
  150.8643  134.8005  159.7118 H   0  0  0  0  0  0  0  0  0  0  0  0  # atno 6908 bound_to 6896
  152.4653  134.5100  159.9802 H   0  0  0  0  0  0  0  0  0  0  0  0  # atno 6909 bound_to 6896
  145.6470  139.2438  143.1998 H   0  0  0  0  0  0  0  0  0  0  0  0  # atno 7974 bound_to 7965
  156.2918  140.2641  156.2461 H   0  0  0  0  0  0  0  0  0  0  0  0  # atno 8008 bound_to 7997
  154.9929  140.0388  157.2345 H   0  0  0  0  0  0  0  0  0  0  0  0  # atno 8009 bound_to 7997
  154.7670  140.2771  155.6173 H   0  0  0  0  0  0  0  0  0  0  0  0  # atno 8010 bound_to 7997
  139.9668  143.5889  152.2426 H   0  0  0  0  0  0  0  0  0  0  0  0  # atno 10167 bound_to 10162
  157.0469  130.6254  149.5761 H   0  0  0  0  0  0  0  0  0  0  0  0  # atno 10718 bound_to 10713
  154.4124  135.6006  153.5960 H   0  0  0  0  0  0  0  0  0  0  0  0  # atno 10763 bound_to 10752
  152.9791  135.5932  154.4054 H   0  0  0  0  0  0  0  0  0  0  0  0  # atno 10764 bound_to 10752
  154.3868  135.2841  155.2157 H   0  0  0  0  0  0  0  0  0  0  0  0  # atno 10765 bound_to 10752
  139.9342  134.9640  156.8357 H   0  0  0  0  0  0  0  0  0  0  0  0  # atno 11005 bound_to 11000
  146.1234  140.7279  142.9446 LP  0  0  0  0  0  0  0  0  0  0  0  0  # atno 17320 bound_to 7965
  144.7136  140.4130  143.7061 LP  0  0  0  0  0  0  0  0  0  0  0  0  # atno 17321 bound_to 7965
  139.6511  144.7660  151.2146 LP  0  0  0  0  0  0  0  0  0  0  0  0  # atno 17342 bound_to 10162
  140.7535  143.6159  150.8560 LP  0  0  0  0  0  0  0  0  0  0  0  0  # atno 17343 bound_to 10162
  156.0020  130.5101  150.7697 LP  0  0  0  0  0  0  0  0  0  0  0  0  # atno 17370 bound_to 10713
  157.5061  131.0922  151.0256 LP  0  0  0  0  0  0  0  0  0  0  0  0  # atno 17371 bound_to 10713
  140.6119  134.0074  155.7580 LP  0  0  0  0  0  0  0  0  0  0  0  0  # atno 17394 bound_to 11000
  141.0948  133.9861  157.3178 LP  0  0  0  0  0  0  0  0  0  0  0  0  # atno 17395 bound_to 11000

$$$$
