AV-unprocessed.smi:992|AV-procd|sdf|4332|dock5
  -GOLD-   22720 2233D 1   1.00000     0.00000
 Structure written by MMmdl.
 33 34  0  0  0  0  0  0  0  0  2 V2000
  148.3825  126.4734  151.0827 C   0  0  0  0  0  0  0  0  0  0  0  0
  147.6407  127.5051  151.9389 C   0  0  2  0  0  0  0  0  0  0  0  0
  147.0306  128.6302  151.0843 C   0  0  0  0  0  0  0  0  0  0  0  0
  146.4280  129.6379  151.9452 N   0  0  0  0  0  0  0  0  0  0  0  0
  145.7248  130.6213  151.2374 C   0  0  0  0  0  0  0  0  0  0  0  0
  144.3280  130.8163  151.3509 C   0  0  0  0  0  0  0  0  0  0  0  0
  143.7093  131.8368  150.5993 C   0  0  0  0  0  0  0  0  0  0  0  0
  144.4959  132.6422  149.7489 C   0  0  0  0  0  0  0  0  0  0  0  0
  143.9116  133.6593  148.9966 N   0  0  0  0  0  0  0  0  0  0  0  0
  145.8834  132.4035  149.6718 C   0  0  0  0  0  0  0  0  0  0  0  0
  146.4378  131.4159  150.4083 N   0  3  0  0  0  0  0  0  0  0  0  0
  147.3774  130.1892  152.9032 C   0  0  0  0  0  0  0  0  0  0  0  0
  148.0326  129.0662  153.7320 C   0  0  1  0  0  0  0  0  0  0  0  0
  147.1021  128.4640  154.8001 C   0  0  0  0  0  0  0  0  0  0  0  0
  148.5730  128.0667  152.8633 O   0  0  0  0  0  0  0  0  0  0  0  0
  147.7114  126.0075  150.3606 H   0  0  0  0  0  0  0  0  0  0  0  0
  148.8030  125.6821  151.7038 H   0  0  0  0  0  0  0  0  0  0  0  0
  149.2021  126.9338  150.5301 H   0  0  0  0  0  0  0  0  0  0  0  0
  146.8500  126.9872  152.4822 H   0  0  0  0  0  0  0  0  0  0  0  0
  147.8033  129.0886  150.4656 H   0  0  0  0  0  0  0  0  0  0  0  0
  146.2763  128.2224  150.4100 H   0  0  0  0  0  0  0  0  0  0  0  0
  143.7339  130.1951  152.0049 H   0  0  0  0  0  0  0  0  0  0  0  0
  142.6437  131.9970  150.6777 H   0  0  0  0  0  0  0  0  0  0  0  0
  142.9195  133.8454  149.0393 H   0  0  0  0  0  0  0  0  0  0  0  0
  144.4510  134.2150  148.3480 H   0  0  0  0  0  0  0  0  0  0  0  0
  146.5641  132.9668  149.0497 H   0  0  0  0  0  0  0  0  0  0  0  0
  148.1510  130.7389  152.3651 H   0  0  0  0  0  0  0  0  0  0  0  0
  146.8777  130.9034  153.5594 H   0  0  0  0  0  0  0  0  0  0  0  0
  148.8811  129.4986  154.2629 H   0  0  0  0  0  0  0  0  0  0  0  0
  146.8025  129.2229  155.5232 H   0  0  0  0  0  0  0  0  0  0  0  0
  147.6060  127.6682  155.3489 H   0  0  0  0  0  0  0  0  0  0  0  0
  146.1907  128.0489  154.3710 H   0  0  0  0  0  0  0  0  0  0  0  0
  147.4440  131.2640  150.3359 H   0  0  0  0  0  0  0  0  0  0  0  0
  1  2  1  0  0  0  0
  1 16  1  0  0  0  0
  1 17  1  0  0  0  0
  1 18  1  0  0  0  0
  2 15  1  0  0  0  0
  2  3  1  0  0  0  0
  2 19  1  0  0  0  0
  3  4  1  0  0  0  0
  3 20  1  0  0  0  0
  3 21  1  0  0  0  0
  4  5  1  0  0  0  0
  4 12  1  0  0  0  0
  5 11  1  0  0  0  0
  5  6  2  0  0  0  0
  6  7  1  0  0  0  0
  6 22  1  0  0  0  0
  7  8  2  0  0  0  0
  7 23  1  0  0  0  0
  8  9  1  0  0  0  0
  8 10  1  0  0  0  0
  9 24  1  0  0  0  0
  9 25  1  0  0  0  0
 10 11  2  0  0  0  0
 10 26  1  0  0  0  0
 11 33  1  0  0  0  0
 12 13  1  0  0  0  0
 12 27  1  0  0  0  0
 12 28  1  0  0  0  0
 13 14  1  0  0  0  0
 13 15  1  0  0  0  0
 13 29  1  0  0  0  0
 14 30  1  0  0  0  0
 14 31  1  0  0  0  0
 14 32  1  0  0  0  0
M  CHG  1  11   1
M  END
> <s_m_source_file>
AV-unprocessed.smi

> <i_m_source_file_index>
992

> <i_lp_mmshare_version>
43012

> <i_f3d_flags>
0

> <s_epik_input>
W0NIM11bQ0BASF0xW0NIMl1OKFtDSDJdW0NASF0oTzEpW0NIM10pYzJbY0hdW2NIXWMoW05IMl0pW2NIXW4y

> <s_epik_cmdline>
J2VwaWtfcHl0aG9uJywgJy1waCcsICc3LjAnLCAnLXRuJywgJzgnLCAnLW1hJywgJzIwMCcsICctbWV0YWxfYmluZGluZycsICctaW1hZScsICc8aW5maWxlLm1hZT4nLCAnLW9tYWUnLCAnPG91dGZpbGUubWFlPic=

> <r_lp_tautomer_probability>
0.999846

> <r_epik_Ionization_Penalty>
2.28753

> <r_epik_Ionization_Penalty_Charging>
2.28753

> <r_epik_Ionization_Penalty_Neutral>
1.09395e-07

> <r_epik_State_Penalty>
2.43729

> <r_epik_Charging_Adjusted_Penalty>
4.72482

> <i_epik_Tot_Q>
1

> <i_epik_Tot_abs_Q>
1

> <r_epik_Metal_State_Penalty>
6.52028

> <b_epik_Metal_Only>
0

> <s_lp_Force_Field>
OPLS_2005

> <r_lp_Energy>
28.0969

> <b_lp_Chiralities_Consistent>
1

> <s_lp_Variant>
AV-unprocessed.smi:992-4

> <Gold.Version>
5.8.1

> <Gold.Id.Protein>
6NUR|6NUR_protein|mol2

> <Gold.PLP.Fitness>
36.9975

> <Gold.PLP.PLP>
-28.2922

> <Gold.PLP.part.hbond>
-2.8590

> <Gold.PLP.part.metal>
0.0000

> <Gold.PLP.part.buried>
-2.5208

> <Gold.PLP.part.nonpolar>
-23.6931

> <Gold.PLP.part.repulsive>
0.5662

> <Gold.PLP.ligand.clash>
0.0000

> <Gold.PLP.ligand.torsion>
0.0452

> <Gold.PLP.Chemscore.Hbond>
2.9020

> <Gold.PLP.Chemscore.CHOScore>
0.0000

> <Gold.PLP.Chemscore.Metal>
0.0000

> <Gold.Chemscore.Hbonds>
donor molecule, donor type, donor heavy atom, donor atom, acceptor molecule, acceptor atom, score
      L1  H     9    24       P1 10186  0.94
      L1  H     9    25       P1  7921  1.00
      L1  H    11    33       P1 10747  1.00

> <Gold.PLP.Chemscore.Internal.Correction>
0.0897

> <Gold.Rescore>
     Score         DG    S(hbond)    S(metal)    S(lipo)     H(rot)  DE(clash)    DE(int)     intcor
     21.77     -21.89       2.92        0.00      78.77       1.00       0.06       0.06       ----

> <Gold.Chemscore.Fitness>
21.7661

> <Gold.Chemscore.DG>
-21.8906

> <Gold.Chemscore.ZeroCoef>
-5.4800

> <Gold.Chemscore.Hbond>
2.9204

> <Gold.Chemscore.Metal>
0.0000

> <Gold.Chemscore.Lipo>
78.7733

> <Gold.Chemscore.Internal_Hbond>
0.0000

> <Gold.Chemscore.DEClash>
0.0597

> <Gold.Chemscore.DEInternal>
0.0649

> <Gold.Chemscore.Rot>
1.0000

> <Gold.Chemscore.Internal.Correction>
   9.000000E+99

> <Gold.Chemscore.Hbonds>
donor molecule, donor type, donor heavy atom, donor atom, acceptor molecule, acceptor atom, score
      L1  H     9    24       P1 10186  0.90
      L1  H     9    25       P1  7921  0.96
      L1  H    11    33       P1 10747  0.97

> <Gold.Chemscore.Hbond.Weighted>
-9.7542

> <Gold.Chemscore.Metal.Weighted>
-0.0000

> <Gold.Chemscore.Lipo.Weighted>
-9.2165

> <Gold.Chemscore.Internal_Hbond.Weighted>
0.0000

> <Gold.Chemscore.DEClash.Weighted>
0.0597

> <Gold.Chemscore.DEInternal.Weighted>
0.0649

> <Gold.Chemscore.Rot.Weighted>
2.5600

> <Gold.Chemscore.Internal.Correction.Weighted>
   9.000000E+99

> <Gold.Protein.RotatedTorsions>
[ 6907 6896 6895 6894 ] final  156.01 input  -60.11 | X-H torsion
[ 7974 7965 7964 7962 ] final -109.54 input  175.53 | X-H torsion
[ 8008 7997 7996 7995 ] final  145.01 input   59.86 | X-H torsion
[ 10167 10162 10161 10158 ] final  -80.38 input  -65.29 | X-H torsion
[ 10718 10713 10712 10709 ] final  120.86 input   66.30 | X-H torsion
[ 10763 10752 10751 10750 ] final   77.00 input  -60.55 | X-H torsion
[ 11005 11000 10999 10996 ] final  111.39 input  -57.11 | X-H torsion

> <Gold.Protein.ActiveResidues>
 VAL166  LYS551  ARG553  GLY616  TRP617  ASP618  TYR619  PRO620  LYS621  CYS622 
 ASP623  PHE694  ASN695  SER759  ASP760  ASP761  ALA762  ILE779  LEU786  VAL792 
 PHE793  MET794  SER795  GLU796  ALA797  LYS798  CYS799  TRP800  GLU811  SER814 

> <Gold.Protein.RotatedAtoms>
  152.0358  133.3956  159.4316 H   0  0  0  0  0  0  0  0  0  0  0  0  # atno 6907 bound_to 6896
  150.6879  134.3469  159.4901 H   0  0  0  0  0  0  0  0  0  0  0  0  # atno 6908 bound_to 6896
  152.1262  134.9169  160.0611 H   0  0  0  0  0  0  0  0  0  0  0  0  # atno 6909 bound_to 6896
  145.1793  140.8963  143.3489 H   0  0  0  0  0  0  0  0  0  0  0  0  # atno 7974 bound_to 7965
  156.2894  140.2220  156.5145 H   0  0  0  0  0  0  0  0  0  0  0  0  # atno 8008 bound_to 7997
  154.7580  140.0475  157.0972 H   0  0  0  0  0  0  0  0  0  0  0  0  # atno 8009 bound_to 7997
  155.0026  140.3103  155.4864 H   0  0  0  0  0  0  0  0  0  0  0  0  # atno 8010 bound_to 7997
  140.4508  143.2483  151.8491 H   0  0  0  0  0  0  0  0  0  0  0  0  # atno 10167 bound_to 10162
  157.5860  131.1070  150.8094 H   0  0  0  0  0  0  0  0  0  0  0  0  # atno 10718 bound_to 10713
  153.0766  135.4930  154.8417 H   0  0  0  0  0  0  0  0  0  0  0  0  # atno 10763 bound_to 10752
  154.7096  135.3017  154.9220 H   0  0  0  0  0  0  0  0  0  0  0  0  # atno 10764 bound_to 10752
  153.9918  135.6777  153.4807 H   0  0  0  0  0  0  0  0  0  0  0  0  # atno 10765 bound_to 10752
  139.8902  134.9507  156.6425 H   0  0  0  0  0  0  0  0  0  0  0  0  # atno 11005 bound_to 11000
  145.0153  139.3473  143.6099 LP  0  0  0  0  0  0  0  0  0  0  0  0  # atno 17320 bound_to 7965
  146.3456  139.9432  142.8738 LP  0  0  0  0  0  0  0  0  0  0  0  0  # atno 17321 bound_to 7965
  139.4796  144.5122  151.8917 LP  0  0  0  0  0  0  0  0  0  0  0  0  # atno 17342 bound_to 10162
  140.4209  144.2244  150.5887 LP  0  0  0  0  0  0  0  0  0  0  0  0  # atno 17343 bound_to 10162
  156.8528  130.5086  149.5310 LP  0  0  0  0  0  0  0  0  0  0  0  0  # atno 17370 bound_to 10713
  156.0909  130.5895  150.9731 LP  0  0  0  0  0  0  0  0  0  0  0  0  # atno 17371 bound_to 10713
  140.7583  133.8839  155.8399 LP  0  0  0  0  0  0  0  0  0  0  0  0  # atno 17394 bound_to 11000
  140.9943  134.1236  157.4378 LP  0  0  0  0  0  0  0  0  0  0  0  0  # atno 17395 bound_to 11000

$$$$
