AV-unprocessed.smi:985|AV-procd|sdf|4318|dock7
  -GOLD-   22720 2223D 1   1.00000     0.00000
 Structure written by MMmdl.
 26 27  0  0  0  0  0  0  0  0  2 V2000
  151.8521  141.3208  159.1267 C   0  0  0  0  0  0  0  0  0  0  0  0
  151.5589  140.8331  157.7494 C   0  0  0  0  0  0  0  0  0  0  0  0
  150.4503  141.0352  157.0415 N   0  0  0  0  0  0  0  0  0  0  0  0
  150.7504  140.3734  155.8887 C   0  0  0  0  0  0  0  0  0  0  0  0
  149.8079  140.2888  154.7271 C   0  0  2  0  0  0  0  0  0  0  0  0
  148.4900  141.0415  154.9913 C   0  0  0  0  0  0  0  0  0  0  0  0
  147.5505  140.9185  153.7817 C   0  0  0  0  0  0  0  0  0  0  0  0
  147.3348  139.4445  153.3988 C   0  0  0  0  0  0  0  0  0  0  0  0
  148.6288  138.7769  153.1377 N   0  3  0  0  0  0  0  0  0  0  0  0
  149.5526  138.8311  154.2927 C   0  0  0  0  0  0  0  0  0  0  0  0
  151.9419  139.7885  155.8522 N   0  0  0  0  0  0  0  0  0  0  0  0
  152.4938  140.0958  157.1044 O   0  0  0  0  0  0  0  0  0  0  0  0
  151.0073  141.8887  159.5175 H   0  0  0  0  0  0  0  0  0  0  0  0
  152.7317  141.9645  159.1157 H   0  0  0  0  0  0  0  0  0  0  0  0
  152.0432  140.4766  159.7893 H   0  0  0  0  0  0  0  0  0  0  0  0
  150.2911  140.7880  153.8847 H   0  0  0  0  0  0  0  0  0  0  0  0
  147.9973  140.6326  155.8747 H   0  0  0  0  0  0  0  0  0  0  0  0
  148.6894  142.0926  155.2035 H   0  0  0  0  0  0  0  0  0  0  0  0
  146.5932  141.3907  154.0041 H   0  0  0  0  0  0  0  0  0  0  0  0
  147.9721  141.4592  152.9333 H   0  0  0  0  0  0  0  0  0  0  0  0
  146.8106  138.9165  154.1965 H   0  0  0  0  0  0  0  0  0  0  0  0
  146.7122  139.3735  152.5067 H   0  0  0  0  0  0  0  0  0  0  0  0
  148.4571  137.8101  152.9007 H   0  0  0  0  0  0  0  0  0  0  0  0
  150.4895  138.3458  154.0169 H   0  0  0  0  0  0  0  0  0  0  0  0
  149.1246  138.2550  155.1145 H   0  0  0  0  0  0  0  0  0  0  0  0
  149.0703  139.2314  152.3511 H   0  0  0  0  0  0  0  0  0  0  0  0
  1  2  1  0  0  0  0
  1 13  1  0  0  0  0
  1 14  1  0  0  0  0
  1 15  1  0  0  0  0
  2 12  1  0  0  0  0
  2  3  2  0  0  0  0
  3  4  1  0  0  0  0
  4  5  1  0  0  0  0
  4 11  2  0  0  0  0
  5 10  1  0  0  0  0
  5  6  1  0  0  0  0
  5 16  1  0  0  0  0
  6  7  1  0  0  0  0
  6 17  1  0  0  0  0
  6 18  1  0  0  0  0
  7  8  1  0  0  0  0
  7 19  1  0  0  0  0
  7 20  1  0  0  0  0
  8  9  1  0  0  0  0
  8 21  1  0  0  0  0
  8 22  1  0  0  0  0
  9 10  1  0  0  0  0
  9 23  1  0  0  0  0
  9 26  1  0  0  0  0
 10 24  1  0  0  0  0
 10 25  1  0  0  0  0
 11 12  1  0  0  0  0
M  CHG  1   9   1
M  END
> <s_m_source_file>
AV-unprocessed.smi

> <i_m_source_file_index>
985

> <i_lp_mmshare_version>
43012

> <i_f3d_flags>
0

> <s_epik_input>
W0NIM11jMW5jKG5vMSlbQ0BASF0yW0NIMl1bQ0gyXVtDSDJdW05IXVtDSDJdMg==

> <s_epik_cmdline>
J2VwaWtfcHl0aG9uJywgJy1waCcsICc3LjAnLCAnLXRuJywgJzgnLCAnLW1hJywgJzIwMCcsICctbWV0YWxfYmluZGluZycsICctaW1hZScsICc8aW5maWxlLm1hZT4nLCAnLW9tYWUnLCAnPG91dGZpbGUubWFlPic=

> <r_lp_tautomer_probability>
1

> <r_epik_Ionization_Penalty>
0.000532935

> <r_epik_Ionization_Penalty_Charging>
0.000532935

> <r_epik_Ionization_Penalty_Neutral>
3.88228e-13

> <r_epik_State_Penalty>
0.000332992

> <r_epik_Charging_Adjusted_Penalty>
0.000865928

> <i_epik_Tot_Q>
1

> <i_epik_Tot_abs_Q>
1

> <r_epik_Metal_State_Penalty>
-0

> <b_epik_Metal_Only>
0

> <s_lp_Force_Field>
OPLS_2005

> <r_lp_Energy>
6.62541

> <b_lp_Chiralities_Consistent>
1

> <s_lp_Variant>
AV-unprocessed.smi:985-1

> <Gold.Version>
5.8.1

> <Gold.Id.Protein>
6NUR|6NUR_protein|mol2

> <Gold.PLP.Fitness>
33.9597

> <Gold.PLP.PLP>
-22.3542

> <Gold.PLP.part.hbond>
-3.0000

> <Gold.PLP.part.metal>
0.0000

> <Gold.PLP.part.buried>
-2.9217

> <Gold.PLP.part.nonpolar>
-17.0229

> <Gold.PLP.part.repulsive>
0.1161

> <Gold.PLP.ligand.clash>
0.0000

> <Gold.PLP.ligand.torsion>
0.0378

> <Gold.PLP.Chemscore.Hbond>
3.8793

> <Gold.PLP.Chemscore.CHOScore>
0.0000

> <Gold.PLP.Chemscore.Metal>
0.0000

> <Gold.Chemscore.Hbonds>
donor molecule, donor type, donor heavy atom, donor atom, acceptor molecule, acceptor atom, score
      L1  H     9    23       P1  7948  1.89
      L1  H     9    26       P1  7957  0.99
      P1  H  7997  8008       L1    12  0.95

> <Gold.PLP.Chemscore.Internal.Correction>
0.0432

> <Gold.Rescore>
     Score         DG    S(hbond)    S(metal)    S(lipo)     H(rot)  DE(clash)    DE(int)     intcor
     16.69     -16.72       2.72        0.00      40.24       1.00       0.01       0.03       ----

> <Gold.Chemscore.Fitness>
16.6891

> <Gold.Chemscore.DG>
-16.7234

> <Gold.Chemscore.ZeroCoef>
-5.4800

> <Gold.Chemscore.Hbond>
2.7233

> <Gold.Chemscore.Metal>
0.0000

> <Gold.Chemscore.Lipo>
40.2359

> <Gold.Chemscore.Internal_Hbond>
0.0000

> <Gold.Chemscore.DEClash>
0.0089

> <Gold.Chemscore.DEInternal>
0.0254

> <Gold.Chemscore.Rot>
1.0000

> <Gold.Chemscore.Internal.Correction>
   9.000000E+99

> <Gold.Chemscore.Hbonds>
donor molecule, donor type, donor heavy atom, donor atom, acceptor molecule, acceptor atom, score
      L1  H     9    23       P1  7948  0.90
      L1  H     9    26       P1  7957  0.92
      P1  H  7997  8008       L1    12  0.21

> <Gold.Chemscore.Hbond.Weighted>
-9.0958

> <Gold.Chemscore.Metal.Weighted>
-0.0000

> <Gold.Chemscore.Lipo.Weighted>
-4.7076

> <Gold.Chemscore.Internal_Hbond.Weighted>
0.0000

> <Gold.Chemscore.DEClash.Weighted>
0.0089

> <Gold.Chemscore.DEInternal.Weighted>
0.0254

> <Gold.Chemscore.Rot.Weighted>
2.5600

> <Gold.Chemscore.Internal.Correction.Weighted>
   9.000000E+99

> <Gold.Protein.RotatedTorsions>
[ 6907 6896 6895 6894 ] final  -52.68 input  -60.11 | X-H torsion
[ 7974 7965 7964 7962 ] final -100.95 input  175.53 | X-H torsion
[ 8008 7997 7996 7995 ] final  -58.33 input   59.86 | X-H torsion
[ 10167 10162 10161 10158 ] final  -79.18 input  -65.29 | X-H torsion
[ 10718 10713 10712 10709 ] final   50.79 input   66.30 | X-H torsion
[ 10763 10752 10751 10750 ] final  169.69 input  -60.55 | X-H torsion
[ 11005 11000 10999 10996 ] final -164.83 input  -57.11 | X-H torsion

> <Gold.Protein.ActiveResidues>
 VAL166  LYS551  ARG553  GLY616  TRP617  ASP618  TYR619  PRO620  LYS621  CYS622 
 ASP623  PHE694  ASN695  SER759  ASP760  ASP761  ALA762  ILE779  LEU786  VAL792 
 PHE793  MET794  SER795  GLU796  ALA797  LYS798  CYS799  TRP800  GLU811  SER814 

> <Gold.Protein.RotatedAtoms>
  150.8496  134.7816  159.6997 H   0  0  0  0  0  0  0  0  0  0  0  0  # atno 6907 bound_to 6896
  152.4564  134.5278  159.9812 H   0  0  0  0  0  0  0  0  0  0  0  0  # atno 6908 bound_to 6896
  151.5402  133.3396  159.2970 H   0  0  0  0  0  0  0  0  0  0  0  0  # atno 6909 bound_to 6896
  145.2879  140.9344  143.2895 H   0  0  0  0  0  0  0  0  0  0  0  0  # atno 7974 bound_to 7965
  154.4304  140.1086  156.5940 H   0  0  0  0  0  0  0  0  0  0  0  0  # atno 8008 bound_to 7997
  155.5981  140.3493  155.4567 H   0  0  0  0  0  0  0  0  0  0  0  0  # atno 8009 bound_to 7997
  156.0194  140.1236  157.0362 H   0  0  0  0  0  0  0  0  0  0  0  0  # atno 8010 bound_to 7997
  140.4616  143.2452  151.8339 H   0  0  0  0  0  0  0  0  0  0  0  0  # atno 10167 bound_to 10162
  157.4919  130.8381  149.8213 H   0  0  0  0  0  0  0  0  0  0  0  0  # atno 10718 bound_to 10713
  154.3868  135.2753  155.2179 H   0  0  0  0  0  0  0  0  0  0  0  0  # atno 10763 bound_to 10752
  154.4262  135.5988  153.6044 H   0  0  0  0  0  0  0  0  0  0  0  0  # atno 10764 bound_to 10752
  152.9833  135.5984  154.4117 H   0  0  0  0  0  0  0  0  0  0  0  0  # atno 10765 bound_to 10752
  140.5825  134.5127  157.5180 H   0  0  0  0  0  0  0  0  0  0  0  0  # atno 11005 bound_to 11000
  144.9198  139.4426  143.6547 LP  0  0  0  0  0  0  0  0  0  0  0  0  # atno 17320 bound_to 7965
  146.3195  139.8052  142.8957 LP  0  0  0  0  0  0  0  0  0  0  0  0  # atno 17321 bound_to 7965
  139.4807  144.5000  151.9073 LP  0  0  0  0  0  0  0  0  0  0  0  0  # atno 17342 bound_to 10162
  140.4086  144.2399  150.5889 LP  0  0  0  0  0  0  0  0  0  0  0  0  # atno 17343 bound_to 10162
  156.0178  130.3807  150.2055 LP  0  0  0  0  0  0  0  0  0  0  0  0  # atno 17370 bound_to 10713
  157.0244  130.9989  151.3330 LP  0  0  0  0  0  0  0  0  0  0  0  0  # atno 17371 bound_to 10713
  139.9311  134.7963  156.0930 LP  0  0  0  0  0  0  0  0  0  0  0  0  # atno 17394 bound_to 11000
  141.0987  133.6685  156.2704 LP  0  0  0  0  0  0  0  0  0  0  0  0  # atno 17395 bound_to 11000

$$$$
