AV-unprocessed.smi:2119|AV-procd|sdf|8634|dock4
  -GOLD-   2272011383D 1   1.00000     0.00000
 Structure written by MMmdl.
 48 50  0  0  0  0  0  0  0  0  2 V2000
  145.6981  138.5925  154.4883 O   0  0  0  0  0  0  0  0  0  0  0  0
  146.5637  137.9788  153.8644 C   0  0  0  0  0  0  0  0  0  0  0  0
  146.3113  136.8743  153.1488 N   0  0  0  0  0  0  0  0  0  0  0  0
  145.0017  136.2448  153.0257 C   0  0  0  0  0  0  0  0  0  0  0  0
  144.6205  135.8701  151.5645 C   0  0  2  0  0  0  0  0  0  0  0  0
  143.1621  136.2466  151.1770 C   0  0  2  0  0  0  0  0  0  0  0  0
  142.8968  137.7437  151.1353 C   0  0  0  0  0  0  0  0  0  0  0  0
  141.3755  137.8058  151.1814 C   0  0  0  0  0  0  0  0  0  0  0  0
  140.9803  136.7089  151.9945 O   0  0  0  0  0  0  0  0  0  0  0  0
  142.0726  135.8117  152.1671 C   0  0  0  0  0  0  0  0  0  0  0  0
  144.8652  134.4239  151.2835 N   0  3  0  0  0  0  0  0  0  0  0  0
  144.8089  134.0672  149.8448 C   0  0  0  0  0  0  0  0  0  0  0  0
  144.8701  132.5396  149.6793 C   0  0  0  0  0  0  0  0  0  0  0  0
  146.0476  132.0362  150.2999 O   0  0  0  0  0  0  0  0  0  0  0  0
  146.0753  132.3059  151.6968 C   0  0  0  0  0  0  0  0  0  0  0  0
  146.0624  133.8260  151.9272 C   0  0  0  0  0  0  0  0  0  0  0  0
  147.8623  138.3162  153.7963 N   0  0  0  0  0  0  0  0  0  0  0  0
  148.5314  139.3822  154.4553 C   0  0  0  0  0  0  0  0  0  0  0  0
  148.0328  140.0448  155.6031 C   0  0  0  0  0  0  0  0  0  0  0  0
  148.8006  141.0742  156.1805 C   0  0  0  0  0  0  0  0  0  0  0  0
  150.0398  141.3983  155.5952 C   0  0  0  0  0  0  0  0  0  0  0  0
  150.5336  140.7659  154.5100 N   0  0  0  0  0  0  0  0  0  0  0  0
  149.7925  139.7793  153.9623 C   0  0  0  0  0  0  0  0  0  0  0  0
  147.0779  136.4367  152.6585 H   0  0  0  0  0  0  0  0  0  0  0  0
  144.9829  135.3669  153.6722 H   0  0  0  0  0  0  0  0  0  0  0  0
  144.2740  136.9433  153.4388 H   0  0  0  0  0  0  0  0  0  0  0  0
  145.2731  136.4244  150.8886 H   0  0  0  0  0  0  0  0  0  0  0  0
  142.9191  135.8279  150.1996 H   0  0  0  0  0  0  0  0  0  0  0  0
  143.3166  138.2310  152.0167 H   0  0  0  0  0  0  0  0  0  0  0  0
  143.3046  138.2304  150.2488 H   0  0  0  0  0  0  0  0  0  0  0  0
  141.0064  138.7524  151.5768 H   0  0  0  0  0  0  0  0  0  0  0  0
  140.9584  137.6680  150.1829 H   0  0  0  0  0  0  0  0  0  0  0  0
  141.7486  134.7831  152.0086 H   0  0  0  0  0  0  0  0  0  0  0  0
  142.4225  135.9016  153.1963 H   0  0  0  0  0  0  0  0  0  0  0  0
  143.8872  134.4442  149.4002 H   0  0  0  0  0  0  0  0  0  0  0  0
  145.6371  134.5298  149.3072 H   0  0  0  0  0  0  0  0  0  0  0  0
  143.9869  132.0663  150.1114 H   0  0  0  0  0  0  0  0  0  0  0  0
  144.8866  132.2761  148.6216 H   0  0  0  0  0  0  0  0  0  0  0  0
  145.2263  131.8294  152.1899 H   0  0  0  0  0  0  0  0  0  0  0  0
  146.9781  131.8686  152.1234 H   0  0  0  0  0  0  0  0  0  0  0  0
  146.9732  134.2586  151.5119 H   0  0  0  0  0  0  0  0  0  0  0  0
  146.0642  134.0313  152.9974 H   0  0  0  0  0  0  0  0  0  0  0  0
  148.4334  137.7707  153.1675 H   0  0  0  0  0  0  0  0  0  0  0  0
  147.0918  139.7764  156.0579 H   0  0  0  0  0  0  0  0  0  0  0  0
  148.4491  141.6003  157.0559 H   0  0  0  0  0  0  0  0  0  0  0  0
  150.6536  142.1821  156.0141 H   0  0  0  0  0  0  0  0  0  0  0  0
  150.2205  139.2932  153.0975 H   0  0  0  0  0  0  0  0  0  0  0  0
  144.0735  133.9498  151.6946 H   0  0  0  0  0  0  0  0  0  0  0  0
  1  2  2  0  0  0  0
  2  3  1  0  0  0  0
  2 17  1  0  0  0  0
  3  4  1  0  0  0  0
  3 24  1  0  0  0  0
  4  5  1  0  0  0  0
  4 25  1  0  0  0  0
  4 26  1  0  0  0  0
  5  6  1  0  0  0  0
  5 11  1  0  0  0  0
  5 27  1  0  0  0  0
  6 10  1  0  0  0  0
  6  7  1  0  0  0  0
  6 28  1  0  0  0  0
  7  8  1  0  0  0  0
  7 29  1  0  0  0  0
  7 30  1  0  0  0  0
  8  9  1  0  0  0  0
  8 31  1  0  0  0  0
  8 32  1  0  0  0  0
  9 10  1  0  0  0  0
 10 33  1  0  0  0  0
 10 34  1  0  0  0  0
 11 16  1  0  0  0  0
 11 12  1  0  0  0  0
 11 48  1  0  0  0  0
 12 13  1  0  0  0  0
 12 35  1  0  0  0  0
 12 36  1  0  0  0  0
 13 14  1  0  0  0  0
 13 37  1  0  0  0  0
 13 38  1  0  0  0  0
 14 15  1  0  0  0  0
 15 16  1  0  0  0  0
 15 39  1  0  0  0  0
 15 40  1  0  0  0  0
 16 41  1  0  0  0  0
 16 42  1  0  0  0  0
 17 18  1  0  0  0  0
 17 43  1  0  0  0  0
 18 23  1  0  0  0  0
 18 19  2  0  0  0  0
 19 20  1  0  0  0  0
 19 44  1  0  0  0  0
 20 21  2  0  0  0  0
 20 45  1  0  0  0  0
 21 22  1  0  0  0  0
 21 46  1  0  0  0  0
 22 23  2  0  0  0  0
 23 47  1  0  0  0  0
M  CHG  1  11   1
M  END
> <s_m_source_file>
AV-unprocessed.smi

> <i_m_source_file_index>
2119

> <i_lp_mmshare_version>
43012

> <i_f3d_flags>
0

> <s_epik_input>
W2NIXTFuW2NIXVtjSF1bY0hdYzFbTkhdQyg9TylbTkhdW0NIMl1bQ0BIXShbQ0BASF0yW0NIMl1bQ0gyXU9bQ0gyXTIpTjNbQ0gyXVtDSDJdT1tDSDJdW0NIMl0z

> <s_epik_cmdline>
J2VwaWtfcHl0aG9uJywgJy1waCcsICc3LjAnLCAnLXRuJywgJzgnLCAnLW1hJywgJzIwMCcsICctbWV0YWxfYmluZGluZycsICctaW1hZScsICc8aW5maWxlLm1hZT4nLCAnLW9tYWUnLCAnPG91dGZpbGUubWFlPic=

> <r_epik_Ionization_Penalty>
0.987463

> <r_epik_Ionization_Penalty_Charging>
0.98326

> <r_epik_Ionization_Penalty_Neutral>
0.00420251

> <r_epik_State_Penalty>
1.01721

> <r_epik_Charging_Adjusted_Penalty>
2.00047

> <i_epik_Tot_Q>
1

> <i_epik_Tot_abs_Q>
1

> <r_epik_Metal_State_Penalty>
1.01439

> <b_epik_Metal_Only>
0

> <s_lp_Force_Field>
OPLS_2005

> <r_lp_Energy>
39.8774

> <b_lp_Chiralities_Consistent>
1

> <s_lp_Variant>
AV-unprocessed.smi:2119-5

> <Gold.Version>
5.8.1

> <Gold.Id.Protein>
6NUR|6NUR_protein|mol2

> <Gold.PLP.Fitness>
43.4294

> <Gold.PLP.PLP>
-33.5207

> <Gold.PLP.part.hbond>
-3.2225

> <Gold.PLP.part.metal>
0.0000

> <Gold.PLP.part.buried>
-6.7358

> <Gold.PLP.part.nonpolar>
-23.9092

> <Gold.PLP.part.repulsive>
0.3402

> <Gold.PLP.ligand.clash>
0.0000

> <Gold.PLP.ligand.torsion>
1.1310

> <Gold.PLP.Chemscore.Hbond>
3.0000

> <Gold.PLP.Chemscore.CHOScore>
0.9730

> <Gold.PLP.Chemscore.Metal>
0.0000

> <Gold.Chemscore.Hbonds>
donor molecule, donor type, donor heavy atom, donor atom, acceptor molecule, acceptor atom, score
      L1  H     3    24       P1  7948  0.98
      L1  H    17    43       P1  7948  0.89
      P1  H  7989  7998       L1    22  0.74
      L1  C    23    47       P1  7957  0.75

> <Gold.PLP.Chemscore.Internal.Correction>
0.2518

> <Gold.Rescore>
     Score         DG    S(hbond)    S(metal)    S(lipo)     H(rot)  DE(clash)    DE(int)     intcor
     16.84     -17.86       2.37        0.00      75.56       1.70       0.00       1.03       ----

> <Gold.Chemscore.Fitness>
16.8396

> <Gold.Chemscore.DG>
-17.8649

> <Gold.Chemscore.ZeroCoef>
-5.4800

> <Gold.Chemscore.Hbond>
2.3659

> <Gold.Chemscore.Metal>
0.0000

> <Gold.Chemscore.Lipo>
75.5566

> <Gold.Chemscore.Internal_Hbond>
0.0000

> <Gold.Chemscore.DEClash>
0.0000

> <Gold.Chemscore.DEInternal>
1.0252

> <Gold.Chemscore.Rot>
1.7021

> <Gold.Chemscore.Internal.Correction>
   9.000000E+99

> <Gold.Chemscore.Hbonds>
donor molecule, donor type, donor heavy atom, donor atom, acceptor molecule, acceptor atom, score
      L1  H     3    24       P1  7948  0.91
      L1  H    17    43       P1  7948  0.87
      P1  H  7989  7998       L1    22  0.22

> <Gold.Chemscore.Hbond.Weighted>
-7.9022

> <Gold.Chemscore.Metal.Weighted>
-0.0000

> <Gold.Chemscore.Lipo.Weighted>
-8.8401

> <Gold.Chemscore.Internal_Hbond.Weighted>
0.0000

> <Gold.Chemscore.DEClash.Weighted>
0.0000

> <Gold.Chemscore.DEInternal.Weighted>
1.0252

> <Gold.Chemscore.Rot.Weighted>
4.3575

> <Gold.Chemscore.Internal.Correction.Weighted>
   9.000000E+99

> <Gold.Protein.RotatedTorsions>
[ 6907 6896 6895 6894 ] final   60.23 input  -60.11 | X-H torsion
[ 7974 7965 7964 7962 ] final  -62.12 input  175.53 | X-H torsion
[ 8008 7997 7996 7995 ] final -163.27 input   59.86 | X-H torsion
[ 10167 10162 10161 10158 ] final  135.49 input  -65.29 | X-H torsion
[ 10718 10713 10712 10709 ] final -179.44 input   66.30 | X-H torsion
[ 10763 10752 10751 10750 ] final  -90.19 input  -60.55 | X-H torsion
[ 11005 11000 10999 10996 ] final  -82.32 input  -57.11 | X-H torsion

> <Gold.Protein.ActiveResidues>
 VAL166  LYS551  ARG553  GLY616  TRP617  ASP618  TYR619  PRO620  LYS621  CYS622 
 ASP623  PHE694  ASN695  SER759  ASP760  ASP761  ALA762  ILE779  LEU786  VAL792 
 PHE793  MET794  SER795  GLU796  ALA797  LYS798  CYS799  TRP800  GLU811  SER814 

> <Gold.Protein.RotatedAtoms>
  152.3984  134.6326  160.0079 H   0  0  0  0  0  0  0  0  0  0  0  0  # atno 6907 bound_to 6896
  151.6539  133.3314  159.3166 H   0  0  0  0  0  0  0  0  0  0  0  0  # atno 6908 bound_to 6896
  150.7888  134.6938  159.6556 H   0  0  0  0  0  0  0  0  0  0  0  0  # atno 6909 bound_to 6896
  145.7951  140.8687  143.0260 H   0  0  0  0  0  0  0  0  0  0  0  0  # atno 7974 bound_to 7965
  155.8189  140.0916  157.1861 H   0  0  0  0  0  0  0  0  0  0  0  0  # atno 8008 bound_to 7997
  154.3979  140.1440  156.3536 H   0  0  0  0  0  0  0  0  0  0  0  0  # atno 8009 bound_to 7997
  155.8287  140.3443  155.5561 H   0  0  0  0  0  0  0  0  0  0  0  0  # atno 8010 bound_to 7997
  139.5215  144.6514  151.5290 H   0  0  0  0  0  0  0  0  0  0  0  0  # atno 10167 bound_to 10162
  156.8592  130.9746  151.3085 H   0  0  0  0  0  0  0  0  0  0  0  0  # atno 10718 bound_to 10713
  154.6632  135.5313  153.8044 H   0  0  0  0  0  0  0  0  0  0  0  0  # atno 10763 bound_to 10752
  153.0455  135.6511  154.0839 H   0  0  0  0  0  0  0  0  0  0  0  0  # atno 10764 bound_to 10752
  154.0746  135.2951  155.3282 H   0  0  0  0  0  0  0  0  0  0  0  0  # atno 10765 bound_to 10752
  141.1663  133.7239  156.8554 H   0  0  0  0  0  0  0  0  0  0  0  0  # atno 11005 bound_to 11000
  144.6776  140.0179  143.7484 LP  0  0  0  0  0  0  0  0  0  0  0  0  # atno 17320 bound_to 7965
  145.9936  139.3034  143.0970 LP  0  0  0  0  0  0  0  0  0  0  0  0  # atno 17321 bound_to 7965
  140.6321  143.9056  150.6614 LP  0  0  0  0  0  0  0  0  0  0  0  0  # atno 17342 bound_to 10162
  140.2363  143.3697  152.1523 LP  0  0  0  0  0  0  0  0  0  0  0  0  # atno 17343 bound_to 10162
  157.6260  130.8692  149.9190 LP  0  0  0  0  0  0  0  0  0  0  0  0  # atno 17370 bound_to 10713
  156.0786  130.3676  150.0627 LP  0  0  0  0  0  0  0  0  0  0  0  0  # atno 17371 bound_to 10713
  140.1886  134.8982  157.3033 LP  0  0  0  0  0  0  0  0  0  0  0  0  # atno 17394 bound_to 11000
  140.2315  134.3903  155.7519 LP  0  0  0  0  0  0  0  0  0  0  0  0  # atno 17395 bound_to 11000

$$$$
