AV-unprocessed.smi:557|AV-procd|sdf|2918|dock5
  -GOLD-   2262023413D 1   1.00000     0.00000
 Structure written by MMmdl.
 47 49  0  0  0  0  0  0  0  0  2 V2000
  148.0272  141.6394  154.0925 C   0  0  0  0  0  0  0  0  0  0  0  0
  149.1711  140.8520  154.4997 N   0  0  0  0  0  0  0  0  0  0  0  0
  149.6018  139.6397  154.0051 C   0  0  0  0  0  0  0  0  0  0  0  0
  150.7226  139.2871  154.7028 C   0  0  0  0  0  0  0  0  0  0  0  0
  151.5731  138.0567  154.5570 C   0  0  0  0  0  0  0  0  0  0  0  0
  150.9786  136.8704  155.3270 C   0  0  0  0  0  0  0  0  0  0  0  0
  150.1167  136.0731  154.4587 N   0  0  0  0  0  0  0  0  0  0  0  0
  149.5433  134.8925  154.7465 C   0  0  0  0  0  0  0  0  0  0  0  0
  149.6987  134.3414  155.8343 O   0  0  0  0  0  0  0  0  0  0  0  0
  148.7953  134.3794  153.7550 N   0  0  0  0  0  0  0  0  0  0  0  0
  148.0580  133.1211  153.8171 C   0  0  2  0  0  0  0  0  0  0  0  0
  148.9341  131.9322  154.1946 C   0  0  0  0  0  0  0  0  0  0  0  0
  148.0979  130.7485  153.7066 C   0  0  0  0  0  0  0  0  0  0  0  0
  147.4043  131.2191  152.4862 N   0  3  1  0  0  0  0  0  0  0  0  0
  146.0560  130.6372  152.2770 C   0  0  0  0  0  0  0  0  0  0  0  0
  145.4247  131.1854  150.9845 C   0  0  0  0  0  0  0  0  0  0  0  0
  145.4477  132.7265  150.9086 C   0  0  0  0  0  0  0  0  0  0  0  0
  146.1146  133.3675  152.1363 C   0  0  0  0  0  0  0  0  0  0  0  0
  147.4762  132.7079  152.4537 C   0  0  1  0  0  0  0  0  0  0  0  0
  150.8982  140.3677  155.6138 C   0  0  0  0  0  0  0  0  0  0  0  0
  149.9686  141.3011  155.4902 N   0  0  0  0  0  0  0  0  0  0  0  0
  147.4746  141.1201  153.3090 H   0  0  0  0  0  0  0  0  0  0  0  0
  148.3610  142.6047  153.7108 H   0  0  0  0  0  0  0  0  0  0  0  0
  147.3663  141.7999  154.9447 H   0  0  0  0  0  0  0  0  0  0  0  0
  149.0805  139.1316  153.2069 H   0  0  0  0  0  0  0  0  0  0  0  0
  151.6783  137.7886  153.5050 H   0  0  0  0  0  0  0  0  0  0  0  0
  152.5848  138.2493  154.9162 H   0  0  0  0  0  0  0  0  0  0  0  0
  151.7820  136.2436  155.7180 H   0  0  0  0  0  0  0  0  0  0  0  0
  150.4013  137.2324  156.1793 H   0  0  0  0  0  0  0  0  0  0  0  0
  149.9423  136.4521  153.5388 H   0  0  0  0  0  0  0  0  0  0  0  0
  148.7323  134.9039  152.8944 H   0  0  0  0  0  0  0  0  0  0  0  0
  147.2565  133.1901  154.5561 H   0  0  0  0  0  0  0  0  0  0  0  0
  149.8819  131.9673  153.6548 H   0  0  0  0  0  0  0  0  0  0  0  0
  149.1521  131.8846  155.2620 H   0  0  0  0  0  0  0  0  0  0  0  0
  148.7018  129.8636  153.5053 H   0  0  0  0  0  0  0  0  0  0  0  0
  147.3661  130.4858  154.4725 H   0  0  0  0  0  0  0  0  0  0  0  0
  146.1345  129.5508  152.2226 H   0  0  0  0  0  0  0  0  0  0  0  0
  145.4175  130.8637  153.1324 H   0  0  0  0  0  0  0  0  0  0  0  0
  145.9598  130.7795  150.1250 H   0  0  0  0  0  0  0  0  0  0  0  0
  144.3996  130.8239  150.8967 H   0  0  0  0  0  0  0  0  0  0  0  0
  145.9850  133.0312  150.0095 H   0  0  0  0  0  0  0  0  0  0  0  0
  144.4332  133.1119  150.7980 H   0  0  0  0  0  0  0  0  0  0  0  0
  146.2440  134.4370  151.9690 H   0  0  0  0  0  0  0  0  0  0  0  0
  145.4474  133.2770  152.9947 H   0  0  0  0  0  0  0  0  0  0  0  0
  148.1864  132.9580  151.6637 H   0  0  0  0  0  0  0  0  0  0  0  0
  151.6692  140.4988  156.3587 H   0  0  0  0  0  0  0  0  0  0  0  0
  147.9656  130.9111  151.7050 H   0  0  0  0  0  0  0  0  0  0  0  0
  1  2  1  0  0  0  0
  1 22  1  0  0  0  0
  1 23  1  0  0  0  0
  1 24  1  0  0  0  0
  2 21  1  0  0  0  0
  2  3  1  0  0  0  0
  3  4  2  0  0  0  0
  3 25  1  0  0  0  0
  4  5  1  0  0  0  0
  4 20  1  0  0  0  0
  5  6  1  0  0  0  0
  5 26  1  0  0  0  0
  5 27  1  0  0  0  0
  6  7  1  0  0  0  0
  6 28  1  0  0  0  0
  6 29  1  0  0  0  0
  7  8  1  0  0  0  0
  7 30  1  0  0  0  0
  8  9  2  0  0  0  0
  8 10  1  0  0  0  0
 10 11  1  0  0  0  0
 10 31  1  0  0  0  0
 11 19  1  0  0  0  0
 11 12  1  0  0  0  0
 11 32  1  0  0  0  0
 12 13  1  0  0  0  0
 12 33  1  0  0  0  0
 12 34  1  0  0  0  0
 13 14  1  0  0  0  0
 13 35  1  0  0  0  0
 13 36  1  0  0  0  0
 14 19  1  0  0  0  0
 14 15  1  0  0  0  0
 14 47  1  0  0  0  0
 15 16  1  0  0  0  0
 15 37  1  0  0  0  0
 15 38  1  0  0  0  0
 16 17  1  0  0  0  0
 16 39  1  0  0  0  0
 16 40  1  0  0  0  0
 17 18  1  0  0  0  0
 17 41  1  0  0  0  0
 17 42  1  0  0  0  0
 18 19  1  0  0  0  0
 18 43  1  0  0  0  0
 18 44  1  0  0  0  0
 19 45  1  0  0  0  0
 20 21  2  0  0  0  0
 20 46  1  0  0  0  0
M  CHG  1  14   1
M  END
> <s_m_source_file>
AV-unprocessed.smi

> <i_m_source_file_index>
557

> <i_lp_mmshare_version>
43012

> <i_f3d_flags>
0

> <s_epik_input>
W0NIM11uMVtjSF1jKFtjSF1uMSlbQ0gyXVtDSDJdW05IXUMoPU8pW05IXVtDQEhdKFtDSDJdW0NIMl0yKVtDQEhdKE4yMylbQ0gyXVtDSDJdW0NIMl1bQ0gyXTM=

> <s_epik_cmdline>
J2VwaWtfcHl0aG9uJywgJy1waCcsICc3LjAnLCAnLXRuJywgJzgnLCAnLW1hJywgJzIwMCcsICctbWV0YWxfYmluZGluZycsICctaW1hZScsICc8aW5maWxlLm1hZT4nLCAnLW9tYWUnLCAnPG91dGZpbGUubWFlPic=

> <r_lp_tautomer_probability>
1

> <r_epik_Ionization_Penalty>
0.000956547

> <r_epik_Ionization_Penalty_Charging>
0.000435796

> <r_epik_Ionization_Penalty_Neutral>
0.000520752

> <r_epik_State_Penalty>
-0

> <r_epik_Charging_Adjusted_Penalty>
0.000435796

> <i_epik_Tot_Q>
1

> <i_epik_Tot_abs_Q>
1

> <r_epik_Metal_State_Penalty>
-0

> <b_epik_Metal_Only>
0

> <s_lp_Force_Field>
OPLS_2005

> <r_lp_Energy>
44.7682

> <b_lp_Chiralities_Consistent>
1

> <s_lp_Variant>
AV-unprocessed.smi:557-5

> <Gold.Version>
5.8.1

> <Gold.Id.Protein>
6NUR|6NUR_protein|mol2

> <Gold.PLP.Fitness>
51.3261

> <Gold.PLP.PLP>
-42.1412

> <Gold.PLP.part.hbond>
-3.6856

> <Gold.PLP.part.metal>
0.0000

> <Gold.PLP.part.buried>
-0.1371

> <Gold.PLP.part.nonpolar>
-37.7555

> <Gold.PLP.part.repulsive>
0.1920

> <Gold.PLP.ligand.clash>
0.0000

> <Gold.PLP.ligand.torsion>
0.6159

> <Gold.PLP.Chemscore.Hbond>
2.8352

> <Gold.PLP.Chemscore.CHOScore>
0.6317

> <Gold.PLP.Chemscore.Metal>
0.0000

> <Gold.Chemscore.Hbonds>
donor molecule, donor type, donor heavy atom, donor atom, acceptor molecule, acceptor atom, score
      L1  H     7    30       P1  7948  0.79
      L1  H    10    31       P1  7948  1.00
      L1  H    14    47       P1 10747  1.00
      L1  C     3    25       P1  7957  0.63

> <Gold.PLP.Chemscore.Internal.Correction>
0.0159

> <Gold.Rescore>
     Score         DG    S(hbond)    S(metal)    S(lipo)     H(rot)  DE(clash)    DE(int)     intcor
     18.86     -20.67       2.61        0.00      90.38       1.60       0.09       1.72       ----

> <Gold.Chemscore.Fitness>
18.8582

> <Gold.Chemscore.DG>
-20.6679

> <Gold.Chemscore.ZeroCoef>
-5.4800

> <Gold.Chemscore.Hbond>
2.6089

> <Gold.Chemscore.Metal>
0.0000

> <Gold.Chemscore.Lipo>
90.3844

> <Gold.Chemscore.Internal_Hbond>
0.0000

> <Gold.Chemscore.DEClash>
0.0930

> <Gold.Chemscore.DEInternal>
1.7168

> <Gold.Chemscore.Rot>
1.6018

> <Gold.Chemscore.Internal.Correction>
   9.000000E+99

> <Gold.Chemscore.Hbonds>
donor molecule, donor type, donor heavy atom, donor atom, acceptor molecule, acceptor atom, score
      L1  H     7    30       P1  7948  0.13
      L1  H    10    31       P1  7948  0.25
      L1  H    14    47       P1 10747  1.00

> <Gold.Chemscore.Hbond.Weighted>
-8.7136

> <Gold.Chemscore.Metal.Weighted>
-0.0000

> <Gold.Chemscore.Lipo.Weighted>
-10.5750

> <Gold.Chemscore.Internal_Hbond.Weighted>
0.0000

> <Gold.Chemscore.DEClash.Weighted>
0.0930

> <Gold.Chemscore.DEInternal.Weighted>
1.7168

> <Gold.Chemscore.Rot.Weighted>
4.1006

> <Gold.Chemscore.Internal.Correction.Weighted>
   9.000000E+99

> <Gold.Protein.RotatedTorsions>
[ 6907 6896 6895 6894 ] final -159.11 input  -60.11 | X-H torsion
[ 7974 7965 7964 7962 ] final  113.22 input  175.53 | X-H torsion
[ 8008 7997 7996 7995 ] final  -72.88 input   59.86 | X-H torsion
[ 10167 10162 10161 10158 ] final   98.58 input  -65.29 | X-H torsion
[ 10718 10713 10712 10709 ] final  116.64 input   66.30 | X-H torsion
[ 10763 10752 10751 10750 ] final -168.23 input  -60.55 | X-H torsion
[ 11005 11000 10999 10996 ] final    8.61 input  -57.11 | X-H torsion

> <Gold.Protein.ActiveResidues>
 VAL166  LYS551  ARG553  GLY616  TRP617  ASP618  TYR619  PRO620  LYS621  CYS622 
 ASP623  PHE694  ASN695  SER759  ASP760  ASP761  ALA762  ILE779  LEU786  VAL792 
 PHE793  MET794  SER795  GLU796  ALA797  LYS798  CYS799  TRP800  GLU811  SER814 

> <Gold.Protein.RotatedAtoms>
  151.3285  133.4010  159.2660 H   0  0  0  0  0  0  0  0  0  0  0  0  # atno 6907 bound_to 6896
  150.9975  134.9296  159.7945 H   0  0  0  0  0  0  0  0  0  0  0  0  # atno 6908 bound_to 6896
  152.5265  134.3250  159.9215 H   0  0  0  0  0  0  0  0  0  0  0  0  # atno 6909 bound_to 6896
  145.2197  139.2868  143.4225 H   0  0  0  0  0  0  0  0  0  0  0  0  # atno 7974 bound_to 7965
  154.5202  140.0789  156.8157 H   0  0  0  0  0  0  0  0  0  0  0  0  # atno 8008 bound_to 7997
  155.3593  140.3417  155.4222 H   0  0  0  0  0  0  0  0  0  0  0  0  # atno 8009 bound_to 7997
  156.1672  140.1608  156.8497 H   0  0  0  0  0  0  0  0  0  0  0  0  # atno 8010 bound_to 7997
  139.7696  144.6927  151.0175 H   0  0  0  0  0  0  0  0  0  0  0  0  # atno 10167 bound_to 10162
  157.6147  131.1028  150.7502 H   0  0  0  0  0  0  0  0  0  0  0  0  # atno 10718 bound_to 10713
  154.6650  135.2930  154.9817 H   0  0  0  0  0  0  0  0  0  0  0  0  # atno 10763 bound_to 10752
  154.0864  135.6597  153.4849 H   0  0  0  0  0  0  0  0  0  0  0  0  # atno 10764 bound_to 10752
  153.0452  135.5209  154.7618 H   0  0  0  0  0  0  0  0  0  0  0  0  # atno 10765 bound_to 10752
  140.5350  134.0429  155.7885 H   0  0  0  0  0  0  0  0  0  0  0  0  # atno 11005 bound_to 11000
  146.3379  140.2499  142.8598 LP  0  0  0  0  0  0  0  0  0  0  0  0  # atno 17320 bound_to 7965
  144.9777  140.8430  143.5416 LP  0  0  0  0  0  0  0  0  0  0  0  0  # atno 17321 bound_to 7965
  140.7813  143.4604  151.0286 LP  0  0  0  0  0  0  0  0  0  0  0  0  # atno 17342 bound_to 10162
  139.8288  143.7719  152.3179 LP  0  0  0  0  0  0  0  0  0  0  0  0  # atno 17343 bound_to 10162
  156.7872  130.4878  149.5391 LP  0  0  0  0  0  0  0  0  0  0  0  0  # atno 17370 bound_to 10713
  156.1265  130.6147  151.0270 LP  0  0  0  0  0  0  0  0  0  0  0  0  # atno 17371 bound_to 10713
  141.1260  133.9383  157.2635 LP  0  0  0  0  0  0  0  0  0  0  0  0  # atno 17394 bound_to 11000
  139.9534  135.0171  156.9058 LP  0  0  0  0  0  0  0  0  0  0  0  0  # atno 17395 bound_to 11000

$$$$
