AV-unprocessed.smi:691|AV-procd|sdf|3366|dock9
  -GOLD-   22720 0343D 1   1.00000     0.00000
 Structure written by MMmdl.
 37 38  0  0  0  0  0  0  0  0  1 V2000
  146.6787  140.4456  154.2703 C   0  0  0  0  0  0  0  0  0  0  0  0
  147.2398  139.2331  153.4902 C   0  0  1  0  0  0  0  0  0  0  0  0
  146.8588  139.3703  151.9927 C   0  0  0  0  0  0  0  0  0  0  0  0
  147.2783  138.2493  151.2407 O   0  0  0  0  0  0  0  0  0  0  0  0
  148.7682  139.1872  153.6656 C   0  0  0  0  0  0  0  0  0  0  0  0
  149.0247  138.5125  155.0180 C   0  0  0  0  0  0  0  0  0  0  0  0
  147.7656  137.6946  155.3365 C   0  0  0  0  0  0  0  0  0  0  0  0
  146.7930  137.9073  154.1631 C   0  0  2  0  0  0  0  0  0  0  0  0
  146.8792  136.7594  153.2562 N   0  0  0  0  0  0  0  0  0  0  0  0
  145.8835  135.9125  152.9581 C   0  0  0  0  0  0  0  0  0  0  0  0
  144.7508  135.9946  153.4320 O   0  0  0  0  0  0  0  0  0  0  0  0
  146.2878  134.9913  152.0669 N   0  0  0  0  0  0  0  0  0  0  0  0
  145.5377  133.9372  151.4784 C   0  0  0  0  0  0  0  0  0  0  0  0
  146.0559  133.0171  150.5350 C   0  0  0  0  0  0  0  0  0  0  0  0
  145.2030  132.0247  150.0145 C   0  0  0  0  0  0  0  0  0  0  0  0
  143.8639  131.9924  150.4491 C   0  0  0  0  0  0  0  0  0  0  0  0
  143.3527  132.8718  151.3361 N   0  0  0  0  0  0  0  0  0  0  0  0
  144.1762  133.8205  151.8303 C   0  0  0  0  0  0  0  0  0  0  0  0
  147.0316  141.3859  153.8459 H   0  0  0  0  0  0  0  0  0  0  0  0
  146.9743  140.4328  155.3194 H   0  0  0  0  0  0  0  0  0  0  0  0
  145.5890  140.4656  154.2461 H   0  0  0  0  0  0  0  0  0  0  0  0
  145.7783  139.4715  151.8863 H   0  0  0  0  0  0  0  0  0  0  0  0
  147.2930  140.2665  151.5488 H   0  0  0  0  0  0  0  0  0  0  0  0
  147.7165  137.6442  151.8194 H   0  0  0  0  0  0  0  0  0  0  0  0
  149.2126  138.5741  152.8804 H   0  0  0  0  0  0  0  0  0  0  0  0
  149.2330  140.1717  153.5998 H   0  0  0  0  0  0  0  0  0  0  0  0
  149.9176  137.8874  154.9846 H   0  0  0  0  0  0  0  0  0  0  0  0
  149.1836  139.2639  155.7924 H   0  0  0  0  0  0  0  0  0  0  0  0
  147.9960  136.6411  155.5037 H   0  0  0  0  0  0  0  0  0  0  0  0
  147.3178  138.0664  156.2590 H   0  0  0  0  0  0  0  0  0  0  0  0
  145.7742  138.0035  154.5422 H   0  0  0  0  0  0  0  0  0  0  0  0
  147.7724  136.6081  152.8112 H   0  0  0  0  0  0  0  0  0  0  0  0
  147.2288  135.0980  151.7170 H   0  0  0  0  0  0  0  0  0  0  0  0
  147.0776  133.0589  150.1912 H   0  0  0  0  0  0  0  0  0  0  0  0
  145.5666  131.3067  149.2942 H   0  0  0  0  0  0  0  0  0  0  0  0
  143.1838  131.2444  150.0695 H   0  0  0  0  0  0  0  0  0  0  0  0
  143.7321  134.5074  152.5362 H   0  0  0  0  0  0  0  0  0  0  0  0
  1  2  1  0  0  0  0
  1 19  1  0  0  0  0
  1 20  1  0  0  0  0
  1 21  1  0  0  0  0
  2  8  1  0  0  0  0
  2  3  1  0  0  0  0
  2  5  1  0  0  0  0
  3  4  1  0  0  0  0
  3 22  1  0  0  0  0
  3 23  1  0  0  0  0
  4 24  1  0  0  0  0
  5  6  1  0  0  0  0
  5 25  1  0  0  0  0
  5 26  1  0  0  0  0
  6  7  1  0  0  0  0
  6 27  1  0  0  0  0
  6 28  1  0  0  0  0
  7  8  1  0  0  0  0
  7 29  1  0  0  0  0
  7 30  1  0  0  0  0
  8  9  1  0  0  0  0
  8 31  1  0  0  0  0
  9 10  1  0  0  0  0
  9 32  1  0  0  0  0
 10 11  2  0  0  0  0
 10 12  1  0  0  0  0
 12 13  1  0  0  0  0
 12 33  1  0  0  0  0
 13 18  1  0  0  0  0
 13 14  2  0  0  0  0
 14 15  1  0  0  0  0
 14 34  1  0  0  0  0
 15 16  2  0  0  0  0
 15 35  1  0  0  0  0
 16 17  1  0  0  0  0
 16 36  1  0  0  0  0
 17 18  2  0  0  0  0
 18 37  1  0  0  0  0
M  END
> <s_m_source_file>
AV-unprocessed.smi

> <i_m_source_file_index>
691

> <i_lp_mmshare_version>
43012

> <i_f3d_flags>
0

> <s_epik_input>
W09IXVtDSDJdW0NAXTEoW0NIM10pW0NIMl1bQ0gyXVtDSDJdW0NASF0xW05IXUMoPU8pW05IXWMyW2NIXVtjSF1bY0hdbltjSF0y

> <s_epik_cmdline>
J2VwaWtfcHl0aG9uJywgJy1waCcsICc3LjAnLCAnLXRuJywgJzgnLCAnLW1hJywgJzIwMCcsICctbWV0YWxfYmluZGluZycsICctaW1hZScsICc8aW5maWxlLm1hZT4nLCAnLW9tYWUnLCAnPG91dGZpbGUubWFlPic=

> <r_epik_Ionization_Penalty>
0.00496828

> <r_epik_Ionization_Penalty_Charging>
0

> <r_epik_Ionization_Penalty_Neutral>
0.00496828

> <r_epik_State_Penalty>
0.00358054

> <r_epik_Charging_Adjusted_Penalty>
0.00358054

> <i_epik_Tot_Q>
0

> <i_epik_Tot_abs_Q>
0

> <r_epik_Metal_State_Penalty>
-0

> <b_epik_Metal_Only>
0

> <s_lp_Force_Field>
OPLS_2005

> <r_lp_Energy>
29.635

> <b_lp_Chiralities_Consistent>
1

> <s_lp_Variant>
AV-unprocessed.smi:691-3

> <Gold.Version>
5.8.1

> <Gold.Id.Protein>
6NUR|6NUR_protein|mol2

> <Gold.PLP.Fitness>
42.0117

> <Gold.PLP.PLP>
-28.1388

> <Gold.PLP.part.hbond>
-5.0000

> <Gold.PLP.part.metal>
0.0000

> <Gold.PLP.part.buried>
-1.1853

> <Gold.PLP.part.nonpolar>
-22.8311

> <Gold.PLP.part.repulsive>
0.4858

> <Gold.PLP.ligand.clash>
0.0000

> <Gold.PLP.ligand.torsion>
0.0379

> <Gold.PLP.Chemscore.Hbond>
3.6731

> <Gold.PLP.Chemscore.CHOScore>
0.9713

> <Gold.PLP.Chemscore.Metal>
0.0000

> <Gold.Chemscore.Hbonds>
donor molecule, donor type, donor heavy atom, donor atom, acceptor molecule, acceptor atom, score
      L1  H     4    24       P1  7948  0.83
      L1  H     9    32       P1  7948  1.00
      L1  H    12    33       P1  7948  0.91
      P1  H  7954  7966       L1     4  0.80
      L1  C    16    36       P1 10952  0.88

> <Gold.PLP.Chemscore.Internal.Correction>
0.0156

> <Gold.Rescore>
     Score         DG    S(hbond)    S(metal)    S(lipo)     H(rot)  DE(clash)    DE(int)     intcor
     17.20     -19.90       3.22        0.00      70.31       1.78       1.17       1.53       ----

> <Gold.Chemscore.Fitness>
17.1954

> <Gold.Chemscore.DG>
-19.9035

> <Gold.Chemscore.ZeroCoef>
-5.4800

> <Gold.Chemscore.Hbond>
3.2228

> <Gold.Chemscore.Metal>
0.0000

> <Gold.Chemscore.Lipo>
70.3072

> <Gold.Chemscore.Internal_Hbond>
0.0000

> <Gold.Chemscore.DEClash>
1.1749

> <Gold.Chemscore.DEInternal>
1.5333

> <Gold.Chemscore.Rot>
1.7838

> <Gold.Chemscore.Internal.Correction>
   9.000000E+99

> <Gold.Chemscore.Hbonds>
donor molecule, donor type, donor heavy atom, donor atom, acceptor molecule, acceptor atom, score
      L1  H     4    24       P1  7948  0.83
      L1  H     9    32       P1  7948  0.96
      L1  H    12    33       P1  7948  0.78
      P1  H  7954  7966       L1     4  0.12

> <Gold.Chemscore.Hbond.Weighted>
-10.7642

> <Gold.Chemscore.Metal.Weighted>
-0.0000

> <Gold.Chemscore.Lipo.Weighted>
-8.2259

> <Gold.Chemscore.Internal_Hbond.Weighted>
0.0000

> <Gold.Chemscore.DEClash.Weighted>
1.1749

> <Gold.Chemscore.DEInternal.Weighted>
1.5333

> <Gold.Chemscore.Rot.Weighted>
4.5666

> <Gold.Chemscore.Internal.Correction.Weighted>
   9.000000E+99

> <Gold.Protein.RotatedTorsions>
[ 6907 6896 6895 6894 ] final  151.19 input  -60.11 | X-H torsion
[ 7974 7965 7964 7962 ] final  -39.30 input  175.53 | X-H torsion
[ 8008 7997 7996 7995 ] final  -29.89 input   59.86 | X-H torsion
[ 10167 10162 10161 10158 ] final -149.83 input  -65.29 | X-H torsion
[ 10718 10713 10712 10709 ] final   29.45 input   66.30 | X-H torsion
[ 10763 10752 10751 10750 ] final  134.64 input  -60.55 | X-H torsion
[ 11005 11000 10999 10996 ] final  175.72 input  -57.11 | X-H torsion

> <Gold.Protein.ActiveResidues>
 VAL166  LYS551  ARG553  GLY616  TRP617  ASP618  TYR619  PRO620  LYS621  CYS622 
 ASP623  PHE694  ASN695  SER759  ASP760  ASP761  ALA762  ILE779  LEU786  VAL792 
 PHE793  MET794  SER795  GLU796  ALA797  LYS798  CYS799  TRP800  GLU811  SER814 

> <Gold.Protein.RotatedAtoms>
  152.1040  133.4265  159.4600 H   0  0  0  0  0  0  0  0  0  0  0  0  # atno 6907 bound_to 6896
  150.6865  134.2726  159.4604 H   0  0  0  0  0  0  0  0  0  0  0  0  # atno 6908 bound_to 6896
  152.0589  134.9606  160.0625 H   0  0  0  0  0  0  0  0  0  0  0  0  # atno 6909 bound_to 6896
  146.0408  140.6611  142.9088 H   0  0  0  0  0  0  0  0  0  0  0  0  # atno 7974 bound_to 7965
  154.4272  140.1806  156.1319 H   0  0  0  0  0  0  0  0  0  0  0  0  # atno 8008 bound_to 7997
  156.0061  140.3355  155.6868 H   0  0  0  0  0  0  0  0  0  0  0  0  # atno 8009 bound_to 7997
  155.6176  140.0656  157.2678 H   0  0  0  0  0  0  0  0  0  0  0  0  # atno 8010 bound_to 7997
  139.7408  143.8665  152.2562 H   0  0  0  0  0  0  0  0  0  0  0  0  # atno 10167 bound_to 10162
  157.2467  130.7095  149.6385 H   0  0  0  0  0  0  0  0  0  0  0  0  # atno 10718 bound_to 10713
  153.8269  135.3109  155.3415 H   0  0  0  0  0  0  0  0  0  0  0  0  # atno 10763 bound_to 10752
  154.7989  135.4738  154.0231 H   0  0  0  0  0  0  0  0  0  0  0  0  # atno 10764 bound_to 10752
  153.1658  135.6869  153.8767 H   0  0  0  0  0  0  0  0  0  0  0  0  # atno 10765 bound_to 10752
  140.3653  134.7077  157.4357 H   0  0  0  0  0  0  0  0  0  0  0  0  # atno 11005 bound_to 11000
  144.7074  140.3905  143.7107 LP  0  0  0  0  0  0  0  0  0  0  0  0  # atno 17320 bound_to 7965
  145.6887  139.1634  143.2659 LP  0  0  0  0  0  0  0  0  0  0  0  0  # atno 17321 bound_to 7965
  139.8615  144.7115  150.9094 LP  0  0  0  0  0  0  0  0  0  0  0  0  # atno 17342 bound_to 10162
  140.7785  143.3813  151.1471 LP  0  0  0  0  0  0  0  0  0  0  0  0  # atno 17343 bound_to 10162
  155.9668  130.4441  150.5446 LP  0  0  0  0  0  0  0  0  0  0  0  0  # atno 17370 bound_to 10713
  157.3321  131.0701  151.1852 LP  0  0  0  0  0  0  0  0  0  0  0  0  # atno 17371 bound_to 10713
  140.0594  134.6017  155.8766 LP  0  0  0  0  0  0  0  0  0  0  0  0  # atno 17394 bound_to 11000
  141.1971  133.6595  156.5727 LP  0  0  0  0  0  0  0  0  0  0  0  0  # atno 17395 bound_to 11000

$$$$
