AV-unprocessed.smi:2492|AV-procd|sdf|9814|dock4
  -GOLD-   2272013443D 1   1.00000     0.00000
 Structure written by MMmdl.
 33 34  0  0  0  0  0  0  0  0  1 V2000
  153.6676  141.9403  161.3500 C   0  0  0  0  0  0  0  0  0  0  0  0
  152.5506  143.2177  161.9866 S   0  0  0  0  0  0  0  0  0  0  0  0
  151.8112  143.8021  160.4346 C   0  0  1  0  0  0  0  0  0  0  0  0
  152.0433  145.2901  160.1769 C   0  0  0  0  0  0  0  0  0  0  0  0
  151.8208  145.4535  158.6718 C   0  0  0  0  0  0  0  0  0  0  0  0
  152.1807  144.0951  158.0333 C   0  0  2  0  0  0  0  0  0  0  0  0
  151.1126  143.6005  157.1683 N   0  0  0  0  0  0  0  0  0  0  0  0
  150.9974  142.3366  156.7356 C   0  0  0  0  0  0  0  0  0  0  0  0
  151.7948  141.4436  157.0229 O   0  0  0  0  0  0  0  0  0  0  0  0
  149.9136  142.1828  155.9586 N   0  0  0  0  0  0  0  0  0  0  0  0
  149.4884  140.9940  155.3186 C   0  0  0  0  0  0  0  0  0  0  0  0
  148.2328  140.8100  154.9226 N   0  0  0  0  0  0  0  0  0  0  0  0
  148.3181  139.5623  154.3825 C   0  0  0  0  0  0  0  0  0  0  0  0
  147.1505  138.8652  153.7723 C   0  0  0  0  0  0  0  0  0  0  0  0
  149.5165  138.9904  154.4212 N   0  0  0  0  0  0  0  0  0  0  0  0
  150.3160  139.9531  155.0552 O   0  0  0  0  0  0  0  0  0  0  0  0
  152.4178  143.1250  159.2040 C   0  0  0  0  0  0  0  0  0  0  0  0
  154.2336  141.4959  162.1687 H   0  0  0  0  0  0  0  0  0  0  0  0
  154.3715  142.3703  160.6372 H   0  0  0  0  0  0  0  0  0  0  0  0
  153.1052  141.1503  160.8525 H   0  0  0  0  0  0  0  0  0  0  0  0
  150.7391  143.6008  160.4548 H   0  0  0  0  0  0  0  0  0  0  0  0
  151.3837  145.9291  160.7645 H   0  0  0  0  0  0  0  0  0  0  0  0
  153.0722  145.5557  160.4243 H   0  0  0  0  0  0  0  0  0  0  0  0
  150.7733  145.7007  158.4919 H   0  0  0  0  0  0  0  0  0  0  0  0
  152.4168  146.2693  158.2611 H   0  0  0  0  0  0  0  0  0  0  0  0
  153.1016  144.1805  157.4533 H   0  0  0  0  0  0  0  0  0  0  0  0
  150.4127  144.2693  156.8820 H   0  0  0  0  0  0  0  0  0  0  0  0
  149.3366  142.9961  155.8048 H   0  0  0  0  0  0  0  0  0  0  0  0
  147.2127  137.7900  153.9432 H   0  0  0  0  0  0  0  0  0  0  0  0
  147.1253  139.0454  152.6975 H   0  0  0  0  0  0  0  0  0  0  0  0
  146.2185  139.2276  154.2066 H   0  0  0  0  0  0  0  0  0  0  0  0
  153.4923  143.0019  159.3476 H   0  0  0  0  0  0  0  0  0  0  0  0
  152.0035  142.1303  159.0342 H   0  0  0  0  0  0  0  0  0  0  0  0
  1  2  1  0  0  0  0
  1 18  1  0  0  0  0
  1 19  1  0  0  0  0
  1 20  1  0  0  0  0
  2  3  1  0  0  0  0
  3 17  1  0  0  0  0
  3  4  1  0  0  0  0
  3 21  1  0  0  0  0
  4  5  1  0  0  0  0
  4 22  1  0  0  0  0
  4 23  1  0  0  0  0
  5  6  1  0  0  0  0
  5 24  1  0  0  0  0
  5 25  1  0  0  0  0
  6  7  1  0  0  0  0
  6 17  1  0  0  0  0
  6 26  1  0  0  0  0
  7  8  1  0  0  0  0
  7 27  1  0  0  0  0
  8  9  2  0  0  0  0
  8 10  1  0  0  0  0
 10 11  1  0  0  0  0
 10 28  1  0  0  0  0
 11 16  1  0  0  0  0
 11 12  2  0  0  0  0
 12 13  1  0  0  0  0
 13 14  1  0  0  0  0
 13 15  2  0  0  0  0
 14 29  1  0  0  0  0
 14 30  1  0  0  0  0
 14 31  1  0  0  0  0
 15 16  1  0  0  0  0
 17 32  1  0  0  0  0
 17 33  1  0  0  0  0
M  END
> <s_m_source_file>
AV-unprocessed.smi

> <i_m_source_file_index>
2492

> <i_lp_mmshare_version>
43012

> <i_f3d_flags>
0

> <s_epik_input>
W0NIM11TW0NAQEhdMVtDSDJdW0NIMl1bQ0BIXShbQ0gyXTEpW05IXUMoPU8pW05IXWMybmMoW0NIM10pbm8y

> <s_epik_cmdline>
J2VwaWtfcHl0aG9uJywgJy1waCcsICc3LjAnLCAnLXRuJywgJzgnLCAnLW1hJywgJzIwMCcsICctbWV0YWxfYmluZGluZycsICctaW1hZScsICc8aW5maWxlLm1hZT4nLCAnLW9tYWUnLCAnPG91dGZpbGUubWFlPic=

> <r_lp_tautomer_probability>
1

> <r_epik_Ionization_Penalty>
3.56659e-05

> <r_epik_Ionization_Penalty_Charging>
0

> <r_epik_Ionization_Penalty_Neutral>
3.56659e-05

> <r_epik_State_Penalty>
-0

> <r_epik_Charging_Adjusted_Penalty>
0

> <i_epik_Tot_Q>
0

> <i_epik_Tot_abs_Q>
0

> <r_epik_Metal_State_Penalty>
0.0146047

> <b_epik_Metal_Only>
0

> <s_lp_Force_Field>
OPLS_2005

> <r_lp_Energy>
12.826

> <b_lp_Chiralities_Consistent>
1

> <s_lp_Variant>
AV-unprocessed.smi:2492-4

> <Gold.Version>
5.8.1

> <Gold.Id.Protein>
6NUR|6NUR_protein|mol2

> <Gold.PLP.Fitness>
46.0396

> <Gold.PLP.PLP>
-39.1850

> <Gold.PLP.part.hbond>
-3.0000

> <Gold.PLP.part.metal>
0.0000

> <Gold.PLP.part.buried>
-4.5192

> <Gold.PLP.part.nonpolar>
-31.7408

> <Gold.PLP.part.repulsive>
0.8317

> <Gold.PLP.ligand.clash>
0.0000

> <Gold.PLP.ligand.torsion>
1.0402

> <Gold.PLP.Chemscore.Hbond>
2.9760

> <Gold.PLP.Chemscore.CHOScore>
0.0000

> <Gold.PLP.Chemscore.Metal>
0.0000

> <Gold.Chemscore.Hbonds>
donor molecule, donor type, donor heavy atom, donor atom, acceptor molecule, acceptor atom, score
      L1  H     7    27       P1  8028  0.99
      L1  H    10    28       P1  8028  1.00
      P1  H  7989  7998       L1    16  0.49

> <Gold.PLP.Chemscore.Internal.Correction>
0.0070

> <Gold.Rescore>
     Score         DG    S(hbond)    S(metal)    S(lipo)     H(rot)  DE(clash)    DE(int)     intcor
     18.09     -21.57       2.68        0.00      89.11       1.28       1.52       1.97       ----

> <Gold.Chemscore.Fitness>
18.0897

> <Gold.Chemscore.DG>
-21.5748

> <Gold.Chemscore.ZeroCoef>
-5.4800

> <Gold.Chemscore.Hbond>
2.6794

> <Gold.Chemscore.Metal>
0.0000

> <Gold.Chemscore.Lipo>
89.1140

> <Gold.Chemscore.Internal_Hbond>
0.0000

> <Gold.Chemscore.DEClash>
1.5171

> <Gold.Chemscore.DEInternal>
1.9679

> <Gold.Chemscore.Rot>
1.2815

> <Gold.Chemscore.Internal.Correction>
   9.000000E+99

> <Gold.Chemscore.Hbonds>
donor molecule, donor type, donor heavy atom, donor atom, acceptor molecule, acceptor atom, score
      L1  H     7    27       P1  8028  0.88
      L1  H    10    28       P1  8028  0.99
      P1  H  7989  7998       L1    16  0.08

> <Gold.Chemscore.Hbond.Weighted>
-8.9492

> <Gold.Chemscore.Metal.Weighted>
-0.0000

> <Gold.Chemscore.Lipo.Weighted>
-10.4263

> <Gold.Chemscore.Internal_Hbond.Weighted>
0.0000

> <Gold.Chemscore.DEClash.Weighted>
1.5171

> <Gold.Chemscore.DEInternal.Weighted>
1.9679

> <Gold.Chemscore.Rot.Weighted>
3.2808

> <Gold.Chemscore.Internal.Correction.Weighted>
   9.000000E+99

> <Gold.Protein.RotatedTorsions>
[ 6907 6896 6895 6894 ] final  112.58 input  -60.11 | X-H torsion
[ 7974 7965 7964 7962 ] final   10.59 input  175.53 | X-H torsion
[ 8008 7997 7996 7995 ] final   -7.68 input   59.86 | X-H torsion
[ 10167 10162 10161 10158 ] final -105.77 input  -65.29 | X-H torsion
[ 10718 10713 10712 10709 ] final  117.65 input   66.30 | X-H torsion
[ 10763 10752 10751 10750 ] final   53.31 input  -60.55 | X-H torsion
[ 11005 11000 10999 10996 ] final   94.93 input  -57.11 | X-H torsion

> <Gold.Protein.ActiveResidues>
 VAL166  LYS551  ARG553  GLY616  TRP617  ASP618  TYR619  PRO620  LYS621  CYS622 
 ASP623  PHE694  ASN695  SER759  ASP760  ASP761  ALA762  ILE779  LEU786  VAL792 
 PHE793  MET794  SER795  GLU796  ALA797  LYS798  CYS799  TRP800  GLU811  SER814 

> <Gold.Protein.RotatedAtoms>
  152.4908  133.8495  159.7194 H   0  0  0  0  0  0  0  0  0  0  0  0  # atno 6907 bound_to 6896
  150.9036  133.7077  159.2879 H   0  0  0  0  0  0  0  0  0  0  0  0  # atno 6908 bound_to 6896
  151.4510  135.1034  159.9750 H   0  0  0  0  0  0  0  0  0  0  0  0  # atno 6909 bound_to 6896
  146.2386  139.9611  142.8458 H   0  0  0  0  0  0  0  0  0  0  0  0  # atno 7974 bound_to 7965
  154.5815  140.2401  155.8047 H   0  0  0  0  0  0  0  0  0  0  0  0  # atno 8008 bound_to 7997
  156.2182  140.3005  155.9846 H   0  0  0  0  0  0  0  0  0  0  0  0  # atno 8009 bound_to 7997
  155.2533  140.0411  157.2979 H   0  0  0  0  0  0  0  0  0  0  0  0  # atno 8010 bound_to 7997
  140.1950  143.3863  152.1176 H   0  0  0  0  0  0  0  0  0  0  0  0  # atno 10167 bound_to 10162
  157.6082  131.1039  150.7645 H   0  0  0  0  0  0  0  0  0  0  0  0  # atno 10718 bound_to 10713
  152.9794  135.5783  154.4721 H   0  0  0  0  0  0  0  0  0  0  0  0  # atno 10763 bound_to 10752
  154.4282  135.2773  155.1932 H   0  0  0  0  0  0  0  0  0  0  0  0  # atno 10764 bound_to 10752
  154.3652  135.6180  153.5765 H   0  0  0  0  0  0  0  0  0  0  0  0  # atno 10765 bound_to 10752
  139.8794  134.8871  156.3936 H   0  0  0  0  0  0  0  0  0  0  0  0  # atno 11005 bound_to 11000
  145.1770  140.9749  143.4288 LP  0  0  0  0  0  0  0  0  0  0  0  0  # atno 17320 bound_to 7965
  144.9977  139.3628  143.6183 LP  0  0  0  0  0  0  0  0  0  0  0  0  # atno 17321 bound_to 7965
  139.5240  144.7079  151.5298 LP  0  0  0  0  0  0  0  0  0  0  0  0  # atno 17342 bound_to 10162
  140.6430  143.8851  150.6710 LP  0  0  0  0  0  0  0  0  0  0  0  0  # atno 17343 bound_to 10162
  156.8029  130.4927  149.5367 LP  0  0  0  0  0  0  0  0  0  0  0  0  # atno 17370 bound_to 10713
  156.1176  130.6086  151.0144 LP  0  0  0  0  0  0  0  0  0  0  0  0  # atno 17371 bound_to 10713
  140.9316  133.7575  156.0032 LP  0  0  0  0  0  0  0  0  0  0  0  0  # atno 17394 bound_to 11000
  140.8324  134.3163  157.5344 LP  0  0  0  0  0  0  0  0  0  0  0  0  # atno 17395 bound_to 11000

$$$$
