AV-unprocessed.smi:2407|AV-procd|sdf|9518|dock2
  -GOLD-   2272013153D 1   1.00000     0.00000
 Structure written by MMmdl.
 38 39  0  0  0  0  0  0  0  0  1 V2000
  145.9653  137.8870  156.3675 C   0  0  0  0  0  0  0  0  0  0  0  0
  146.7798  138.8999  155.6189 C   0  0  0  0  0  0  0  0  0  0  0  0
  146.6799  139.0866  154.1840 C   0  0  0  0  0  0  0  0  0  0  0  0
  147.4520  140.0171  153.5827 C   0  0  0  0  0  0  0  0  0  0  0  0
  148.3892  140.8439  154.3403 C   0  0  0  0  0  0  0  0  0  0  0  0
  149.1120  141.6939  153.8209 O   0  0  0  0  0  0  0  0  0  0  0  0
  148.3920  140.5829  155.6808 N   0  0  0  0  0  0  0  0  0  0  0  0
  149.2699  141.3184  156.5991 C   0  0  0  0  0  0  0  0  0  0  0  0
  150.7070  141.4507  156.0480 C   0  0  2  0  0  0  0  0  0  0  0  0
  151.4201  140.2881  156.4223 O   0  0  0  0  0  0  0  0  0  0  0  0
  151.4465  142.6533  156.6582 C   0  0  0  0  0  0  0  0  0  0  0  0
  151.9438  142.2817  157.9371 O   0  0  0  0  0  0  0  0  0  0  0  0
  151.9220  143.2134  158.9546 C   0  0  0  0  0  0  0  0  0  0  0  0
  151.1610  144.4096  158.9037 C   0  0  0  0  0  0  0  0  0  0  0  0
  151.1836  145.3197  159.9766 C   0  0  0  0  0  0  0  0  0  0  0  0
  151.9650  145.0490  161.1125 C   0  0  0  0  0  0  0  0  0  0  0  0
  152.7236  143.8665  161.1751 C   0  0  0  0  0  0  0  0  0  0  0  0
  152.7080  142.9451  160.1031 C   0  0  0  0  0  0  0  0  0  0  0  0
  153.5338  141.6646  160.1785 C   0  0  0  0  0  0  0  0  0  0  0  0
  153.9883  141.4364  161.4116 F   0  0  0  0  0  0  0  0  0  0  0  0
  152.7869  140.6228  159.8121 F   0  0  0  0  0  0  0  0  0  0  0  0
  154.5825  141.7538  159.3600 F   0  0  0  0  0  0  0  0  0  0  0  0
  147.6029  139.6282  156.2996 N   0  0  0  0  0  0  0  0  0  0  0  0
  145.2578  137.3840  155.7080 H   0  0  0  0  0  0  0  0  0  0  0  0
  145.3958  138.3600  157.1683 H   0  0  0  0  0  0  0  0  0  0  0  0
  146.6068  137.1257  156.8121 H   0  0  0  0  0  0  0  0  0  0  0  0
  145.9920  138.4835  153.6098 H   0  0  0  0  0  0  0  0  0  0  0  0
  147.3767  140.1553  152.5142 H   0  0  0  0  0  0  0  0  0  0  0  0
  148.8428  142.3091  156.7651 H   0  0  0  0  0  0  0  0  0  0  0  0
  149.2801  140.8518  157.5864 H   0  0  0  0  0  0  0  0  0  0  0  0
  150.6929  141.5467  154.9615 H   0  0  0  0  0  0  0  0  0  0  0  0
  152.0541  140.0966  155.7480 H   0  0  0  0  0  0  0  0  0  0  0  0
  152.2977  142.9150  156.0278 H   0  0  0  0  0  0  0  0  0  0  0  0
  150.7909  143.5242  156.7146 H   0  0  0  0  0  0  0  0  0  0  0  0
  150.5484  144.6550  158.0499 H   0  0  0  0  0  0  0  0  0  0  0  0
  150.6002  146.2273  159.9268 H   0  0  0  0  0  0  0  0  0  0  0  0
  151.9831  145.7478  161.9360 H   0  0  0  0  0  0  0  0  0  0  0  0
  153.3178  143.6764  162.0564 H   0  0  0  0  0  0  0  0  0  0  0  0
  1  2  1  0  0  0  0
  1 24  1  0  0  0  0
  1 25  1  0  0  0  0
  1 26  1  0  0  0  0
  2 23  2  0  0  0  0
  2  3  1  0  0  0  0
  3  4  2  0  0  0  0
  3 27  1  0  0  0  0
  4  5  1  0  0  0  0
  4 28  1  0  0  0  0
  5  6  2  0  0  0  0
  5  7  1  0  0  0  0
  7  8  1  0  0  0  0
  7 23  1  0  0  0  0
  8  9  1  0  0  0  0
  8 29  1  0  0  0  0
  8 30  1  0  0  0  0
  9 10  1  0  0  0  0
  9 11  1  0  0  0  0
  9 31  1  0  0  0  0
 10 32  1  0  0  0  0
 11 12  1  0  0  0  0
 11 33  1  0  0  0  0
 11 34  1  0  0  0  0
 12 13  1  0  0  0  0
 13 18  1  0  0  0  0
 13 14  2  0  0  0  0
 14 15  1  0  0  0  0
 14 35  1  0  0  0  0
 15 16  2  0  0  0  0
 15 36  1  0  0  0  0
 16 17  1  0  0  0  0
 16 37  1  0  0  0  0
 17 18  2  0  0  0  0
 17 38  1  0  0  0  0
 18 19  1  0  0  0  0
 19 20  1  0  0  0  0
 19 21  1  0  0  0  0
 19 22  1  0  0  0  0
M  END
> <s_m_source_file>
AV-unprocessed.smi

> <i_m_source_file_index>
2407

> <i_lp_mmshare_version>
43012

> <i_f3d_flags>
0

> <s_epik_input>
W0NIM11jMVtjSF1bY0hdYyg9TyluKG4xKVtDSDJdW0NASF0oW09IXSlbQ0gyXU9jMltjSF1bY0hdW2NIXVtjSF1jMkMoRikoRilG

> <s_epik_cmdline>
J2VwaWtfcHl0aG9uJywgJy1waCcsICc3LjAnLCAnLXRuJywgJzgnLCAnLW1hJywgJzIwMCcsICctbWV0YWxfYmluZGluZycsICctaW1hZScsICc8aW5maWxlLm1hZT4nLCAnLW9tYWUnLCAnPG91dGZpbGUubWFlPic=

> <r_lp_tautomer_probability>
1

> <r_epik_Ionization_Penalty>
5.91655e-06

> <r_epik_Ionization_Penalty_Charging>
5.79937e-06

> <r_epik_Ionization_Penalty_Neutral>
1.17174e-07

> <r_epik_State_Penalty>
-0

> <r_epik_Charging_Adjusted_Penalty>
5.79937e-06

> <i_epik_Tot_Q>
0

> <i_epik_Tot_abs_Q>
0

> <r_epik_Metal_State_Penalty>
-0

> <b_epik_Metal_Only>
0

> <s_lp_Force_Field>
OPLS_2005

> <r_lp_Energy>
33.5011

> <b_lp_Chiralities_Consistent>
1

> <s_lp_Variant>
AV-unprocessed.smi:2407-1

> <Gold.Version>
5.8.1

> <Gold.Id.Protein>
6NUR|6NUR_protein|mol2

> <Gold.PLP.Fitness>
41.7398

> <Gold.PLP.PLP>
-42.3499

> <Gold.PLP.part.hbond>
-1.9926

> <Gold.PLP.part.metal>
0.0000

> <Gold.PLP.part.buried>
-2.6912

> <Gold.PLP.part.nonpolar>
-37.3434

> <Gold.PLP.part.repulsive>
0.2382

> <Gold.PLP.ligand.clash>
0.0115

> <Gold.PLP.ligand.torsion>
1.5645

> <Gold.PLP.Chemscore.Hbond>
0.6400

> <Gold.PLP.Chemscore.CHOScore>
0.0000

> <Gold.PLP.Chemscore.Metal>
0.0000

> <Gold.Chemscore.Hbonds>
donor molecule, donor type, donor heavy atom, donor atom, acceptor molecule, acceptor atom, score
      P1  H  8011  8017       L1     6  0.64

> <Gold.PLP.Chemscore.Internal.Correction>
0.6104

> <Gold.Rescore>
     Score         DG    S(hbond)    S(metal)    S(lipo)     H(rot)  DE(clash)    DE(int)     intcor
      7.77     -13.79       0.70        0.00     108.01       2.60       1.29       4.73       ----

> <Gold.Chemscore.Fitness>
7.7692

> <Gold.Chemscore.DG>
-13.7884

> <Gold.Chemscore.ZeroCoef>
-5.4800

> <Gold.Chemscore.Hbond>
0.6994

> <Gold.Chemscore.Metal>
0.0000

> <Gold.Chemscore.Lipo>
108.0100

> <Gold.Chemscore.Internal_Hbond>
0.0000

> <Gold.Chemscore.DEClash>
1.2932

> <Gold.Chemscore.DEInternal>
4.7259

> <Gold.Chemscore.Rot>
2.6035

> <Gold.Chemscore.Internal.Correction>
   9.000000E+99

> <Gold.Chemscore.Hbonds>
donor molecule, donor type, donor heavy atom, donor atom, acceptor molecule, acceptor atom, score
      P1  H  8011  8017       L1     6  0.64

> <Gold.Chemscore.Hbond.Weighted>
-2.3361

> <Gold.Chemscore.Metal.Weighted>
-0.0000

> <Gold.Chemscore.Lipo.Weighted>
-12.6372

> <Gold.Chemscore.Internal_Hbond.Weighted>
0.0000

> <Gold.Chemscore.DEClash.Weighted>
1.2932

> <Gold.Chemscore.DEInternal.Weighted>
4.7259

> <Gold.Chemscore.Rot.Weighted>
6.6649

> <Gold.Chemscore.Internal.Correction.Weighted>
   9.000000E+99

> <Gold.Protein.RotatedTorsions>
[ 6907 6896 6895 6894 ] final   34.96 input  -60.11 | X-H torsion
[ 7974 7965 7964 7962 ] final    3.57 input  175.53 | X-H torsion
[ 8008 7997 7996 7995 ] final   80.53 input   59.86 | X-H torsion
[ 10167 10162 10161 10158 ] final  -23.79 input  -65.29 | X-H torsion
[ 10718 10713 10712 10709 ] final  -45.33 input   66.30 | X-H torsion
[ 10763 10752 10751 10750 ] final   78.10 input  -60.55 | X-H torsion
[ 11005 11000 10999 10996 ] final  122.03 input  -57.11 | X-H torsion

> <Gold.Protein.ActiveResidues>
 VAL166  LYS551  ARG553  GLY616  TRP617  ASP618  TYR619  PRO620  LYS621  CYS622 
 ASP623  PHE694  ASN695  SER759  ASP760  ASP761  ALA762  ILE779  LEU786  VAL792 
 PHE793  MET794  SER795  GLU796  ALA797  LYS798  CYS799  TRP800  GLU811  SER814 

> <Gold.Protein.RotatedAtoms>
  152.1096  134.9284  160.0566 H   0  0  0  0  0  0  0  0  0  0  0  0  # atno 6907 bound_to 6896
  152.0467  133.3996  159.4368 H   0  0  0  0  0  0  0  0  0  0  0  0  # atno 6908 bound_to 6896
  150.6843  134.3275  159.4856 H   0  0  0  0  0  0  0  0  0  0  0  0  # atno 6909 bound_to 6896
  146.2445  140.0665  142.8365 H   0  0  0  0  0  0  0  0  0  0  0  0  # atno 7974 bound_to 7965
  155.8847  140.3442  155.5913 H   0  0  0  0  0  0  0  0  0  0  0  0  # atno 8008 bound_to 7997
  155.7679  140.0841  157.2141 H   0  0  0  0  0  0  0  0  0  0  0  0  # atno 8009 bound_to 7997
  154.4027  140.1523  156.2896 H   0  0  0  0  0  0  0  0  0  0  0  0  # atno 8010 bound_to 7997
  140.7288  143.4411  151.0655 H   0  0  0  0  0  0  0  0  0  0  0  0  # atno 10167 bound_to 10162
  156.2294  130.4171  149.8894 H   0  0  0  0  0  0  0  0  0  0  0  0  # atno 10718 bound_to 10713
  153.0848  135.4890  154.8575 H   0  0  0  0  0  0  0  0  0  0  0  0  # atno 10763 bound_to 10752
  154.7197  135.3037  154.9070 H   0  0  0  0  0  0  0  0  0  0  0  0  # atno 10764 bound_to 10752
  153.9738  135.6798  153.4801 H   0  0  0  0  0  0  0  0  0  0  0  0  # atno 10765 bound_to 10752
  139.9251  134.9640  156.8047 H   0  0  0  0  0  0  0  0  0  0  0  0  # atno 11005 bound_to 11000
  145.0854  140.9249  143.4800 LP  0  0  0  0  0  0  0  0  0  0  0  0  # atno 17320 bound_to 7965
  145.0826  139.2948  143.5775 LP  0  0  0  0  0  0  0  0  0  0  0  0  # atno 17321 bound_to 7965
  139.8078  143.7993  152.3169 LP  0  0  0  0  0  0  0  0  0  0  0  0  # atno 17342 bound_to 10162
  139.8032  144.7366  150.9796 LP  0  0  0  0  0  0  0  0  0  0  0  0  # atno 17343 bound_to 10162
  156.6513  130.8745  151.3531 LP  0  0  0  0  0  0  0  0  0  0  0  0  # atno 17370 bound_to 10713
  157.7126  130.9458  150.1141 LP  0  0  0  0  0  0  0  0  0  0  0  0  # atno 17371 bound_to 10713
  140.6361  133.9861  155.7685 LP  0  0  0  0  0  0  0  0  0  0  0  0  # atno 17394 bound_to 11000
  141.0802  134.0074  157.3397 LP  0  0  0  0  0  0  0  0  0  0  0  0  # atno 17395 bound_to 11000

$$$$
