#       Name:                AV-unprocessed.smi:732
#       Creating user name   scv26
#       Creation time:       Fri Mar 27 00:52:14 2020


#       File generated by GOLD software.
#

@<TRIPOS>MOLECULE
AV-unprocessed.smi:732
    39    41     1
SMALL
NO_CHARGES


@<TRIPOS>ATOM
      1 ****        -6.5271  -1.3774  -0.2726 C.3            1 S1                 0.0000
      2 ****        -5.2300  -0.6654  -0.0952 C.2            1 S1                 0.0000
      3 ****        -3.9276  -1.0711  -0.1766 C.2            1 S1                 0.0000
      4 ****        -3.2042   0.1186   0.1036 C.2            1 S1                 0.0000
      5 ****        -1.7862   0.1222   0.1124 N.am           1 S1                 0.0000
      6 ****        -0.9701   1.1585   0.3696 C.2            1 S1                 0.0000
      7 ****        -1.3391   2.2962   0.6628 O.2            1 S1                 0.0000
      8 ****         0.3156   0.7961   0.2685 N.am           1 S1                 0.0000
      9 ****         1.4417   1.6486   0.4877 C.3            1 S1                 0.0000
     10 ****         2.6692   1.4940  -0.3932 C.3            1 S1                 0.0000
     11 ****         2.8521   0.3916  -1.4254 C.3            1 S1                 0.0000
     12 ****         4.0644  -0.4943  -1.0769 C.3            1 S1                 0.0000
     13 ****         4.1122  -0.9565   0.4025 C.3            1 S1                 0.0000
     14 ****         2.9460  -0.4387   1.2674 C.3            1 S1                 0.0000
     15 ****         2.7207   1.0499   1.0474 C.3            1 S1                 0.0000
     16 ****        -3.9933   1.1563   0.3361 N.2            1 S1                 0.0000
     17 ****        -5.2957   0.6591   0.2095 O.3            1 S1                 0.0000
     18 ****        -6.3736  -2.4541  -0.3466 H              1 S1                 0.0000
     19 ****        -7.0292  -1.0439  -1.1809 H              1 S1                 0.0000
     20 ****        -7.1913  -1.1881   0.5709 H              1 S1                 0.0000
     21 ****        -3.5559  -2.0598  -0.4013 H              1 S1                 0.0000
     22 ****        -1.3453  -0.7591  -0.1051 H              1 S1                 0.0000
     23 ****         0.5192  -0.1611   0.0206 H              1 S1                 0.0000
     24 ****         1.2246   2.6650   0.8132 H              1 S1                 0.0000
     25 ****         3.2288   2.4005  -0.6159 H              1 S1                 0.0000
     26 ****         1.9571  -0.2281  -1.4740 H              1 S1                 0.0000
     27 ****         2.9709   0.8376  -2.4132 H              1 S1                 0.0000
     28 ****         4.0816  -1.3619  -1.7372 H              1 S1                 0.0000
     29 ****         4.9771   0.0611  -1.2967 H              1 S1                 0.0000
     30 ****         4.1415  -2.0455   0.4491 H              1 S1                 0.0000
     31 ****         5.0509  -0.6172   0.8423 H              1 S1                 0.0000
     32 ****         2.0423  -0.9944   1.0186 H              1 S1                 0.0000
     33 ****         3.1376  -0.6226   2.3249 H              1 S1                 0.0000
     34 ****         3.3135   1.6849   1.7031 H              1 S1                 0.0000
     35 ****        -2.3151   2.5049   0.7244 LP             1 S1                 0.0000
     36 ****        -0.6627   3.0113   0.8393 LP             1 S1                 0.0000
     37 ****        -3.7182   2.0925   0.5548 LP             1 S1                 0.0000
     38 ****        -5.7879   0.7820   1.0713 LP             1 S1                 0.0000
     39 ****        -5.7732   1.1488  -0.5199 LP             1 S1                 0.0000
@<TRIPOS>BOND
    1    1    2 1     
    2    1   18 1     
    3    1   19 1     
    4    1   20 1     
    5    2   17 1     
    6    2    3 2     
    7    3    4 1     
    8    3   21 1     
    9    4    5 1     
   10    4   16 2     
   11    5    6 am    
   12    5   22 1     
   13    6    7 2     
   14    6    8 am    
   15    8    9 1     
   16    8   23 1     
   17    9   15 1     
   18    9   10 1     
   19    9   24 1     
   20   10   15 1     
   21   10   11 1     
   22   10   25 1     
   23   11   12 1     
   24   11   26 1     
   25   11   27 1     
   26   12   13 1     
   27   12   28 1     
   28   12   29 1     
   29   13   14 1     
   30   13   30 1     
   31   13   31 1     
   32   14   15 1     
   33   14   32 1     
   34   14   33 1     
   35   15   34 1     
   36   16   17 1     
   37    7   35 1     
   38    7   36 1     
   39   16   37 1     
   40   17   38 1     
   41   17   39 1     
@<TRIPOS>SUBSTRUCTURE
      1 S1             1
@<TRIPOS>SET
LONE_PAIRS      STATIC     ATOMS    <user>   **** ""
5 35 36 37 38 39
DONOR_HYDROGENS      STATIC     ATOMS    <user>   **** ""
2 22 23
ATOM$BLUE        STATIC     ATOMS    COLORGROUP SYSTEM
5 35 36 37 38 39
ATOM$RED        STATIC     ATOMS    COLORGROUP SYSTEM
2 22 23
