#       Name:                AV-unprocessed.smi:498
#       Creating user name   scv26
#       Creation time:       Thu Mar 26 23:17:40 2020


#       File generated by GOLD software.
#

@<TRIPOS>MOLECULE
AV-unprocessed.smi:498
    49    51     1
SMALL
NO_CHARGES


@<TRIPOS>ATOM
      1 ****        -3.5235   0.1463  -1.8515 C.3            1 S1                 0.0000
      2 ****        -2.9504  -1.0149  -1.0367 C.3            1 S1                 0.0000
      3 ****        -1.6231  -1.2607  -1.4666 O.3            1 S1                 0.0000
      4 ****        -1.0035  -2.3223  -0.7589 C.3            1 S1                 0.0000
      5 ****         0.4636  -2.4473  -1.1922 C.3            1 S1                 0.0000
      6 ****         1.1776  -1.1810  -1.0968 N.pl3          1 S1                 0.0000
      7 ****         1.7603  -0.6113  -0.0096 C.2            1 S1                 0.0000
      8 ****         1.7444  -1.2442   1.3546 C.3            1 S1                 0.0000
      9 ****         1.2575  -0.2609   2.3180 N.am           1 S1                 0.0000
     10 ****         0.0307  -0.2315   2.8612 C.2            1 S1                 0.0000
     11 ****        -0.8257  -1.0917   2.6601 O.2            1 S1                 0.0000
     12 ****        -0.2503   0.9143   3.7464 C.2            1 S1                 0.0000
     13 ****         0.4911   2.0243   4.0568 C.2            1 S1                 0.0000
     14 ****        -0.2929   2.7995   4.9553 C.2            1 S1                 0.0000
     15 ****        -1.4580   2.1095   5.1285 C.2            1 S1                 0.0000
     16 ****        -1.4488   0.9617   4.3977 O.3            1 S1                 0.0000
     17 ****         2.3684   0.5574  -0.2290 N.2            1 S1                 0.0000
     18 ****         2.1390   0.7772  -1.5720 C.ar           1 S1                 0.0000
     19 ****         2.5217   1.8533  -2.4043 C.ar           1 S1                 0.0000
     20 ****         2.1648   1.8623  -3.7686 C.ar           1 S1                 0.0000
     21 ****         1.4213   0.7979  -4.3183 C.ar           1 S1                 0.0000
     22 ****         1.0323  -0.2846  -3.5062 C.ar           1 S1                 0.0000
     23 ****         1.3928  -0.2902  -2.1450 C.ar           1 S1                 0.0000
     24 ****        -4.5478   0.3657  -1.5496 H              1 S1                 0.0000
     25 ****        -3.5304  -0.0887  -2.9162 H              1 S1                 0.0000
     26 ****        -2.9318   1.0514  -1.7112 H              1 S1                 0.0000
     27 ****        -2.9621  -0.7637   0.0251 H              1 S1                 0.0000
     28 ****        -3.5625  -1.9075  -1.1743 H              1 S1                 0.0000
     29 ****        -1.0568  -2.1354   0.3122 H              1 S1                 0.0000
     30 ****        -1.5313  -3.2577  -0.9486 H              1 S1                 0.0000
     31 ****         0.9819  -3.2041  -0.6036 H              1 S1                 0.0000
     32 ****         0.5093  -2.7912  -2.2258 H              1 S1                 0.0000
     33 ****         1.1462  -2.1542   1.3757 H              1 S1                 0.0000
     34 ****         2.7624  -1.5273   1.6224 H              1 S1                 0.0000
     35 ****         1.8893   0.4925   2.5473 H              1 S1                 0.0000
     36 ****         1.4776   2.2542   3.6821 H              1 S1                 0.0000
     37 ****        -0.0380   3.7429   5.4150 H              1 S1                 0.0000
     38 ****        -2.3550   2.2826   5.7047 H              1 S1                 0.0000
     39 ****         3.0896   2.6742  -1.9922 H              1 S1                 0.0000
     40 ****         2.4617   2.6902  -4.3955 H              1 S1                 0.0000
     41 ****         1.1496   0.8124  -5.3638 H              1 S1                 0.0000
     42 ****         0.4602  -1.0990  -3.9248 H              1 S1                 0.0000
     43 ****        -1.0843  -0.4292  -1.3313 LP             1 S1                 0.0000
     44 ****        -1.6401  -1.4922  -2.4393 LP             1 S1                 0.0000
     45 ****        -0.6242  -1.8679   2.0626 LP             1 S1                 0.0000
     46 ****        -1.7233  -1.0147   3.0941 LP             1 S1                 0.0000
     47 ****        -1.5438   0.1696   5.0007 LP             1 S1                 0.0000
     48 ****        -2.1991   0.9692   3.7366 LP             1 S1                 0.0000
     49 ****         2.8671   1.1318   0.4200 LP             1 S1                 0.0000
@<TRIPOS>BOND
    1    1    2 1     
    2    1   24 1     
    3    1   25 1     
    4    1   26 1     
    5    2    3 1     
    6    2   27 1     
    7    2   28 1     
    8    3    4 1     
    9    4    5 1     
   10    4   29 1     
   11    4   30 1     
   12    5    6 1     
   13    5   31 1     
   14    5   32 1     
   15    6   23 1     
   16    6    7 1     
   17    7    8 1     
   18    7   17 2     
   19    8    9 1     
   20    8   33 1     
   21    8   34 1     
   22    9   10 am    
   23    9   35 1     
   24   10   11 2     
   25   10   12 1     
   26   12   16 1     
   27   12   13 2     
   28   13   14 1     
   29   13   36 1     
   30   14   15 2     
   31   14   37 1     
   32   15   16 1     
   33   15   38 1     
   34   17   18 1     
   35   18   23 ar    
   36   18   19 ar    
   37   19   20 ar    
   38   19   39 1     
   39   20   21 ar    
   40   20   40 1     
   41   21   22 ar    
   42   21   41 1     
   43   22   23 ar    
   44   22   42 1     
   45    3   43 1     
   46    3   44 1     
   47   11   45 1     
   48   11   46 1     
   49   16   47 1     
   50   16   48 1     
   51   17   49 1     
@<TRIPOS>SUBSTRUCTURE
      1 S1             1
@<TRIPOS>SET
LONE_PAIRS      STATIC     ATOMS    <user>   **** ""
7 43 44 45 46 47 48 49
DONOR_HYDROGENS      STATIC     ATOMS    <user>   **** ""
1 35
ATOM$BLUE        STATIC     ATOMS    COLORGROUP SYSTEM
7 43 44 45 46 47 48 49
ATOM$RED        STATIC     ATOMS    COLORGROUP SYSTEM
1 35
