AV-unprocessed.smi:1697|AV-procd|sdf|6803|dock8
  -GOLD-   22720 7573D 1   1.00000     0.00000
 Structure written by MMmdl.
 54 56  0  0  0  0  0  0  0  0  2 V2000
  141.2186  145.3051  154.6615 C   0  0  0  0  0  0  0  0  0  0  0  0
  141.9253  143.9500  154.7392 C   0  0  0  0  0  0  0  0  0  0  0  0
  143.2846  144.1246  154.3678 O   0  0  0  0  0  0  0  0  0  0  0  0
  144.1160  142.9983  154.6135 C   0  0  2  0  0  0  0  0  0  0  0  0
  144.6351  142.9907  156.0637 C   0  0  0  0  0  0  0  0  0  0  0  0
  145.6700  141.8730  156.2778 C   0  0  0  0  0  0  0  0  0  0  0  0
  146.7999  141.9973  155.3189 N   0  3  1  0  0  0  0  0  0  0  0  0
  147.8983  141.0290  155.5709 C   0  0  0  0  0  0  0  0  0  0  0  0
  148.9991  141.0994  154.4945 C   0  0  2  0  0  0  0  0  0  0  0  0
  149.3096  139.7843  154.0741 O   0  0  0  0  0  0  0  0  0  0  0  0
  150.2776  141.7804  155.0200 C   0  0  0  0  0  0  0  0  0  0  0  0
  150.6807  141.2681  156.3170 N   0  0  0  0  0  0  0  0  0  0  0  0
  150.8697  139.9800  156.6639 C   0  0  0  0  0  0  0  0  0  0  0  0
  151.2502  139.7362  157.9145 N   0  0  0  0  0  0  0  0  0  0  0  0
  151.3118  141.0147  158.4419 C   0  0  0  0  0  0  0  0  0  0  0  0
  151.6581  141.4571  159.7372 C   0  0  0  0  0  0  0  0  0  0  0  0
  151.6530  142.8332  160.0584 C   0  0  0  0  0  0  0  0  0  0  0  0
  152.0351  143.2650  161.4632 C   0  0  0  0  0  0  0  0  0  0  0  0
  151.2951  143.7912  159.0760 C   0  0  0  0  0  0  0  0  0  0  0  0
  151.2787  145.2745  159.3997 C   0  0  0  0  0  0  0  0  0  0  0  0
  150.9484  143.3667  157.7762 C   0  0  0  0  0  0  0  0  0  0  0  0
  150.9590  141.9949  157.4689 C   0  0  0  0  0  0  0  0  0  0  0  0
  146.3244  141.9646  153.9122 C   0  0  0  0  0  0  0  0  0  0  0  0
  145.3075  143.0868  153.6486 C   0  0  0  0  0  0  0  0  0  0  0  0
  140.1675  145.2126  154.9361 H   0  0  0  0  0  0  0  0  0  0  0  0
  141.2661  145.7140  153.6521 H   0  0  0  0  0  0  0  0  0  0  0  0
  141.6787  146.0262  155.3379 H   0  0  0  0  0  0  0  0  0  0  0  0
  141.8465  143.5539  155.7515 H   0  0  0  0  0  0  0  0  0  0  0  0
  141.4386  143.2414  154.0674 H   0  0  0  0  0  0  0  0  0  0  0  0
  143.5695  142.0761  154.4066 H   0  0  0  0  0  0  0  0  0  0  0  0
  145.0877  143.9553  156.2976 H   0  0  0  0  0  0  0  0  0  0  0  0
  143.8125  142.8566  156.7657 H   0  0  0  0  0  0  0  0  0  0  0  0
  146.0337  141.9212  157.3035 H   0  0  0  0  0  0  0  0  0  0  0  0
  145.1956  140.8975  156.1586 H   0  0  0  0  0  0  0  0  0  0  0  0
  148.3168  141.2098  156.5623 H   0  0  0  0  0  0  0  0  0  0  0  0
  147.5020  140.0124  155.5917 H   0  0  0  0  0  0  0  0  0  0  0  0
  148.6435  141.6554  153.6275 H   0  0  0  0  0  0  0  0  0  0  0  0
  149.3626  139.7712  153.1303 H   0  0  0  0  0  0  0  0  0  0  0  0
  151.1020  141.6229  154.3235 H   0  0  0  0  0  0  0  0  0  0  0  0
  150.1365  142.8597  155.0972 H   0  0  0  0  0  0  0  0  0  0  0  0
  150.7252  139.1760  155.9571 H   0  0  0  0  0  0  0  0  0  0  0  0
  151.9289  140.7269  160.4856 H   0  0  0  0  0  0  0  0  0  0  0  0
  151.2066  143.7888  161.9405 H   0  0  0  0  0  0  0  0  0  0  0  0
  152.8980  143.9309  161.4368 H   0  0  0  0  0  0  0  0  0  0  0  0
  152.2934  142.4086  162.0869 H   0  0  0  0  0  0  0  0  0  0  0  0
  150.9554  145.8654  158.5423 H   0  0  0  0  0  0  0  0  0  0  0  0
  152.2749  145.6139  159.6845 H   0  0  0  0  0  0  0  0  0  0  0  0
  150.5942  145.4790  160.2234 H   0  0  0  0  0  0  0  0  0  0  0  0
  150.6749  144.0856  157.0183 H   0  0  0  0  0  0  0  0  0  0  0  0
  147.1700  142.0860  153.2340 H   0  0  0  0  0  0  0  0  0  0  0  0
  145.8799  140.9915  153.6968 H   0  0  0  0  0  0  0  0  0  0  0  0
  144.9554  143.0345  152.6178 H   0  0  0  0  0  0  0  0  0  0  0  0
  145.7990  144.0548  153.7579 H   0  0  0  0  0  0  0  0  0  0  0  0
  147.2021  142.9143  155.4553 H   0  0  0  0  0  0  0  0  0  0  0  0
  1  2  1  0  0  0  0
  1 25  1  0  0  0  0
  1 26  1  0  0  0  0
  1 27  1  0  0  0  0
  2  3  1  0  0  0  0
  2 28  1  0  0  0  0
  2 29  1  0  0  0  0
  3  4  1  0  0  0  0
  4 24  1  0  0  0  0
  4  5  1  0  0  0  0
  4 30  1  0  0  0  0
  5  6  1  0  0  0  0
  5 31  1  0  0  0  0
  5 32  1  0  0  0  0
  6  7  1  0  0  0  0
  6 33  1  0  0  0  0
  6 34  1  0  0  0  0
  7  8  1  0  0  0  0
  7 23  1  0  0  0  0
  7 54  1  0  0  0  0
  8  9  1  0  0  0  0
  8 35  1  0  0  0  0
  8 36  1  0  0  0  0
  9 10  1  0  0  0  0
  9 11  1  0  0  0  0
  9 37  1  0  0  0  0
 10 38  1  0  0  0  0
 11 12  1  0  0  0  0
 11 39  1  0  0  0  0
 11 40  1  0  0  0  0
 12 22  1  0  0  0  0
 12 13  1  0  0  0  0
 13 14  2  0  0  0  0
 13 41  1  0  0  0  0
 14 15  1  0  0  0  0
 15 22  2  0  0  0  0
 15 16  1  0  0  0  0
 16 17  2  0  0  0  0
 16 42  1  0  0  0  0
 17 18  1  0  0  0  0
 17 19  1  0  0  0  0
 18 43  1  0  0  0  0
 18 44  1  0  0  0  0
 18 45  1  0  0  0  0
 19 20  1  0  0  0  0
 19 21  2  0  0  0  0
 20 46  1  0  0  0  0
 20 47  1  0  0  0  0
 20 48  1  0  0  0  0
 21 22  1  0  0  0  0
 21 49  1  0  0  0  0
 23 24  1  0  0  0  0
 23 50  1  0  0  0  0
 23 51  1  0  0  0  0
 24 52  1  0  0  0  0
 24 53  1  0  0  0  0
M  CHG  1   7   1
M  END
> <s_m_source_file>
AV-unprocessed.smi

> <i_m_source_file_index>
1697

> <i_lp_mmshare_version>
43012

> <i_f3d_flags>
0

> <s_epik_input>
W0NIM11bQ0gyXU9bQ0hdMVtDSDJdW0NIMl1OKFtDSDJdW0NIMl0xKVtDSDJdW0NASF0oW09IXSlbQ0gyXW4oW2NIXW4yKWMoYzIzKVtjSF1jKFtDSDNdKWMoW2NIXTMpW0NIM10=

> <s_epik_cmdline>
J2VwaWtfcHl0aG9uJywgJy1waCcsICc3LjAnLCAnLXRuJywgJzgnLCAnLW1hJywgJzIwMCcsICctbWV0YWxfYmluZGluZycsICctaW1hZScsICc8aW5maWxlLm1hZT4nLCAnLW9tYWUnLCAnPG91dGZpbGUubWFlPic=

> <r_epik_Ionization_Penalty>
0.112476

> <r_epik_Ionization_Penalty_Charging>
0.0244612

> <r_epik_Ionization_Penalty_Neutral>
0.0880147

> <r_epik_State_Penalty>
0.0961447

> <r_epik_Charging_Adjusted_Penalty>
0.120606

> <i_epik_Tot_Q>
1

> <i_epik_Tot_abs_Q>
1

> <r_epik_Metal_State_Penalty>
0.0206204

> <b_epik_Metal_Only>
0

> <s_lp_Force_Field>
OPLS_2005

> <r_lp_Energy>
22.6968

> <b_lp_Chiralities_Consistent>
1

> <s_lp_Variant>
AV-unprocessed.smi:1697-1

> <Gold.Version>
5.8.1

> <Gold.Id.Protein>
6NUR|6NUR_protein|mol2

> <Gold.PLP.Fitness>
54.9015

> <Gold.PLP.PLP>
-48.0247

> <Gold.PLP.part.hbond>
-2.0000

> <Gold.PLP.part.metal>
0.0000

> <Gold.PLP.part.buried>
-5.4652

> <Gold.PLP.part.nonpolar>
-41.3933

> <Gold.PLP.part.repulsive>
0.1467

> <Gold.PLP.ligand.clash>
0.0000

> <Gold.PLP.ligand.torsion>
1.1479

> <Gold.PLP.Chemscore.Hbond>
3.0000

> <Gold.PLP.Chemscore.CHOScore>
0.0000

> <Gold.PLP.Chemscore.Metal>
0.0000

> <Gold.Chemscore.Hbonds>
donor molecule, donor type, donor heavy atom, donor atom, acceptor molecule, acceptor atom, score
      L1  H    10    38       P1  7957  1.00

> <Gold.PLP.Chemscore.Internal.Correction>
0.1726

> <Gold.Rescore>
     Score         DG    S(hbond)    S(metal)    S(lipo)     H(rot)  DE(clash)    DE(int)     intcor
     15.68     -20.06       1.48        0.00     132.18       2.27       3.27       1.12       ----

> <Gold.Chemscore.Fitness>
15.6763

> <Gold.Chemscore.DG>
-20.0629

> <Gold.Chemscore.ZeroCoef>
-5.4800

> <Gold.Chemscore.Hbond>
1.4766

> <Gold.Chemscore.Metal>
0.0000

> <Gold.Chemscore.Lipo>
132.1761

> <Gold.Chemscore.Internal_Hbond>
0.0000

> <Gold.Chemscore.DEClash>
3.2669

> <Gold.Chemscore.DEInternal>
1.1197

> <Gold.Chemscore.Rot>
2.2710

> <Gold.Chemscore.Internal.Correction>
   9.000000E+99

> <Gold.Chemscore.Hbonds>
donor molecule, donor type, donor heavy atom, donor atom, acceptor molecule, acceptor atom, score
      L1  H     7    54       P1  8028  0.01
      L1  H    10    38       P1  7957  0.96

> <Gold.Chemscore.Hbond.Weighted>
-4.9320

> <Gold.Chemscore.Metal.Weighted>
-0.0000

> <Gold.Chemscore.Lipo.Weighted>
-15.4646

> <Gold.Chemscore.Internal_Hbond.Weighted>
0.0000

> <Gold.Chemscore.DEClash.Weighted>
3.2669

> <Gold.Chemscore.DEInternal.Weighted>
1.1197

> <Gold.Chemscore.Rot.Weighted>
5.8137

> <Gold.Chemscore.Internal.Correction.Weighted>
   9.000000E+99

> <Gold.Protein.RotatedTorsions>
[ 6907 6896 6895 6894 ] final  113.67 input  -60.11 | X-H torsion
[ 7974 7965 7964 7962 ] final -166.34 input  175.53 | X-H torsion
[ 8008 7997 7996 7995 ] final  -46.41 input   59.86 | X-H torsion
[ 10167 10162 10161 10158 ] final  -12.50 input  -65.29 | X-H torsion
[ 10718 10713 10712 10709 ] final  -89.21 input   66.30 | X-H torsion
[ 10763 10752 10751 10750 ] final  168.82 input  -60.55 | X-H torsion
[ 11005 11000 10999 10996 ] final  -33.49 input  -57.11 | X-H torsion

> <Gold.Protein.ActiveResidues>
 VAL166  LYS551  ARG553  GLY616  TRP617  ASP618  TYR619  PRO620  LYS621  CYS622 
 ASP623  PHE694  ASN695  SER759  ASP760  ASP761  ALA762  ILE779  LEU786  VAL792 
 PHE793  MET794  SER795  GLU796  ALA797  LYS798  CYS799  TRP800  GLU811  SER814 

> <Gold.Protein.RotatedAtoms>
  152.4847  133.8343  159.7119 H   0  0  0  0  0  0  0  0  0  0  0  0  # atno 6907 bound_to 6896
  150.8924  133.7216  159.2907 H   0  0  0  0  0  0  0  0  0  0  0  0  # atno 6908 bound_to 6896
  151.4684  135.1048  159.9797 H   0  0  0  0  0  0  0  0  0  0  0  0  # atno 6909 bound_to 6896
  144.7248  140.2681  143.6255 H   0  0  0  0  0  0  0  0  0  0  0  0  # atno 7974 bound_to 7965
  154.4007  140.1372  156.4007 H   0  0  0  0  0  0  0  0  0  0  0  0  # atno 8008 bound_to 7997
  155.7827  140.3481  155.5286 H   0  0  0  0  0  0  0  0  0  0  0  0  # atno 8009 bound_to 7997
  155.8658  140.0964  157.1574 H   0  0  0  0  0  0  0  0  0  0  0  0  # atno 8010 bound_to 7997
  140.7162  143.5525  150.9285 H   0  0  0  0  0  0  0  0  0  0  0  0  # atno 10167 bound_to 10162
  155.9984  130.4864  150.5136 H   0  0  0  0  0  0  0  0  0  0  0  0  # atno 10718 bound_to 10713
  154.3742  135.2753  155.2249 H   0  0  0  0  0  0  0  0  0  0  0  0  # atno 10763 bound_to 10752
  154.4383  135.5960  153.6116 H   0  0  0  0  0  0  0  0  0  0  0  0  # atno 10764 bound_to 10752
  152.9837  135.6012  154.3976 H   0  0  0  0  0  0  0  0  0  0  0  0  # atno 10765 bound_to 10752
  140.9639  133.7148  156.1414 H   0  0  0  0  0  0  0  0  0  0  0  0  # atno 11005 bound_to 11000
  145.8070  139.1987  143.2015 LP  0  0  0  0  0  0  0  0  0  0  0  0  # atno 17320 bound_to 7965
  146.0629  140.7952  142.9726 LP  0  0  0  0  0  0  0  0  0  0  0  0  # atno 17321 bound_to 7965
  139.9250  143.6561  152.3089 LP  0  0  0  0  0  0  0  0  0  0  0  0  # atno 17342 bound_to 10162
  139.6991  144.7637  151.1304 LP  0  0  0  0  0  0  0  0  0  0  0  0  # atno 17343 bound_to 10162
  157.3106  131.0663  151.2003 LP  0  0  0  0  0  0  0  0  0  0  0  0  # atno 17370 bound_to 10713
  157.2951  130.6815  149.6134 LP  0  0  0  0  0  0  0  0  0  0  0  0  # atno 17371 bound_to 10713
  140.7427  134.4132  157.5552 LP  0  0  0  0  0  0  0  0  0  0  0  0  # atno 17394 bound_to 11000
  139.8888  134.8848  156.2456 LP  0  0  0  0  0  0  0  0  0  0  0  0  # atno 17395 bound_to 11000

$$$$
