AV-unprocessed.smi:3216|AV-procd|sdf|12288|dock3
  -GOLD-   2272018133D 1   1.00000     0.00000
 Structure written by MMmdl.
 36 36  0  0  0  0  0  0  0  0  1 V2000
  146.5249  146.7778  160.1727 C   0  0  0  0  0  0  0  0  0  0  0  0
  146.6408  145.4845  160.9986 C   0  0  0  0  0  0  0  0  0  0  0  0
  148.1139  145.1480  161.2725 C   0  0  0  0  0  0  0  0  0  0  0  0
  145.9248  144.2958  160.3292 C   0  0  0  0  0  0  0  0  0  0  0  0
  146.6444  143.8302  159.1504 N   0  0  0  0  0  0  0  0  0  0  0  0
  146.7887  142.5422  158.8088 C   0  0  0  0  0  0  0  0  0  0  0  0
  146.3204  141.6117  159.4649 O   0  0  0  0  0  0  0  0  0  0  0  0
  147.5751  142.2584  157.5236 C   0  0  0  0  0  0  0  0  0  0  0  0
  149.0166  142.5399  157.6168 N   0  0  0  0  0  0  0  0  0  0  0  0
  149.8432  141.6294  156.8304 C   0  0  0  0  0  0  0  0  0  0  0  0
  151.2855  141.6207  157.3639 C   0  0  0  0  0  0  0  0  0  0  0  0
  151.6178  142.8409  158.0785 N   0  0  0  0  0  0  0  0  0  0  0  0
  151.5552  144.1421  157.6257 C   0  0  0  0  0  0  0  0  0  0  0  0
  151.9659  144.9487  158.6480 C   0  0  0  0  0  0  0  0  0  0  0  0
  152.2605  144.0367  159.6999 C   0  0  0  0  0  0  0  0  0  0  0  0
  152.0479  142.7763  159.3574 N   0  0  0  0  0  0  0  0  0  0  0  0
  146.9633  146.6541  159.1820 H   0  0  0  0  0  0  0  0  0  0  0  0
  147.0417  147.6032  160.6632 H   0  0  0  0  0  0  0  0  0  0  0  0
  145.4858  147.0808  160.0412 H   0  0  0  0  0  0  0  0  0  0  0  0
  146.1640  145.6631  161.9635 H   0  0  0  0  0  0  0  0  0  0  0  0
  148.6557  144.9571  160.3455 H   0  0  0  0  0  0  0  0  0  0  0  0
  148.2051  144.2611  161.9001 H   0  0  0  0  0  0  0  0  0  0  0  0
  148.6156  145.9671  161.7886 H   0  0  0  0  0  0  0  0  0  0  0  0
  145.8184  143.4750  161.0406 H   0  0  0  0  0  0  0  0  0  0  0  0
  144.9176  144.5881  160.0279 H   0  0  0  0  0  0  0  0  0  0  0  0
  147.0579  144.5333  158.5555 H   0  0  0  0  0  0  0  0  0  0  0  0
  147.4316  141.2218  157.2133 H   0  0  0  0  0  0  0  0  0  0  0  0
  147.1538  142.8759  156.7298 H   0  0  0  0  0  0  0  0  0  0  0  0
  149.2246  143.4925  157.3539 H   0  0  0  0  0  0  0  0  0  0  0  0
  149.4413  140.6156  156.8454 H   0  0  0  0  0  0  0  0  0  0  0  0
  149.8457  141.9593  155.7908 H   0  0  0  0  0  0  0  0  0  0  0  0
  151.4175  140.7848  158.0517 H   0  0  0  0  0  0  0  0  0  0  0  0
  151.9975  141.4685  156.5506 H   0  0  0  0  0  0  0  0  0  0  0  0
  151.2305  144.3818  156.6239 H   0  0  0  0  0  0  0  0  0  0  0  0
  152.0452  146.0256  158.6446 H   0  0  0  0  0  0  0  0  0  0  0  0
  152.6190  144.2515  160.6958 H   0  0  0  0  0  0  0  0  0  0  0  0
  1  2  1  0  0  0  0
  1 17  1  0  0  0  0
  1 18  1  0  0  0  0
  1 19  1  0  0  0  0
  2  3  1  0  0  0  0
  2  4  1  0  0  0  0
  2 20  1  0  0  0  0
  3 21  1  0  0  0  0
  3 22  1  0  0  0  0
  3 23  1  0  0  0  0
  4  5  1  0  0  0  0
  4 24  1  0  0  0  0
  4 25  1  0  0  0  0
  5  6  1  0  0  0  0
  5 26  1  0  0  0  0
  6  7  2  0  0  0  0
  6  8  1  0  0  0  0
  8  9  1  0  0  0  0
  8 27  1  0  0  0  0
  8 28  1  0  0  0  0
  9 10  1  0  0  0  0
  9 29  1  0  0  0  0
 10 11  1  0  0  0  0
 10 30  1  0  0  0  0
 10 31  1  0  0  0  0
 11 12  1  0  0  0  0
 11 32  1  0  0  0  0
 11 33  1  0  0  0  0
 12 16  1  0  0  0  0
 12 13  1  0  0  0  0
 13 14  2  0  0  0  0
 13 34  1  0  0  0  0
 14 15  1  0  0  0  0
 14 35  1  0  0  0  0
 15 16  2  0  0  0  0
 15 36  1  0  0  0  0
M  END
> <s_m_source_file>
AV-unprocessed.smi

> <i_m_source_file_index>
3216

> <i_lp_mmshare_version>
43012

> <i_f3d_flags>
0

> <s_epik_input>
W0NIM11bQ0hdKFtDSDNdKVtDSDJdW05IXUMoPU8pW0NIMl1bTkhdW0NIMl1bQ0gyXW4xW2NIXVtjSF1bY0hdbjE=

> <s_epik_cmdline>
J2VwaWtfcHl0aG9uJywgJy1waCcsICc3LjAnLCAnLXRuJywgJzgnLCAnLW1hJywgJzIwMCcsICctbWV0YWxfYmluZGluZycsICctaW1hZScsICc8aW5maWxlLm1hZT4nLCAnLW9tYWUnLCAnPG91dGZpbGUubWFlPic=

> <r_lp_tautomer_probability>
1

> <r_epik_Ionization_Penalty>
0.724936

> <r_epik_Ionization_Penalty_Charging>
0

> <r_epik_Ionization_Penalty_Neutral>
0.724936

> <r_epik_State_Penalty>
0.747957

> <r_epik_Charging_Adjusted_Penalty>
0.747957

> <i_epik_Tot_Q>
0

> <i_epik_Tot_abs_Q>
0

> <r_epik_Metal_State_Penalty>
0.746186

> <b_epik_Metal_Only>
0

> <s_lp_Force_Field>
OPLS_2005

> <r_lp_Energy>
6.66152

> <b_lp_Chiralities_Consistent>
1

> <s_lp_Variant>
AV-unprocessed.smi:3216-2

> <Gold.Version>
5.8.1

> <Gold.Id.Protein>
6NUR|6NUR_protein|mol2

> <Gold.PLP.Fitness>
44.7570

> <Gold.PLP.PLP>
-35.3745

> <Gold.PLP.part.hbond>
-3.0000

> <Gold.PLP.part.metal>
0.0000

> <Gold.PLP.part.buried>
-5.4228

> <Gold.PLP.part.nonpolar>
-28.0993

> <Gold.PLP.part.repulsive>
0.0649

> <Gold.PLP.ligand.clash>
0.0000

> <Gold.PLP.ligand.torsion>
0.8724

> <Gold.PLP.Chemscore.Hbond>
2.6640

> <Gold.PLP.Chemscore.CHOScore>
0.9917

> <Gold.PLP.Chemscore.Metal>
0.0000

> <Gold.Chemscore.Hbonds>
donor molecule, donor type, donor heavy atom, donor atom, acceptor molecule, acceptor atom, score
      L1  H     5    26       P1  8029  0.91
      L1  H     9    29       P1  8028  0.60
      P1  H  6934  6946       L1     7  0.94
      L1  C    13    34       P1  8028  1.00

> <Gold.PLP.Chemscore.Internal.Correction>
0.1602

> <Gold.Rescore>
     Score         DG    S(hbond)    S(metal)    S(lipo)     H(rot)  DE(clash)    DE(int)     intcor
     15.93     -16.77       2.46        0.00      74.94       2.22       0.01       0.83       ----

> <Gold.Chemscore.Fitness>
15.9254

> <Gold.Chemscore.DG>
-16.7665

> <Gold.Chemscore.ZeroCoef>
-5.4800

> <Gold.Chemscore.Hbond>
2.4577

> <Gold.Chemscore.Metal>
0.0000

> <Gold.Chemscore.Lipo>
74.9389

> <Gold.Chemscore.Internal_Hbond>
0.0000

> <Gold.Chemscore.DEClash>
0.0106

> <Gold.Chemscore.DEInternal>
0.8305

> <Gold.Chemscore.Rot>
2.2227

> <Gold.Chemscore.Internal.Correction>
   9.000000E+99

> <Gold.Chemscore.Hbonds>
donor molecule, donor type, donor heavy atom, donor atom, acceptor molecule, acceptor atom, score
      L1  H     5    26       P1  8029  0.85
      L1  H     9    29       P1  8028  0.33
      P1  H  6934  6946       L1     7  0.87

> <Gold.Chemscore.Hbond.Weighted>
-8.2088

> <Gold.Chemscore.Metal.Weighted>
-0.0000

> <Gold.Chemscore.Lipo.Weighted>
-8.7679

> <Gold.Chemscore.Internal_Hbond.Weighted>
0.0000

> <Gold.Chemscore.DEClash.Weighted>
0.0106

> <Gold.Chemscore.DEInternal.Weighted>
0.8305

> <Gold.Chemscore.Rot.Weighted>
5.6902

> <Gold.Chemscore.Internal.Correction.Weighted>
   9.000000E+99

> <Gold.Protein.RotatedTorsions>
[ 6907 6896 6895 6894 ] final  -44.30 input  -60.11 | X-H torsion
[ 7974 7965 7964 7962 ] final -165.66 input  175.53 | X-H torsion
[ 8008 7997 7996 7995 ] final -109.72 input   59.86 | X-H torsion
[ 10167 10162 10161 10158 ] final  160.04 input  -65.29 | X-H torsion
[ 10718 10713 10712 10709 ] final  125.27 input   66.30 | X-H torsion
[ 10763 10752 10751 10750 ] final  173.23 input  -60.55 | X-H torsion
[ 11005 11000 10999 10996 ] final  132.00 input  -57.11 | X-H torsion

> <Gold.Protein.ActiveResidues>
 VAL166  LYS551  ARG553  GLY616  TRP617  ASP618  TYR619  PRO620  LYS621  CYS622 
 ASP623  PHE694  ASN695  SER759  ASP760  ASP761  ALA762  ILE779  LEU786  VAL792 
 PHE793  MET794  SER795  GLU796  ALA797  LYS798  CYS799  TRP800  GLU811  SER814 

> <Gold.Protein.RotatedAtoms>
  150.9344  134.8757  159.7571 H   0  0  0  0  0  0  0  0  0  0  0  0  # atno 6907 bound_to 6896
  152.5052  134.4033  159.9434 H   0  0  0  0  0  0  0  0  0  0  0  0  # atno 6908 bound_to 6896
  151.4057  133.3703  159.2772 H   0  0  0  0  0  0  0  0  0  0  0  0  # atno 6909 bound_to 6896
  144.7264  140.2781  143.6240 H   0  0  0  0  0  0  0  0  0  0  0  0  # atno 7974 bound_to 7965
  154.9635  140.0398  157.2201 H   0  0  0  0  0  0  0  0  0  0  0  0  # atno 8008 bound_to 7997
  154.7867  140.2828  155.6000 H   0  0  0  0  0  0  0  0  0  0  0  0  # atno 8009 bound_to 7997
  156.2944  140.2581  156.2704 H   0  0  0  0  0  0  0  0  0  0  0  0  # atno 8010 bound_to 7997
  139.4837  144.4673  151.8624 H   0  0  0  0  0  0  0  0  0  0  0  0  # atno 10167 bound_to 10162
  157.5516  131.1094  150.8691 H   0  0  0  0  0  0  0  0  0  0  0  0  # atno 10718 bound_to 10713
  154.4371  135.2761  155.1873 H   0  0  0  0  0  0  0  0  0  0  0  0  # atno 10763 bound_to 10752
  154.3755  135.6099  153.5766 H   0  0  0  0  0  0  0  0  0  0  0  0  # atno 10764 bound_to 10752
  152.9839  135.5867  154.4692 H   0  0  0  0  0  0  0  0  0  0  0  0  # atno 10765 bound_to 10752
  139.9764  134.9562  156.9520 H   0  0  0  0  0  0  0  0  0  0  0  0  # atno 11005 bound_to 11000
  145.7976  139.1951  143.2066 LP  0  0  0  0  0  0  0  0  0  0  0  0  # atno 17320 bound_to 7965
  146.0703  140.7876  142.9691 LP  0  0  0  0  0  0  0  0  0  0  0  0  # atno 17321 bound_to 7965
  140.4139  144.2333  150.5888 LP  0  0  0  0  0  0  0  0  0  0  0  0  # atno 17342 bound_to 10162
  140.4940  143.2338  151.8777 LP  0  0  0  0  0  0  0  0  0  0  0  0  # atno 17343 bound_to 10162
  156.9215  130.5316  149.5279 LP  0  0  0  0  0  0  0  0  0  0  0  0  # atno 17370 bound_to 10713
  156.0582  130.5640  150.9137 LP  0  0  0  0  0  0  0  0  0  0  0  0  # atno 17371 bound_to 10713
  140.5186  134.0930  155.7287 LP  0  0  0  0  0  0  0  0  0  0  0  0  # atno 17394 bound_to 11000
  141.1440  133.9087  157.2258 LP  0  0  0  0  0  0  0  0  0  0  0  0  # atno 17395 bound_to 11000

$$$$
