AV-unprocessed.smi:3249|AV-procd|sdf|12418|dock8
  -GOLD-   2272018303D 1   1.00000     0.00000
 Structure written by MMmdl.
 44 45  0  0  0  0  0  0  0  0  2 V2000
  151.4299  137.2613  157.2961 C   0  0  0  0  0  0  0  0  0  0  0  0
  150.4588  137.9366  156.3713 C   0  0  0  0  0  0  0  0  0  0  0  0
  149.5049  137.3278  155.5079 C   0  0  0  0  0  0  0  0  0  0  0  0
  148.8059  138.2095  154.8124 N   0  0  0  0  0  0  0  0  0  0  0  0
  149.2721  139.4108  155.2167 N   0  0  0  0  0  0  0  0  0  0  0  0
  148.7377  140.6301  154.6193 C   0  0  1  0  0  0  0  0  0  0  0  0
  147.6552  140.2715  153.5839 C   0  0  0  0  0  0  0  0  0  0  0  0
  148.2453  141.6070  155.7188 C   0  0  2  0  0  0  0  0  0  0  0  0
  147.3569  142.7334  155.1580 C   0  0  0  0  0  0  0  0  0  0  0  0
  149.4090  142.1903  156.4274 N   0  3  0  0  0  0  0  0  0  0  0  0
  149.1572  142.6170  157.8194 C   0  0  0  0  0  0  0  0  0  0  0  0
  150.1922  143.6589  158.2653 C   0  0  2  0  0  0  0  0  0  0  0  0
  151.6266  143.0968  158.2300 C   0  0  0  0  0  0  0  0  0  0  0  0
  152.6239  144.1313  158.7640 C   0  0  0  0  0  0  0  0  0  0  0  0
  152.1744  144.6171  160.1459 C   0  0  0  0  0  0  0  0  0  0  0  0
  150.7137  145.0921  160.0965 C   0  0  0  0  0  0  0  0  0  0  0  0
  149.8799  144.0484  159.6013 O   0  0  0  0  0  0  0  0  0  0  0  0
  150.2787  139.2727  156.1518 C   0  0  0  0  0  0  0  0  0  0  0  0
  151.2327  136.1925  157.3812 H   0  0  0  0  0  0  0  0  0  0  0  0
  151.3828  137.6768  158.3028 H   0  0  0  0  0  0  0  0  0  0  0  0
  152.4576  137.3716  156.9494 H   0  0  0  0  0  0  0  0  0  0  0  0
  149.3057  136.2761  155.3616 H   0  0  0  0  0  0  0  0  0  0  0  0
  149.5521  141.1134  154.0755 H   0  0  0  0  0  0  0  0  0  0  0  0
  147.3609  141.1378  152.9922 H   0  0  0  0  0  0  0  0  0  0  0  0
  146.7593  139.8728  154.0607 H   0  0  0  0  0  0  0  0  0  0  0  0
  148.0205  139.5201  152.8830 H   0  0  0  0  0  0  0  0  0  0  0  0
  147.6611  141.0313  156.4391 H   0  0  0  0  0  0  0  0  0  0  0  0
  146.4449  142.3412  154.7092 H   0  0  0  0  0  0  0  0  0  0  0  0
  147.8824  143.3102  154.3962 H   0  0  0  0  0  0  0  0  0  0  0  0
  147.0438  143.4256  155.9393 H   0  0  0  0  0  0  0  0  0  0  0  0
  150.1267  141.4796  156.4599 H   0  0  0  0  0  0  0  0  0  0  0  0
  148.1490  143.0201  157.9179 H   0  0  0  0  0  0  0  0  0  0  0  0
  149.2199  141.7426  158.4685 H   0  0  0  0  0  0  0  0  0  0  0  0
  150.1281  144.5283  157.6080 H   0  0  0  0  0  0  0  0  0  0  0  0
  151.6822  142.1907  158.8350 H   0  0  0  0  0  0  0  0  0  0  0  0
  151.8975  142.8103  157.2131 H   0  0  0  0  0  0  0  0  0  0  0  0
  153.6254  143.7035  158.8178 H   0  0  0  0  0  0  0  0  0  0  0  0
  152.6801  144.9768  158.0773 H   0  0  0  0  0  0  0  0  0  0  0  0
  152.2683  143.8053  160.8685 H   0  0  0  0  0  0  0  0  0  0  0  0
  152.8227  145.4220  160.4933 H   0  0  0  0  0  0  0  0  0  0  0  0
  150.3761  145.3677  161.0957 H   0  0  0  0  0  0  0  0  0  0  0  0
  150.6135  145.9803  159.4707 H   0  0  0  0  0  0  0  0  0  0  0  0
  150.7826  140.1279  156.5778 H   0  0  0  0  0  0  0  0  0  0  0  0
  149.7633  142.9721  155.8948 H   0  0  0  0  0  0  0  0  0  0  0  0
  1  2  1  0  0  0  0
  1 19  1  0  0  0  0
  1 20  1  0  0  0  0
  1 21  1  0  0  0  0
  2 18  2  0  0  0  0
  2  3  1  0  0  0  0
  3  4  2  0  0  0  0
  3 22  1  0  0  0  0
  4  5  1  0  0  0  0
  5  6  1  0  0  0  0
  5 18  1  0  0  0  0
  6  7  1  0  0  0  0
  6  8  1  0  0  0  0
  6 23  1  0  0  0  0
  7 24  1  0  0  0  0
  7 25  1  0  0  0  0
  7 26  1  0  0  0  0
  8  9  1  0  0  0  0
  8 10  1  0  0  0  0
  8 27  1  0  0  0  0
  9 28  1  0  0  0  0
  9 29  1  0  0  0  0
  9 30  1  0  0  0  0
 10 11  1  0  0  0  0
 10 31  1  0  0  0  0
 10 44  1  0  0  0  0
 11 12  1  0  0  0  0
 11 32  1  0  0  0  0
 11 33  1  0  0  0  0
 12 17  1  0  0  0  0
 12 13  1  0  0  0  0
 12 34  1  0  0  0  0
 13 14  1  0  0  0  0
 13 35  1  0  0  0  0
 13 36  1  0  0  0  0
 14 15  1  0  0  0  0
 14 37  1  0  0  0  0
 14 38  1  0  0  0  0
 15 16  1  0  0  0  0
 15 39  1  0  0  0  0
 15 40  1  0  0  0  0
 16 17  1  0  0  0  0
 16 41  1  0  0  0  0
 16 42  1  0  0  0  0
 18 43  1  0  0  0  0
M  CHG  1  10   1
M  END
> <s_m_source_file>
AV-unprocessed.smi

> <i_m_source_file_index>
3249

> <i_lp_mmshare_version>
43012

> <i_f3d_flags>
0

> <s_epik_input>
W0NIM11jMVtjSF1ubihbY0hdMSlbQ0BIXShbQ0gzXSlbQ0BIXShbQ0gzXSlbTkhdW0NIMl1bQ0BASF0yW0NIMl1bQ0gyXVtDSDJdW0NIMl1PMg==

> <s_epik_cmdline>
J2VwaWtfcHl0aG9uJywgJy1waCcsICc3LjAnLCAnLXRuJywgJzgnLCAnLW1hJywgJzIwMCcsICctbWV0YWxfYmluZGluZycsICctaW1hZScsICc8aW5maWxlLm1hZT4nLCAnLW9tYWUnLCAnPG91dGZpbGUubWFlPic=

> <r_lp_tautomer_probability>
1

> <r_epik_Ionization_Penalty>
0.00659207

> <r_epik_Ionization_Penalty_Charging>
0.00656881

> <r_epik_Ionization_Penalty_Neutral>
2.32662e-05

> <r_epik_State_Penalty>
0.0048654

> <r_epik_Charging_Adjusted_Penalty>
0.0114342

> <i_epik_Tot_Q>
1

> <i_epik_Tot_abs_Q>
1

> <r_epik_Metal_State_Penalty>
-0

> <b_epik_Metal_Only>
0

> <s_lp_Force_Field>
OPLS_2005

> <r_lp_Energy>
17.4327

> <b_lp_Chiralities_Consistent>
1

> <s_lp_Variant>
AV-unprocessed.smi:3249-2

> <Gold.Version>
5.8.1

> <Gold.Id.Protein>
6NUR|6NUR_protein|mol2

> <Gold.PLP.Fitness>
48.5955

> <Gold.PLP.PLP>
-40.6120

> <Gold.PLP.part.hbond>
-2.0000

> <Gold.PLP.part.metal>
0.0000

> <Gold.PLP.part.buried>
-0.6253

> <Gold.PLP.part.nonpolar>
-37.9980

> <Gold.PLP.part.repulsive>
1.1340

> <Gold.PLP.ligand.clash>
0.0000

> <Gold.PLP.ligand.torsion>
0.6487

> <Gold.PLP.Chemscore.Hbond>
2.0000

> <Gold.PLP.Chemscore.CHOScore>
1.0578

> <Gold.PLP.Chemscore.Metal>
0.0000

> <Gold.Chemscore.Hbonds>
donor molecule, donor type, donor heavy atom, donor atom, acceptor molecule, acceptor atom, score
      L1  H    10    44       P1  8028  1.06

> <Gold.PLP.Chemscore.Internal.Correction>
0.1075

> <Gold.Rescore>
     Score         DG    S(hbond)    S(metal)    S(lipo)     H(rot)  DE(clash)    DE(int)     intcor
     16.53     -18.74       0.99        0.00     118.71       1.53       1.63       0.58       ----

> <Gold.Chemscore.Fitness>
16.5311

> <Gold.Chemscore.DG>
-18.7402

> <Gold.Chemscore.ZeroCoef>
-5.4800

> <Gold.Chemscore.Hbond>
0.9868

> <Gold.Chemscore.Metal>
0.0000

> <Gold.Chemscore.Lipo>
118.7130

> <Gold.Chemscore.Internal_Hbond>
0.0000

> <Gold.Chemscore.DEClash>
1.6270

> <Gold.Chemscore.DEInternal>
0.5822

> <Gold.Chemscore.Rot>
1.5333

> <Gold.Chemscore.Internal.Correction>
   9.000000E+99

> <Gold.Chemscore.Hbonds>
donor molecule, donor type, donor heavy atom, donor atom, acceptor molecule, acceptor atom, score
      L1  H    10    44       P1  8028  0.53

> <Gold.Chemscore.Hbond.Weighted>
-3.2960

> <Gold.Chemscore.Metal.Weighted>
-0.0000

> <Gold.Chemscore.Lipo.Weighted>
-13.8894

> <Gold.Chemscore.Internal_Hbond.Weighted>
0.0000

> <Gold.Chemscore.DEClash.Weighted>
1.6270

> <Gold.Chemscore.DEInternal.Weighted>
0.5822

> <Gold.Chemscore.Rot.Weighted>
3.9252

> <Gold.Chemscore.Internal.Correction.Weighted>
   9.000000E+99

> <Gold.Protein.RotatedTorsions>
[ 6907 6896 6895 6894 ] final   98.86 input  -60.11 | X-H torsion
[ 7974 7965 7964 7962 ] final -159.42 input  175.53 | X-H torsion
[ 8008 7997 7996 7995 ] final   37.37 input   59.86 | X-H torsion
[ 10167 10162 10161 10158 ] final   88.95 input  -65.29 | X-H torsion
[ 10718 10713 10712 10709 ] final  110.15 input   66.30 | X-H torsion
[ 10763 10752 10751 10750 ] final -150.33 input  -60.55 | X-H torsion
[ 11005 11000 10999 10996 ] final -142.99 input  -57.11 | X-H torsion

> <Gold.Protein.ActiveResidues>
 VAL166  LYS551  ARG553  GLY616  TRP617  ASP618  TYR619  PRO620  LYS621  CYS622 
 ASP623  PHE694  ASN695  SER759  ASP760  ASP761  ALA762  ILE779  LEU786  VAL792 
 PHE793  MET794  SER795  GLU796  ALA797  LYS798  CYS799  TRP800  GLU811  SER814 

> <Gold.Protein.RotatedAtoms>
  152.5402  134.0516  159.8112 H   0  0  0  0  0  0  0  0  0  0  0  0  # atno 6907 bound_to 6896
  151.0657  133.5500  159.2638 H   0  0  0  0  0  0  0  0  0  0  0  0  # atno 6908 bound_to 6896
  151.2382  135.0587  159.9068 H   0  0  0  0  0  0  0  0  0  0  0  0  # atno 6909 bound_to 6896
  144.7466  140.3687  143.6080 H   0  0  0  0  0  0  0  0  0  0  0  0  # atno 7974 bound_to 7965
  155.2027  140.3317  155.4340 H   0  0  0  0  0  0  0  0  0  0  0  0  # atno 8008 bound_to 7997
  156.2400  140.1891  156.7063 H   0  0  0  0  0  0  0  0  0  0  0  0  # atno 8009 bound_to 7997
  154.6130  140.0606  156.9504 H   0  0  0  0  0  0  0  0  0  0  0  0  # atno 8010 bound_to 7997
  139.8621  144.6538  150.9046 H   0  0  0  0  0  0  0  0  0  0  0  0  # atno 10167 bound_to 10162
  157.6508  131.0927  150.6559 H   0  0  0  0  0  0  0  0  0  0  0  0  # atno 10718 bound_to 10713
  154.8125  135.3287  154.7267 H   0  0  0  0  0  0  0  0  0  0  0  0  # atno 10763 bound_to 10752
  153.7913  135.6911  153.4875 H   0  0  0  0  0  0  0  0  0  0  0  0  # atno 10764 bound_to 10752
  153.1915  135.4549  155.0101 H   0  0  0  0  0  0  0  0  0  0  0  0  # atno 10765 bound_to 10752
  140.8170  134.2677  157.4917 H   0  0  0  0  0  0  0  0  0  0  0  0  # atno 11005 bound_to 11000
  145.7100  139.1682  143.2544 LP  0  0  0  0  0  0  0  0  0  0  0  0  # atno 17320 bound_to 7965
  146.1354  140.7130  142.9392 LP  0  0  0  0  0  0  0  0  0  0  0  0  # atno 17321 bound_to 7965
  140.7773  143.3735  151.1606 LP  0  0  0  0  0  0  0  0  0  0  0  0  # atno 17342 bound_to 10162
  139.7363  143.8993  152.3036 LP  0  0  0  0  0  0  0  0  0  0  0  0  # atno 17343 bound_to 10162
  156.6871  130.4584  149.5610 LP  0  0  0  0  0  0  0  0  0  0  0  0  # atno 17370 bound_to 10713
  156.1888  130.6546  151.1037 LP  0  0  0  0  0  0  0  0  0  0  0  0  # atno 17371 bound_to 10713
  139.8710  134.9514  156.4085 LP  0  0  0  0  0  0  0  0  0  0  0  0  # atno 17394 bound_to 11000
  140.9139  133.7692  155.9824 LP  0  0  0  0  0  0  0  0  0  0  0  0  # atno 17395 bound_to 11000

$$$$
