#       Name:                AV-unprocessed.smi:72
#       Creating user name   scv26
#       Creation time:       Thu Mar 26 17:09:01 2020


#       File generated by GOLD software.
#

@<TRIPOS>MOLECULE
AV-unprocessed.smi:72
    41    42     1
SMALL
NO_CHARGES


@<TRIPOS>ATOM
      1 ****        -5.1286  -0.3310   0.2620 N.pl3          1 S1                 0.0000
      2 ****        -3.7588  -0.4909   0.2414 C.2            1 S1                 0.0000
      3 ****        -2.9959   0.6209   0.6238 N.2            1 S1                 0.0000
      4 ****        -1.7088   0.4748   0.6093 C.2            1 S1                 0.0000
      5 ****        -1.0960  -0.7820   0.2127 N.am           1 S1                 0.0000
      6 ****         0.4097  -0.9854   0.1888 C.3            1 S1                 0.0000
      7 ****         1.0361  -0.0334   1.0002 O.3            1 S1                 0.0000
      8 ****         1.7229   0.9224   0.1974 C.3            1 S1                 0.0000
      9 ****         2.8364   1.6237   0.9946 C.3            1 S1                 0.0000
     10 ****         2.2965   2.6881   1.7486 O.3            1 S1                 0.0000
     11 ****         2.1910   0.0889  -1.0019 C.3            1 S1                 0.0000
     12 ****         3.3689  -0.6349  -0.6939 O.3            1 S1                 0.0000
     13 ****         1.0245  -0.8639  -1.2277 C.3            1 S1                 0.0000
     14 ****         0.1431  -0.3152  -2.1925 O.3            1 S1                 0.0000
     15 ****        -1.9325  -1.8673  -0.1677 C.2            1 S1                 0.0000
     16 ****        -1.4338  -2.9364  -0.5195 O.2            1 S1                 0.0000
     17 ****        -3.3160  -1.6574  -0.1311 N.2            1 S1                 0.0000
     18 ****         0.5789  -1.9611   0.6473 H              1 S1                 0.0000
     19 ****         1.0072   1.6605  -0.1690 H              1 S1                 0.0000
     20 ****         2.3993   0.7126  -1.8724 H              1 S1                 0.0000
     21 ****         1.3473  -1.8460  -1.5760 H              1 S1                 0.0000
     22 ****        -5.7759  -1.0626   0.0068 H              1 S1                 0.0000
     23 ****        -5.5851   0.5285   0.5311 H              1 S1                 0.0000
     24 ****        -1.0218   1.2732   0.8892 H              1 S1                 0.0000
     25 ****         3.3591   0.9250   1.6485 H              1 S1                 0.0000
     26 ****         3.5743   2.0492   0.3138 H              1 S1                 0.0000
     27 ****         2.9965   3.1012   2.2306 H              1 S1                 0.0000
     28 ****         4.0651  -0.0181  -0.5274 H              1 S1                 0.0000
     29 ****        -0.6053  -0.8868  -2.2723 H              1 S1                 0.0000
     30 ****        -3.4235   1.4835   0.8942 LP             1 S1                 0.0000
     31 ****         1.6911  -0.4913   1.6013 LP             1 S1                 0.0000
     32 ****         0.3466   0.4343   1.5532 LP             1 S1                 0.0000
     33 ****         1.6108   2.3360   2.3856 LP             1 S1                 0.0000
     34 ****         1.8711   3.3537   1.1354 LP             1 S1                 0.0000
     35 ****         3.6156  -1.2217  -1.4651 LP             1 S1                 0.0000
     36 ****         3.2161  -1.1982   0.1181 LP             1 S1                 0.0000
     37 ****         0.6095  -0.2443  -3.0743 LP             1 S1                 0.0000
     38 ****        -0.1554   0.5931  -1.8993 LP             1 S1                 0.0000
     39 ****        -0.4395  -3.0422  -0.5380 LP             1 S1                 0.0000
     40 ****        -2.0229  -3.6989  -0.7868 LP             1 S1                 0.0000
     41 ****        -3.9504  -2.3873  -0.3855 LP             1 S1                 0.0000
@<TRIPOS>BOND
    1    1    2 1     
    2    1   22 1     
    3    1   23 1     
    4    2   17 2     
    5    2    3 1     
    6    3    4 2     
    7    4    5 1     
    8    4   24 1     
    9    5    6 1     
   10    5   15 am    
   11    6   18 1     
   12    6   13 1     
   13    6    7 1     
   14    7    8 1     
   15    8   19 1     
   16    8    9 1     
   17    8   11 1     
   18    9   10 1     
   19    9   25 1     
   20    9   26 1     
   21   10   27 1     
   22   11   20 1     
   23   11   12 1     
   24   11   13 1     
   25   12   28 1     
   26   13   21 1     
   27   13   14 1     
   28   14   29 1     
   29   15   16 2     
   30   15   17 1     
   31    3   30 1     
   32    7   31 1     
   33    7   32 1     
   34   10   33 1     
   35   10   34 1     
   36   12   35 1     
   37   12   36 1     
   38   14   37 1     
   39   14   38 1     
   40   16   39 1     
   41   16   40 1     
   42   17   41 1     
@<TRIPOS>SUBSTRUCTURE
      1 S1             1
@<TRIPOS>SET
LONE_PAIRS      STATIC     ATOMS    <user>   **** ""
12 30 31 32 33 34 35 36 37 38 39 40 41
DONOR_HYDROGENS      STATIC     ATOMS    <user>   **** ""
5 22 23 27 28 29
ATOM$BLUE        STATIC     ATOMS    COLORGROUP SYSTEM
12 30 31 32 33 34 35 36 37 38 39 40 41
ATOM$RED        STATIC     ATOMS    COLORGROUP SYSTEM
5 22 23 27 28 29
