AV-unprocessed.smi:2021|AV-procd|sdf|8180|dock8
  -GOLD-   2272010433D 1   1.00000     0.00000
 Structure written by MMmdl.
 41 42  0  0  0  0  0  0  0  0  1 V2000
  152.4406  140.5624  159.3801 C   0  0  0  0  0  0  0  0  0  0  0  0
  152.7178  141.8389  158.5704 C   0  0  0  0  0  0  0  0  0  0  0  0
  153.1862  142.9629  159.5104 C   0  0  0  0  0  0  0  0  0  0  0  0
  151.4752  142.2573  157.7496 C   0  0  0  0  0  0  0  0  0  0  0  0
  150.8597  141.1972  156.9497 N   0  0  0  0  0  0  0  0  0  0  0  0
  151.8413  140.3371  156.2942 C   0  0  0  0  0  0  0  0  0  0  0  0
  151.1714  139.2546  155.4313 C   0  0  0  0  0  0  0  0  0  0  0  0
  150.3068  139.8680  154.4817 O   0  0  0  0  0  0  0  0  0  0  0  0
  149.2923  140.6650  155.0888 C   0  0  2  0  0  0  0  0  0  0  0  0
  148.4090  141.2614  153.9795 C   0  0  0  0  0  0  0  0  0  0  0  0
  147.8997  140.2293  153.0828 N   0  0  0  0  0  0  0  0  0  0  0  0
  146.8945  139.3897  153.3680 C   0  0  0  0  0  0  0  0  0  0  0  0
  146.2643  139.4212  154.4249 O   0  0  0  0  0  0  0  0  0  0  0  0
  146.6814  138.5274  152.3612 N   0  0  0  0  0  0  0  0  0  0  0  0
  145.7340  137.4749  152.3007 C   0  0  0  0  0  0  0  0  0  0  0  0
  144.7875  137.4267  153.2456 N   0  0  0  0  0  0  0  0  0  0  0  0
  143.9255  136.3520  153.0644 N   0  0  0  0  0  0  0  0  0  0  0  0
  144.2565  135.6308  151.9891 C   0  0  0  0  0  0  0  0  0  0  0  0
  145.6548  136.1915  151.0896 S   0  0  0  0  0  0  0  0  0  0  0  0
  149.9695  141.7581  155.9384 C   0  0  0  0  0  0  0  0  0  0  0  0
  151.6274  140.7112  160.0911 H   0  0  0  0  0  0  0  0  0  0  0  0
  153.3223  140.2529  159.9420 H   0  0  0  0  0  0  0  0  0  0  0  0
  152.1644  139.7347  158.7260 H   0  0  0  0  0  0  0  0  0  0  0  0
  153.5323  141.6038  157.8837 H   0  0  0  0  0  0  0  0  0  0  0  0
  152.4204  143.2053  160.2478 H   0  0  0  0  0  0  0  0  0  0  0  0
  153.4181  143.8770  158.9656 H   0  0  0  0  0  0  0  0  0  0  0  0
  154.0860  142.6708  160.0525 H   0  0  0  0  0  0  0  0  0  0  0  0
  150.7212  142.6244  158.4473 H   0  0  0  0  0  0  0  0  0  0  0  0
  151.7142  143.1132  157.1163 H   0  0  0  0  0  0  0  0  0  0  0  0
  152.5040  140.9390  155.6705 H   0  0  0  0  0  0  0  0  0  0  0  0
  152.4672  139.8457  157.0382 H   0  0  0  0  0  0  0  0  0  0  0  0
  151.9247  138.6704  154.9029 H   0  0  0  0  0  0  0  0  0  0  0  0
  150.6052  138.5599  156.0537 H   0  0  0  0  0  0  0  0  0  0  0  0
  148.6827  140.0344  155.7388 H   0  0  0  0  0  0  0  0  0  0  0  0
  147.5753  141.8158  154.4140 H   0  0  0  0  0  0  0  0  0  0  0  0
  148.9817  141.9772  153.3894 H   0  0  0  0  0  0  0  0  0  0  0  0
  148.3650  140.1324  152.1923 H   0  0  0  0  0  0  0  0  0  0  0  0
  147.2738  138.6247  151.5499 H   0  0  0  0  0  0  0  0  0  0  0  0
  143.6720  134.7624  151.7231 H   0  0  0  0  0  0  0  0  0  0  0  0
  149.2011  142.3634  156.4208 H   0  0  0  0  0  0  0  0  0  0  0  0
  150.5301  142.4296  155.2857 H   0  0  0  0  0  0  0  0  0  0  0  0
  1  2  1  0  0  0  0
  1 21  1  0  0  0  0
  1 22  1  0  0  0  0
  1 23  1  0  0  0  0
  2  3  1  0  0  0  0
  2  4  1  0  0  0  0
  2 24  1  0  0  0  0
  3 25  1  0  0  0  0
  3 26  1  0  0  0  0
  3 27  1  0  0  0  0
  4  5  1  0  0  0  0
  4 28  1  0  0  0  0
  4 29  1  0  0  0  0
  5 20  1  0  0  0  0
  5  6  1  0  0  0  0
  6  7  1  0  0  0  0
  6 30  1  0  0  0  0
  6 31  1  0  0  0  0
  7  8  1  0  0  0  0
  7 32  1  0  0  0  0
  7 33  1  0  0  0  0
  8  9  1  0  0  0  0
  9 10  1  0  0  0  0
  9 20  1  0  0  0  0
  9 34  1  0  0  0  0
 10 11  1  0  0  0  0
 10 35  1  0  0  0  0
 10 36  1  0  0  0  0
 11 12  1  0  0  0  0
 11 37  1  0  0  0  0
 12 13  2  0  0  0  0
 12 14  1  0  0  0  0
 14 15  1  0  0  0  0
 14 38  1  0  0  0  0
 15 19  1  0  0  0  0
 15 16  2  0  0  0  0
 16 17  1  0  0  0  0
 17 18  2  0  0  0  0
 18 19  1  0  0  0  0
 18 39  1  0  0  0  0
 20 40  1  0  0  0  0
 20 41  1  0  0  0  0
M  END
> <s_m_source_file>
AV-unprocessed.smi

> <i_m_source_file_index>
2021

> <i_lp_mmshare_version>
43012

> <i_f3d_flags>
0

> <s_epik_input>
W0NIM11bQ0hdKFtDSDNdKVtDSDJdTjFbQ0gyXVtDSDJdT1tDQEhdKFtDSDJdMSlbQ0gyXVtOSF1DKD1PKVtOSF1jMm5uW2NIXXMy

> <s_epik_cmdline>
J2VwaWtfcHl0aG9uJywgJy1waCcsICc3LjAnLCAnLXRuJywgJzgnLCAnLW1hJywgJzIwMCcsICctbWV0YWxfYmluZGluZycsICctaW1hZScsICc8aW5maWxlLm1hZT4nLCAnLW9tYWUnLCAnPG91dGZpbGUubWFlPic=

> <r_lp_tautomer_probability>
1

> <r_epik_Ionization_Penalty>
1.11451

> <r_epik_Ionization_Penalty_Charging>
0

> <r_epik_Ionization_Penalty_Neutral>
1.11451

> <r_epik_State_Penalty>
1.17021

> <r_epik_Charging_Adjusted_Penalty>
1.17021

> <i_epik_Tot_Q>
0

> <i_epik_Tot_abs_Q>
0

> <r_epik_Metal_State_Penalty>
1.53642

> <b_epik_Metal_Only>
0

> <s_lp_Force_Field>
OPLS_2005

> <r_lp_Energy>
23.4775

> <b_lp_Chiralities_Consistent>
1

> <s_lp_Variant>
AV-unprocessed.smi:2021-6

> <Gold.Version>
5.8.1

> <Gold.Id.Protein>
6NUR|6NUR_protein|mol2

> <Gold.PLP.Fitness>
40.3701

> <Gold.PLP.PLP>
-35.0984

> <Gold.PLP.part.hbond>
-2.5900

> <Gold.PLP.part.metal>
0.0000

> <Gold.PLP.part.buried>
-4.9321

> <Gold.PLP.part.nonpolar>
-29.3790

> <Gold.PLP.part.repulsive>
0.7492

> <Gold.PLP.ligand.clash>
0.0000

> <Gold.PLP.ligand.torsion>
0.3532

> <Gold.PLP.Chemscore.Hbond>
1.9750

> <Gold.PLP.Chemscore.CHOScore>
0.0000

> <Gold.PLP.Chemscore.Metal>
0.0000

> <Gold.Chemscore.Hbonds>
donor molecule, donor type, donor heavy atom, donor atom, acceptor molecule, acceptor atom, score
      L1  H    11    37       P1  7957  1.00
      P1  H  7989  7998       L1     8  0.95

> <Gold.PLP.Chemscore.Internal.Correction>
0.0530

> <Gold.Rescore>
     Score         DG    S(hbond)    S(metal)    S(lipo)     H(rot)  DE(clash)    DE(int)     intcor
     13.72     -15.47       1.54        0.00      81.64       1.84       0.02       1.73       ----

> <Gold.Chemscore.Fitness>
13.7225

> <Gold.Chemscore.DG>
-15.4749

> <Gold.Chemscore.ZeroCoef>
-5.4800

> <Gold.Chemscore.Hbond>
1.5441

> <Gold.Chemscore.Metal>
0.0000

> <Gold.Chemscore.Lipo>
81.6357

> <Gold.Chemscore.Internal_Hbond>
0.0000

> <Gold.Chemscore.DEClash>
0.0207

> <Gold.Chemscore.DEInternal>
1.7317

> <Gold.Chemscore.Rot>
1.8413

> <Gold.Chemscore.Internal.Correction>
   9.000000E+99

> <Gold.Chemscore.Hbonds>
donor molecule, donor type, donor heavy atom, donor atom, acceptor molecule, acceptor atom, score
      L1  H    11    37       P1  7957  0.98
      P1  H  7989  7998       L1     8  0.19

> <Gold.Chemscore.Hbond.Weighted>
-5.1573

> <Gold.Chemscore.Metal.Weighted>
-0.0000

> <Gold.Chemscore.Lipo.Weighted>
-9.5514

> <Gold.Chemscore.Internal_Hbond.Weighted>
0.0000

> <Gold.Chemscore.DEClash.Weighted>
0.0207

> <Gold.Chemscore.DEInternal.Weighted>
1.7317

> <Gold.Chemscore.Rot.Weighted>
4.7138

> <Gold.Chemscore.Internal.Correction.Weighted>
   9.000000E+99

> <Gold.Protein.RotatedTorsions>
[ 6907 6896 6895 6894 ] final  118.56 input  -60.11 | X-H torsion
[ 7974 7965 7964 7962 ] final   63.87 input  175.53 | X-H torsion
[ 8008 7997 7996 7995 ] final    4.25 input   59.86 | X-H torsion
[ 10167 10162 10161 10158 ] final   32.77 input  -65.29 | X-H torsion
[ 10718 10713 10712 10709 ] final  104.20 input   66.30 | X-H torsion
[ 10763 10752 10751 10750 ] final   25.74 input  -60.55 | X-H torsion
[ 11005 11000 10999 10996 ] final  -29.81 input  -57.11 | X-H torsion

> <Gold.Protein.ActiveResidues>
 VAL166  LYS551  ARG553  GLY616  TRP617  ASP618  TYR619  PRO620  LYS621  CYS622 
 ASP623  PHE694  ASN695  SER759  ASP760  ASP761  ALA762  ILE779  LEU786  VAL792 
 PHE793  MET794  SER795  GLU796  ALA797  LYS798  CYS799  TRP800  GLU811  SER814 

> <Gold.Protein.RotatedAtoms>
  152.4534  133.7674  159.6779 H   0  0  0  0  0  0  0  0  0  0  0  0  # atno 6907 bound_to 6896
  150.8453  133.7862  159.3052 H   0  0  0  0  0  0  0  0  0  0  0  0  # atno 6908 bound_to 6896
  151.5474  135.1070  159.9993 H   0  0  0  0  0  0  0  0  0  0  0  0  # atno 6909 bound_to 6896
  145.8568  139.3289  143.0842 H   0  0  0  0  0  0  0  0  0  0  0  0  # atno 7974 bound_to 7965
  154.7136  140.2697  155.6606 H   0  0  0  0  0  0  0  0  0  0  0  0  # atno 8008 bound_to 7997
  156.2803  140.2748  156.1710 H   0  0  0  0  0  0  0  0  0  0  0  0  # atno 8009 bound_to 7997
  155.0601  140.0371  157.2563 H   0  0  0  0  0  0  0  0  0  0  0  0  # atno 8010 bound_to 7997
  140.4468  144.1107  150.6184 H   0  0  0  0  0  0  0  0  0  0  0  0  # atno 10167 bound_to 10162
  157.6748  131.0798  150.5671 H   0  0  0  0  0  0  0  0  0  0  0  0  # atno 10718 bound_to 10713
  153.0671  135.6576  154.0331 H   0  0  0  0  0  0  0  0  0  0  0  0  # atno 10763 bound_to 10752
  153.9985  135.2939  155.3406 H   0  0  0  0  0  0  0  0  0  0  0  0  # atno 10764 bound_to 10752
  154.7032  135.5236  153.8626 H   0  0  0  0  0  0  0  0  0  0  0  0  # atno 10765 bound_to 10752
  140.9328  133.7327  156.0961 H   0  0  0  0  0  0  0  0  0  0  0  0  # atno 11005 bound_to 11000
  145.9294  140.9059  143.0364 LP  0  0  0  0  0  0  0  0  0  0  0  0  # atno 17320 bound_to 7965
  144.6727  140.1397  143.7438 LP  0  0  0  0  0  0  0  0  0  0  0  0  # atno 17321 bound_to 7965
  140.4254  143.2592  151.9663 LP  0  0  0  0  0  0  0  0  0  0  0  0  # atno 17342 bound_to 10162
  139.4793  144.5793  151.7959 LP  0  0  0  0  0  0  0  0  0  0  0  0  # atno 17343 bound_to 10162
  156.5973  130.4345  149.5912 LP  0  0  0  0  0  0  0  0  0  0  0  0  # atno 17370 bound_to 10713
  156.2535  130.6921  151.1666 LP  0  0  0  0  0  0  0  0  0  0  0  0  # atno 17371 bound_to 10713
  140.7839  134.3694  157.5481 LP  0  0  0  0  0  0  0  0  0  0  0  0  # atno 17394 bound_to 11000
  139.8800  134.9099  156.3001 LP  0  0  0  0  0  0  0  0  0  0  0  0  # atno 17395 bound_to 11000

$$$$
