AV-unprocessed.smi:750|AV-procd|sdf|3593|dock6
  -GOLD-   22720 0583D 1   1.00000     0.00000
 Structure written by MMmdl.
 22 23  0  0  0  0  0  0  0  0  2 V2000
  150.6806  138.7855  158.6310 C   0  0  0  0  0  0  0  0  0  0  0  0
  151.3569  139.8758  157.7717 C   0  0  2  0  0  0  0  0  0  0  0  0
  151.8646  141.0475  158.6341 C   0  0  0  0  0  0  0  0  0  0  0  0
  152.8389  140.8821  159.6498 C   0  0  0  0  0  0  0  0  0  0  0  0
  153.2529  141.9995  160.3998 C   0  0  0  0  0  0  0  0  0  0  0  0
  152.6804  143.2516  160.1098 C   0  0  0  0  0  0  0  0  0  0  0  0
  151.7524  143.4345  159.1489 N   0  0  0  0  0  0  0  0  0  0  0  0
  151.3608  142.3565  158.4360 C   0  0  0  0  0  0  0  0  0  0  0  0
  150.4373  140.2713  156.7108 N   0  5  0  0  0  0  0  0  0  0  0  0
  151.0024  139.9991  155.5112 C   0  0  0  0  0  0  0  0  0  0  0  0
  150.5346  140.2070  154.3941 O   0  0  0  0  0  0  0  0  0  0  0  0
  152.2039  139.4392  155.6744 N   0  0  0  0  0  0  0  0  0  0  0  0
  152.5101  139.2955  156.9599 C   0  0  0  0  0  0  0  0  0  0  0  0
  153.5289  138.7849  157.4251 O   0  0  0  0  0  0  0  0  0  0  0  0
  151.3625  138.3582  159.3661 H   0  0  0  0  0  0  0  0  0  0  0  0
  150.3157  137.9591  158.0188 H   0  0  0  0  0  0  0  0  0  0  0  0
  149.8258  139.1903  159.1739 H   0  0  0  0  0  0  0  0  0  0  0  0
  153.2749  139.9190  159.8686 H   0  0  0  0  0  0  0  0  0  0  0  0
  153.9927  141.8971  161.1797 H   0  0  0  0  0  0  0  0  0  0  0  0
  152.9752  144.1295  160.6655 H   0  0  0  0  0  0  0  0  0  0  0  0
  150.6117  142.5515  157.6834 H   0  0  0  0  0  0  0  0  0  0  0  0
  152.7982  139.1450  154.9139 H   0  0  0  0  0  0  0  0  0  0  0  0
  1  2  1  0  0  0  0
  1 15  1  0  0  0  0
  1 16  1  0  0  0  0
  1 17  1  0  0  0  0
  2 13  1  0  0  0  0
  2  3  1  0  0  0  0
  2  9  1  0  0  0  0
  3  8  1  0  0  0  0
  3  4  2  0  0  0  0
  4  5  1  0  0  0  0
  4 18  1  0  0  0  0
  5  6  2  0  0  0  0
  5 19  1  0  0  0  0
  6  7  1  0  0  0  0
  6 20  1  0  0  0  0
  7  8  2  0  0  0  0
  8 21  1  0  0  0  0
  9 10  1  0  0  0  0
 10 11  2  0  0  0  0
 10 12  1  0  0  0  0
 12 13  1  0  0  0  0
 12 22  1  0  0  0  0
 13 14  2  0  0  0  0
M  CHG  1   9  -1
M  END
> <s_m_source_file>
AV-unprocessed.smi

> <i_m_source_file_index>
750

> <i_lp_mmshare_version>
43012

> <i_f3d_flags>
0

> <s_epik_input>
Tz1DMVtOSF1DKD1PKVtOSF1bQ0BAXTEoW0NIM10pYzJbY0hdW2NIXVtjSF1uW2NIXTI=

> <s_epik_cmdline>
J2VwaWtfcHl0aG9uJywgJy1waCcsICc3LjAnLCAnLXRuJywgJzgnLCAnLW1hJywgJzIwMCcsICctbWV0YWxfYmluZGluZycsICctaW1hZScsICc8aW5maWxlLm1hZT4nLCAnLW9tYWUnLCAnPG91dGZpbGUubWFlPic=

> <r_lp_tautomer_probability>
1

> <r_epik_Ionization_Penalty>
4.84674

> <r_epik_Ionization_Penalty_Charging>
4.8337

> <r_epik_Ionization_Penalty_Neutral>
0.0130349

> <r_epik_State_Penalty>
4.85653

> <r_epik_Charging_Adjusted_Penalty>
9.69023

> <i_epik_Tot_Q>
-1

> <i_epik_Tot_abs_Q>
1

> <r_epik_Metal_State_Penalty>
1.3191

> <b_epik_Metal_Only>
1

> <s_lp_Force_Field>
OPLS_2005

> <r_lp_Energy>
14.3278

> <b_lp_Chiralities_Consistent>
1

> <s_lp_Variant>
AV-unprocessed.smi:750-6

> <Gold.Version>
5.8.1

> <Gold.Id.Protein>
6NUR|6NUR_protein|mol2

> <Gold.PLP.Fitness>
30.7808

> <Gold.PLP.PLP>
-24.7872

> <Gold.PLP.part.hbond>
-1.9753

> <Gold.PLP.part.metal>
0.0000

> <Gold.PLP.part.buried>
-3.5926

> <Gold.PLP.part.nonpolar>
-19.1295

> <Gold.PLP.part.repulsive>
0.3048

> <Gold.PLP.ligand.clash>
0.0000

> <Gold.PLP.ligand.torsion>
0.0306

> <Gold.PLP.Chemscore.Hbond>
2.0000

> <Gold.PLP.Chemscore.CHOScore>
0.0000

> <Gold.PLP.Chemscore.Metal>
0.0000

> <Gold.Chemscore.Hbonds>
donor molecule, donor type, donor heavy atom, donor atom, acceptor molecule, acceptor atom, score
      P1  H  7989  7998       L1    11  1.00
      P1  H  7997  8010       L1    14  0.99

> <Gold.PLP.Chemscore.Internal.Correction>
0.0547

> <Gold.Rescore>
     Score         DG    S(hbond)    S(metal)    S(lipo)     H(rot)  DE(clash)    DE(int)     intcor
     14.11     -14.24       1.44        0.00      55.65       1.00       0.11       0.03       ----

> <Gold.Chemscore.Fitness>
14.1067

> <Gold.Chemscore.DG>
-14.2416

> <Gold.Chemscore.ZeroCoef>
-5.4800

> <Gold.Chemscore.Hbond>
1.4401

> <Gold.Chemscore.Metal>
0.0000

> <Gold.Chemscore.Lipo>
55.6542

> <Gold.Chemscore.Internal_Hbond>
0.0000

> <Gold.Chemscore.DEClash>
0.1075

> <Gold.Chemscore.DEInternal>
0.0274

> <Gold.Chemscore.Rot>
1.0000

> <Gold.Chemscore.Internal.Correction>
   9.000000E+99

> <Gold.Chemscore.Hbonds>
donor molecule, donor type, donor heavy atom, donor atom, acceptor molecule, acceptor atom, score
      P1  H  7989  7998       L1    11  0.71
      P1  H  7997  8010       L1    14  0.28

> <Gold.Chemscore.Hbond.Weighted>
-4.8101

> <Gold.Chemscore.Metal.Weighted>
-0.0000

> <Gold.Chemscore.Lipo.Weighted>
-6.5115

> <Gold.Chemscore.Internal_Hbond.Weighted>
0.0000

> <Gold.Chemscore.DEClash.Weighted>
0.1075

> <Gold.Chemscore.DEInternal.Weighted>
0.0274

> <Gold.Chemscore.Rot.Weighted>
2.5600

> <Gold.Chemscore.Internal.Correction.Weighted>
   9.000000E+99

> <Gold.Protein.RotatedTorsions>
[ 6907 6896 6895 6894 ] final   46.07 input  -60.11 | X-H torsion
[ 7974 7965 7964 7962 ] final -158.83 input  175.53 | X-H torsion
[ 8008 7997 7996 7995 ] final   26.37 input   59.86 | X-H torsion
[ 10167 10162 10161 10158 ] final -168.78 input  -65.29 | X-H torsion
[ 10718 10713 10712 10709 ] final   71.74 input   66.30 | X-H torsion
[ 10763 10752 10751 10750 ] final   50.75 input  -60.55 | X-H torsion
[ 11005 11000 10999 10996 ] final  106.25 input  -57.11 | X-H torsion

> <Gold.Protein.ActiveResidues>
 VAL166  LYS551  ARG553  GLY616  TRP617  ASP618  TYR619  PRO620  LYS621  CYS622 
 ASP623  PHE694  ASN695  SER759  ASP760  ASP761  ALA762  ILE779  LEU786  VAL792 
 PHE793  MET794  SER795  GLU796  ALA797  LYS798  CYS799  TRP800  GLU811  SER814 

> <Gold.Protein.RotatedAtoms>
  152.2520  134.8123  160.0444 H   0  0  0  0  0  0  0  0  0  0  0  0  # atno 6907 bound_to 6896
  151.8800  133.3488  159.3771 H   0  0  0  0  0  0  0  0  0  0  0  0  # atno 6908 bound_to 6896
  150.7087  134.4955  159.5580 H   0  0  0  0  0  0  0  0  0  0  0  0  # atno 6909 bound_to 6896
  144.7489  140.3771  143.6063 H   0  0  0  0  0  0  0  0  0  0  0  0  # atno 7974 bound_to 7965
  155.0262  140.3153  155.4775 H   0  0  0  0  0  0  0  0  0  0  0  0  # atno 8008 bound_to 7997
  156.2883  140.2188  156.5325 H   0  0  0  0  0  0  0  0  0  0  0  0  # atno 8009 bound_to 7997
  154.7409  140.0473  157.0798 H   0  0  0  0  0  0  0  0  0  0  0  0  # atno 8010 bound_to 7997
  139.5964  144.1104  152.1693 H   0  0  0  0  0  0  0  0  0  0  0  0  # atno 10167 bound_to 10162
  157.6466  130.9543  150.0831 H   0  0  0  0  0  0  0  0  0  0  0  0  # atno 10718 bound_to 10713
  152.9784  135.5868  154.4304 H   0  0  0  0  0  0  0  0  0  0  0  0  # atno 10763 bound_to 10752
  154.3917  135.2768  155.2152 H   0  0  0  0  0  0  0  0  0  0  0  0  # atno 10764 bound_to 10752
  154.4021  135.6101  153.5958 H   0  0  0  0  0  0  0  0  0  0  0  0  # atno 10765 bound_to 10752
  139.8812  134.9363  156.5638 H   0  0  0  0  0  0  0  0  0  0  0  0  # atno 11005 bound_to 11000
  145.7016  139.1662  143.2589 LP  0  0  0  0  0  0  0  0  0  0  0  0  # atno 17320 bound_to 7965
  146.1411  140.7056  142.9366 LP  0  0  0  0  0  0  0  0  0  0  0  0  # atno 17321 bound_to 7965
  140.0690  144.5795  150.7206 LP  0  0  0  0  0  0  0  0  0  0  0  0  # atno 17342 bound_to 10162
  140.7215  143.2593  151.4263 LP  0  0  0  0  0  0  0  0  0  0  0  0  # atno 17343 bound_to 10162
  156.1801  130.3650  149.9046 LP  0  0  0  0  0  0  0  0  0  0  0  0  # atno 17370 bound_to 10713
  156.7001  130.8929  151.3598 LP  0  0  0  0  0  0  0  0  0  0  0  0  # atno 17371 bound_to 10713
  140.8150  133.8399  155.8843 LP  0  0  0  0  0  0  0  0  0  0  0  0  # atno 17394 bound_to 11000
  140.9471  134.1826  157.4755 LP  0  0  0  0  0  0  0  0  0  0  0  0  # atno 17395 bound_to 11000

$$$$
