AV-unprocessed.smi:2124|AV-procd|sdf|8656|dock7
  -GOLD-   2272011403D 1   1.00000     0.00000
 Structure written by MMmdl.
 47 49  0  0  0  0  0  0  0  0  1 V2000
  147.1097  140.8204  153.1654 C   0  0  0  0  0  0  0  0  0  0  0  0
  147.9171  140.3211  154.3447 C   0  0  0  0  0  0  0  0  0  0  0  0
  147.4165  140.0830  155.5119 N   0  0  0  0  0  0  0  0  0  0  0  0
  148.2633  139.6143  156.5257 C   0  0  0  0  0  0  0  0  0  0  0  0
  147.5927  139.3341  157.8595 C   0  0  0  0  0  0  0  0  0  0  0  0
  149.5963  139.4119  156.3091 C   0  0  0  0  0  0  0  0  0  0  0  0
  150.5366  138.8595  157.3815 C   0  0  0  0  0  0  0  0  0  0  0  0
  151.7604  139.7318  157.6618 C   0  0  0  0  0  0  0  0  0  0  0  0
  152.6079  139.9119  156.7881 O   0  0  0  0  0  0  0  0  0  0  0  0
  151.8072  140.3014  158.8752 N   0  0  0  0  0  0  0  0  0  0  0  0
  152.7054  141.3772  159.2791 C   0  0  2  0  0  0  0  0  0  0  0  0
  153.7011  140.8546  160.3262 C   0  0  0  0  0  0  0  0  0  0  0  0
  151.8659  142.5655  159.8055 C   0  0  1  0  0  0  0  0  0  0  0  0
  152.6920  143.7534  160.3465 C   0  0  0  0  0  0  0  0  0  0  0  0
  152.0736  144.9636  159.6207 C   0  0  1  0  0  0  0  0  0  0  0  0
  152.5164  144.9488  158.1457 C   0  0  0  0  0  0  0  0  0  0  0  0
  151.7007  143.7827  157.5588 C   0  0  0  0  0  0  0  0  0  0  0  0
  150.9254  143.2594  158.7851 C   0  0  2  0  0  0  0  0  0  0  0  0
  150.6073  144.5611  159.5124 C   0  0  0  0  0  0  0  0  0  0  0  0
  150.1580  139.6939  154.9736 C   0  0  0  0  0  0  0  0  0  0  0  0
  151.3386  139.5370  154.6666 O   0  0  0  0  0  0  0  0  0  0  0  0
  149.2683  140.1366  154.0575 N   0  0  0  0  0  0  0  0  0  0  0  0
  149.6030  140.3391  153.1266 H   0  0  0  0  0  0  0  0  0  0  0  0
  146.3125  140.1146  152.9316 H   0  0  0  0  0  0  0  0  0  0  0  0
  147.7286  140.9432  152.2756 H   0  0  0  0  0  0  0  0  0  0  0  0
  146.6566  141.7834  153.4018 H   0  0  0  0  0  0  0  0  0  0  0  0
  147.6901  138.2817  158.1258 H   0  0  0  0  0  0  0  0  0  0  0  0
  146.5285  139.5699  157.8248 H   0  0  0  0  0  0  0  0  0  0  0  0
  148.0412  139.9364  158.6495 H   0  0  0  0  0  0  0  0  0  0  0  0
  150.0058  138.6953  158.3200 H   0  0  0  0  0  0  0  0  0  0  0  0
  150.8761  137.8693  157.0762 H   0  0  0  0  0  0  0  0  0  0  0  0
  151.0766  140.0602  159.5292 H   0  0  0  0  0  0  0  0  0  0  0  0
  153.2780  141.7153  158.4139 H   0  0  0  0  0  0  0  0  0  0  0  0
  154.3977  141.6347  160.6333 H   0  0  0  0  0  0  0  0  0  0  0  0
  154.2910  140.0285  159.9277 H   0  0  0  0  0  0  0  0  0  0  0  0
  153.1880  140.4963  161.2192 H   0  0  0  0  0  0  0  0  0  0  0  0
  151.2367  142.1929  160.6162 H   0  0  0  0  0  0  0  0  0  0  0  0
  152.5704  143.8414  161.4267 H   0  0  0  0  0  0  0  0  0  0  0  0
  153.7592  143.6617  160.1415 H   0  0  0  0  0  0  0  0  0  0  0  0
  152.2567  145.9141  160.1221 H   0  0  0  0  0  0  0  0  0  0  0  0
  152.2565  145.8851  157.6506 H   0  0  0  0  0  0  0  0  0  0  0  0
  153.5914  144.7998  158.0378 H   0  0  0  0  0  0  0  0  0  0  0  0
  151.0080  144.1483  156.7995 H   0  0  0  0  0  0  0  0  0  0  0  0
  152.3259  143.0262  157.0862 H   0  0  0  0  0  0  0  0  0  0  0  0
  150.0482  142.6668  158.5231 H   0  0  0  0  0  0  0  0  0  0  0  0
  150.1256  144.4126  160.4804 H   0  0  0  0  0  0  0  0  0  0  0  0
  150.0096  145.2553  158.9187 H   0  0  0  0  0  0  0  0  0  0  0  0
  1  2  1  0  0  0  0
  1 24  1  0  0  0  0
  1 25  1  0  0  0  0
  1 26  1  0  0  0  0
  2 22  1  0  0  0  0
  2  3  2  0  0  0  0
  3  4  1  0  0  0  0
  4  5  1  0  0  0  0
  4  6  2  0  0  0  0
  5 27  1  0  0  0  0
  5 28  1  0  0  0  0
  5 29  1  0  0  0  0
  6  7  1  0  0  0  0
  6 20  1  0  0  0  0
  7  8  1  0  0  0  0
  7 30  1  0  0  0  0
  7 31  1  0  0  0  0
  8  9  2  0  0  0  0
  8 10  1  0  0  0  0
 10 11  1  0  0  0  0
 10 32  1  0  0  0  0
 11 12  1  0  0  0  0
 11 13  1  0  0  0  0
 11 33  1  0  0  0  0
 12 34  1  0  0  0  0
 12 35  1  0  0  0  0
 12 36  1  0  0  0  0
 13 18  1  0  0  0  0
 13 14  1  0  0  0  0
 13 37  1  0  0  0  0
 14 15  1  0  0  0  0
 14 38  1  0  0  0  0
 14 39  1  0  0  0  0
 15 19  1  0  0  0  0
 15 16  1  0  0  0  0
 15 40  1  0  0  0  0
 16 17  1  0  0  0  0
 16 41  1  0  0  0  0
 16 42  1  0  0  0  0
 17 18  1  0  0  0  0
 17 43  1  0  0  0  0
 17 44  1  0  0  0  0
 18 19  1  0  0  0  0
 18 45  1  0  0  0  0
 19 46  1  0  0  0  0
 19 47  1  0  0  0  0
 20 21  2  0  0  0  0
 20 22  1  0  0  0  0
 22 23  1  0  0  0  0
M  END
> <s_m_source_file>
AV-unprocessed.smi

> <i_m_source_file_index>
2124

> <i_lp_mmshare_version>
43012

> <i_f3d_flags>
0

> <s_epik_input>
W0NIM11jMW5jKFtDSDNdKWMoYyg9TylbbkhdMSlbQ0gyXUMoPU8pW05IXVtDQEhdKFtDSDNdKVtDQEhdKFtDSDJdW0NASF0yMylbQ0BIXShbQ0gyXTMpW0NIMl1bQ0gyXTI=

> <s_epik_cmdline>
J2VwaWtfcHl0aG9uJywgJy1waCcsICc3LjAnLCAnLXRuJywgJzgnLCAnLW1hJywgJzIwMCcsICctbWV0YWxfYmluZGluZycsICctaW1hZScsICc8aW5maWxlLm1hZT4nLCAnLW9tYWUnLCAnPG91dGZpbGUubWFlPic=

> <r_lp_tautomer_probability>
0.839158

> <r_epik_Ionization_Penalty>
0.000383628

> <r_epik_Ionization_Penalty_Charging>
0.00035045

> <r_epik_Ionization_Penalty_Neutral>
3.31781e-05

> <r_epik_State_Penalty>
0.09125

> <r_epik_Charging_Adjusted_Penalty>
0.0916005

> <i_epik_Tot_Q>
0

> <i_epik_Tot_abs_Q>
0

> <r_epik_Metal_State_Penalty>
0.255229

> <b_epik_Metal_Only>
0

> <s_lp_Force_Field>
OPLS_2005

> <r_lp_Energy>
50.9321

> <b_lp_Chiralities_Consistent>
1

> <s_lp_Variant>
AV-unprocessed.smi:2124-7

> <Gold.Version>
5.8.1

> <Gold.Id.Protein>
6NUR|6NUR_protein|mol2

> <Gold.PLP.Fitness>
50.1568

> <Gold.PLP.PLP>
-41.3468

> <Gold.PLP.part.hbond>
-3.0000

> <Gold.PLP.part.metal>
0.0000

> <Gold.PLP.part.buried>
-5.9177

> <Gold.PLP.part.nonpolar>
-32.9220

> <Gold.PLP.part.repulsive>
0.3888

> <Gold.PLP.ligand.clash>
0.0000

> <Gold.PLP.ligand.torsion>
0.1066

> <Gold.PLP.Chemscore.Hbond>
3.0000

> <Gold.PLP.Chemscore.CHOScore>
0.0000

> <Gold.PLP.Chemscore.Metal>
0.0000

> <Gold.Chemscore.Hbonds>
donor molecule, donor type, donor heavy atom, donor atom, acceptor molecule, acceptor atom, score
      L1  H    22    23       P1  7957  1.00
      P1  H  7989  7998       L1    21  1.00
      P1  H  7997  8010       L1     9  1.00

> <Gold.PLP.Chemscore.Internal.Correction>
0.0233

> <Gold.Rescore>
     Score         DG    S(hbond)    S(metal)    S(lipo)     H(rot)  DE(clash)    DE(int)     intcor
     21.71     -24.11       2.83        0.00     114.50       1.65       0.02       2.37       ----

> <Gold.Chemscore.Fitness>
21.7106

> <Gold.Chemscore.DG>
-24.1071

> <Gold.Chemscore.ZeroCoef>
-5.4800

> <Gold.Chemscore.Hbond>
2.8333

> <Gold.Chemscore.Metal>
0.0000

> <Gold.Chemscore.Lipo>
114.4986

> <Gold.Chemscore.Internal_Hbond>
0.0000

> <Gold.Chemscore.DEClash>
0.0224

> <Gold.Chemscore.DEInternal>
2.3741

> <Gold.Chemscore.Rot>
1.6534

> <Gold.Chemscore.Internal.Correction>
   9.000000E+99

> <Gold.Chemscore.Hbonds>
donor molecule, donor type, donor heavy atom, donor atom, acceptor molecule, acceptor atom, score
      L1  H    22    23       P1  7957  0.94
      P1  H  7989  7998       L1    21  0.45
      P1  H  7997  8010       L1     9  0.96

> <Gold.Chemscore.Hbond.Weighted>
-9.4634

> <Gold.Chemscore.Metal.Weighted>
-0.0000

> <Gold.Chemscore.Lipo.Weighted>
-13.3963

> <Gold.Chemscore.Internal_Hbond.Weighted>
0.0000

> <Gold.Chemscore.DEClash.Weighted>
0.0224

> <Gold.Chemscore.DEInternal.Weighted>
2.3741

> <Gold.Chemscore.Rot.Weighted>
4.2326

> <Gold.Chemscore.Internal.Correction.Weighted>
   9.000000E+99

> <Gold.Protein.RotatedTorsions>
[ 6907 6896 6895 6894 ] final   84.92 input  -60.11 | X-H torsion
[ 7974 7965 7964 7962 ] final  131.62 input  175.53 | X-H torsion
[ 8008 7997 7996 7995 ] final   81.73 input   59.86 | X-H torsion
[ 10167 10162 10161 10158 ] final -104.31 input  -65.29 | X-H torsion
[ 10718 10713 10712 10709 ] final -121.68 input   66.30 | X-H torsion
[ 10763 10752 10751 10750 ] final  107.63 input  -60.55 | X-H torsion
[ 11005 11000 10999 10996 ] final   60.01 input  -57.11 | X-H torsion

> <Gold.Protein.ActiveResidues>
 VAL166  LYS551  ARG553  GLY616  TRP617  ASP618  TYR619  PRO620  LYS621  CYS622 
 ASP623  PHE694  ASN695  SER759  ASP760  ASP761  ALA762  ILE779  LEU786  VAL792 
 PHE793  MET794  SER795  GLU796  ALA797  LYS798  CYS799  TRP800  GLU811  SER814 

> <Gold.Protein.RotatedAtoms>
  152.5363  134.2666  159.8955 H   0  0  0  0  0  0  0  0  0  0  0  0  # atno 6907 bound_to 6896
  151.2624  133.4289  159.2624 H   0  0  0  0  0  0  0  0  0  0  0  0  # atno 6908 bound_to 6896
  151.0441  134.9642  159.8233 H   0  0  0  0  0  0  0  0  0  0  0  0  # atno 6909 bound_to 6896
  145.0054  139.4272  143.5271 H   0  0  0  0  0  0  0  0  0  0  0  0  # atno 7974 bound_to 7965
  155.9010  140.3433  155.6027 H   0  0  0  0  0  0  0  0  0  0  0  0  # atno 8008 bound_to 7997
  155.7500  140.0818  157.2225 H   0  0  0  0  0  0  0  0  0  0  0  0  # atno 8009 bound_to 7997
  154.4044  140.1555  156.2700 H   0  0  0  0  0  0  0  0  0  0  0  0  # atno 8010 bound_to 7997
  140.2106  143.3749  152.1053 H   0  0  0  0  0  0  0  0  0  0  0  0  # atno 10167 bound_to 10162
  156.1357  130.6428  150.9692 H   0  0  0  0  0  0  0  0  0  0  0  0  # atno 10718 bound_to 10713
  153.4094  135.3838  155.2040 H   0  0  0  0  0  0  0  0  0  0  0  0  # atno 10763 bound_to 10752
  154.8736  135.3790  154.4520 H   0  0  0  0  0  0  0  0  0  0  0  0  # atno 10764 bound_to 10752
  153.5027  135.7088  153.5885 H   0  0  0  0  0  0  0  0  0  0  0  0  # atno 10765 bound_to 10752
  140.0262  134.6079  155.9570 H   0  0  0  0  0  0  0  0  0  0  0  0  # atno 11005 bound_to 11000
  146.3460  139.9466  142.8734 LP  0  0  0  0  0  0  0  0  0  0  0  0  # atno 17320 bound_to 7965
  145.2096  140.9890  143.4108 LP  0  0  0  0  0  0  0  0  0  0  0  0  # atno 17321 bound_to 7965
  139.5181  144.7001  151.5517 LP  0  0  0  0  0  0  0  0  0  0  0  0  # atno 17342 bound_to 10162
  140.6326  143.9046  150.6619 LP  0  0  0  0  0  0  0  0  0  0  0  0  # atno 17343 bound_to 10162
  157.6529  131.0894  150.8010 LP  0  0  0  0  0  0  0  0  0  0  0  0  # atno 17370 bound_to 10713
  156.8090  130.4946  149.5358 LP  0  0  0  0  0  0  0  0  0  0  0  0  # atno 17371 bound_to 10713
  141.1804  133.6546  156.4997 LP  0  0  0  0  0  0  0  0  0  0  0  0  # atno 17394 bound_to 11000
  140.4302  134.7108  157.4938 LP  0  0  0  0  0  0  0  0  0  0  0  0  # atno 17395 bound_to 11000

$$$$
