AV-unprocessed.smi:170|AV-procd|sdf|1409|dock8
  -GOLD-   2262019163D 1   1.00000     0.00000
 Structure written by MMmdl.
 57 61  0  0  0  0  0  0  0  0  1 V2000
  144.1167  145.0709  157.3388 O   0  0  0  0  0  0  0  0  0  0  0  0
  144.6248  144.8454  156.0372 C   0  0  1  0  0  0  0  0  0  0  0  0
  144.7390  143.3357  155.7511 C   0  0  0  0  0  0  0  0  0  0  0  0
  145.9819  142.7711  156.2453 N   0  0  0  0  0  0  0  0  0  0  0  0
  146.4051  142.7242  157.5534 C   0  0  0  0  0  0  0  0  0  0  0  0
  147.5678  142.1618  157.7396 N   0  0  0  0  0  0  0  0  0  0  0  0
  147.9747  141.7848  156.4645 C   0  0  0  0  0  0  0  0  0  0  0  0
  149.1202  141.1225  155.9331 C   0  0  0  0  0  0  0  0  0  0  0  0
  150.1704  140.6661  156.6563 N   0  0  0  0  0  0  0  0  0  0  0  0
  150.7772  139.5113  156.0038 C   0  0  0  0  0  0  0  0  0  0  0  0
  151.8184  138.8627  156.9256 C   0  0  0  0  0  0  0  0  0  0  0  0
  152.7842  139.8386  157.2913 O   0  0  0  0  0  0  0  0  0  0  0  0
  152.2022  140.9159  158.0164 C   0  0  0  0  0  0  0  0  0  0  0  0
  151.1465  141.6455  157.1526 C   0  0  2  0  0  0  0  0  0  0  0  0
  150.4800  142.8036  157.9408 C   0  0  0  0  0  0  0  0  0  0  0  0
  151.4587  143.8824  158.3995 C   0  0  0  0  0  0  0  0  0  0  0  0
  152.4356  143.5853  159.5471 C   0  0  0  0  0  0  0  0  0  0  0  0
  152.2843  145.0428  159.9920 C   0  0  0  0  0  0  0  0  0  0  0  0
  150.9515  145.0646  159.2398 C   0  0  0  0  0  0  0  0  0  0  0  0
  149.1813  140.9445  154.5898 N   0  0  0  0  0  0  0  0  0  0  0  0
  148.1800  141.3648  153.8109 C   0  0  0  0  0  0  0  0  0  0  0  0
  147.0480  141.9780  154.1633 N   0  0  0  0  0  0  0  0  0  0  0  0
  146.9894  142.1711  155.5121 C   0  0  0  0  0  0  0  0  0  0  0  0
  143.7667  145.5864  154.9926 C   0  0  2  0  0  0  0  0  0  0  0  0
  143.4534  147.0627  155.2902 C   0  0  0  0  0  0  0  0  0  0  0  0
  141.9500  147.1657  155.0851 C   0  0  0  0  0  0  0  0  0  0  0  0
  141.6166  145.9139  154.2819 C   0  0  0  0  0  0  0  0  0  0  0  0
  142.5072  144.9485  154.8146 O   0  0  0  0  0  0  0  0  0  0  0  0
  143.1877  144.8976  157.3286 H   0  0  0  0  0  0  0  0  0  0  0  0
  145.6261  145.2778  156.0148 H   0  0  0  0  0  0  0  0  0  0  0  0
  143.9076  142.7932  156.2031 H   0  0  0  0  0  0  0  0  0  0  0  0
  144.6842  143.1508  154.6776 H   0  0  0  0  0  0  0  0  0  0  0  0
  145.8228  143.1265  158.3697 H   0  0  0  0  0  0  0  0  0  0  0  0
  150.0135  138.7773  155.7429 H   0  0  0  0  0  0  0  0  0  0  0  0
  151.2497  139.8282  155.0728 H   0  0  0  0  0  0  0  0  0  0  0  0
  151.3475  138.4429  157.8160 H   0  0  0  0  0  0  0  0  0  0  0  0
  152.3183  138.0426  156.4106 H   0  0  0  0  0  0  0  0  0  0  0  0
  151.7617  140.5446  158.9432 H   0  0  0  0  0  0  0  0  0  0  0  0
  153.0069  141.5944  158.2977 H   0  0  0  0  0  0  0  0  0  0  0  0
  151.6699  142.0610  156.2921 H   0  0  0  0  0  0  0  0  0  0  0  0
  149.7131  143.2822  157.3329 H   0  0  0  0  0  0  0  0  0  0  0  0
  149.9503  142.3956  158.8024 H   0  0  0  0  0  0  0  0  0  0  0  0
  152.0343  144.2728  157.5582 H   0  0  0  0  0  0  0  0  0  0  0  0
  152.0348  142.8799  160.2770 H   0  0  0  0  0  0  0  0  0  0  0  0
  153.4408  143.3068  159.2295 H   0  0  0  0  0  0  0  0  0  0  0  0
  152.2038  145.1865  161.0698 H   0  0  0  0  0  0  0  0  0  0  0  0
  153.0316  145.7021  159.5475 H   0  0  0  0  0  0  0  0  0  0  0  0
  150.7589  145.9766  158.6739 H   0  0  0  0  0  0  0  0  0  0  0  0
  150.1046  144.7995  159.8754 H   0  0  0  0  0  0  0  0  0  0  0  0
  148.3030  141.1830  152.7533 H   0  0  0  0  0  0  0  0  0  0  0  0
  144.2774  145.5378  154.0291 H   0  0  0  0  0  0  0  0  0  0  0  0
  143.7323  147.3723  156.2977 H   0  0  0  0  0  0  0  0  0  0  0  0
  143.9875  147.7075  154.5914 H   0  0  0  0  0  0  0  0  0  0  0  0
  141.4438  147.1263  156.0505 H   0  0  0  0  0  0  0  0  0  0  0  0
  141.6485  148.0848  154.5820 H   0  0  0  0  0  0  0  0  0  0  0  0
  140.5762  145.6070  154.3888 H   0  0  0  0  0  0  0  0  0  0  0  0
  141.8273  146.0616  153.2214 H   0  0  0  0  0  0  0  0  0  0  0  0
  1  2  1  0  0  0  0
  1 29  1  0  0  0  0
  2  3  1  0  0  0  0
  2 24  1  0  0  0  0
  2 30  1  0  0  0  0
  3  4  1  0  0  0  0
  3 31  1  0  0  0  0
  3 32  1  0  0  0  0
  4 23  1  0  0  0  0
  4  5  1  0  0  0  0
  5  6  2  0  0  0  0
  5 33  1  0  0  0  0
  6  7  1  0  0  0  0
  7 23  2  0  0  0  0
  7  8  1  0  0  0  0
  8  9  1  0  0  0  0
  8 20  2  0  0  0  0
  9 14  1  0  0  0  0
  9 10  1  0  0  0  0
 10 11  1  0  0  0  0
 10 34  1  0  0  0  0
 10 35  1  0  0  0  0
 11 12  1  0  0  0  0
 11 36  1  0  0  0  0
 11 37  1  0  0  0  0
 12 13  1  0  0  0  0
 13 14  1  0  0  0  0
 13 38  1  0  0  0  0
 13 39  1  0  0  0  0
 14 15  1  0  0  0  0
 14 40  1  0  0  0  0
 15 16  1  0  0  0  0
 15 41  1  0  0  0  0
 15 42  1  0  0  0  0
 16 19  1  0  0  0  0
 16 17  1  0  0  0  0
 16 43  1  0  0  0  0
 17 18  1  0  0  0  0
 17 44  1  0  0  0  0
 17 45  1  0  0  0  0
 18 19  1  0  0  0  0
 18 46  1  0  0  0  0
 18 47  1  0  0  0  0
 19 48  1  0  0  0  0
 19 49  1  0  0  0  0
 20 21  1  0  0  0  0
 21 22  2  0  0  0  0
 21 50  1  0  0  0  0
 22 23  1  0  0  0  0
 24 28  1  0  0  0  0
 24 25  1  0  0  0  0
 24 51  1  0  0  0  0
 25 26  1  0  0  0  0
 25 52  1  0  0  0  0
 25 53  1  0  0  0  0
 26 27  1  0  0  0  0
 26 54  1  0  0  0  0
 26 55  1  0  0  0  0
 27 28  1  0  0  0  0
 27 56  1  0  0  0  0
 27 57  1  0  0  0  0
M  END
> <s_m_source_file>
AV-unprocessed.smi

> <i_m_source_file_index>
170

> <i_lp_mmshare_version>
43012

> <i_f3d_flags>
0

> <s_epik_input>
TzFbQ0gyXVtDSDJdW0NIMl1bQ0BIXTFbQ0BIXShbT0hdKVtDSDJdbihbY0hdbjIpYyhjMjMpbltjSF1uYzNONFtDSDJdW0NIMl1PW0NIMl1bQ0BIXTRbQ0gyXVtDSF01W0NIMl1bQ0gyXVtDSDJdNQ==

> <s_epik_cmdline>
J2VwaWtfcHl0aG9uJywgJy1waCcsICc3LjAnLCAnLXRuJywgJzgnLCAnLW1hJywgJzIwMCcsICctbWV0YWxfYmluZGluZycsICctaW1hZScsICc8aW5maWxlLm1hZT4nLCAnLW9tYWUnLCAnPG91dGZpbGUubWFlPic=

> <r_lp_tautomer_probability>
1

> <r_epik_Ionization_Penalty>
4.98275e-05

> <r_epik_Ionization_Penalty_Charging>
0

> <r_epik_Ionization_Penalty_Neutral>
4.98275e-05

> <r_epik_State_Penalty>
-0

> <r_epik_Charging_Adjusted_Penalty>
0

> <i_epik_Tot_Q>
0

> <i_epik_Tot_abs_Q>
0

> <r_epik_Metal_State_Penalty>
-0

> <b_epik_Metal_Only>
0

> <s_lp_Force_Field>
OPLS_2005

> <r_lp_Energy>
52.3548

> <b_lp_Chiralities_Consistent>
1

> <s_lp_Variant>
AV-unprocessed.smi:170-4

> <Gold.Version>
5.8.1

> <Gold.Id.Protein>
6NUR|6NUR_protein|mol2

> <Gold.PLP.Fitness>
49.4347

> <Gold.PLP.PLP>
-45.1325

> <Gold.PLP.part.hbond>
-1.0000

> <Gold.PLP.part.metal>
0.0000

> <Gold.PLP.part.buried>
-7.6037

> <Gold.PLP.part.nonpolar>
-36.8062

> <Gold.PLP.part.repulsive>
0.5264

> <Gold.PLP.ligand.clash>
0.0000

> <Gold.PLP.ligand.torsion>
1.0561

> <Gold.PLP.Chemscore.Hbond>
1.0000

> <Gold.PLP.Chemscore.CHOScore>
1.0000

> <Gold.PLP.Chemscore.Metal>
0.0000

> <Gold.Chemscore.Hbonds>
donor molecule, donor type, donor heavy atom, donor atom, acceptor molecule, acceptor atom, score
      P1  H  7997  8009       L1    12  1.00
      L1  C    21    50       P1  7957  1.00

> <Gold.PLP.Chemscore.Internal.Correction>
0.4143

> <Gold.Rescore>
     Score         DG    S(hbond)    S(metal)    S(lipo)     H(rot)  DE(clash)    DE(int)     intcor
     13.81     -16.01       0.97        0.00     119.41       2.61       0.26       1.93       ----

> <Gold.Chemscore.Fitness>
13.8092

> <Gold.Chemscore.DG>
-16.0077

> <Gold.Chemscore.ZeroCoef>
-5.4800

> <Gold.Chemscore.Hbond>
0.9729

> <Gold.Chemscore.Metal>
0.0000

> <Gold.Chemscore.Lipo>
119.4128

> <Gold.Chemscore.Internal_Hbond>
0.0000

> <Gold.Chemscore.DEClash>
0.2637

> <Gold.Chemscore.DEInternal>
1.9348

> <Gold.Chemscore.Rot>
2.6144

> <Gold.Chemscore.Internal.Correction>
   9.000000E+99

> <Gold.Chemscore.Hbonds>
donor molecule, donor type, donor heavy atom, donor atom, acceptor molecule, acceptor atom, score
      P1  H  7997  8009       L1    12  0.93

> <Gold.Chemscore.Hbond.Weighted>
-3.2493

> <Gold.Chemscore.Metal.Weighted>
-0.0000

> <Gold.Chemscore.Lipo.Weighted>
-13.9713

> <Gold.Chemscore.Internal_Hbond.Weighted>
0.0000

> <Gold.Chemscore.DEClash.Weighted>
0.2637

> <Gold.Chemscore.DEInternal.Weighted>
1.9348

> <Gold.Chemscore.Rot.Weighted>
6.6929

> <Gold.Chemscore.Internal.Correction.Weighted>
   9.000000E+99

> <Gold.Protein.RotatedTorsions>
[ 6907 6896 6895 6894 ] final   76.75 input  -60.11 | X-H torsion
[ 7974 7965 7964 7962 ] final  125.48 input  175.53 | X-H torsion
[ 8008 7997 7996 7995 ] final  176.09 input   59.86 | X-H torsion
[ 10167 10162 10161 10158 ] final    2.03 input  -65.29 | X-H torsion
[ 10718 10713 10712 10709 ] final  154.59 input   66.30 | X-H torsion
[ 10763 10752 10751 10750 ] final   93.40 input  -60.55 | X-H torsion
[ 11005 11000 10999 10996 ] final    0.51 input  -57.11 | X-H torsion

> <Gold.Protein.ActiveResidues>
 VAL166  LYS551  ARG553  GLY616  TRP617  ASP618  TYR619  PRO620  LYS621  CYS622 
 ASP623  PHE694  ASN695  SER759  ASP760  ASP761  ALA762  ILE779  LEU786  VAL792 
 PHE793  MET794  SER795  GLU796  ALA797  LYS798  CYS799  TRP800  GLU811  SER814 

> <Gold.Protein.RotatedAtoms>
  152.5087  134.3921  159.9387 H   0  0  0  0  0  0  0  0  0  0  0  0  # atno 6907 bound_to 6896
  151.3881  133.3792  159.2725 H   0  0  0  0  0  0  0  0  0  0  0  0  # atno 6908 bound_to 6896
  150.9453  134.8879  159.7697 H   0  0  0  0  0  0  0  0  0  0  0  0  # atno 6909 bound_to 6896
  145.0725  139.3719  143.4950 H   0  0  0  0  0  0  0  0  0  0  0  0  # atno 7974 bound_to 7965
  156.0801  140.1392  156.9723 H   0  0  0  0  0  0  0  0  0  0  0  0  # atno 8008 bound_to 7997
  154.4580  140.0954  156.6862 H   0  0  0  0  0  0  0  0  0  0  0  0  # atno 8009 bound_to 7997
  155.5089  140.3453  155.4387 H   0  0  0  0  0  0  0  0  0  0  0  0  # atno 8010 bound_to 7997
  140.6655  143.7191  150.7818 H   0  0  0  0  0  0  0  0  0  0  0  0  # atno 10167 bound_to 10162
  157.2296  131.0736  151.1861 H   0  0  0  0  0  0  0  0  0  0  0  0  # atno 10718 bound_to 10713
  153.2299  135.4327  155.0583 H   0  0  0  0  0  0  0  0  0  0  0  0  # atno 10763 bound_to 10752
  154.8291  135.3377  154.6803 H   0  0  0  0  0  0  0  0  0  0  0  0  # atno 10764 bound_to 10752
  153.7231  135.7016  153.5064 H   0  0  0  0  0  0  0  0  0  0  0  0  # atno 10765 bound_to 10752
  140.6258  133.9620  155.8248 H   0  0  0  0  0  0  0  0  0  0  0  0  # atno 11005 bound_to 11000
  146.3529  140.0476  142.8638 LP  0  0  0  0  0  0  0  0  0  0  0  0  # atno 17320 bound_to 7965
  145.1276  140.9499  143.4564 LP  0  0  0  0  0  0  0  0  0  0  0  0  # atno 17321 bound_to 7965
  140.0868  143.4916  152.2500 LP  0  0  0  0  0  0  0  0  0  0  0  0  # atno 17342 bound_to 10162
  139.5902  144.7547  151.3419 LP  0  0  0  0  0  0  0  0  0  0  0  0  # atno 17343 bound_to 10162
  157.3492  130.7073  149.6430 LP  0  0  0  0  0  0  0  0  0  0  0  0  # atno 17370 bound_to 10713
  155.9676  130.4257  150.4667 LP  0  0  0  0  0  0  0  0  0  0  0  0  # atno 17371 bound_to 10713
  141.0710  134.0205  157.3525 LP  0  0  0  0  0  0  0  0  0  0  0  0  # atno 17394 bound_to 11000
  139.9135  135.0194  156.7789 LP  0  0  0  0  0  0  0  0  0  0  0  0  # atno 17395 bound_to 11000

$$$$
