AV-unprocessed.smi:1783|AV-procd|sdf|7193|dock2
  -GOLD-   22720 8433D 1   1.00000     0.00000
 Structure written by MMmdl.
 30 31  0  0  0  0  0  0  0  0  1 V2000
  154.2663  139.5205  158.9792 O   0  0  0  0  0  0  0  0  0  0  0  0
  153.2847  138.8087  158.7684 C   0  0  0  0  0  0  0  0  0  0  0  0
  152.0942  139.2520  158.3165 N   0  0  0  0  0  0  0  0  0  0  0  0
  151.6956  140.5554  157.9767 C   0  0  0  0  0  0  0  0  0  0  0  0
  151.9184  141.6594  158.7368 C   0  0  0  0  0  0  0  0  0  0  0  0
  151.4882  142.9832  158.3188 C   0  0  0  0  0  0  0  0  0  0  0  0
  151.6660  144.1980  159.2164 C   0  0  0  0  0  0  0  0  0  0  0  0
  152.3784  145.1286  158.5829 F   0  0  0  0  0  0  0  0  0  0  0  0
  150.4892  144.7305  159.5493 F   0  0  0  0  0  0  0  0  0  0  0  0
  152.3105  143.8739  160.3375 F   0  0  0  0  0  0  0  0  0  0  0  0
  150.8495  143.0615  157.1368 C   0  0  0  0  0  0  0  0  0  0  0  0
  150.6374  141.9352  156.3388 N   0  0  0  0  0  0  0  0  0  0  0  0
  151.0173  140.6823  156.6761 C   0  0  0  0  0  0  0  0  0  0  0  0
  150.7911  139.7395  155.9184 O   0  0  0  0  0  0  0  0  0  0  0  0
  153.3724  137.2913  159.0291 C   0  0  1  0  0  0  0  0  0  0  0  0
  154.7280  136.8163  159.5623 C   0  0  0  0  0  0  0  0  0  0  0  0
  154.6481  137.1129  161.0509 C   0  0  0  0  0  0  0  0  0  0  0  0
  153.1440  137.1256  161.3438 C   0  0  0  0  0  0  0  0  0  0  0  0
  152.4976  136.9142  160.0895 O   0  0  0  0  0  0  0  0  0  0  0  0
  150.1658  142.0790  155.4575 H   0  0  0  0  0  0  0  0  0  0  0  0
  151.3609  138.5595  158.2559 H   0  0  0  0  0  0  0  0  0  0  0  0
  152.4468  141.5915  159.6734 H   0  0  0  0  0  0  0  0  0  0  0  0
  150.4512  143.9747  156.7197 H   0  0  0  0  0  0  0  0  0  0  0  0
  153.1011  136.7671  158.1124 H   0  0  0  0  0  0  0  0  0  0  0  0
  154.8191  135.7408  159.4061 H   0  0  0  0  0  0  0  0  0  0  0  0
  155.5874  137.2875  159.0837 H   0  0  0  0  0  0  0  0  0  0  0  0
  155.1831  136.3706  161.6439 H   0  0  0  0  0  0  0  0  0  0  0  0
  155.0792  138.0908  161.2691 H   0  0  0  0  0  0  0  0  0  0  0  0
  152.8560  136.3446  162.0481 H   0  0  0  0  0  0  0  0  0  0  0  0
  152.8388  138.0862  161.7609 H   0  0  0  0  0  0  0  0  0  0  0  0
  1  2  2  0  0  0  0
  2  3  1  0  0  0  0
  2 15  1  0  0  0  0
  3  4  1  0  0  0  0
  3 21  1  0  0  0  0
  4 13  1  0  0  0  0
  4  5  2  0  0  0  0
  5  6  1  0  0  0  0
  5 22  1  0  0  0  0
  6  7  1  0  0  0  0
  6 11  2  0  0  0  0
  7  8  1  0  0  0  0
  7  9  1  0  0  0  0
  7 10  1  0  0  0  0
 11 12  1  0  0  0  0
 11 23  1  0  0  0  0
 12 20  1  0  0  0  0
 12 13  1  0  0  0  0
 13 14  2  0  0  0  0
 15 19  1  0  0  0  0
 15 16  1  0  0  0  0
 15 24  1  0  0  0  0
 16 17  1  0  0  0  0
 16 25  1  0  0  0  0
 16 26  1  0  0  0  0
 17 18  1  0  0  0  0
 17 27  1  0  0  0  0
 17 28  1  0  0  0  0
 18 19  1  0  0  0  0
 18 29  1  0  0  0  0
 18 30  1  0  0  0  0
M  END
> <s_m_source_file>
AV-unprocessed.smi

> <i_m_source_file_index>
1783

> <i_lp_mmshare_version>
43012

> <i_f3d_flags>
0

> <s_epik_input>
TzFbQ0gyXVtDSDJdW0NIMl1bQ0BIXTFDKD1PKVtOSF1jMltjSF1jKEMoRikoRilGKVtjSF1bbkhdYzI9Tw==

> <s_epik_cmdline>
J2VwaWtfcHl0aG9uJywgJy1waCcsICc3LjAnLCAnLXRuJywgJzgnLCAnLW1hJywgJzIwMCcsICctbWV0YWxfYmluZGluZycsICctaW1hZScsICc8aW5maWxlLm1hZT4nLCAnLW9tYWUnLCAnPG91dGZpbGUubWFlPic=

> <r_lp_tautomer_probability>
0.999

> <r_epik_Ionization_Penalty>
0.00885957

> <r_epik_Ionization_Penalty_Charging>
0.00885947

> <r_epik_Ionization_Penalty_Neutral>
9.33956e-08

> <r_epik_State_Penalty>
0.00669851

> <r_epik_Charging_Adjusted_Penalty>
0.015558

> <i_epik_Tot_Q>
0

> <i_epik_Tot_abs_Q>
0

> <r_epik_Metal_State_Penalty>
0.320804

> <b_epik_Metal_Only>
0

> <s_lp_Force_Field>
OPLS_2005

> <r_lp_Energy>
32.0123

> <b_lp_Chiralities_Consistent>
1

> <s_lp_Variant>
AV-unprocessed.smi:1783-2

> <Gold.Version>
5.8.1

> <Gold.Id.Protein>
6NUR|6NUR_protein|mol2

> <Gold.PLP.Fitness>
42.2977

> <Gold.PLP.PLP>
-34.1424

> <Gold.PLP.part.hbond>
-2.0000

> <Gold.PLP.part.metal>
0.0000

> <Gold.PLP.part.buried>
-4.7719

> <Gold.PLP.part.nonpolar>
-27.3990

> <Gold.PLP.part.repulsive>
0.1952

> <Gold.PLP.ligand.clash>
0.0000

> <Gold.PLP.ligand.torsion>
0.4591

> <Gold.PLP.Chemscore.Hbond>
2.0000

> <Gold.PLP.Chemscore.CHOScore>
1.0000

> <Gold.PLP.Chemscore.Metal>
0.0000

> <Gold.Chemscore.Hbonds>
donor molecule, donor type, donor heavy atom, donor atom, acceptor molecule, acceptor atom, score
      P1  H  6896  6908       L1    19  1.00
      P1  H  7997  8010       L1     1  0.91
      L1  C    11    23       P1  8028  0.96

> <Gold.PLP.Chemscore.Internal.Correction>
0.0735

> <Gold.Rescore>
     Score         DG    S(hbond)    S(metal)    S(lipo)     H(rot)  DE(clash)    DE(int)     intcor
     15.69     -16.09       1.68        0.00      64.73       1.00       0.00       0.40       ----

> <Gold.Chemscore.Fitness>
15.6889

> <Gold.Chemscore.DG>
-16.0908

> <Gold.Chemscore.ZeroCoef>
-5.4800

> <Gold.Chemscore.Hbond>
1.6759

> <Gold.Chemscore.Metal>
0.0000

> <Gold.Chemscore.Lipo>
64.7281

> <Gold.Chemscore.Internal_Hbond>
0.0000

> <Gold.Chemscore.DEClash>
0.0009

> <Gold.Chemscore.DEInternal>
0.4010

> <Gold.Chemscore.Rot>
1.0000

> <Gold.Chemscore.Internal.Correction>
   9.000000E+99

> <Gold.Chemscore.Hbonds>
donor molecule, donor type, donor heavy atom, donor atom, acceptor molecule, acceptor atom, score
      P1  H  6896  6908       L1    19  0.66
      P1  H  7997  8010       L1     1  0.79

> <Gold.Chemscore.Hbond.Weighted>
-5.5976

> <Gold.Chemscore.Metal.Weighted>
-0.0000

> <Gold.Chemscore.Lipo.Weighted>
-7.5732

> <Gold.Chemscore.Internal_Hbond.Weighted>
0.0000

> <Gold.Chemscore.DEClash.Weighted>
0.0009

> <Gold.Chemscore.DEInternal.Weighted>
0.4010

> <Gold.Chemscore.Rot.Weighted>
2.5600

> <Gold.Chemscore.Internal.Correction.Weighted>
   9.000000E+99

> <Gold.Protein.RotatedTorsions>
[ 6907 6896 6895 6894 ] final -108.24 input  -60.11 | X-H torsion
[ 7974 7965 7964 7962 ] final   39.58 input  175.53 | X-H torsion
[ 8008 7997 7996 7995 ] final  -13.50 input   59.86 | X-H torsion
[ 10167 10162 10161 10158 ] final  106.43 input  -65.29 | X-H torsion
[ 10718 10713 10712 10709 ] final -150.02 input   66.30 | X-H torsion
[ 10763 10752 10751 10750 ] final  179.50 input  -60.55 | X-H torsion
[ 11005 11000 10999 10996 ] final   92.86 input  -57.11 | X-H torsion

> <Gold.Protein.ActiveResidues>
 VAL166  LYS551  ARG553  GLY616  TRP617  ASP618  TYR619  PRO620  LYS621  CYS622 
 ASP623  PHE694  ASN695  SER759  ASP760  ASP761  ALA762  ILE779  LEU786  VAL792 
 PHE793  MET794  SER795  GLU796  ALA797  LYS798  CYS799  TRP800  GLU811  SER814 

> <Gold.Protein.RotatedAtoms>
  150.7490  133.9706  159.3544 H   0  0  0  0  0  0  0  0  0  0  0  0  # atno 6907 bound_to 6896
  151.7639  135.0801  160.0359 H   0  0  0  0  0  0  0  0  0  0  0  0  # atno 6908 bound_to 6896
  152.3384  133.6001  159.5895 H   0  0  0  0  0  0  0  0  0  0  0  0  # atno 6909 bound_to 6896
  146.0973  139.5635  142.9437 H   0  0  0  0  0  0  0  0  0  0  0  0  # atno 7974 bound_to 7965
  154.5287  140.2248  155.8843 H   0  0  0  0  0  0  0  0  0  0  0  0  # atno 8008 bound_to 7997
  156.1741  140.3115  155.8991 H   0  0  0  0  0  0  0  0  0  0  0  0  # atno 8009 bound_to 7997
  155.3496  140.0455  157.3036 H   0  0  0  0  0  0  0  0  0  0  0  0  # atno 8010 bound_to 7997
  139.7009  144.7094  151.1186 H   0  0  0  0  0  0  0  0  0  0  0  0  # atno 10167 bound_to 10162
  156.4407  130.8121  151.2350 H   0  0  0  0  0  0  0  0  0  0  0  0  # atno 10718 bound_to 10713
  154.5214  135.2794  155.1259 H   0  0  0  0  0  0  0  0  0  0  0  0  # atno 10763 bound_to 10752
  154.2815  135.6284  153.5352 H   0  0  0  0  0  0  0  0  0  0  0  0  # atno 10764 bound_to 10752
  152.9937  135.5652  154.5704 H   0  0  0  0  0  0  0  0  0  0  0  0  # atno 10765 bound_to 10752
  139.8817  134.8757  156.3634 H   0  0  0  0  0  0  0  0  0  0  0  0  # atno 11005 bound_to 11000
  145.5923  141.0368  143.2063 LP  0  0  0  0  0  0  0  0  0  0  0  0  # atno 17320 bound_to 7965
  144.7405  139.7462  143.7312 LP  0  0  0  0  0  0  0  0  0  0  0  0  # atno 17321 bound_to 7965
  140.7709  143.5425  150.9297 LP  0  0  0  0  0  0  0  0  0  0  0  0  # atno 17342 bound_to 10162
  139.9106  143.6724  152.3116 LP  0  0  0  0  0  0  0  0  0  0  0  0  # atno 17343 bound_to 10162
  157.7506  131.0169  150.3563 LP  0  0  0  0  0  0  0  0  0  0  0  0  # atno 17370 bound_to 10713
  156.3920  130.3899  149.7023 LP  0  0  0  0  0  0  0  0  0  0  0  0  # atno 17371 bound_to 10713
  140.9513  133.7449  156.0276 LP  0  0  0  0  0  0  0  0  0  0  0  0  # atno 17394 bound_to 11000
  140.8102  134.3409  157.5414 LP  0  0  0  0  0  0  0  0  0  0  0  0  # atno 17395 bound_to 11000

$$$$
