#       Name:                AV-unprocessed.smi:34
#       Creating user name   scv26
#       Creation time:       Thu Mar 26 15:53:56 2020


#       File generated by GOLD software.
#

@<TRIPOS>MOLECULE
AV-unprocessed.smi:34
    66    70     1
SMALL
NO_CHARGES


@<TRIPOS>ATOM
      1 ****        -5.3167  -0.1094  -2.0921 O.2            1 S1                 0.0000
      2 ****        -5.2943  -0.8595  -1.1159 C.2            1 S1                 0.0000
      3 ****        -4.0520  -1.3632  -0.5567 N.am           1 S1                 0.0000
      4 ****        -2.7850  -1.0454  -0.9130 C.ar           1 S1                 0.0000
      5 ****        -2.5069  -0.1517  -1.8985 N.ar           1 S1                 0.0000
      6 ****        -1.2393   0.1351  -2.2089 C.ar           1 S1                 0.0000
      7 ****        -0.1193  -0.3477  -1.6681 N.ar           1 S1                 0.0000
      8 ****        -0.3894  -1.2463  -0.6779 C.ar           1 S1                 0.0000
      9 ****        -1.6850  -1.6450  -0.2458 C.ar           1 S1                 0.0000
     10 ****        -1.5728  -2.5725   0.7820 N.2            1 S1                 0.0000
     11 ****        -0.2840  -2.7091   0.9457 C.2            1 S1                 0.0000
     12 ****         0.5011  -1.9497   0.1070 N.pl3          1 S1                 0.0000
     13 ****         1.9922  -1.8846   0.0613 C.3            1 S1                 0.0000
     14 ****         2.3599  -0.5419   0.0405 O.3            1 S1                 0.0000
     15 ****         3.5473  -0.4172  -0.7251 C.3            1 S1                 0.0000
     16 ****         3.7609   1.0340  -1.1722 C.3            1 S1                 0.0000
     17 ****         4.1648   1.8101  -0.0563 O.3            1 S1                 0.0000
     18 ****         4.3692   3.1346  -0.1948 C.2            1 S1                 0.0000
     19 ****         4.2437   3.7363  -1.2634 O.2            1 S1                 0.0000
     20 ****         4.7650   3.7972   1.0816 C.ar           1 S1                 0.0000
     21 ****         5.0444   5.1839   1.0853 C.ar           1 S1                 0.0000
     22 ****         5.4189   5.8371   2.2756 C.ar           1 S1                 0.0000
     23 ****         5.5175   5.1117   3.4772 C.ar           1 S1                 0.0000
     24 ****         5.2416   3.7321   3.4871 C.ar           1 S1                 0.0000
     25 ****         4.8676   3.0770   2.2976 C.ar           1 S1                 0.0000
     26 ****         3.3264  -1.4066  -1.8715 C.3            1 S1                 0.0000
     27 ****         2.5921  -0.8583  -2.8409 F              1 S1                 0.0000
     28 ****         2.5418  -2.5398  -1.2191 C.3            1 S1                 0.0000
     29 ****         3.4112  -3.6159  -0.9294 O.3            1 S1                 0.0000
     30 ****        -6.5571  -1.3766  -0.4895 C.ar           1 S1                 0.0000
     31 ****        -7.7378  -1.4779  -1.2594 C.ar           1 S1                 0.0000
     32 ****        -8.9317  -1.9456  -0.6762 C.ar           1 S1                 0.0000
     33 ****        -8.9570  -2.3096   0.6834 C.ar           1 S1                 0.0000
     34 ****        -7.7888  -2.2001   1.4610 C.ar           1 S1                 0.0000
     35 ****        -6.5944  -1.7321   0.8792 C.ar           1 S1                 0.0000
     36 ****        -4.1449  -2.0132   0.2101 H              1 S1                 0.0000
     37 ****        -1.1033   0.8539  -3.0033 H              1 S1                 0.0000
     38 ****         0.1325  -3.3732   1.6893 H              1 S1                 0.0000
     39 ****         2.3307  -2.3638   0.9814 H              1 S1                 0.0000
     40 ****         4.3914  -0.7557  -0.1212 H              1 S1                 0.0000
     41 ****         4.5402   1.0765  -1.9342 H              1 S1                 0.0000
     42 ****         2.8470   1.4383  -1.6101 H              1 S1                 0.0000
     43 ****         4.9754   5.7619   0.1749 H              1 S1                 0.0000
     44 ****         5.6306   6.8963   2.2660 H              1 S1                 0.0000
     45 ****         5.8044   5.6126   4.3901 H              1 S1                 0.0000
     46 ****         5.3163   3.1742   4.4089 H              1 S1                 0.0000
     47 ****         4.6611   2.0175   2.3408 H              1 S1                 0.0000
     48 ****         4.2602  -1.7272  -2.3352 H              1 S1                 0.0000
     49 ****         1.7340  -2.8953  -1.8609 H              1 S1                 0.0000
     50 ****         3.7279  -3.9728  -1.7451 H              1 S1                 0.0000
     51 ****        -7.7357  -1.2013  -2.3041 H              1 S1                 0.0000
     52 ****        -9.8287  -2.0238  -1.2726 H              1 S1                 0.0000
     53 ****        -9.8724  -2.6683   1.1304 H              1 S1                 0.0000
     54 ****        -7.8095  -2.4728   2.5060 H              1 S1                 0.0000
     55 ****        -5.7125  -1.6465   1.4975 H              1 S1                 0.0000
     56 ****        -4.4609   0.1720  -2.5261 LP             1 S1                 0.0000
     57 ****        -6.1907   0.2184  -2.4508 LP             1 S1                 0.0000
     58 ****        -3.2537   0.2928  -2.3931 LP             1 S1                 0.0000
     59 ****         0.8023  -0.0840  -1.9528 LP             1 S1                 0.0000
     60 ****        -2.3086  -3.0300   1.2813 LP             1 S1                 0.0000
     61 ****         2.5240  -0.2218   0.9736 LP             1 S1                 0.0000
     62 ****         1.6309   0.0019  -0.3751 LP             1 S1                 0.0000
     63 ****         3.9765   3.2390  -2.0888 LP             1 S1                 0.0000
     64 ****         4.4092   4.7216  -1.3048 LP             1 S1                 0.0000
     65 ****         2.9172  -4.3216  -0.4215 LP             1 S1                 0.0000
     66 ****         4.1818  -3.2892  -0.3822 LP             1 S1                 0.0000
@<TRIPOS>BOND
    1    1    2 2     
    2    2    3 am    
    3    2   30 1     
    4    3    4 1     
    5    3   36 1     
    6    4    9 ar    
    7    4    5 ar    
    8    5    6 ar    
    9    6    7 ar    
   10    6   37 1     
   11    7    8 ar    
   12    8   12 1     
   13    8    9 ar    
   14    9   10 1     
   15   10   11 2     
   16   11   12 1     
   17   11   38 1     
   18   12   13 1     
   19   13   28 1     
   20   13   14 1     
   21   13   39 1     
   22   14   15 1     
   23   15   16 1     
   24   15   26 1     
   25   15   40 1     
   26   16   17 1     
   27   16   41 1     
   28   16   42 1     
   29   17   18 1     
   30   18   19 2     
   31   18   20 1     
   32   20   25 ar    
   33   20   21 ar    
   34   21   22 ar    
   35   21   43 1     
   36   22   23 ar    
   37   22   44 1     
   38   23   24 ar    
   39   23   45 1     
   40   24   25 ar    
   41   24   46 1     
   42   25   47 1     
   43   26   27 1     
   44   26   28 1     
   45   26   48 1     
   46   28   29 1     
   47   28   49 1     
   48   29   50 1     
   49   30   35 ar    
   50   30   31 ar    
   51   31   32 ar    
   52   31   51 1     
   53   32   33 ar    
   54   32   52 1     
   55   33   34 ar    
   56   33   53 1     
   57   34   35 ar    
   58   34   54 1     
   59   35   55 1     
   60    1   56 1     
   61    1   57 1     
   62    5   58 1     
   63    7   59 1     
   64   10   60 1     
   65   14   61 1     
   66   14   62 1     
   67   19   63 1     
   68   19   64 1     
   69   29   65 1     
   70   29   66 1     
@<TRIPOS>SUBSTRUCTURE
      1 S1             1
@<TRIPOS>SET
LONE_PAIRS      STATIC     ATOMS    <user>   **** ""
11 56 57 58 59 60 61 62 63 64 65 66
DONOR_HYDROGENS      STATIC     ATOMS    <user>   **** ""
2 36 50
ATOM$BLUE        STATIC     ATOMS    COLORGROUP SYSTEM
11 56 57 58 59 60 61 62 63 64 65 66
ATOM$RED        STATIC     ATOMS    COLORGROUP SYSTEM
2 36 50
