#       Name:                AV-unprocessed.smi:250
#       Creating user name   scv26
#       Creation time:       Thu Mar 26 21:04:57 2020


#       File generated by GOLD software.
#

@<TRIPOS>MOLECULE
AV-unprocessed.smi:250
    66    70     1
SMALL
NO_CHARGES


@<TRIPOS>ATOM
      1 ****        -7.1490  -1.2573  -0.3637 C.3            1 S1                 0.0000
      2 ****        -5.8979  -1.0388  -1.0786 N.am           1 S1                 0.0000
      3 ****        -5.1866  -1.9823  -1.7181 C.2            1 S1                 0.0000
      4 ****        -5.4592  -3.1792  -1.7858 O.2            1 S1                 0.0000
      5 ****        -4.1273  -1.3971  -2.2855 N.am           1 S1                 0.0000
      6 ****        -4.1474   0.0415  -2.1327 C.3            1 S1                 0.0000
      7 ****        -2.7623   0.6957  -1.9247 C.3            1 S1                 0.0000
      8 ****        -2.4329   0.9450  -0.5231 N.3            1 S1                 0.0000
      9 ****        -1.1660   1.3845  -0.3163 C.ar           1 S1                 0.0000
     10 ****        -0.9541   2.6212   0.2091 N.ar           1 S1                 0.0000
     11 ****         0.2901   3.0679   0.4035 C.ar           1 S1                 0.0000
     12 ****         1.4464   2.4525   0.1501 N.ar           1 S1                 0.0000
     13 ****         1.2415   1.2081  -0.3688 C.ar           1 S1                 0.0000
     14 ****        -0.0193   0.6034  -0.6354 C.ar           1 S1                 0.0000
     15 ****         0.1699  -0.6697  -1.1601 N.2            1 S1                 0.0000
     16 ****         1.4668  -0.8050  -1.2100 C.2            1 S1                 0.0000
     17 ****         2.1889   0.2681  -0.7378 N.pl3          1 S1                 0.0000
     18 ****         3.6393   0.3888  -0.6806 C.3            1 S1                 0.0000
     19 ****         4.3141  -0.1510   0.6187 C.3            1 S1                 0.0000
     20 ****         5.8321   0.1762   0.5279 C.3            1 S1                 0.0000
     21 ****         6.4567  -0.4550  -0.5727 O.3            1 S1                 0.0000
     22 ****         3.7124   0.5317   1.8752 C.3            1 S1                 0.0000
     23 ****         4.2023  -0.0968   3.1935 C.3            1 S1                 0.0000
     24 ****         3.9167  -1.4900   3.2042 O.3            1 S1                 0.0000
     25 ****         4.5618  -2.1996   2.1538 C.3            1 S1                 0.0000
     26 ****         4.0751  -1.6740   0.7909 C.3            1 S1                 0.0000
     27 ****        -3.4971   1.5221   0.2916 C.3            1 S1                 0.0000
     28 ****        -4.6689   0.5433   0.3422 C.3            1 S1                 0.0000
     29 ****        -5.2322   0.2577  -1.0649 C.3            1 S1                 0.0000
     30 ****        -4.5299   0.4081  -3.0871 H              1 S1                 0.0000
     31 ****        -5.9108   1.0546  -1.3723 H              1 S1                 0.0000
     32 ****        -7.8547  -1.8157  -0.9802 H              1 S1                 0.0000
     33 ****        -7.6156  -0.3096  -0.0926 H              1 S1                 0.0000
     34 ****        -6.9685  -1.8222   0.5516 H              1 S1                 0.0000
     35 ****        -3.4314  -1.8828  -2.8325 H              1 S1                 0.0000
     36 ****        -1.9966   0.1000  -2.4206 H              1 S1                 0.0000
     37 ****        -2.7590   1.6648  -2.4256 H              1 S1                 0.0000
     38 ****         0.3707   4.0597   0.8234 H              1 S1                 0.0000
     39 ****         1.9365  -1.7013  -1.5885 H              1 S1                 0.0000
     40 ****         4.0409  -0.1235  -1.5557 H              1 S1                 0.0000
     41 ****         3.8881   1.4423  -0.8155 H              1 S1                 0.0000
     42 ****         5.9811   1.2523   0.4325 H              1 S1                 0.0000
     43 ****         6.3729  -0.1252   1.4229 H              1 S1                 0.0000
     44 ****         7.3729  -0.2230  -0.5719 H              1 S1                 0.0000
     45 ****         3.9272   1.6010   1.8676 H              1 S1                 0.0000
     46 ****         2.6269   0.4408   1.8702 H              1 S1                 0.0000
     47 ****         5.2669   0.0725   3.3551 H              1 S1                 0.0000
     48 ****         3.6869   0.3664   4.0351 H              1 S1                 0.0000
     49 ****         5.6448  -2.1246   2.2532 H              1 S1                 0.0000
     50 ****         4.3147  -3.2569   2.2503 H              1 S1                 0.0000
     51 ****         3.0105  -1.8942   0.7260 H              1 S1                 0.0000
     52 ****         4.5466  -2.2351  -0.0162 H              1 S1                 0.0000
     53 ****        -3.1432   1.7099   1.3064 H              1 S1                 0.0000
     54 ****        -3.8115   2.4782  -0.1293 H              1 S1                 0.0000
     55 ****        -4.3230  -0.3815   0.8079 H              1 S1                 0.0000
     56 ****        -5.4573   0.9327   0.9866 H              1 S1                 0.0000
     57 ****        -6.2805  -3.5311  -1.3368 LP             1 S1                 0.0000
     58 ****        -4.8597  -3.8008  -2.2900 LP             1 S1                 0.0000
     59 ****        -2.3981   0.0346  -0.1109 LP             1 S1                 0.0000
     60 ****        -1.7335   3.1990   0.4511 LP             1 S1                 0.0000
     61 ****         2.3473   2.8523   0.3189 LP             1 S1                 0.0000
     62 ****        -0.5280  -1.3306  -1.4362 LP             1 S1                 0.0000
     63 ****         6.0316  -0.1469  -1.4239 LP             1 S1                 0.0000
     64 ****         6.3600  -1.4470  -0.4919 LP             1 S1                 0.0000
     65 ****         2.9286  -1.6131   3.1115 LP             1 S1                 0.0000
     66 ****         4.2195  -1.8703   4.0780 LP             1 S1                 0.0000
@<TRIPOS>BOND
    1    1    2 1     
    2    1   32 1     
    3    1   33 1     
    4    1   34 1     
    5    2   29 1     
    6    2    3 am    
    7    3    4 2     
    8    3    5 am    
    9    5    6 1     
   10    5   35 1     
   11    6   30 1     
   12    6   29 1     
   13    6    7 1     
   14    7    8 1     
   15    7   36 1     
   16    7   37 1     
   17    8    9 1     
   18    8   27 1     
   19    9   14 ar    
   20    9   10 ar    
   21   10   11 ar    
   22   11   12 ar    
   23   11   38 1     
   24   12   13 ar    
   25   13   17 1     
   26   13   14 ar    
   27   14   15 1     
   28   15   16 2     
   29   16   17 1     
   30   16   39 1     
   31   17   18 1     
   32   18   19 1     
   33   18   40 1     
   34   18   41 1     
   35   19   26 1     
   36   19   20 1     
   37   19   22 1     
   38   20   21 1     
   39   20   42 1     
   40   20   43 1     
   41   21   44 1     
   42   22   23 1     
   43   22   45 1     
   44   22   46 1     
   45   23   24 1     
   46   23   47 1     
   47   23   48 1     
   48   24   25 1     
   49   25   26 1     
   50   25   49 1     
   51   25   50 1     
   52   26   51 1     
   53   26   52 1     
   54   27   28 1     
   55   27   53 1     
   56   27   54 1     
   57   28   29 1     
   58   28   55 1     
   59   28   56 1     
   60   29   31 1     
   61    4   57 1     
   62    4   58 1     
   63    8   59 1     
   64   10   60 1     
   65   12   61 1     
   66   15   62 1     
   67   21   63 1     
   68   21   64 1     
   69   24   65 1     
   70   24   66 1     
@<TRIPOS>SUBSTRUCTURE
      1 S1             1
@<TRIPOS>SET
LONE_PAIRS      STATIC     ATOMS    <user>   **** ""
10 57 58 59 60 61 62 63 64 65 66
DONOR_HYDROGENS      STATIC     ATOMS    <user>   **** ""
2 35 44
ATOM$BLUE        STATIC     ATOMS    COLORGROUP SYSTEM
10 57 58 59 60 61 62 63 64 65 66
ATOM$RED        STATIC     ATOMS    COLORGROUP SYSTEM
2 35 44
