#       Name:                AV-unprocessed.smi:2104
#       Creating user name   scv26
#       Creation time:       Fri Mar 27 11:32:14 2020


#       File generated by GOLD software.
#

@<TRIPOS>MOLECULE
AV-unprocessed.smi:2104
    50    51     1
SMALL
NO_CHARGES


@<TRIPOS>ATOM
      1 ****        -3.6728   4.2253   2.2854 C.3            1 S1                 0.0000
      2 ****        -2.9978   3.4162   1.2319 C.2            1 S1                 0.0000
      3 ****        -3.4322   2.4204   0.4037 C.2            1 S1                 0.0000
      4 ****        -2.2692   2.0902  -0.3438 C.2            1 S1                 0.0000
      5 ****        -2.1844   1.1573  -1.3043 N.pl3          1 S1                -1.0000
      6 ****        -1.9314  -0.1304  -0.9756 C.2            1 S1                 0.0000
      7 ****        -1.8518  -0.5893   0.1664 O.2            1 S1                 0.0000
      8 ****        -1.7380  -0.9298  -2.0347 N.am           1 S1                 0.0000
      9 ****        -1.3222  -2.3283  -1.9867 C.3            1 S1                 0.0000
     10 ****         0.2079  -2.4462  -1.9173 C.3            1 S1                 0.0000
     11 ****         0.6511  -1.9942  -0.6470 O.3            1 S1                 0.0000
     12 ****         2.0560  -1.8122  -0.5264 C.3            1 S1                 0.0000
     13 ****         2.4978  -2.5095   0.7736 C.3            1 S1                 0.0000
     14 ****         1.9071  -1.8267   2.0195 C.3            1 S1                 0.0000
     15 ****         2.2519  -0.3305   2.0530 C.3            1 S1                 0.0000
     16 ****         1.8055   0.3740   0.7623 C.3            1 S1                 0.0000
     17 ****         2.4022  -0.3028  -0.4879 C.3            1 S1                 0.0000
     18 ****         2.0066   0.4390  -1.7736 C.3            1 S1                 0.0000
     19 ****        -1.2258   2.8321  -0.0107 N.2            1 S1                 0.0000
     20 ****        -1.6834   3.6813   1.0036 O.3            1 S1                 0.0000
     21 ****        -4.0129   5.1782   1.8799 H              1 S1                 0.0000
     22 ****        -2.9936   4.4314   3.1130 H              1 S1                 0.0000
     23 ****        -4.5396   3.6974   2.6835 H              1 S1                 0.0000
     24 ****        -4.4210   1.9909   0.3449 H              1 S1                 0.0000
     25 ****        -1.8214  -0.5109  -2.9492 H              1 S1                 0.0000
     26 ****        -1.7915  -2.8522  -1.1526 H              1 S1                 0.0000
     27 ****        -1.6820  -2.8095  -2.8960 H              1 S1                 0.0000
     28 ****         0.5131  -3.4847  -2.0504 H              1 S1                 0.0000
     29 ****         0.6613  -1.8690  -2.7240 H              1 S1                 0.0000
     30 ****         2.5796  -2.2869  -1.3587 H              1 S1                 0.0000
     31 ****         2.2043  -3.5594   0.7511 H              1 S1                 0.0000
     32 ****         3.5864  -2.4969   0.8381 H              1 S1                 0.0000
     33 ****         0.8233  -1.9507   2.0269 H              1 S1                 0.0000
     34 ****         2.2787  -2.3138   2.9212 H              1 S1                 0.0000
     35 ****         1.7786   0.1406   2.9150 H              1 S1                 0.0000
     36 ****         3.3275  -0.2061   2.1839 H              1 S1                 0.0000
     37 ****         0.7165   0.3712   0.7026 H              1 S1                 0.0000
     38 ****         2.1045   1.4221   0.7984 H              1 S1                 0.0000
     39 ****         3.4878  -0.2270  -0.4090 H              1 S1                 0.0000
     40 ****         0.9249   0.4646  -1.9035 H              1 S1                 0.0000
     41 ****         2.4401  -0.0373  -2.6530 H              1 S1                 0.0000
     42 ****         2.3563   1.4713  -1.7519 H              1 S1                 0.0000
     43 ****        -2.3081   1.4138  -2.2629 LP             1 S1                 0.0000
     44 ****        -1.9793   0.0105   0.9563 LP             1 S1                 0.0000
     45 ****        -1.6596  -1.5612   0.3024 LP             1 S1                 0.0000
     46 ****         0.3662  -2.6656   0.0371 LP             1 S1                 0.0000
     47 ****         0.2082  -1.1177  -0.4586 LP             1 S1                 0.0000
     48 ****        -0.3057   2.7943  -0.4007 LP             1 S1                 0.0000
     49 ****        -1.1575   3.5219   1.8391 LP             1 S1                 0.0000
     50 ****        -1.5764   4.6340   0.7191 LP             1 S1                 0.0000
@<TRIPOS>BOND
    1    1    2 1     
    2    1   21 1     
    3    1   22 1     
    4    1   23 1     
    5    2   20 1     
    6    2    3 2     
    7    3    4 1     
    8    3   24 1     
    9    4    5 1     
   10    4   19 2     
   11    5    6 1     
   12    6    7 2     
   13    6    8 am    
   14    8    9 1     
   15    8   25 1     
   16    9   10 1     
   17    9   26 1     
   18    9   27 1     
   19   10   11 1     
   20   10   28 1     
   21   10   29 1     
   22   11   12 1     
   23   12   17 1     
   24   12   13 1     
   25   12   30 1     
   26   13   14 1     
   27   13   31 1     
   28   13   32 1     
   29   14   15 1     
   30   14   33 1     
   31   14   34 1     
   32   15   16 1     
   33   15   35 1     
   34   15   36 1     
   35   16   17 1     
   36   16   37 1     
   37   16   38 1     
   38   17   18 1     
   39   17   39 1     
   40   18   40 1     
   41   18   41 1     
   42   18   42 1     
   43   19   20 1     
   44    5   43 1     
   45    7   44 1     
   46    7   45 1     
   47   11   46 1     
   48   11   47 1     
   49   19   48 1     
   50   20   49 1     
   51   20   50 1     
@<TRIPOS>SUBSTRUCTURE
      1 S1             1
@<TRIPOS>SET
LONE_PAIRS      STATIC     ATOMS    <user>   **** ""
8 43 44 45 46 47 48 49 50
DONOR_HYDROGENS      STATIC     ATOMS    <user>   **** ""
1 25
ATOM$BLUE        STATIC     ATOMS    COLORGROUP SYSTEM
8 43 44 45 46 47 48 49 50
ATOM$RED        STATIC     ATOMS    COLORGROUP SYSTEM
1 25
