#       Name:                AV-unprocessed.smi:1334
#       Creating user name   scv26
#       Creation time:       Fri Mar 27 05:07:01 2020


#       File generated by GOLD software.
#

@<TRIPOS>MOLECULE
AV-unprocessed.smi:1334
    42    43     1
SMALL
NO_CHARGES


@<TRIPOS>ATOM
      1 ****        -1.9059  -2.8198  -2.3626 C.3            1 S1                 0.0000
      2 ****        -1.5526  -1.4688  -1.7088 C.3            1 S1                 0.0000
      3 ****        -0.0737  -1.1026  -1.8978 C.2            1 S1                 0.0000
      4 ****         0.7993  -1.9640  -1.7853 O.2            1 S1                 0.0000
      5 ****         0.1903   0.1864  -2.1665 N.am           1 S1                 0.0000
      6 ****         1.5223   0.7721  -2.2964 C.3            1 S1                 0.0000
      7 ****         1.7449   1.9189  -1.2914 C.3            1 S1                 0.0000
      8 ****         1.3457   1.5903   0.1414 C.2            1 S1                 0.0000
      9 ****         0.3754   2.2725   0.7813 C.2            1 S1                 0.0000
     10 ****        -0.0359   2.0285   2.2226 C.3            1 S1                 0.0000
     11 ****         0.9710   1.1493   2.9825 C.3            1 S1                 0.0000
     12 ****         1.4556  -0.0196   2.1168 C.3            1 S1                 0.0000
     13 ****         2.1332   0.4801   0.8289 C.3            1 S1                 0.0000
     14 ****        -1.8973  -1.4295  -0.2925 N.pl3          1 S1                 0.0000
     15 ****        -2.4239  -0.4412   0.4334 C.2            1 S1                 0.0000
     16 ****        -2.5706  -0.7342   1.7179 N.2            1 S1                 0.0000
     17 ****        -2.0626  -2.0018   1.7219 C.2            1 S1                 0.0000
     18 ****        -1.6350  -2.4628   0.5470 N.2            1 S1                 0.0000
     19 ****        -1.6919  -2.8052  -3.4318 H              1 S1                 0.0000
     20 ****        -2.9671  -3.0411  -2.2457 H              1 S1                 0.0000
     21 ****        -1.3460  -3.6482  -1.9267 H              1 S1                 0.0000
     22 ****        -2.1545  -0.7047  -2.2040 H              1 S1                 0.0000
     23 ****        -0.5912   0.8206  -2.2464 H              1 S1                 0.0000
     24 ****         2.3021   0.0200  -2.1694 H              1 S1                 0.0000
     25 ****         1.6354   1.1488  -3.3132 H              1 S1                 0.0000
     26 ****         2.7924   2.2214  -1.3031 H              1 S1                 0.0000
     27 ****         1.1773   2.7893  -1.6234 H              1 S1                 0.0000
     28 ****        -0.1667   3.0494   0.2621 H              1 S1                 0.0000
     29 ****        -0.1463   2.9863   2.7312 H              1 S1                 0.0000
     30 ****        -1.0194   1.5602   2.2190 H              1 S1                 0.0000
     31 ****         1.8301   1.7530   3.2779 H              1 S1                 0.0000
     32 ****         0.5213   0.7799   3.9046 H              1 S1                 0.0000
     33 ****         2.1450  -0.6489   2.6801 H              1 S1                 0.0000
     34 ****         0.6049  -0.6507   1.8567 H              1 S1                 0.0000
     35 ****         2.2680  -0.3631   0.1523 H              1 S1                 0.0000
     36 ****         3.1291   0.8631   1.0538 H              1 S1                 0.0000
     37 ****        -2.7028   0.5144   0.0140 H              1 S1                 0.0000
     38 ****        -1.9983  -2.5993   2.6191 H              1 S1                 0.0000
     39 ****         0.5462  -2.9071  -1.5699 LP             1 S1                 0.0000
     40 ****         1.7611  -1.7202  -1.9094 LP             1 S1                 0.0000
     41 ****        -2.9445  -0.1863   2.4663 LP             1 S1                 0.0000
     42 ****        -1.2234  -3.3494   0.3364 LP             1 S1                 0.0000
@<TRIPOS>BOND
    1    1    2 1     
    2    1   19 1     
    3    1   20 1     
    4    1   21 1     
    5    2    3 1     
    6    2   14 1     
    7    2   22 1     
    8    3    4 2     
    9    3    5 am    
   10    5    6 1     
   11    5   23 1     
   12    6    7 1     
   13    6   24 1     
   14    6   25 1     
   15    7    8 1     
   16    7   26 1     
   17    7   27 1     
   18    8   13 1     
   19    8    9 2     
   20    9   10 1     
   21    9   28 1     
   22   10   11 1     
   23   10   29 1     
   24   10   30 1     
   25   11   12 1     
   26   11   31 1     
   27   11   32 1     
   28   12   13 1     
   29   12   33 1     
   30   12   34 1     
   31   13   35 1     
   32   13   36 1     
   33   14   18 1     
   34   14   15 1     
   35   15   16 2     
   36   15   37 1     
   37   16   17 1     
   38   17   18 2     
   39   17   38 1     
   40    4   39 1     
   41    4   40 1     
   42   16   41 1     
   43   18   42 1     
@<TRIPOS>SUBSTRUCTURE
      1 S1             1
@<TRIPOS>SET
LONE_PAIRS      STATIC     ATOMS    <user>   **** ""
4 39 40 41 42
DONOR_HYDROGENS      STATIC     ATOMS    <user>   **** ""
1 23
ATOM$BLUE        STATIC     ATOMS    COLORGROUP SYSTEM
4 39 40 41 42
ATOM$RED        STATIC     ATOMS    COLORGROUP SYSTEM
1 23
