AV-unprocessed.smi:829|AV-procd|sdf|3868|dock8
  -GOLD-   22720 1323D 1   1.00000     0.00000
 Structure written by MMmdl.
 50 52  0  0  0  0  0  0  0  0  3 V2000
  147.8237  138.0210  155.8287 O   0  0  0  0  0  0  0  0  0  0  0  0
  148.2515  137.6051  154.7523 C   0  0  0  0  0  0  0  0  0  0  0  0
  147.8111  136.5078  154.1125 N   0  0  0  0  0  0  0  0  0  0  0  0
  146.7931  135.5999  154.5133 C   0  0  0  0  0  0  0  0  0  0  0  0
  146.6512  134.4069  153.7700 C   0  0  0  0  0  0  0  0  0  0  0  0
  145.6474  133.4822  154.1234 C   0  0  0  0  0  0  0  0  0  0  0  0
  144.8240  133.7471  155.1601 N   0  3  0  0  0  0  0  0  0  0  0  0
  144.9106  134.8798  155.8899 C   0  0  0  0  0  0  0  0  0  0  0  0
  145.8949  135.8417  155.5840 C   0  0  0  0  0  0  0  0  0  0  0  0
  149.2473  138.1970  154.0767 N   0  0  0  0  0  0  0  0  0  0  0  0
  149.9717  139.3844  154.5213 C   0  0  2  0  0  0  0  0  0  0  0  0
  150.7204  139.1155  155.8395 C   0  0  0  0  0  0  0  0  0  0  0  0
  151.4033  140.3913  156.3619 C   0  0  0  0  0  0  0  0  0  0  0  0
  150.4244  141.4968  156.5274 N   0  3  1  0  0  0  0  0  0  0  0  0
  151.0144  142.7043  157.1614 C   0  0  0  0  0  0  0  0  0  0  0  0
  151.3066  142.4831  158.6577 C   0  0  0  0  0  0  0  0  0  0  0  0
  151.6758  143.7446  159.4442 C   0  0  0  0  0  0  0  0  0  0  0  0
  152.3832  143.2351  160.7038 C   0  0  0  0  0  0  0  0  0  0  0  0
  152.9373  141.8466  160.3519 C   0  0  0  0  0  0  0  0  0  0  0  0
  152.5084  141.5675  158.9072 C   0  0  0  0  0  0  0  0  0  0  0  0
  149.7195  141.7960  155.2533 C   0  0  0  0  0  0  0  0  0  0  0  0
  148.9924  140.5523  154.7171 C   0  0  0  0  0  0  0  0  0  0  0  0
  148.3147  136.2512  153.2759 H   0  0  0  0  0  0  0  0  0  0  0  0
  147.3088  134.1951  152.9391 H   0  0  0  0  0  0  0  0  0  0  0  0
  145.4788  132.5466  153.6102 H   0  0  0  0  0  0  0  0  0  0  0  0
  144.1908  134.9856  156.6885 H   0  0  0  0  0  0  0  0  0  0  0  0
  145.9328  136.7482  156.1684 H   0  0  0  0  0  0  0  0  0  0  0  0
  149.5384  137.7879  153.2006 H   0  0  0  0  0  0  0  0  0  0  0  0
  150.6938  139.6705  153.7537 H   0  0  0  0  0  0  0  0  0  0  0  0
  150.0241  138.7431  156.5927 H   0  0  0  0  0  0  0  0  0  0  0  0
  151.4680  138.3340  155.6973 H   0  0  0  0  0  0  0  0  0  0  0  0
  151.8770  140.1736  157.3200 H   0  0  0  0  0  0  0  0  0  0  0  0
  152.1948  140.7027  155.6780 H   0  0  0  0  0  0  0  0  0  0  0  0
  151.9596  142.9476  156.6736 H   0  0  0  0  0  0  0  0  0  0  0  0
  150.3749  143.5752  157.0093 H   0  0  0  0  0  0  0  0  0  0  0  0
  150.4343  142.0246  159.1274 H   0  0  0  0  0  0  0  0  0  0  0  0
  152.3685  144.3558  158.8640 H   0  0  0  0  0  0  0  0  0  0  0  0
  150.8081  144.3604  159.6827 H   0  0  0  0  0  0  0  0  0  0  0  0
  153.1678  143.9202  161.0268 H   0  0  0  0  0  0  0  0  0  0  0  0
  151.6698  143.1478  161.5240 H   0  0  0  0  0  0  0  0  0  0  0  0
  154.0216  141.8023  160.4582 H   0  0  0  0  0  0  0  0  0  0  0  0
  152.5135  141.0991  161.0236 H   0  0  0  0  0  0  0  0  0  0  0  0
  152.2742  140.5157  158.7400 H   0  0  0  0  0  0  0  0  0  0  0  0
  153.3233  141.8332  158.2319 H   0  0  0  0  0  0  0  0  0  0  0  0
  148.9965  142.5970  155.4022 H   0  0  0  0  0  0  0  0  0  0  0  0
  150.4379  142.1555  154.5147 H   0  0  0  0  0  0  0  0  0  0  0  0
  148.5018  140.7921  153.7728 H   0  0  0  0  0  0  0  0  0  0  0  0
  148.2024  140.2662  155.4133 H   0  0  0  0  0  0  0  0  0  0  0  0
  149.7280  141.1547  157.1741 H   0  0  0  0  0  0  0  0  0  0  0  0
  144.1032  133.0654  155.3990 H   0  0  0  0  0  0  0  0  0  0  0  0
  1  2  2  0  0  0  0
  2  3  1  0  0  0  0
  2 10  1  0  0  0  0
  3  4  1  0  0  0  0
  3 23  1  0  0  0  0
  4  9  1  0  0  0  0
  4  5  2  0  0  0  0
  5  6  1  0  0  0  0
  5 24  1  0  0  0  0
  6  7  2  0  0  0  0
  6 25  1  0  0  0  0
  7  8  1  0  0  0  0
  7 50  1  0  0  0  0
  8  9  2  0  0  0  0
  8 26  1  0  0  0  0
  9 27  1  0  0  0  0
 10 11  1  0  0  0  0
 10 28  1  0  0  0  0
 11 22  1  0  0  0  0
 11 12  1  0  0  0  0
 11 29  1  0  0  0  0
 12 13  1  0  0  0  0
 12 30  1  0  0  0  0
 12 31  1  0  0  0  0
 13 14  1  0  0  0  0
 13 32  1  0  0  0  0
 13 33  1  0  0  0  0
 14 15  1  0  0  0  0
 14 21  1  0  0  0  0
 14 49  1  0  0  0  0
 15 16  1  0  0  0  0
 15 34  1  0  0  0  0
 15 35  1  0  0  0  0
 16 20  1  0  0  0  0
 16 17  1  0  0  0  0
 16 36  1  0  0  0  0
 17 18  1  0  0  0  0
 17 37  1  0  0  0  0
 17 38  1  0  0  0  0
 18 19  1  0  0  0  0
 18 39  1  0  0  0  0
 18 40  1  0  0  0  0
 19 20  1  0  0  0  0
 19 41  1  0  0  0  0
 19 42  1  0  0  0  0
 20 43  1  0  0  0  0
 20 44  1  0  0  0  0
 21 22  1  0  0  0  0
 21 45  1  0  0  0  0
 21 46  1  0  0  0  0
 22 47  1  0  0  0  0
 22 48  1  0  0  0  0
M  CHG  1   7   1
M  CHG  1  14   1
M  END
> <s_m_source_file>
AV-unprocessed.smi

> <i_m_source_file_index>
829

> <i_lp_mmshare_version>
43012

> <i_f3d_flags>
0

> <s_epik_input>
W2NIXTFbY0hdbltjSF1bY0hdYzFbTkhdQyg9TylbTkhdW0NIXTJbQ0gyXVtDSDJdTihbQ0gyXVtDSDJdMilbQ0gyXVtDSF0zW0NIMl1bQ0gyXVtDSDJdW0NIMl0z

> <s_epik_cmdline>
J2VwaWtfcHl0aG9uJywgJy1waCcsICc3LjAnLCAnLXRuJywgJzgnLCAnLW1hJywgJzIwMCcsICctbWV0YWxfYmluZGluZycsICctaW1hZScsICc8aW5maWxlLm1hZT4nLCAnLW9tYWUnLCAnPG91dGZpbGUubWFlPic=

> <r_epik_Ionization_Penalty>
1.10644

> <r_epik_Ionization_Penalty_Charging>
1.10642

> <r_epik_Ionization_Penalty_Neutral>
1.84455e-05

> <r_epik_State_Penalty>
1.14949

> <r_epik_Charging_Adjusted_Penalty>
2.25592

> <i_epik_Tot_Q>
2

> <i_epik_Tot_abs_Q>
2

> <r_epik_Metal_State_Penalty>
1.23448

> <b_epik_Metal_Only>
0

> <s_lp_Force_Field>
OPLS_2005

> <r_lp_Energy>
49.76

> <b_lp_Chiralities_Consistent>
1

> <s_lp_Variant>
AV-unprocessed.smi:829-3

> <Gold.Version>
5.8.1

> <Gold.Id.Protein>
6NUR|6NUR_protein|mol2

> <Gold.PLP.Fitness>
45.6132

> <Gold.PLP.PLP>
-34.6448

> <Gold.PLP.part.hbond>
-2.9153

> <Gold.PLP.part.metal>
0.0000

> <Gold.PLP.part.buried>
-3.8914

> <Gold.PLP.part.nonpolar>
-28.5552

> <Gold.PLP.part.repulsive>
0.1168

> <Gold.PLP.ligand.clash>
0.0000

> <Gold.PLP.ligand.torsion>
0.2202

> <Gold.PLP.Chemscore.Hbond>
3.7910

> <Gold.PLP.Chemscore.CHOScore>
0.0000

> <Gold.PLP.Chemscore.Metal>
0.0000

> <Gold.Chemscore.Hbonds>
donor molecule, donor type, donor heavy atom, donor atom, acceptor molecule, acceptor atom, score
      L1  H     3    23       P1  7948  1.00
      L1  H     7    50       P1 10957  1.98
      L1  H    10    28       P1  7948  0.68

> <Gold.PLP.Chemscore.Internal.Correction>
0.0358

> <Gold.Rescore>
     Score         DG    S(hbond)    S(metal)    S(lipo)     H(rot)  DE(clash)    DE(int)     intcor
     19.89     -22.61       2.69        0.00      99.71       1.37       0.00       2.72       ----

> <Gold.Chemscore.Fitness>
19.8882

> <Gold.Chemscore.DG>
-22.6059

> <Gold.Chemscore.ZeroCoef>
-5.4800

> <Gold.Chemscore.Hbond>
2.6852

> <Gold.Chemscore.Metal>
0.0000

> <Gold.Chemscore.Lipo>
99.7120

> <Gold.Chemscore.Internal_Hbond>
0.0000

> <Gold.Chemscore.DEClash>
0.0015

> <Gold.Chemscore.DEInternal>
2.7162

> <Gold.Chemscore.Rot>
1.3707

> <Gold.Chemscore.Internal.Correction>
   9.000000E+99

> <Gold.Chemscore.Hbonds>
donor molecule, donor type, donor heavy atom, donor atom, acceptor molecule, acceptor atom, score
      L1  H     3    23       P1  7948  0.95
      L1  H     7    50       P1 10957  0.89
      L1  H    10    28       P1  7948  0.59

> <Gold.Chemscore.Hbond.Weighted>
-8.9685

> <Gold.Chemscore.Metal.Weighted>
-0.0000

> <Gold.Chemscore.Lipo.Weighted>
-11.6663

> <Gold.Chemscore.Internal_Hbond.Weighted>
0.0000

> <Gold.Chemscore.DEClash.Weighted>
0.0015

> <Gold.Chemscore.DEInternal.Weighted>
2.7162

> <Gold.Chemscore.Rot.Weighted>
3.5089

> <Gold.Chemscore.Internal.Correction.Weighted>
   9.000000E+99

> <Gold.Protein.RotatedTorsions>
[ 6907 6896 6895 6894 ] final  -87.18 input  -60.11 | X-H torsion
[ 7974 7965 7964 7962 ] final  -57.72 input  175.53 | X-H torsion
[ 8008 7997 7996 7995 ] final   14.53 input   59.86 | X-H torsion
[ 10167 10162 10161 10158 ] final  155.65 input  -65.29 | X-H torsion
[ 10718 10713 10712 10709 ] final -145.02 input   66.30 | X-H torsion
[ 10763 10752 10751 10750 ] final  -83.52 input  -60.55 | X-H torsion
[ 11005 11000 10999 10996 ] final  171.57 input  -57.11 | X-H torsion

> <Gold.Protein.ActiveResidues>
 VAL166  LYS551  ARG553  GLY616  TRP617  ASP618  TYR619  PRO620  LYS621  CYS622 
 ASP623  PHE694  ASN695  SER759  ASP760  ASP761  ALA762  ILE779  LEU786  VAL792 
 PHE793  MET794  SER795  GLU796  ALA797  LYS798  CYS799  TRP800  GLU811  SER814 

> <Gold.Protein.RotatedAtoms>
  150.6866  134.2936  159.4676 H   0  0  0  0  0  0  0  0  0  0  0  0  # atno 6907 bound_to 6896
  152.0839  134.9450  160.0582 H   0  0  0  0  0  0  0  0  0  0  0  0  # atno 6908 bound_to 6896
  152.0792  133.4109  159.4530 H   0  0  0  0  0  0  0  0  0  0  0  0  # atno 6909 bound_to 6896
  145.8477  140.8374  143.0002 H   0  0  0  0  0  0  0  0  0  0  0  0  # atno 7974 bound_to 7965
  154.8498  140.2928  155.5606 H   0  0  0  0  0  0  0  0  0  0  0  0  # atno 8008 bound_to 7997
  156.3016  140.2498  156.3386 H   0  0  0  0  0  0  0  0  0  0  0  0  # atno 8009 bound_to 7997
  154.9034  140.0390  157.1895 H   0  0  0  0  0  0  0  0  0  0  0  0  # atno 8010 bound_to 7997
  139.4821  144.5079  151.8069 H   0  0  0  0  0  0  0  0  0  0  0  0  # atno 10167 bound_to 10162
  156.3773  130.7819  151.2007 H   0  0  0  0  0  0  0  0  0  0  0  0  # atno 10718 bound_to 10713
  154.5887  135.5553  153.7256 H   0  0  0  0  0  0  0  0  0  0  0  0  # atno 10763 bound_to 10752
  153.0108  135.6338  154.1880 H   0  0  0  0  0  0  0  0  0  0  0  0  # atno 10764 bound_to 10752
  154.1821  135.2886  155.3028 H   0  0  0  0  0  0  0  0  0  0  0  0  # atno 10765 bound_to 10752
  140.3205  134.7442  157.4060 H   0  0  0  0  0  0  0  0  0  0  0  0  # atno 11005 bound_to 11000
  144.6730  140.0907  143.7465 LP  0  0  0  0  0  0  0  0  0  0  0  0  # atno 17320 bound_to 7965
  145.9393  139.2658  143.1278 LP  0  0  0  0  0  0  0  0  0  0  0  0  # atno 17321 bound_to 7965
  140.4579  144.1763  150.5903 LP  0  0  0  0  0  0  0  0  0  0  0  0  # atno 17342 bound_to 10162
  140.4515  143.2485  151.9341 LP  0  0  0  0  0  0  0  0  0  0  0  0  # atno 17343 bound_to 10162
  157.7489  131.0354  150.4364 LP  0  0  0  0  0  0  0  0  0  0  0  0  # atno 17370 bound_to 10713
  156.4602  130.4030  149.6581 LP  0  0  0  0  0  0  0  0  0  0  0  0  # atno 17371 bound_to 10713
  140.0946  134.5554  155.8411 LP  0  0  0  0  0  0  0  0  0  0  0  0  # atno 17394 bound_to 11000
  141.2088  133.6677  156.6393 LP  0  0  0  0  0  0  0  0  0  0  0  0  # atno 17395 bound_to 11000

$$$$
