AV-unprocessed.smi:699|AV-procd|sdf|3406|dock1
  -GOLD-   22720 0383D 1   1.00000     0.00000
 Structure written by MMmdl.
 35 36  0  0  0  0  0  0  0  0  2 V2000
  151.2689  139.1493  158.7248 N   0  0  0  0  0  0  0  0  0  0  0  0
  152.1975  140.1089  158.7236 C   0  0  0  0  0  0  0  0  0  0  0  0
  153.3862  139.8658  158.5245 O   0  0  0  0  0  0  0  0  0  0  0  0
  151.7193  141.5454  158.9841 C   0  0  1  0  0  0  0  0  0  0  0  0
  152.3594  142.1764  160.2292 C   0  0  0  0  0  0  0  0  0  0  0  0
  152.2779  143.6783  159.9742 C   0  0  0  0  0  0  0  0  0  0  0  0
  152.5381  143.8255  158.4755 C   0  0  0  0  0  0  0  0  0  0  0  0
  152.0496  142.5162  157.8232 C   0  0  2  0  0  0  0  0  0  0  0  0
  150.8790  142.7295  156.9738 N   0  0  0  0  0  0  0  0  0  0  0  0
  150.2266  141.7689  156.3036 C   0  0  0  0  0  0  0  0  0  0  0  0
  150.5601  140.5846  156.3211 O   0  0  0  0  0  0  0  0  0  0  0  0
  149.1922  142.2763  155.6104 N   0  0  0  0  0  0  0  0  0  0  0  0
  148.2561  141.5992  154.7810 C   0  0  0  0  0  0  0  0  0  0  0  0
  147.1343  142.3325  154.3337 C   0  0  0  0  0  0  0  0  0  0  0  0
  146.1697  141.7037  153.5202 C   0  0  0  0  0  0  0  0  0  0  0  0
  146.3187  140.4051  153.1826 N   0  3  0  0  0  0  0  0  0  0  0  0
  147.3654  139.6590  153.5961 C   0  0  0  0  0  0  0  0  0  0  0  0
  148.3622  140.2336  154.4112 C   0  0  0  0  0  0  0  0  0  0  0  0
  151.5412  138.1909  158.5605 H   0  0  0  0  0  0  0  0  0  0  0  0
  150.3008  139.3815  158.8919 H   0  0  0  0  0  0  0  0  0  0  0  0
  150.6395  141.5378  159.1476 H   0  0  0  0  0  0  0  0  0  0  0  0
  151.8450  141.8923  161.1478 H   0  0  0  0  0  0  0  0  0  0  0  0
  153.4050  141.8810  160.3309 H   0  0  0  0  0  0  0  0  0  0  0  0
  151.2744  144.0358  160.2090 H   0  0  0  0  0  0  0  0  0  0  0  0
  152.9840  144.2468  160.5800 H   0  0  0  0  0  0  0  0  0  0  0  0
  152.0627  144.7189  158.0685 H   0  0  0  0  0  0  0  0  0  0  0  0
  153.6104  143.9301  158.3053 H   0  0  0  0  0  0  0  0  0  0  0  0
  152.8574  142.1166  157.2058 H   0  0  0  0  0  0  0  0  0  0  0  0
  150.5439  143.6784  156.8958 H   0  0  0  0  0  0  0  0  0  0  0  0
  149.0938  143.2806  155.6410 H   0  0  0  0  0  0  0  0  0  0  0  0
  147.0125  143.3712  154.6054 H   0  0  0  0  0  0  0  0  0  0  0  0
  145.2891  142.1968  153.1346 H   0  0  0  0  0  0  0  0  0  0  0  0
  147.3722  138.6291  153.2697 H   0  0  0  0  0  0  0  0  0  0  0  0
  149.1784  139.6109  154.7436 H   0  0  0  0  0  0  0  0  0  0  0  0
  145.6086  139.9678  152.5947 H   0  0  0  0  0  0  0  0  0  0  0  0
  1  2  1  0  0  0  0
  1 19  1  0  0  0  0
  1 20  1  0  0  0  0
  2  3  2  0  0  0  0
  2  4  1  0  0  0  0
  4  8  1  0  0  0  0
  4  5  1  0  0  0  0
  4 21  1  0  0  0  0
  5  6  1  0  0  0  0
  5 22  1  0  0  0  0
  5 23  1  0  0  0  0
  6  7  1  0  0  0  0
  6 24  1  0  0  0  0
  6 25  1  0  0  0  0
  7  8  1  0  0  0  0
  7 26  1  0  0  0  0
  7 27  1  0  0  0  0
  8  9  1  0  0  0  0
  8 28  1  0  0  0  0
  9 10  1  0  0  0  0
  9 29  1  0  0  0  0
 10 11  2  0  0  0  0
 10 12  1  0  0  0  0
 12 13  1  0  0  0  0
 12 30  1  0  0  0  0
 13 18  1  0  0  0  0
 13 14  2  0  0  0  0
 14 15  1  0  0  0  0
 14 31  1  0  0  0  0
 15 16  2  0  0  0  0
 15 32  1  0  0  0  0
 16 17  1  0  0  0  0
 16 35  1  0  0  0  0
 17 18  2  0  0  0  0
 17 33  1  0  0  0  0
 18 34  1  0  0  0  0
M  CHG  1  16   1
M  END
> <s_m_source_file>
AV-unprocessed.smi

> <i_m_source_file_index>
699

> <i_lp_mmshare_version>
43012

> <i_f3d_flags>
0

> <s_epik_input>
W05IMl1DKD1PKVtDQEBIXTFbQ0gyXVtDSDJdW0NIMl1bQ0BIXTFbTkhdQyg9TylbTkhdYzJbY0hdW2NIXW5bY0hdW2NIXTI=

> <s_epik_cmdline>
J2VwaWtfcHl0aG9uJywgJy1waCcsICc3LjAnLCAnLXRuJywgJzgnLCAnLW1hJywgJzIwMCcsICctbWV0YWxfYmluZGluZycsICctaW1hZScsICc8aW5maWxlLm1hZT4nLCAnLW9tYWUnLCAnPG91dGZpbGUubWFlPic=

> <r_epik_Ionization_Penalty>
1.0332

> <r_epik_Ionization_Penalty_Charging>
1.03318

> <r_epik_Ionization_Penalty_Neutral>
1.91967e-05

> <r_epik_State_Penalty>
1.08452

> <r_epik_Charging_Adjusted_Penalty>
2.11769

> <i_epik_Tot_Q>
1

> <i_epik_Tot_abs_Q>
1

> <r_epik_Metal_State_Penalty>
1.18144

> <b_epik_Metal_Only>
0

> <s_lp_Force_Field>
OPLS_2005

> <r_lp_Energy>
26.7554

> <b_lp_Chiralities_Consistent>
1

> <s_lp_Variant>
AV-unprocessed.smi:699-8

> <Gold.Version>
5.8.1

> <Gold.Id.Protein>
6NUR|6NUR_protein|mol2

> <Gold.PLP.Fitness>
41.2880

> <Gold.PLP.PLP>
-32.0472

> <Gold.PLP.part.hbond>
-3.5249

> <Gold.PLP.part.metal>
0.0000

> <Gold.PLP.part.buried>
-3.2618

> <Gold.PLP.part.nonpolar>
-27.1925

> <Gold.PLP.part.repulsive>
0.3425

> <Gold.PLP.ligand.clash>
0.0000

> <Gold.PLP.ligand.torsion>
0.0201

> <Gold.PLP.Chemscore.Hbond>
3.0925

> <Gold.PLP.Chemscore.CHOScore>
0.0000

> <Gold.PLP.Chemscore.Metal>
0.0000

> <Gold.Chemscore.Hbonds>
donor molecule, donor type, donor heavy atom, donor atom, acceptor molecule, acceptor atom, score
      L1  H     9    29       P1  8028  0.23
      L1  H    12    30       P1  8028  0.80
      L1  H    16    35       P1 10175  1.09
      P1  H  7997  8010       L1     3  1.00

> <Gold.PLP.Chemscore.Internal.Correction>
0.0036

> <Gold.Rescore>
     Score         DG    S(hbond)    S(metal)    S(lipo)     H(rot)  DE(clash)    DE(int)     intcor
     15.52     -20.65       2.69        0.00      85.75       1.50       1.63       3.50       ----

> <Gold.Chemscore.Fitness>
15.5166

> <Gold.Chemscore.DG>
-20.6538

> <Gold.Chemscore.ZeroCoef>
-5.4800

> <Gold.Chemscore.Hbond>
2.6917

> <Gold.Chemscore.Metal>
0.0000

> <Gold.Chemscore.Lipo>
85.7528

> <Gold.Chemscore.Internal_Hbond>
0.0000

> <Gold.Chemscore.DEClash>
1.6326

> <Gold.Chemscore.DEInternal>
3.5045

> <Gold.Chemscore.Rot>
1.5038

> <Gold.Chemscore.Internal.Correction>
   9.000000E+99

> <Gold.Chemscore.Hbonds>
donor molecule, donor type, donor heavy atom, donor atom, acceptor molecule, acceptor atom, score
      L1  H     9    29       P1  8028  0.24
      L1  H    12    30       P1  8028  0.79
      L1  H    16    35       P1 10175  0.50
      P1  H  7997  8010       L1     3  0.94

> <Gold.Chemscore.Hbond.Weighted>
-8.9903

> <Gold.Chemscore.Metal.Weighted>
-0.0000

> <Gold.Chemscore.Lipo.Weighted>
-10.0331

> <Gold.Chemscore.Internal_Hbond.Weighted>
0.0000

> <Gold.Chemscore.DEClash.Weighted>
1.6326

> <Gold.Chemscore.DEInternal.Weighted>
3.5045

> <Gold.Chemscore.Rot.Weighted>
3.8496

> <Gold.Chemscore.Internal.Correction.Weighted>
   9.000000E+99

> <Gold.Protein.RotatedTorsions>
[ 6907 6896 6895 6894 ] final  179.64 input  -60.11 | X-H torsion
[ 7974 7965 7964 7962 ] final -128.13 input  175.53 | X-H torsion
[ 8008 7997 7996 7995 ] final   16.28 input   59.86 | X-H torsion
[ 10167 10162 10161 10158 ] final  177.26 input  -65.29 | X-H torsion
[ 10718 10713 10712 10709 ] final   33.36 input   66.30 | X-H torsion
[ 10763 10752 10751 10750 ] final  108.87 input  -60.55 | X-H torsion
[ 11005 11000 10999 10996 ] final  141.58 input  -57.11 | X-H torsion

> <Gold.Protein.ActiveResidues>
 VAL166  LYS551  ARG553  GLY616  TRP617  ASP618  TYR619  PRO620  LYS621  CYS622 
 ASP623  PHE694  ASN695  SER759  ASP760  ASP761  ALA762  ILE779  LEU786  VAL792 
 PHE793  MET794  SER795  GLU796  ALA797  LYS798  CYS799  TRP800  GLU811  SER814 

> <Gold.Protein.RotatedAtoms>
  151.6684  133.3314  159.3190 H   0  0  0  0  0  0  0  0  0  0  0  0  # atno 6907 bound_to 6896
  150.7879  134.6883  159.6492 H   0  0  0  0  0  0  0  0  0  0  0  0  # atno 6908 bound_to 6896
  152.3953  134.6379  160.0144 H   0  0  0  0  0  0  0  0  0  0  0  0  # atno 6909 bound_to 6896
  144.9701  140.7536  143.4676 H   0  0  0  0  0  0  0  0  0  0  0  0  # atno 7974 bound_to 7965
  154.8747  140.2964  155.5460 H   0  0  0  0  0  0  0  0  0  0  0  0  # atno 8008 bound_to 7997
  156.3022  140.2453  156.3674 H   0  0  0  0  0  0  0  0  0  0  0  0  # atno 8009 bound_to 7997
  154.8780  140.0399  157.1754 H   0  0  0  0  0  0  0  0  0  0  0  0  # atno 8010 bound_to 7997
  139.5246  144.2819  152.0539 H   0  0  0  0  0  0  0  0  0  0  0  0  # atno 10167 bound_to 10162
  157.2969  130.7331  149.6643 H   0  0  0  0  0  0  0  0  0  0  0  0  # atno 10718 bound_to 10713
  153.4268  135.3798  155.2145 H   0  0  0  0  0  0  0  0  0  0  0  0  # atno 10763 bound_to 10752
  154.8748  135.3830  154.4317 H   0  0  0  0  0  0  0  0  0  0  0  0  # atno 10764 bound_to 10752
  153.4844  135.7088  153.5982 H   0  0  0  0  0  0  0  0  0  0  0  0  # atno 10765 bound_to 10752
  140.0412  134.9304  157.0846 H   0  0  0  0  0  0  0  0  0  0  0  0  # atno 11005 bound_to 11000
  145.2572  139.2007  143.4911 LP  0  0  0  0  0  0  0  0  0  0  0  0  # atno 17320 bound_to 7965
  146.3379  140.2495  142.8598 LP  0  0  0  0  0  0  0  0  0  0  0  0  # atno 17321 bound_to 7965
  140.2274  144.4404  150.6315 LP  0  0  0  0  0  0  0  0  0  0  0  0  # atno 17342 bound_to 10162
  140.6378  143.2198  151.6356 LP  0  0  0  0  0  0  0  0  0  0  0  0  # atno 17343 bound_to 10162
  155.9669  130.4292  150.4821 LP  0  0  0  0  0  0  0  0  0  0  0  0  # atno 17370 bound_to 10713
  157.2794  131.0603  151.2208 LP  0  0  0  0  0  0  0  0  0  0  0  0  # atno 17371 bound_to 10713
  140.4066  134.2025  155.7163 LP  0  0  0  0  0  0  0  0  0  0  0  0  # atno 17394 bound_to 11000
  141.1884  133.8261  157.0997 LP  0  0  0  0  0  0  0  0  0  0  0  0  # atno 17395 bound_to 11000

$$$$
