AV-unprocessed.smi:1554|AV-procd|sdf|6245|dock7
  -GOLD-   22720 6423D 1   1.00000     0.00000
 Structure written by MMmdl.
 48 50  0  0  0  0  0  0  0  0  2 V2000
  153.9787  143.0393  163.4184 C   0  0  0  0  0  0  0  0  0  0  0  0
  153.4310  142.7399  162.0340 C   0  0  0  0  0  0  0  0  0  0  0  0
  152.4467  143.5927  161.4854 C   0  0  0  0  0  0  0  0  0  0  0  0
  151.9139  143.3512  160.2001 C   0  0  0  0  0  0  0  0  0  0  0  0
  150.9594  144.0464  159.4773 N   0  0  0  0  0  0  0  0  0  0  0  0
  150.8975  143.3317  158.3578 C   0  0  0  0  0  0  0  0  0  0  0  0
  151.7009  142.2544  158.2682 N   0  0  0  0  0  0  0  0  0  0  0  0
  151.8090  141.3365  157.1479 C   0  0  0  0  0  0  0  0  0  0  0  0
  150.6446  141.4852  156.1493 C   0  0  1  0  0  0  0  0  0  0  0  0
  150.8030  140.5532  155.0960 O   0  0  0  0  0  0  0  0  0  0  0  0
  149.2776  141.2434  156.8190 C   0  0  0  0  0  0  0  0  0  0  0  0
  148.1797  141.9852  156.1474 N   0  3  1  0  0  0  0  0  0  0  0  0
  148.0118  141.5973  154.7273 C   0  0  0  0  0  0  0  0  0  0  0  0
  146.9142  142.4479  154.0672 C   0  0  0  0  0  0  0  0  0  0  0  0
  145.6991  142.3051  154.7925 O   0  0  0  0  0  0  0  0  0  0  0  0
  145.8170  142.7549  156.1381 C   0  0  1  0  0  0  0  0  0  0  0  0
  144.4402  142.6446  156.8022 C   0  0  0  0  0  0  0  0  0  0  0  0
  146.8811  141.9061  156.8611 C   0  0  0  0  0  0  0  0  0  0  0  0
  152.3962  142.2237  159.4729 C   0  0  0  0  0  0  0  0  0  0  0  0
  153.3741  141.3669  160.0089 C   0  0  0  0  0  0  0  0  0  0  0  0
  153.8960  141.6230  161.2941 C   0  0  0  0  0  0  0  0  0  0  0  0
  154.9512  140.6915  161.8638 C   0  0  0  0  0  0  0  0  0  0  0  0
  153.5126  143.9265  163.8484 H   0  0  0  0  0  0  0  0  0  0  0  0
  155.0537  143.2158  163.3734 H   0  0  0  0  0  0  0  0  0  0  0  0
  153.7923  142.2029  164.0925 H   0  0  0  0  0  0  0  0  0  0  0  0
  152.0922  144.4433  162.0487 H   0  0  0  0  0  0  0  0  0  0  0  0
  150.2309  143.6081  157.5540 H   0  0  0  0  0  0  0  0  0  0  0  0
  152.7662  141.5030  156.6521 H   0  0  0  0  0  0  0  0  0  0  0  0
  151.8375  140.3200  157.5428 H   0  0  0  0  0  0  0  0  0  0  0  0
  150.6837  142.4871  155.7222 H   0  0  0  0  0  0  0  0  0  0  0  0
  150.1264  139.8968  155.1668 H   0  0  0  0  0  0  0  0  0  0  0  0
  149.0660  140.1730  156.7974 H   0  0  0  0  0  0  0  0  0  0  0  0
  149.3108  141.5244  157.8729 H   0  0  0  0  0  0  0  0  0  0  0  0
  148.9515  141.7344  154.1906 H   0  0  0  0  0  0  0  0  0  0  0  0
  147.7558  140.5385  154.6636 H   0  0  0  0  0  0  0  0  0  0  0  0
  147.2064  143.4987  154.0261 H   0  0  0  0  0  0  0  0  0  0  0  0
  146.7526  142.1225  153.0395 H   0  0  0  0  0  0  0  0  0  0  0  0
  146.1194  143.8038  156.1402 H   0  0  0  0  0  0  0  0  0  0  0  0
  144.4745  142.9873  157.8365 H   0  0  0  0  0  0  0  0  0  0  0  0
  144.0831  141.6143  156.8022 H   0  0  0  0  0  0  0  0  0  0  0  0
  143.7037  143.2522  156.2759 H   0  0  0  0  0  0  0  0  0  0  0  0
  146.5582  140.8650  156.9149 H   0  0  0  0  0  0  0  0  0  0  0  0
  146.9893  142.2593  157.8861 H   0  0  0  0  0  0  0  0  0  0  0  0
  153.7210  140.5207  159.4351 H   0  0  0  0  0  0  0  0  0  0  0  0
  155.2181  139.9098  161.1519 H   0  0  0  0  0  0  0  0  0  0  0  0
  154.5836  140.2089  162.7697 H   0  0  0  0  0  0  0  0  0  0  0  0
  155.8589  141.2435  162.1085 H   0  0  0  0  0  0  0  0  0  0  0  0
  148.4571  142.9569  156.1434 H   0  0  0  0  0  0  0  0  0  0  0  0
  1  2  1  0  0  0  0
  1 23  1  0  0  0  0
  1 24  1  0  0  0  0
  1 25  1  0  0  0  0
  2 21  1  0  0  0  0
  2  3  2  0  0  0  0
  3  4  1  0  0  0  0
  3 26  1  0  0  0  0
  4 19  2  0  0  0  0
  4  5  1  0  0  0  0
  5  6  2  0  0  0  0
  6  7  1  0  0  0  0
  6 27  1  0  0  0  0
  7  8  1  0  0  0  0
  7 19  1  0  0  0  0
  8  9  1  0  0  0  0
  8 28  1  0  0  0  0
  8 29  1  0  0  0  0
  9 10  1  0  0  0  0
  9 11  1  0  0  0  0
  9 30  1  0  0  0  0
 10 31  1  0  0  0  0
 11 12  1  0  0  0  0
 11 32  1  0  0  0  0
 11 33  1  0  0  0  0
 12 18  1  0  0  0  0
 12 13  1  0  0  0  0
 12 48  1  0  0  0  0
 13 14  1  0  0  0  0
 13 34  1  0  0  0  0
 13 35  1  0  0  0  0
 14 15  1  0  0  0  0
 14 36  1  0  0  0  0
 14 37  1  0  0  0  0
 15 16  1  0  0  0  0
 16 17  1  0  0  0  0
 16 18  1  0  0  0  0
 16 38  1  0  0  0  0
 17 39  1  0  0  0  0
 17 40  1  0  0  0  0
 17 41  1  0  0  0  0
 18 42  1  0  0  0  0
 18 43  1  0  0  0  0
 19 20  1  0  0  0  0
 20 21  2  0  0  0  0
 20 44  1  0  0  0  0
 21 22  1  0  0  0  0
 22 45  1  0  0  0  0
 22 46  1  0  0  0  0
 22 47  1  0  0  0  0
M  CHG  1  12   1
M  END
> <s_m_source_file>
AV-unprocessed.smi

> <i_m_source_file_index>
1554

> <i_lp_mmshare_version>
43012

> <i_f3d_flags>
0

> <s_epik_input>
W0NIM11jKFtjSF0xKWMoW0NIM10pW2NIXWMoYzEyKW4oW2NIXW4yKVtDSDJdW0NASF0oW09IXSlbQ0gyXU4zW0NIMl1bQ0gyXU9bQ0BASF0oW0NIM10pW0NIMl0z

> <s_epik_cmdline>
J2VwaWtfcHl0aG9uJywgJy1waCcsICc3LjAnLCAnLXRuJywgJzgnLCAnLW1hJywgJzIwMCcsICctbWV0YWxfYmluZGluZycsICctaW1hZScsICc8aW5maWxlLm1hZT4nLCAnLW9tYWUnLCAnPG91dGZpbGUubWFlPic=

> <r_epik_Ionization_Penalty>
0.695251

> <r_epik_Ionization_Penalty_Charging>
0.608065

> <r_epik_Ionization_Penalty_Neutral>
0.0871863

> <r_epik_State_Penalty>
0.731955

> <r_epik_Charging_Adjusted_Penalty>
1.34002

> <i_epik_Tot_Q>
1

> <i_epik_Tot_abs_Q>
1

> <r_epik_Metal_State_Penalty>
0.652186

> <b_epik_Metal_Only>
0

> <s_lp_Force_Field>
OPLS_2005

> <r_lp_Energy>
21.5252

> <b_lp_Chiralities_Consistent>
1

> <s_lp_Variant>
AV-unprocessed.smi:1554-6

> <Gold.Version>
5.8.1

> <Gold.Id.Protein>
6NUR|6NUR_protein|mol2

> <Gold.PLP.Fitness>
60.7203

> <Gold.PLP.PLP>
-49.7055

> <Gold.PLP.part.hbond>
-2.0000

> <Gold.PLP.part.metal>
0.0000

> <Gold.PLP.part.buried>
-8.3469

> <Gold.PLP.part.nonpolar>
-39.0611

> <Gold.PLP.part.repulsive>
0.3320

> <Gold.PLP.ligand.clash>
0.0000

> <Gold.PLP.ligand.torsion>
0.5137

> <Gold.PLP.Chemscore.Hbond>
3.0000

> <Gold.PLP.Chemscore.CHOScore>
1.0000

> <Gold.PLP.Chemscore.Metal>
0.0000

> <Gold.Chemscore.Hbonds>
donor molecule, donor type, donor heavy atom, donor atom, acceptor molecule, acceptor atom, score
      L1  H    12    48       P1  8028  2.00
      P1  H  7989  7998       L1    10  0.98
      L1  C     6    27       P1  8028  0.93

> <Gold.PLP.Chemscore.Internal.Correction>
0.0422

> <Gold.Rescore>
     Score         DG    S(hbond)    S(metal)    S(lipo)     H(rot)  DE(clash)    DE(int)     intcor
     19.79     -21.18       1.93        0.00     124.14       2.05       0.77       0.61       ----

> <Gold.Chemscore.Fitness>
19.7920

> <Gold.Chemscore.DG>
-21.1767

> <Gold.Chemscore.ZeroCoef>
-5.4800

> <Gold.Chemscore.Hbond>
1.9257

> <Gold.Chemscore.Metal>
0.0000

> <Gold.Chemscore.Lipo>
124.1409

> <Gold.Chemscore.Internal_Hbond>
0.0000

> <Gold.Chemscore.DEClash>
0.7740

> <Gold.Chemscore.DEInternal>
0.6107

> <Gold.Chemscore.Rot>
2.0546

> <Gold.Chemscore.Internal.Correction>
   9.000000E+99

> <Gold.Chemscore.Hbonds>
donor molecule, donor type, donor heavy atom, donor atom, acceptor molecule, acceptor atom, score
      L1  H    12    48       P1  8028  0.94
      P1  H  7989  7998       L1    10  0.92

> <Gold.Chemscore.Hbond.Weighted>
-6.4319

> <Gold.Chemscore.Metal.Weighted>
-0.0000

> <Gold.Chemscore.Lipo.Weighted>
-14.5245

> <Gold.Chemscore.Internal_Hbond.Weighted>
0.0000

> <Gold.Chemscore.DEClash.Weighted>
0.7740

> <Gold.Chemscore.DEInternal.Weighted>
0.6107

> <Gold.Chemscore.Rot.Weighted>
5.2597

> <Gold.Chemscore.Internal.Correction.Weighted>
   9.000000E+99

> <Gold.Protein.RotatedTorsions>
[ 6907 6896 6895 6894 ] final  156.01 input  -60.11 | X-H torsion
[ 7974 7965 7964 7962 ] final  117.17 input  175.53 | X-H torsion
[ 8008 7997 7996 7995 ] final  141.99 input   59.86 | X-H torsion
[ 10167 10162 10161 10158 ] final -114.81 input  -65.29 | X-H torsion
[ 10718 10713 10712 10709 ] final -126.56 input   66.30 | X-H torsion
[ 10763 10752 10751 10750 ] final  129.59 input  -60.55 | X-H torsion
[ 11005 11000 10999 10996 ] final   45.07 input  -57.11 | X-H torsion

> <Gold.Protein.ActiveResidues>
 VAL166  LYS551  ARG553  GLY616  TRP617  ASP618  TYR619  PRO620  LYS621  CYS622 
 ASP623  PHE694  ASN695  SER759  ASP760  ASP761  ALA762  ILE779  LEU786  VAL792 
 PHE793  MET794  SER795  GLU796  ALA797  LYS798  CYS799  TRP800  GLU811  SER814 

> <Gold.Protein.RotatedAtoms>
  152.0359  133.3957  159.4316 H   0  0  0  0  0  0  0  0  0  0  0  0  # atno 6907 bound_to 6896
  150.6879  134.3469  159.4901 H   0  0  0  0  0  0  0  0  0  0  0  0  # atno 6908 bound_to 6896
  152.1261  134.9169  160.0611 H   0  0  0  0  0  0  0  0  0  0  0  0  # atno 6909 bound_to 6896
  145.1706  139.3103  143.4469 H   0  0  0  0  0  0  0  0  0  0  0  0  # atno 7974 bound_to 7965
  156.2957  140.2300  156.4655 H   0  0  0  0  0  0  0  0  0  0  0  0  # atno 8008 bound_to 7997
  154.7981  140.0450  157.1273 H   0  0  0  0  0  0  0  0  0  0  0  0  # atno 8009 bound_to 7997
  154.9566  140.3049  155.5053 H   0  0  0  0  0  0  0  0  0  0  0  0  # atno 8010 bound_to 7997
  140.0970  143.4648  152.1835 H   0  0  0  0  0  0  0  0  0  0  0  0  # atno 10167 bound_to 10162
  156.1776  130.6710  151.0263 H   0  0  0  0  0  0  0  0  0  0  0  0  # atno 10718 bound_to 10713
  153.7442  135.3219  155.3309 H   0  0  0  0  0  0  0  0  0  0  0  0  # atno 10763 bound_to 10752
  154.8285  135.4552  154.0996 H   0  0  0  0  0  0  0  0  0  0  0  0  # atno 10764 bound_to 10752
  153.2180  135.6944  153.8116 H   0  0  0  0  0  0  0  0  0  0  0  0  # atno 10765 bound_to 10752
  140.1493  134.4482  155.8393 H   0  0  0  0  0  0  0  0  0  0  0  0  # atno 11005 bound_to 11000
  146.3469  140.1851  142.8589 LP  0  0  0  0  0  0  0  0  0  0  0  0  # atno 17320 bound_to 7965
  145.0236  140.8814  143.5152 LP  0  0  0  0  0  0  0  0  0  0  0  0  # atno 17321 bound_to 7965
  139.5693  144.7453  151.3936 LP  0  0  0  0  0  0  0  0  0  0  0  0  # atno 17342 bound_to 10162
  140.6998  143.7659  150.7385 LP  0  0  0  0  0  0  0  0  0  0  0  0  # atno 17343 bound_to 10162
  157.6846  131.0828  150.7277 LP  0  0  0  0  0  0  0  0  0  0  0  0  # atno 17370 bound_to 10713
  156.7334  130.4717  149.5494 LP  0  0  0  0  0  0  0  0  0  0  0  0  # atno 17371 bound_to 10713
  141.2197  133.6865  156.7392 LP  0  0  0  0  0  0  0  0  0  0  0  0  # atno 17394 bound_to 11000
  140.2624  134.8456  157.3771 LP  0  0  0  0  0  0  0  0  0  0  0  0  # atno 17395 bound_to 11000

$$$$
