AV-unprocessed.smi:2886|AV-procd|sdf|11095|dock8
  -GOLD-   2272015563D 1   1.00000     0.00000
 Structure written by MMmdl.
 27 29  0  0  0  0  0  0  0  0  2 V2000
  151.4796  138.1386  154.4914 O   0  0  0  0  0  0  0  0  0  0  0  0
  151.1115  139.2280  154.9276 C   0  0  0  0  0  0  0  0  0  0  0  0
  150.2848  140.0544  154.2179 N   0  5  0  0  0  0  0  0  0  0  0  0
  149.8869  141.3309  154.7686 N   0  0  0  0  0  0  0  0  0  0  0  0
  150.2882  141.7037  155.9193 C   0  0  0  0  0  0  0  0  0  0  0  0
  151.1736  140.8639  156.7632 C   0  0  0  0  0  0  0  0  0  0  0  0
  151.6120  141.2690  158.0179 N   0  0  0  0  0  0  0  0  0  0  0  0
  151.3250  142.5068  158.7287 C   0  0  2  0  0  0  0  0  0  0  0  0
  151.4065  143.7367  157.8212 C   0  0  0  0  0  0  0  0  0  0  0  0
  152.4382  144.6011  158.5571 C   0  0  1  0  0  0  0  0  0  0  0  0
  151.8988  145.1474  159.8862 C   0  0  0  0  0  0  0  0  0  0  0  0
  151.9058  143.8961  160.7646 C   0  0  0  0  0  0  0  0  0  0  0  0
  152.3982  142.8240  159.7830 C   0  0  2  0  0  0  0  0  0  0  0  0
  153.3180  143.5940  159.0252 O   0  0  0  0  0  0  0  0  0  0  0  0
  151.5646  139.6683  156.2526 C   0  0  0  0  0  0  0  0  0  0  0  0
  152.6080  138.6197  157.1572 Cl  0  0  0  0  0  0  0  0  0  0  0  0
  149.9959  142.6718  156.3320 H   0  0  0  0  0  0  0  0  0  0  0  0
  152.0876  140.5704  158.5711 H   0  0  0  0  0  0  0  0  0  0  0  0
  150.3544  142.4395  159.2192 H   0  0  0  0  0  0  0  0  0  0  0  0
  151.7729  143.4764  156.8271 H   0  0  0  0  0  0  0  0  0  0  0  0
  150.4454  144.2389  157.7065 H   0  0  0  0  0  0  0  0  0  0  0  0
  152.9126  145.3544  157.9278 H   0  0  0  0  0  0  0  0  0  0  0  0
  152.5660  145.9062  160.2967 H   0  0  0  0  0  0  0  0  0  0  0  0
  150.9059  145.5858  159.7796 H   0  0  0  0  0  0  0  0  0  0  0  0
  152.6083  144.0140  161.5903 H   0  0  0  0  0  0  0  0  0  0  0  0
  150.9251  143.6639  161.1813 H   0  0  0  0  0  0  0  0  0  0  0  0
  152.8281  141.9482  160.2706 H   0  0  0  0  0  0  0  0  0  0  0  0
  1  2  2  0  0  0  0
  2 15  1  0  0  0  0
  2  3  1  0  0  0  0
  3  4  1  0  0  0  0
  4  5  2  0  0  0  0
  5  6  1  0  0  0  0
  5 17  1  0  0  0  0
  6  7  1  0  0  0  0
  6 15  2  0  0  0  0
  7  8  1  0  0  0  0
  7 18  1  0  0  0  0
  8 13  1  0  0  0  0
  8  9  1  0  0  0  0
  8 19  1  0  0  0  0
  9 10  1  0  0  0  0
  9 20  1  0  0  0  0
  9 21  1  0  0  0  0
 10 14  1  0  0  0  0
 10 11  1  0  0  0  0
 10 22  1  0  0  0  0
 11 12  1  0  0  0  0
 11 23  1  0  0  0  0
 11 24  1  0  0  0  0
 12 13  1  0  0  0  0
 12 25  1  0  0  0  0
 12 26  1  0  0  0  0
 13 14  1  0  0  0  0
 13 27  1  0  0  0  0
 15 16  1  0  0  0  0
M  CHG  1   3  -1
M  END
> <s_m_source_file>
AV-unprocessed.smi

> <i_m_source_file_index>
2886

> <i_lp_mmshare_version>
43012

> <i_f3d_flags>
0

> <s_epik_input>
Tz1jMVtuSF1uW2NIXWMoYzFDbClbTkhdW0NASF0oW0NIMl1bQ0BASF0yMylbQ0BASF0oTzMpW0NIMl1bQ0gyXTI=

> <s_epik_cmdline>
J2VwaWtfcHl0aG9uJywgJy1waCcsICc3LjAnLCAnLXRuJywgJzgnLCAnLW1hJywgJzIwMCcsICctbWV0YWxfYmluZGluZycsICctaW1hZScsICc8aW5maWxlLm1hZT4nLCAnLW9tYWUnLCAnPG91dGZpbGUubWFlPic=

> <r_lp_tautomer_probability>
0.986175

> <r_epik_Ionization_Penalty>
3.84253

> <r_epik_Ionization_Penalty_Charging>
0.0129711

> <r_epik_Ionization_Penalty_Neutral>
3.82956

> <r_epik_State_Penalty>
3.8249

> <r_epik_Charging_Adjusted_Penalty>
3.83787

> <i_epik_Tot_Q>
-1

> <i_epik_Tot_abs_Q>
1

> <r_epik_Metal_State_Penalty>
0.57612

> <b_epik_Metal_Only>
1

> <s_lp_Force_Field>
OPLS_2005

> <r_lp_Energy>
60.5374

> <b_lp_Chiralities_Consistent>
1

> <s_lp_Variant>
AV-unprocessed.smi:2886-9

> <Gold.Version>
5.8.1

> <Gold.Id.Protein>
6NUR|6NUR_protein|mol2

> <Gold.PLP.Fitness>
40.1188

> <Gold.PLP.PLP>
-36.8699

> <Gold.PLP.part.hbond>
-2.0000

> <Gold.PLP.part.metal>
0.0000

> <Gold.PLP.part.buried>
-5.1894

> <Gold.PLP.part.nonpolar>
-31.4801

> <Gold.PLP.part.repulsive>
0.5339

> <Gold.PLP.ligand.clash>
0.0000

> <Gold.PLP.ligand.torsion>
0.2753

> <Gold.PLP.Chemscore.Hbond>
0.2600

> <Gold.PLP.Chemscore.CHOScore>
1.0000

> <Gold.PLP.Chemscore.Metal>
0.0000

> <Gold.Chemscore.Hbonds>
donor molecule, donor type, donor heavy atom, donor atom, acceptor molecule, acceptor atom, score
      P1  H  7989  7998       L1     3  0.26
      L1  C     5    17       P1  8028  1.00

> <Gold.PLP.Chemscore.Internal.Correction>
0.0195

> <Gold.Rescore>
     Score         DG    S(hbond)    S(metal)    S(lipo)     H(rot)  DE(clash)    DE(int)     intcor
     14.18     -14.40       0.00        0.00      98.08       1.00       0.07       0.14       ----

> <Gold.Chemscore.Fitness>
14.1846

> <Gold.Chemscore.DG>
-14.3958

> <Gold.Chemscore.ZeroCoef>
-5.4800

> <Gold.Chemscore.Hbond>
0.0000

> <Gold.Chemscore.Metal>
0.0000

> <Gold.Chemscore.Lipo>
98.0836

> <Gold.Chemscore.Internal_Hbond>
0.0000

> <Gold.Chemscore.DEClash>
0.0692

> <Gold.Chemscore.DEInternal>
0.1421

> <Gold.Chemscore.Rot>
1.0000

> <Gold.Chemscore.Internal.Correction>
   9.000000E+99

> <Gold.Chemscore.Hbond.Weighted>
-0.0000

> <Gold.Chemscore.Metal.Weighted>
-0.0000

> <Gold.Chemscore.Lipo.Weighted>
-11.4758

> <Gold.Chemscore.Internal_Hbond.Weighted>
0.0000

> <Gold.Chemscore.DEClash.Weighted>
0.0692

> <Gold.Chemscore.DEInternal.Weighted>
0.1421

> <Gold.Chemscore.Rot.Weighted>
2.5600

> <Gold.Chemscore.Internal.Correction.Weighted>
   9.000000E+99

> <Gold.Protein.RotatedTorsions>
[ 6907 6896 6895 6894 ] final  -31.75 input  -60.11 | X-H torsion
[ 7974 7965 7964 7962 ] final   47.03 input  175.53 | X-H torsion
[ 8008 7997 7996 7995 ] final -144.64 input   59.86 | X-H torsion
[ 10167 10162 10161 10158 ] final -144.45 input  -65.29 | X-H torsion
[ 10718 10713 10712 10709 ] final   50.25 input   66.30 | X-H torsion
[ 10763 10752 10751 10750 ] final  125.10 input  -60.55 | X-H torsion
[ 11005 11000 10999 10996 ] final  126.17 input  -57.11 | X-H torsion

> <Gold.Protein.ActiveResidues>
 VAL166  LYS551  ARG553  GLY616  TRP617  ASP618  TYR619  PRO620  LYS621  CYS622 
 ASP623  PHE694  ASN695  SER759  ASP760  ASP761  ALA762  ILE779  LEU786  VAL792 
 PHE793  MET794  SER795  GLU796  ALA797  LYS798  CYS799  TRP800  GLU811  SER814 

> <Gold.Protein.RotatedAtoms>
  151.0879  134.9898  159.8387 H   0  0  0  0  0  0  0  0  0  0  0  0  # atno 6907 bound_to 6896
  152.5426  134.2102  159.8757 H   0  0  0  0  0  0  0  0  0  0  0  0  # atno 6908 bound_to 6896
  151.2136  133.4498  159.2632 H   0  0  0  0  0  0  0  0  0  0  0  0  # atno 6909 bound_to 6896
  146.0336  139.4793  142.9822 H   0  0  0  0  0  0  0  0  0  0  0  0  # atno 7974 bound_to 7965
  155.5301  140.0599  157.2890 H   0  0  0  0  0  0  0  0  0  0  0  0  # atno 8008 bound_to 7997
  154.4487  140.1937  156.0531 H   0  0  0  0  0  0  0  0  0  0  0  0  # atno 8009 bound_to 7997
  156.0658  140.3266  155.7520 H   0  0  0  0  0  0  0  0  0  0  0  0  # atno 8010 bound_to 7997
  139.7897  143.7983  152.2648 H   0  0  0  0  0  0  0  0  0  0  0  0  # atno 10167 bound_to 10162
  157.4866  130.8349  149.8154 H   0  0  0  0  0  0  0  0  0  0  0  0  # atno 10718 bound_to 10713
  153.6720  135.3329  155.3155 H   0  0  0  0  0  0  0  0  0  0  0  0  # atno 10763 bound_to 10752
  154.8488  135.4388  154.1696 H   0  0  0  0  0  0  0  0  0  0  0  0  # atno 10764 bound_to 10752
  153.2689  135.6998  153.7577 H   0  0  0  0  0  0  0  0  0  0  0  0  # atno 10765 bound_to 10752
  139.9443  134.9632  156.8667 H   0  0  0  0  0  0  0  0  0  0  0  0  # atno 11005 bound_to 11000
  145.7001  141.0138  143.1509 LP  0  0  0  0  0  0  0  0  0  0  0  0  # atno 17320 bound_to 7965
  144.7041  139.8634  143.7435 LP  0  0  0  0  0  0  0  0  0  0  0  0  # atno 17321 bound_to 7965
  139.8071  144.7351  150.9747 LP  0  0  0  0  0  0  0  0  0  0  0  0  # atno 17342 bound_to 10162
  140.7820  143.4288  151.0727 LP  0  0  0  0  0  0  0  0  0  0  0  0  # atno 17343 bound_to 10162
  156.0150  130.3817  150.2140 LP  0  0  0  0  0  0  0  0  0  0  0  0  # atno 17370 bound_to 10713
  157.0327  131.0012  151.3307 LP  0  0  0  0  0  0  0  0  0  0  0  0  # atno 17371 bound_to 10713
  140.5874  134.0294  155.7487 LP  0  0  0  0  0  0  0  0  0  0  0  0  # atno 17394 bound_to 11000
  141.1088  133.9650  157.2948 LP  0  0  0  0  0  0  0  0  0  0  0  0  # atno 17395 bound_to 11000

$$$$
