#       Name:                AV-unprocessed.smi:2971
#       Creating user name   scv26
#       Creation time:       Fri Mar 27 16:24:20 2020


#       File generated by GOLD software.
#

@<TRIPOS>MOLECULE
AV-unprocessed.smi:2971
    41    43     1
SMALL
NO_CHARGES


@<TRIPOS>ATOM
      1 ****        -0.5944  -0.5605   1.0567 O.3            1 S1                 0.0000
      2 ****        -0.1814  -0.2519  -0.2605 C.3            1 S1                 0.0000
      3 ****         1.3547  -0.2157  -0.2932 C.3            1 S1                 0.0000
      4 ****         1.8449  -1.5469  -0.3864 O.3            1 S1                 0.0000
      5 ****         3.2094  -1.7404  -0.4397 C.ar           1 S1                 0.0000
      6 ****         4.1633  -0.6912  -0.4011 C.ar           1 S1                 0.0000
      7 ****         5.5413  -0.9768  -0.4604 C.ar           1 S1                 0.0000
      8 ****         5.9839  -2.3085  -0.5599 C.ar           1 S1                 0.0000
      9 ****         5.0454  -3.3560  -0.6000 C.ar           1 S1                 0.0000
     10 ****         3.6671  -3.0719  -0.5393 C.ar           1 S1                 0.0000
     11 ****         2.7744  -4.0900  -0.5770 F              1 S1                 0.0000
     12 ****        -0.7957   1.0998  -0.6739 C.3            1 S1                 0.0000
     13 ****        -2.2480   1.0765  -0.6748 N.pl3          1 S1                 0.0000
     14 ****        -3.0483   0.6084  -1.6516 C.2            1 S1                 0.0000
     15 ****        -4.3612   0.6856  -1.4542 N.2            1 S1                 0.0000
     16 ****        -4.4207   1.2720  -0.2014 C.ar           1 S1                 0.0000
     17 ****        -5.5347   1.6321   0.5904 C.ar           1 S1                 0.0000
     18 ****        -5.3495   2.2269   1.8559 C.ar           1 S1                 0.0000
     19 ****        -4.0508   2.4689   2.3492 C.ar           1 S1                 0.0000
     20 ****        -2.9256   2.1190   1.5783 C.ar           1 S1                 0.0000
     21 ****        -3.1145   1.5282   0.3151 C.ar           1 S1                 0.0000
     22 ****        -0.2395  -1.4048   1.2906 H              1 S1                 0.0000
     23 ****        -0.5438  -1.0276  -0.9367 H              1 S1                 0.0000
     24 ****         1.6828   0.3326  -1.1779 H              1 S1                 0.0000
     25 ****         1.7487   0.3005   0.5844 H              1 S1                 0.0000
     26 ****         3.8644   0.3430  -0.3263 H              1 S1                 0.0000
     27 ****         6.2600  -0.1710  -0.4296 H              1 S1                 0.0000
     28 ****         7.0409  -2.5263  -0.6055 H              1 S1                 0.0000
     29 ****         5.3823  -4.3792  -0.6772 H              1 S1                 0.0000
     30 ****        -0.4571   1.8948  -0.0079 H              1 S1                 0.0000
     31 ****        -0.4632   1.3733  -1.6761 H              1 S1                 0.0000
     32 ****        -2.6430   0.1877  -2.5603 H              1 S1                 0.0000
     33 ****        -6.5339   1.4500   0.2233 H              1 S1                 0.0000
     34 ****        -6.2084   2.4982   2.4518 H              1 S1                 0.0000
     35 ****        -3.9190   2.9226   3.3206 H              1 S1                 0.0000
     36 ****        -1.9293   2.2993   1.9538 H              1 S1                 0.0000
     37 ****        -1.5931  -0.5904   1.0993 LP             1 S1                 0.0000
     38 ****        -0.2546   0.1356   1.6891 LP             1 S1                 0.0000
     39 ****         1.4566  -1.9477  -1.2162 LP             1 S1                 0.0000
     40 ****         1.5067  -2.0433   0.4132 LP             1 S1                 0.0000
     41 ****        -5.1083   0.3964  -2.0527 LP             1 S1                 0.0000
@<TRIPOS>BOND
    1    1    2 1     
    2    1   22 1     
    3    2    3 1     
    4    2   12 1     
    5    2   23 1     
    6    3    4 1     
    7    3   24 1     
    8    3   25 1     
    9    4    5 1     
   10    5   10 ar    
   11    5    6 ar    
   12    6    7 ar    
   13    6   26 1     
   14    7    8 ar    
   15    7   27 1     
   16    8    9 ar    
   17    8   28 1     
   18    9   10 ar    
   19    9   29 1     
   20   10   11 1     
   21   12   13 1     
   22   12   30 1     
   23   12   31 1     
   24   13   21 1     
   25   13   14 1     
   26   14   15 2     
   27   14   32 1     
   28   15   16 1     
   29   16   21 ar    
   30   16   17 ar    
   31   17   18 ar    
   32   17   33 1     
   33   18   19 ar    
   34   18   34 1     
   35   19   20 ar    
   36   19   35 1     
   37   20   21 ar    
   38   20   36 1     
   39    1   37 1     
   40    1   38 1     
   41    4   39 1     
   42    4   40 1     
   43   15   41 1     
@<TRIPOS>SUBSTRUCTURE
      1 S1             1
@<TRIPOS>SET
LONE_PAIRS      STATIC     ATOMS    <user>   **** ""
5 37 38 39 40 41
DONOR_HYDROGENS      STATIC     ATOMS    <user>   **** ""
1 22
ATOM$BLUE        STATIC     ATOMS    COLORGROUP SYSTEM
5 37 38 39 40 41
ATOM$RED        STATIC     ATOMS    COLORGROUP SYSTEM
1 22
