#       Name:                AV-unprocessed.smi:185
#       Creating user name   scv26
#       Creation time:       Thu Mar 26 19:27:39 2020


#       File generated by GOLD software.
#

@<TRIPOS>MOLECULE
AV-unprocessed.smi:185
    62    65     1
SMALL
NO_CHARGES


@<TRIPOS>ATOM
      1 ****        -3.2831  -3.7583  -0.2919 C.3            1 S1                 0.0000
      2 ****        -2.5616  -2.6307   0.2932 N.pl3          1 S1                 0.0000
      3 ****        -3.1855  -1.3146   0.1642 C.3            1 S1                 0.0000
      4 ****        -2.9008  -0.6523  -1.1981 C.3            1 S1                 0.0000
      5 ****        -3.3365   0.7402  -1.2112 N.am           1 S1                 0.0000
      6 ****        -4.5766   1.1279  -1.8620 C.3            1 S1                 0.0000
      7 ****        -4.5674   2.6637  -1.8569 C.3            1 S1                 0.0000
      8 ****        -3.4446   3.0730  -0.8970 C.3            1 S1                 0.0000
      9 ****        -2.6828   1.7777  -0.6743 C.2            1 S1                 0.0000
     10 ****        -1.6085   1.7294  -0.0758 O.2            1 S1                 0.0000
     11 ****        -1.1987  -2.6835   0.3196 C.ar           1 S1                 0.0000
     12 ****        -0.5607  -3.6348  -0.4159 N.ar           1 S1                 0.0000
     13 ****         0.7731  -3.6919  -0.4519 C.ar           1 S1                 0.0000
     14 ****         1.6572  -2.9049   0.1605 N.ar           1 S1                 0.0000
     15 ****         1.0328  -1.9552   0.9129 C.ar           1 S1                 0.0000
     16 ****        -0.3745  -1.7817   1.0597 C.ar           1 S1                 0.0000
     17 ****        -0.6200  -0.7289   1.9352 N.2            1 S1                 0.0000
     18 ****         0.5635  -0.2891   2.2595 C.2            1 S1                 0.0000
     19 ****         1.6141  -0.9585   1.6773 N.pl3          1 S1                 0.0000
     20 ****         3.0297  -0.6695   1.8471 C.3            1 S1                 0.0000
     21 ****         3.5953   0.3251   0.8016 C.3            1 S1                 0.0000
     22 ****         3.5074  -0.2888  -0.4726 O.3            1 S1                 0.0000
     23 ****         2.8080   1.6538   0.7545 C.3            1 S1                 0.0000
     24 ****         3.5007   2.7078  -0.1275 C.3            1 S1                 0.0000
     25 ****         4.8396   2.9087   0.3084 O.3            1 S1                 0.0000
     26 ****         5.6375   1.7373   0.1888 C.3            1 S1                 0.0000
     27 ****         5.0793   0.6248   1.0943 C.3            1 S1                 0.0000
     28 ****        -2.9575  -4.7005   0.1507 H              1 S1                 0.0000
     29 ****        -3.1233  -3.8047  -1.3699 H              1 S1                 0.0000
     30 ****        -4.3546  -3.6646  -0.1135 H              1 S1                 0.0000
     31 ****        -4.2636  -1.4258   0.2841 H              1 S1                 0.0000
     32 ****        -2.8840  -0.6665   0.9832 H              1 S1                 0.0000
     33 ****        -1.8338  -0.6784  -1.4249 H              1 S1                 0.0000
     34 ****        -3.3956  -1.2068  -1.9964 H              1 S1                 0.0000
     35 ****        -4.6372   0.7296  -2.8755 H              1 S1                 0.0000
     36 ****        -5.4198   0.7384  -1.2900 H              1 S1                 0.0000
     37 ****        -4.3535   3.0403  -2.8581 H              1 S1                 0.0000
     38 ****        -5.5323   3.0713  -1.5533 H              1 S1                 0.0000
     39 ****        -2.8022   3.8469  -1.3183 H              1 S1                 0.0000
     40 ****        -3.8432   3.4266   0.0543 H              1 S1                 0.0000
     41 ****         1.1914  -4.4759  -1.0655 H              1 S1                 0.0000
     42 ****         0.7023   0.5486   2.9272 H              1 S1                 0.0000
     43 ****         3.1696  -0.2715   2.8530 H              1 S1                 0.0000
     44 ****         3.5805  -1.6108   1.8152 H              1 S1                 0.0000
     45 ****         3.8526   0.3080  -1.1187 H              1 S1                 0.0000
     46 ****         1.7907   1.4929   0.3948 H              1 S1                 0.0000
     47 ****         2.7168   2.0531   1.7655 H              1 S1                 0.0000
     48 ****         3.4884   2.4108  -1.1773 H              1 S1                 0.0000
     49 ****         2.9657   3.6553  -0.0632 H              1 S1                 0.0000
     50 ****         5.6788   1.4149  -0.8527 H              1 S1                 0.0000
     51 ****         6.6589   1.9788   0.4835 H              1 S1                 0.0000
     52 ****         5.1852   0.9420   2.1327 H              1 S1                 0.0000
     53 ****         5.6804  -0.2795   0.9891 H              1 S1                 0.0000
     54 ****        -1.1425   0.8529   0.0453 LP             1 S1                 0.0000
     55 ****        -1.2015   2.5667   0.2895 LP             1 S1                 0.0000
     56 ****        -1.0975  -4.2993  -0.9358 LP             1 S1                 0.0000
     57 ****         2.6495  -2.9988   0.0787 LP             1 S1                 0.0000
     58 ****        -1.5063  -0.3860   2.2463 LP             1 S1                 0.0000
     59 ****         2.5517  -0.4959  -0.6816 LP             1 S1                 0.0000
     60 ****         4.0404  -1.1349  -0.4765 LP             1 S1                 0.0000
     61 ****         4.8249   3.1892   1.2682 LP             1 S1                 0.0000
     62 ****         5.2507   3.6336  -0.2444 LP             1 S1                 0.0000
@<TRIPOS>BOND
    1    1    2 1     
    2    1   28 1     
    3    1   29 1     
    4    1   30 1     
    5    2    3 1     
    6    2   11 1     
    7    3    4 1     
    8    3   31 1     
    9    3   32 1     
   10    4    5 1     
   11    4   33 1     
   12    4   34 1     
   13    5    9 am    
   14    5    6 1     
   15    6    7 1     
   16    6   35 1     
   17    6   36 1     
   18    7    8 1     
   19    7   37 1     
   20    7   38 1     
   21    8    9 1     
   22    8   39 1     
   23    8   40 1     
   24    9   10 2     
   25   11   16 ar    
   26   11   12 ar    
   27   12   13 ar    
   28   13   14 ar    
   29   13   41 1     
   30   14   15 ar    
   31   15   19 1     
   32   15   16 ar    
   33   16   17 1     
   34   17   18 2     
   35   18   19 1     
   36   18   42 1     
   37   19   20 1     
   38   20   21 1     
   39   20   43 1     
   40   20   44 1     
   41   21   27 1     
   42   21   22 1     
   43   21   23 1     
   44   22   45 1     
   45   23   24 1     
   46   23   46 1     
   47   23   47 1     
   48   24   25 1     
   49   24   48 1     
   50   24   49 1     
   51   25   26 1     
   52   26   27 1     
   53   26   50 1     
   54   26   51 1     
   55   27   52 1     
   56   27   53 1     
   57   10   54 1     
   58   10   55 1     
   59   12   56 1     
   60   14   57 1     
   61   17   58 1     
   62   22   59 1     
   63   22   60 1     
   64   25   61 1     
   65   25   62 1     
@<TRIPOS>SUBSTRUCTURE
      1 S1             1
@<TRIPOS>SET
LONE_PAIRS      STATIC     ATOMS    <user>   **** ""
9 54 55 56 57 58 59 60 61 62
DONOR_HYDROGENS      STATIC     ATOMS    <user>   **** ""
1 45
ATOM$BLUE        STATIC     ATOMS    COLORGROUP SYSTEM
9 54 55 56 57 58 59 60 61 62
ATOM$RED        STATIC     ATOMS    COLORGROUP SYSTEM
1 45
