AV-unprocessed.smi:1764|AV-procd|sdf|7133|dock10
  -GOLD-   22720 8373D 1   1.00000     0.00000
 Structure written by MMmdl.
 31 32  0  0  0  0  0  0  0  0  1 V2000
  150.5539  140.6883  156.4179 O   0  0  0  0  0  0  0  0  0  0  0  0
  150.2414  141.8534  156.1705 C   0  0  0  0  0  0  0  0  0  0  0  0
  149.4671  142.2082  155.1350 N   0  0  0  0  0  0  0  0  0  0  0  0
  148.8905  141.2912  154.1566 C   0  0  0  0  0  0  0  0  0  0  0  0
  147.3739  141.4986  154.0057 C   0  0  1  0  0  0  0  0  0  0  0  0
  146.5388  141.1022  155.2238 C   0  0  0  0  0  0  0  0  0  0  0  0
  145.2985  141.9421  155.0251 C   0  0  0  0  0  0  0  0  0  0  0  0
  145.8856  143.2409  154.4799 C   0  0  0  0  0  0  0  0  0  0  0  0
  147.0845  142.8783  153.7985 O   0  0  0  0  0  0  0  0  0  0  0  0
  150.6255  142.9290  156.8804 N   0  0  0  0  0  0  0  0  0  0  0  0
  151.4305  142.9678  158.0501 C   0  0  0  0  0  0  0  0  0  0  0  0
  151.5478  144.2403  158.6539 C   0  0  0  0  0  0  0  0  0  0  0  0
  152.3219  144.3847  159.8215 C   0  0  0  0  0  0  0  0  0  0  0  0
  152.9590  143.2512  160.3568 C   0  0  0  0  0  0  0  0  0  0  0  0
  152.7910  142.0213  159.6944 C   0  0  0  0  0  0  0  0  0  0  0  0
  152.0501  141.8809  158.5749 N   0  0  0  0  0  0  0  0  0  0  0  0
  149.2639  143.1888  155.0081 H   0  0  0  0  0  0  0  0  0  0  0  0
  149.3873  141.3813  153.1890 H   0  0  0  0  0  0  0  0  0  0  0  0
  149.0839  140.2756  154.5020 H   0  0  0  0  0  0  0  0  0  0  0  0
  147.0100  140.9567  153.1312 H   0  0  0  0  0  0  0  0  0  0  0  0
  146.3292  140.0330  155.2696 H   0  0  0  0  0  0  0  0  0  0  0  0
  147.0413  141.3933  156.1474 H   0  0  0  0  0  0  0  0  0  0  0  0
  144.6496  141.4795  154.2803 H   0  0  0  0  0  0  0  0  0  0  0  0
  144.7231  142.0847  155.9401 H   0  0  0  0  0  0  0  0  0  0  0  0
  145.1932  143.7614  153.8179 H   0  0  0  0  0  0  0  0  0  0  0  0
  146.1434  143.9153  155.2973 H   0  0  0  0  0  0  0  0  0  0  0  0
  150.3008  143.8246  156.5477 H   0  0  0  0  0  0  0  0  0  0  0  0
  151.0512  145.1010  158.2298 H   0  0  0  0  0  0  0  0  0  0  0  0
  152.4241  145.3489  160.2972 H   0  0  0  0  0  0  0  0  0  0  0  0
  153.5603  143.3223  161.2511 H   0  0  0  0  0  0  0  0  0  0  0  0
  153.2625  141.1268  160.0734 H   0  0  0  0  0  0  0  0  0  0  0  0
  1  2  2  0  0  0  0
  2  3  1  0  0  0  0
  2 10  1  0  0  0  0
  3  4  1  0  0  0  0
  3 17  1  0  0  0  0
  4  5  1  0  0  0  0
  4 18  1  0  0  0  0
  4 19  1  0  0  0  0
  5  9  1  0  0  0  0
  5  6  1  0  0  0  0
  5 20  1  0  0  0  0
  6  7  1  0  0  0  0
  6 21  1  0  0  0  0
  6 22  1  0  0  0  0
  7  8  1  0  0  0  0
  7 23  1  0  0  0  0
  7 24  1  0  0  0  0
  8  9  1  0  0  0  0
  8 25  1  0  0  0  0
  8 26  1  0  0  0  0
 10 11  1  0  0  0  0
 10 27  1  0  0  0  0
 11 16  1  0  0  0  0
 11 12  2  0  0  0  0
 12 13  1  0  0  0  0
 12 28  1  0  0  0  0
 13 14  2  0  0  0  0
 13 29  1  0  0  0  0
 14 15  1  0  0  0  0
 14 30  1  0  0  0  0
 15 16  2  0  0  0  0
 15 31  1  0  0  0  0
M  END
> <s_m_source_file>
AV-unprocessed.smi

> <i_m_source_file_index>
1764

> <i_lp_mmshare_version>
43012

> <i_f3d_flags>
0

> <s_epik_input>
bjFbY0hdW2NIXVtjSF1bY0hdYzFbTkhdQyg9TylbTkhdW0NIMl1bQ0BASF0yW0NIMl1bQ0gyXVtDSDJdTzI=

> <s_epik_cmdline>
J2VwaWtfcHl0aG9uJywgJy1waCcsICc3LjAnLCAnLXRuJywgJzgnLCAnLW1hJywgJzIwMCcsICctbWV0YWxfYmluZGluZycsICctaW1hZScsICc8aW5maWxlLm1hZT4nLCAnLW9tYWUnLCAnPG91dGZpbGUubWFlPic=

> <r_lp_tautomer_probability>
1

> <r_epik_Ionization_Penalty>
4.47751e-05

> <r_epik_Ionization_Penalty_Charging>
0

> <r_epik_Ionization_Penalty_Neutral>
4.47751e-05

> <r_epik_State_Penalty>
-0

> <r_epik_Charging_Adjusted_Penalty>
0

> <i_epik_Tot_Q>
0

> <i_epik_Tot_abs_Q>
0

> <r_epik_Metal_State_Penalty>
-0

> <b_epik_Metal_Only>
0

> <s_lp_Force_Field>
OPLS_2005

> <r_lp_Energy>
18.9713

> <b_lp_Chiralities_Consistent>
1

> <s_lp_Variant>
AV-unprocessed.smi:1764-2

> <Gold.Version>
5.8.1

> <Gold.Id.Protein>
6NUR|6NUR_protein|mol2

> <Gold.PLP.Fitness>
40.3014

> <Gold.PLP.PLP>
-34.5189

> <Gold.PLP.part.hbond>
-2.9666

> <Gold.PLP.part.metal>
0.0000

> <Gold.PLP.part.buried>
-2.7027

> <Gold.PLP.part.nonpolar>
-29.9731

> <Gold.PLP.part.repulsive>
0.6243

> <Gold.PLP.ligand.clash>
0.0000

> <Gold.PLP.ligand.torsion>
0.0819

> <Gold.PLP.Chemscore.Hbond>
1.9818

> <Gold.PLP.Chemscore.CHOScore>
0.0000

> <Gold.PLP.Chemscore.Metal>
0.0000

> <Gold.Chemscore.Hbonds>
donor molecule, donor type, donor heavy atom, donor atom, acceptor molecule, acceptor atom, score
      L1  H     3    17       P1  8028  1.00
      L1  H    10    27       P1  8028  0.91
      P1  H  8022  8030       L1     9  0.04

> <Gold.PLP.Chemscore.Internal.Correction>
0.0009

> <Gold.Rescore>
     Score         DG    S(hbond)    S(metal)    S(lipo)     H(rot)  DE(clash)    DE(int)     intcor
     15.95     -17.45       1.91        0.00      75.56       1.27       0.12       1.38       ----

> <Gold.Chemscore.Fitness>
15.9519

> <Gold.Chemscore.DG>
-17.4484

> <Gold.Chemscore.ZeroCoef>
-5.4800

> <Gold.Chemscore.Hbond>
1.9081

> <Gold.Chemscore.Metal>
0.0000

> <Gold.Chemscore.Lipo>
75.5635

> <Gold.Chemscore.Internal_Hbond>
0.0000

> <Gold.Chemscore.DEClash>
0.1152

> <Gold.Chemscore.DEInternal>
1.3812

> <Gold.Chemscore.Rot>
1.2678

> <Gold.Chemscore.Internal.Correction>
   9.000000E+99

> <Gold.Chemscore.Hbonds>
donor molecule, donor type, donor heavy atom, donor atom, acceptor molecule, acceptor atom, score
      L1  H     3    17       P1  8028  0.96
      L1  H    10    27       P1  8028  0.89
      P1  H  8022  8030       L1     9  0.04

> <Gold.Chemscore.Hbond.Weighted>
-6.3729

> <Gold.Chemscore.Metal.Weighted>
-0.0000

> <Gold.Chemscore.Lipo.Weighted>
-8.8409

> <Gold.Chemscore.Internal_Hbond.Weighted>
0.0000

> <Gold.Chemscore.DEClash.Weighted>
0.1152

> <Gold.Chemscore.DEInternal.Weighted>
1.3812

> <Gold.Chemscore.Rot.Weighted>
3.2455

> <Gold.Chemscore.Internal.Correction.Weighted>
   9.000000E+99

> <Gold.Protein.RotatedTorsions>
[ 6907 6896 6895 6894 ] final  -51.06 input  -60.11 | X-H torsion
[ 7974 7965 7964 7962 ] final  -92.14 input  175.53 | X-H torsion
[ 8008 7997 7996 7995 ] final  -29.25 input   59.86 | X-H torsion
[ 10167 10162 10161 10158 ] final   -5.98 input  -65.29 | X-H torsion
[ 10718 10713 10712 10709 ] final -173.10 input   66.30 | X-H torsion
[ 10763 10752 10751 10750 ] final  -55.92 input  -60.55 | X-H torsion
[ 11005 11000 10999 10996 ] final  164.35 input  -57.11 | X-H torsion

> <Gold.Protein.ActiveResidues>
 VAL166  LYS551  ARG553  GLY616  TRP617  ASP618  TYR619  PRO620  LYS621  CYS622 
 ASP623  PHE694  ASN695  SER759  ASP760  ASP761  ALA762  ILE779  LEU786  VAL792 
 PHE793  MET794  SER795  GLU796  ALA797  LYS798  CYS799  TRP800  GLU811  SER814 

> <Gold.Protein.RotatedAtoms>
  150.8647  134.8008  159.7109 H   0  0  0  0  0  0  0  0  0  0  0  0  # atno 6907 bound_to 6896
  152.4672  134.5043  159.9744 H   0  0  0  0  0  0  0  0  0  0  0  0  # atno 6908 bound_to 6896
  151.5141  133.3441  159.2925 H   0  0  0  0  0  0  0  0  0  0  0  0  # atno 6909 bound_to 6896
  145.4038  140.9539  143.2272 H   0  0  0  0  0  0  0  0  0  0  0  0  # atno 7974 bound_to 7965
  154.4297  140.1823  156.1219 H   0  0  0  0  0  0  0  0  0  0  0  0  # atno 8008 bound_to 7997
  156.0136  140.3348  155.6941 H   0  0  0  0  0  0  0  0  0  0  0  0  # atno 8009 bound_to 7997
  155.6075  140.0646  157.2706 H   0  0  0  0  0  0  0  0  0  0  0  0  # atno 8010 bound_to 7997
  140.6981  143.6246  150.8580 H   0  0  0  0  0  0  0  0  0  0  0  0  # atno 10167 bound_to 10162
  156.7654  130.9429  151.3119 H   0  0  0  0  0  0  0  0  0  0  0  0  # atno 10718 bound_to 10713
  154.1984  135.6415  153.5080 H   0  0  0  0  0  0  0  0  0  0  0  0  # atno 10763 bound_to 10752
  153.0018  135.5445  154.6341 H   0  0  0  0  0  0  0  0  0  0  0  0  # atno 10764 bound_to 10752
  154.5748  135.2920  155.0765 H   0  0  0  0  0  0  0  0  0  0  0  0  # atno 10765 bound_to 10752
  140.2450  134.8021  157.3447 H   0  0  0  0  0  0  0  0  0  0  0  0  # atno 11005 bound_to 11000
  144.8356  139.5556  143.6924 LP  0  0  0  0  0  0  0  0  0  0  0  0  # atno 17320 bound_to 7965
  146.2739  139.6703  142.9277 LP  0  0  0  0  0  0  0  0  0  0  0  0  # atno 17321 bound_to 7965
  139.9966  143.5789  152.2891 LP  0  0  0  0  0  0  0  0  0  0  0  0  # atno 17342 bound_to 10162
  139.6464  144.7658  151.2236 LP  0  0  0  0  0  0  0  0  0  0  0  0  # atno 17343 bound_to 10162
  157.6715  130.9056  150.0052 LP  0  0  0  0  0  0  0  0  0  0  0  0  # atno 17370 bound_to 10713
  156.1312  130.3643  149.9729 LP  0  0  0  0  0  0  0  0  0  0  0  0  # atno 17371 bound_to 10713
  140.1615  134.4723  155.7891 LP  0  0  0  0  0  0  0  0  0  0  0  0  # atno 17394 bound_to 11000
  141.2207  133.6903  156.7552 LP  0  0  0  0  0  0  0  0  0  0  0  0  # atno 17395 bound_to 11000

$$$$
