AV-unprocessed.smi:2449|AV-procd|sdf|9663|dock2
  -GOLD-   2272013303D 1   1.00000     0.00000
 Structure written by MMmdl.
 37 37  0  0  0  0  0  0  0  0  1 V2000
  153.3889  141.6229  160.5378 C   0  0  0  0  0  0  0  0  0  0  0  0
  152.1125  142.0172  159.7875 C   0  0  0  0  0  0  0  0  0  0  0  0
  151.7029  140.9658  158.7356 C   0  0  0  0  0  0  0  0  0  0  0  0
  150.8016  141.4791  157.5773 C   0  0  0  0  0  0  0  0  0  0  0  0
  149.3325  141.5545  158.0379 C   0  0  0  0  0  0  0  0  0  0  0  0
  151.2440  142.8989  157.1607 C   0  0  0  0  0  0  0  0  0  0  0  0
  150.8418  140.5774  156.4184 N   0  0  0  0  0  0  0  0  0  0  0  0
  151.8213  139.7316  156.0522 C   0  0  0  0  0  0  0  0  0  0  0  0
  152.8913  139.6213  156.6515 O   0  0  0  0  0  0  0  0  0  0  0  0
  151.5448  138.8861  154.8014 C   0  0  0  0  0  0  0  0  0  0  0  0
  150.4363  137.9396  154.9933 N   0  0  0  0  0  0  0  0  0  0  0  0
  149.1403  138.2958  154.6478 C   0  0  0  0  0  0  0  0  0  0  0  0
  148.0778  137.4676  154.7861 C   0  0  0  0  0  0  0  0  0  0  0  0
  148.2545  136.1215  155.3204 C   0  0  0  0  0  0  0  0  0  0  0  0
  147.3558  135.2997  155.4843 O   0  0  0  0  0  0  0  0  0  0  0  0
  149.5729  135.8000  155.6542 N   0  0  0  0  0  0  0  0  0  0  0  0
  150.6723  136.6482  155.5141 C   0  0  0  0  0  0  0  0  0  0  0  0
  151.7956  136.2632  155.8374 O   0  0  0  0  0  0  0  0  0  0  0  0
  149.7445  134.8767  156.0253 H   0  0  0  0  0  0  0  0  0  0  0  0
  153.6579  142.3838  161.2708 H   0  0  0  0  0  0  0  0  0  0  0  0
  154.2292  141.5078  159.8526 H   0  0  0  0  0  0  0  0  0  0  0  0
  153.2572  140.6804  161.0700 H   0  0  0  0  0  0  0  0  0  0  0  0
  151.3127  142.1590  160.5142 H   0  0  0  0  0  0  0  0  0  0  0  0
  152.2719  142.9840  159.3111 H   0  0  0  0  0  0  0  0  0  0  0  0
  152.6060  140.5240  158.3121 H   0  0  0  0  0  0  0  0  0  0  0  0
  151.2013  140.1453  159.2494 H   0  0  0  0  0  0  0  0  0  0  0  0
  149.2258  142.1790  158.9256 H   0  0  0  0  0  0  0  0  0  0  0  0
  148.9274  140.5711  158.2764 H   0  0  0  0  0  0  0  0  0  0  0  0
  148.6967  141.9813  157.2611 H   0  0  0  0  0  0  0  0  0  0  0  0
  151.1269  143.6034  157.9850 H   0  0  0  0  0  0  0  0  0  0  0  0
  150.6502  143.2723  156.3255 H   0  0  0  0  0  0  0  0  0  0  0  0
  152.2912  142.9329  156.8600 H   0  0  0  0  0  0  0  0  0  0  0  0
  150.0144  140.5820  155.8397 H   0  0  0  0  0  0  0  0  0  0  0  0
  151.3364  139.5326  153.9463 H   0  0  0  0  0  0  0  0  0  0  0  0
  152.4622  138.3544  154.5450 H   0  0  0  0  0  0  0  0  0  0  0  0
  148.9619  139.2819  154.2432 H   0  0  0  0  0  0  0  0  0  0  0  0
  147.0917  137.8026  154.4984 H   0  0  0  0  0  0  0  0  0  0  0  0
  1  2  1  0  0  0  0
  1 20  1  0  0  0  0
  1 21  1  0  0  0  0
  1 22  1  0  0  0  0
  2  3  1  0  0  0  0
  2 23  1  0  0  0  0
  2 24  1  0  0  0  0
  3  4  1  0  0  0  0
  3 25  1  0  0  0  0
  3 26  1  0  0  0  0
  4  5  1  0  0  0  0
  4  6  1  0  0  0  0
  4  7  1  0  0  0  0
  5 27  1  0  0  0  0
  5 28  1  0  0  0  0
  5 29  1  0  0  0  0
  6 30  1  0  0  0  0
  6 31  1  0  0  0  0
  6 32  1  0  0  0  0
  7  8  1  0  0  0  0
  7 33  1  0  0  0  0
  8  9  2  0  0  0  0
  8 10  1  0  0  0  0
 10 11  1  0  0  0  0
 10 34  1  0  0  0  0
 10 35  1  0  0  0  0
 11 17  1  0  0  0  0
 11 12  1  0  0  0  0
 12 13  2  0  0  0  0
 12 36  1  0  0  0  0
 13 14  1  0  0  0  0
 13 37  1  0  0  0  0
 14 15  2  0  0  0  0
 14 16  1  0  0  0  0
 16 19  1  0  0  0  0
 16 17  1  0  0  0  0
 17 18  2  0  0  0  0
M  END
> <s_m_source_file>
AV-unprocessed.smi

> <i_m_source_file_index>
2449

> <i_lp_mmshare_version>
43012

> <i_f3d_flags>
0

> <s_epik_input>
W0NIM11bQ0gyXVtDSDJdQyhbQ0gzXSkoW0NIM10pW05IXUMoPU8pW0NIMl1uMVtjSF1bY0hdYyg9TylbbkhdYzE9Tw==

> <s_epik_cmdline>
J2VwaWtfcHl0aG9uJywgJy1waCcsICc3LjAnLCAnLXRuJywgJzgnLCAnLW1hJywgJzIwMCcsICctbWV0YWxfYmluZGluZycsICctaW1hZScsICc8aW5maWxlLm1hZT4nLCAnLW9tYWUnLCAnPG91dGZpbGUubWFlPic=

> <r_lp_tautomer_probability>
0.999537

> <r_epik_Ionization_Penalty>
0.00292856

> <r_epik_Ionization_Penalty_Charging>
0.00292854

> <r_epik_Ionization_Penalty_Neutral>
1.95902e-08

> <r_epik_State_Penalty>
0.00205284

> <r_epik_Charging_Adjusted_Penalty>
0.00498138

> <i_epik_Tot_Q>
0

> <i_epik_Tot_abs_Q>
0

> <r_epik_Metal_State_Penalty>
0.360056

> <b_epik_Metal_Only>
0

> <s_lp_Force_Field>
OPLS_2005

> <r_lp_Energy>
5.67084

> <b_lp_Chiralities_Consistent>
1

> <s_lp_Variant>
AV-unprocessed.smi:2449-1

> <Gold.Version>
5.8.1

> <Gold.Id.Protein>
6NUR|6NUR_protein|mol2

> <Gold.PLP.Fitness>
32.2214

> <Gold.PLP.PLP>
-28.8673

> <Gold.PLP.part.hbond>
-1.9761

> <Gold.PLP.part.metal>
0.0000

> <Gold.PLP.part.buried>
-4.0268

> <Gold.PLP.part.nonpolar>
-22.9324

> <Gold.PLP.part.repulsive>
0.2208

> <Gold.PLP.ligand.clash>
0.0000

> <Gold.PLP.ligand.torsion>
1.3414

> <Gold.PLP.Chemscore.Hbond>
2.0000

> <Gold.PLP.Chemscore.CHOScore>
0.0000

> <Gold.PLP.Chemscore.Metal>
0.0000

> <Gold.Chemscore.Hbonds>
donor molecule, donor type, donor heavy atom, donor atom, acceptor molecule, acceptor atom, score
      P1  H  7997  8010       L1     9  0.94
      P1  H 10752 10765       L1    18  1.00

> <Gold.PLP.Chemscore.Internal.Correction>
0.0370

> <Gold.Rescore>
     Score         DG    S(hbond)    S(metal)    S(lipo)     H(rot)  DE(clash)    DE(int)     intcor
     11.23     -13.75       1.98        0.00      61.04       2.14       0.04       2.48       ----

> <Gold.Chemscore.Fitness>
11.2287

> <Gold.Chemscore.DG>
-13.7539

> <Gold.Chemscore.ZeroCoef>
-5.4800

> <Gold.Chemscore.Hbond>
1.9790

> <Gold.Chemscore.Metal>
0.0000

> <Gold.Chemscore.Lipo>
61.0411

> <Gold.Chemscore.Internal_Hbond>
0.0000

> <Gold.Chemscore.DEClash>
0.0402

> <Gold.Chemscore.DEInternal>
2.4850

> <Gold.Chemscore.Rot>
2.1397

> <Gold.Chemscore.Internal.Correction>
   9.000000E+99

> <Gold.Chemscore.Hbonds>
donor molecule, donor type, donor heavy atom, donor atom, acceptor molecule, acceptor atom, score
      P1  H  7997  8010       L1     9  0.90
      P1  H 10752 10765       L1    18  1.00

> <Gold.Chemscore.Hbond.Weighted>
-6.6098

> <Gold.Chemscore.Metal.Weighted>
-0.0000

> <Gold.Chemscore.Lipo.Weighted>
-7.1418

> <Gold.Chemscore.Internal_Hbond.Weighted>
0.0000

> <Gold.Chemscore.DEClash.Weighted>
0.0402

> <Gold.Chemscore.DEInternal.Weighted>
2.4850

> <Gold.Chemscore.Rot.Weighted>
5.4777

> <Gold.Chemscore.Internal.Correction.Weighted>
   9.000000E+99

> <Gold.Protein.RotatedTorsions>
[ 6907 6896 6895 6894 ] final -133.10 input  -60.11 | X-H torsion
[ 7974 7965 7964 7962 ] final -174.01 input  175.53 | X-H torsion
[ 8008 7997 7996 7995 ] final   89.46 input   59.86 | X-H torsion
[ 10167 10162 10161 10158 ] final  -16.22 input  -65.29 | X-H torsion
[ 10718 10713 10712 10709 ] final -115.66 input   66.30 | X-H torsion
[ 10763 10752 10751 10750 ] final -159.38 input  -60.55 | X-H torsion
[ 11005 11000 10999 10996 ] final -102.97 input  -57.11 | X-H torsion

> <Gold.Protein.ActiveResidues>
 VAL166  LYS551  ARG553  GLY616  TRP617  ASP618  TYR619  PRO620  LYS621  CYS622 
 ASP623  PHE694  ASN695  SER759  ASP760  ASP761  ALA762  ILE779  LEU786  VAL792 
 PHE793  MET794  SER795  GLU796  ALA797  LYS798  CYS799  TRP800  GLU811  SER814 

> <Gold.Protein.RotatedAtoms>
  150.9700  133.6354  159.2739 H   0  0  0  0  0  0  0  0  0  0  0  0  # atno 6907 bound_to 6896
  151.3646  135.0909  159.9455 H   0  0  0  0  0  0  0  0  0  0  0  0  # atno 6908 bound_to 6896
  152.5179  133.9267  159.7615 H   0  0  0  0  0  0  0  0  0  0  0  0  # atno 6909 bound_to 6896
  144.7134  140.1536  143.6382 H   0  0  0  0  0  0  0  0  0  0  0  0  # atno 7974 bound_to 7965
  156.0002  140.3360  155.6838 H   0  0  0  0  0  0  0  0  0  0  0  0  # atno 8008 bound_to 7997
  155.6301  140.0684  157.2669 H   0  0  0  0  0  0  0  0  0  0  0  0  # atno 8009 bound_to 7997
  154.4247  140.1761  156.1451 H   0  0  0  0  0  0  0  0  0  0  0  0  # atno 8010 bound_to 7997
  140.7230  143.5138  150.9717 H   0  0  0  0  0  0  0  0  0  0  0  0  # atno 10167 bound_to 10162
  156.0911  130.6093  150.8935 H   0  0  0  0  0  0  0  0  0  0  0  0  # atno 10718 bound_to 10713
  154.7480  135.3085  154.8610 H   0  0  0  0  0  0  0  0  0  0  0  0  # atno 10763 bound_to 10752
  153.9405  135.6775  153.4748 H   0  0  0  0  0  0  0  0  0  0  0  0  # atno 10764 bound_to 10752
  153.1076  135.4882  154.8905 H   0  0  0  0  0  0  0  0  0  0  0  0  # atno 10765 bound_to 10752
  141.1166  133.8602  157.1427 H   0  0  0  0  0  0  0  0  0  0  0  0  # atno 11005 bound_to 11000
  145.9094  139.2478  143.1446 LP  0  0  0  0  0  0  0  0  0  0  0  0  # atno 17320 bound_to 7965
  145.9731  140.8744  143.0152 LP  0  0  0  0  0  0  0  0  0  0  0  0  # atno 17321 bound_to 7965
  139.8853  143.7021  152.3152 LP  0  0  0  0  0  0  0  0  0  0  0  0  # atno 17342 bound_to 10162
  139.7318  144.7580  151.0790 LP  0  0  0  0  0  0  0  0  0  0  0  0  # atno 17343 bound_to 10162
  157.6060  131.0939  150.8879 LP  0  0  0  0  0  0  0  0  0  0  0  0  # atno 17370 bound_to 10713
  156.9027  130.5252  149.5282 LP  0  0  0  0  0  0  0  0  0  0  0  0  # atno 17371 bound_to 10713
  140.0093  134.9995  157.0360 LP  0  0  0  0  0  0  0  0  0  0  0  0  # atno 17394 bound_to 11000
  140.4628  134.1467  155.7193 LP  0  0  0  0  0  0  0  0  0  0  0  0  # atno 17395 bound_to 11000

$$$$
