AV-unprocessed.smi:367|AV-procd|sdf|2431|dock1
  -GOLD-   2262022373D 1   1.00000     0.00000
 Structure written by MMmdl.
 22 22  0  0  0  0  0  0  0  0  2 V2000
  150.9529  144.0508  158.2585 C   0  0  0  0  0  0  0  0  0  0  0  0
  150.9621  142.7081  157.5583 C   0  0  0  0  0  0  0  0  0  0  0  0
  151.5616  141.6598  158.0182 N   0  0  0  0  0  0  0  0  0  0  0  0
  151.4968  140.4692  157.2803 C   0  0  0  0  0  0  0  0  0  0  0  0
  152.2199  139.2802  157.8888 C   0  0  0  0  0  0  0  0  0  0  0  0
  150.8236  140.3971  156.0944 C   0  0  0  0  0  0  0  0  0  0  0  0
  150.7314  139.1128  155.2680 C   0  0  0  0  0  0  0  0  0  0  0  0
  152.0819  138.5314  154.8326 C   0  0  0  0  0  0  0  0  0  0  0  0
  153.0781  139.2739  154.9710 O   0  0  0  0  0  0  0  0  0  0  0  0
  152.1072  137.3697  154.3677 O   0  5  0  0  0  0  0  0  0  0  0  0
  150.1475  141.6024  155.5765 C   0  0  0  0  0  0  0  0  0  0  0  0
  149.5170  141.6522  154.5213 O   0  0  0  0  0  0  0  0  0  0  0  0
  150.2585  142.7018  156.3553 N   0  0  0  0  0  0  0  0  0  0  0  0
  149.8091  143.5508  156.0458 H   0  0  0  0  0  0  0  0  0  0  0  0
  150.4980  143.9563  159.2446 H   0  0  0  0  0  0  0  0  0  0  0  0
  150.3920  144.7966  157.6938 H   0  0  0  0  0  0  0  0  0  0  0  0
  151.9728  144.4145  158.3846 H   0  0  0  0  0  0  0  0  0  0  0  0
  153.0443  138.9659  157.2488 H   0  0  0  0  0  0  0  0  0  0  0  0
  151.5382  138.4388  158.0156 H   0  0  0  0  0  0  0  0  0  0  0  0
  152.6310  139.5254  158.8688 H   0  0  0  0  0  0  0  0  0  0  0  0
  150.1821  138.3430  155.8111 H   0  0  0  0  0  0  0  0  0  0  0  0
  150.1388  139.3066  154.3738 H   0  0  0  0  0  0  0  0  0  0  0  0
  1  2  1  0  0  0  0
  1 15  1  0  0  0  0
  1 16  1  0  0  0  0
  1 17  1  0  0  0  0
  2 13  1  0  0  0  0
  2  3  2  0  0  0  0
  3  4  1  0  0  0  0
  4  5  1  0  0  0  0
  4  6  2  0  0  0  0
  5 18  1  0  0  0  0
  5 19  1  0  0  0  0
  5 20  1  0  0  0  0
  6  7  1  0  0  0  0
  6 11  1  0  0  0  0
  7  8  1  0  0  0  0
  7 21  1  0  0  0  0
  7 22  1  0  0  0  0
  8  9  2  0  0  0  0
  8 10  1  0  0  0  0
 11 12  2  0  0  0  0
 11 13  1  0  0  0  0
 13 14  1  0  0  0  0
M  CHG  1  10  -1
M  END
> <s_m_source_file>
AV-unprocessed.smi

> <i_m_source_file_index>
367

> <i_lp_mmshare_version>
43012

> <i_f3d_flags>
0

> <s_epik_input>
W0NIM11jMW5jKFtDSDNdKWMoYyg9TylbbkhdMSlbQ0gyXUMoPU8pW09IXQ==

> <s_epik_cmdline>
J2VwaWtfcHl0aG9uJywgJy1waCcsICc3LjAnLCAnLXRuJywgJzgnLCAnLW1hJywgJzIwMCcsICctbWV0YWxfYmluZGluZycsICctaW1hZScsICc8aW5maWxlLm1hZT4nLCAnLW9tYWUnLCAnPG91dGZpbGUubWFlPic=

> <r_lp_tautomer_probability>
0.839158

> <r_epik_Ionization_Penalty>
0.000902249

> <r_epik_Ionization_Penalty_Charging>
0.000677242

> <r_epik_Ionization_Penalty_Neutral>
0.000225007

> <r_epik_State_Penalty>
0.09125

> <r_epik_Charging_Adjusted_Penalty>
0.0919273

> <i_epik_Tot_Q>
-1

> <i_epik_Tot_abs_Q>
1

> <r_epik_Metal_State_Penalty>
0.14165

> <b_epik_Metal_Only>
0

> <s_lp_Force_Field>
OPLS_2005

> <r_lp_Energy>
4.26247

> <b_lp_Chiralities_Consistent>
1

> <s_lp_Variant>
AV-unprocessed.smi:367-1

> <Gold.Version>
5.8.1

> <Gold.Id.Protein>
6NUR|6NUR_protein|mol2

> <Gold.PLP.Fitness>
40.8093

> <Gold.PLP.PLP>
-26.2606

> <Gold.PLP.part.hbond>
-5.9378

> <Gold.PLP.part.metal>
0.0000

> <Gold.PLP.part.buried>
-3.7158

> <Gold.PLP.part.nonpolar>
-17.4978

> <Gold.PLP.part.repulsive>
0.4845

> <Gold.PLP.ligand.clash>
0.0000

> <Gold.PLP.ligand.torsion>
0.1460

> <Gold.PLP.Chemscore.Hbond>
4.9468

> <Gold.PLP.Chemscore.CHOScore>
0.0000

> <Gold.PLP.Chemscore.Metal>
0.0000

> <Gold.Chemscore.Hbonds>
donor molecule, donor type, donor heavy atom, donor atom, acceptor molecule, acceptor atom, score
      L1  H    13    14       P1  8028  1.00
      P1  H  7997  8009       L1     9  2.00
      P1  H  8011  8017       L1    12  0.12
      P1  H 10752 10763       L1    10  1.63

> <Gold.PLP.Chemscore.Internal.Correction>
0.0001

> <Gold.Rescore>
     Score         DG    S(hbond)    S(metal)    S(lipo)     H(rot)  DE(clash)    DE(int)     intcor
     15.20     -15.61       3.08        0.00      32.46       1.55       0.17       0.24       ----

> <Gold.Chemscore.Fitness>
15.1963

> <Gold.Chemscore.DG>
-15.6082

> <Gold.Chemscore.ZeroCoef>
-5.4800

> <Gold.Chemscore.Hbond>
3.0816

> <Gold.Chemscore.Metal>
0.0000

> <Gold.Chemscore.Lipo>
32.4584

> <Gold.Chemscore.Internal_Hbond>
0.0000

> <Gold.Chemscore.DEClash>
0.1734

> <Gold.Chemscore.DEInternal>
0.2384

> <Gold.Chemscore.Rot>
1.5477

> <Gold.Chemscore.Internal.Correction>
   9.000000E+99

> <Gold.Chemscore.Hbonds>
donor molecule, donor type, donor heavy atom, donor atom, acceptor molecule, acceptor atom, score
      L1  H    13    14       P1  8028  0.93
      P1  H  7997  8009       L1     9  1.00
      P1  H  8011  8017       L1    12  0.13
      P1  H 10752 10763       L1    10  0.81

> <Gold.Chemscore.Hbond.Weighted>
-10.2927

> <Gold.Chemscore.Metal.Weighted>
-0.0000

> <Gold.Chemscore.Lipo.Weighted>
-3.7976

> <Gold.Chemscore.Internal_Hbond.Weighted>
0.0000

> <Gold.Chemscore.DEClash.Weighted>
0.1734

> <Gold.Chemscore.DEInternal.Weighted>
0.2384

> <Gold.Chemscore.Rot.Weighted>
3.9621

> <Gold.Chemscore.Internal.Correction.Weighted>
   9.000000E+99

> <Gold.Protein.RotatedTorsions>
[ 6907 6896 6895 6894 ] final  -86.89 input  -60.11 | X-H torsion
[ 7974 7965 7964 7962 ] final  164.53 input  175.53 | X-H torsion
[ 8008 7997 7996 7995 ] final -145.66 input   59.86 | X-H torsion
[ 10167 10162 10161 10158 ] final   92.39 input  -65.29 | X-H torsion
[ 10718 10713 10712 10709 ] final  138.04 input   66.30 | X-H torsion
[ 10763 10752 10751 10750 ] final   27.81 input  -60.55 | X-H torsion
[ 11005 11000 10999 10996 ] final -161.22 input  -57.11 | X-H torsion

> <Gold.Protein.ActiveResidues>
 VAL166  LYS551  ARG553  GLY616  TRP617  ASP618  TYR619  PRO620  LYS621  CYS622 
 ASP623  PHE694  ASN695  SER759  ASP760  ASP761  ALA762  ILE779  LEU786  VAL792 
 PHE793  MET794  SER795  GLU796  ALA797  LYS798  CYS799  TRP800  GLU811  SER814 

> <Gold.Protein.RotatedAtoms>
  150.6866  134.2980  159.4694 H   0  0  0  0  0  0  0  0  0  0  0  0  # atno 6907 bound_to 6896
  152.0879  134.9424  160.0581 H   0  0  0  0  0  0  0  0  0  0  0  0  # atno 6908 bound_to 6896
  152.0752  133.4091  159.4513 H   0  0  0  0  0  0  0  0  0  0  0  0  # atno 6909 bound_to 6896
  144.7541  139.8339  143.6356 H   0  0  0  0  0  0  0  0  0  0  0  0  # atno 7974 bound_to 7965
  155.5467  140.0613  157.2858 H   0  0  0  0  0  0  0  0  0  0  0  0  # atno 8008 bound_to 7997
  154.4434  140.1909  156.0690 H   0  0  0  0  0  0  0  0  0  0  0  0  # atno 8009 bound_to 7997
  156.0545  140.3280  155.7394 H   0  0  0  0  0  0  0  0  0  0  0  0  # atno 8010 bound_to 7997
  139.8282  144.6700  150.9433 H   0  0  0  0  0  0  0  0  0  0  0  0  # atno 10167 bound_to 10162
  157.4296  131.1047  151.0265 H   0  0  0  0  0  0  0  0  0  0  0  0  # atno 10718 bound_to 10713
  153.0532  135.6528  154.0642 H   0  0  0  0  0  0  0  0  0  0  0  0  # atno 10763 bound_to 10752
  154.0326  135.2910  155.3368 H   0  0  0  0  0  0  0  0  0  0  0  0  # atno 10764 bound_to 10752
  154.6832  135.5312  153.8358 H   0  0  0  0  0  0  0  0  0  0  0  0  # atno 10765 bound_to 10752
  140.6228  134.4733  157.5225 H   0  0  0  0  0  0  0  0  0  0  0  0  # atno 11005 bound_to 11000
  146.1530  139.4619  143.0037 LP  0  0  0  0  0  0  0  0  0  0  0  0  # atno 17320 bound_to 7965
  145.6840  141.0183  143.1591 LP  0  0  0  0  0  0  0  0  0  0  0  0  # atno 17321 bound_to 7965
  140.7808  143.4026  151.1123 LP  0  0  0  0  0  0  0  0  0  0  0  0  # atno 17342 bound_to 10162
  139.7682  143.8534  152.3115 LP  0  0  0  0  0  0  0  0  0  0  0  0  # atno 17343 bound_to 10162
  157.1166  130.6044  149.5495 LP  0  0  0  0  0  0  0  0  0  0  0  0  # atno 17370 bound_to 10713
  155.9908  130.4961  150.7274 LP  0  0  0  0  0  0  0  0  0  0  0  0  # atno 17371 bound_to 10713
  139.9146  134.8272  156.1408 LP  0  0  0  0  0  0  0  0  0  0  0  0  # atno 17394 bound_to 11000
  141.0730  133.6788  156.2179 LP  0  0  0  0  0  0  0  0  0  0  0  0  # atno 17395 bound_to 11000

$$$$
