#       Name:                AV-unprocessed.smi:2252
#       Creating user name   scv26
#       Creation time:       Fri Mar 27 12:31:05 2020


#       File generated by GOLD software.
#

@<TRIPOS>MOLECULE
AV-unprocessed.smi:2252
    48    50     1
SMALL
NO_CHARGES


@<TRIPOS>ATOM
      1 ****        -4.0903   2.9929   0.2390 C.3            1 S1                 0.0000
      2 ****        -4.7254   1.7611   0.7140 N.pl3          1 S1                 0.0000
      3 ****        -6.0729   1.5158   0.7837 C.2            1 S1                 0.0000
      4 ****        -6.2173   0.2501   1.2879 C.2            1 S1                 0.0000
      5 ****        -4.9532  -0.2259   1.5045 N.pl3          1 S1                 1.0000
      6 ****        -4.0398   0.6893   1.1525 C.2            1 S1                 0.0000
      7 ****        -2.5497   0.5145   1.2487 C.3            1 S1                 0.0000
      8 ****        -1.9095  -0.1246   0.0014 C.3            1 S1                 0.0000
      9 ****        -0.4677  -0.2337   0.1959 N.pl3          1 S1                -1.0000
     10 ****         0.4507  -0.0076  -0.7829 C.2            1 S1                 0.0000
     11 ****         0.2964   0.2907  -1.9724 O.2            1 S1                 0.0000
     12 ****         1.8876  -0.1739  -0.2536 C.3            1 S1                 0.0000
     13 ****         2.5913   1.2007  -0.2787 C.3            1 S1                 0.0000
     14 ****         3.4982   1.6409   0.8499 C.3            1 S1                 0.0000
     15 ****         2.1596   2.3067   0.6604 C.3            1 S1                 0.0000
     16 ****         2.6393  -1.1875  -1.0440 N.4            1 S1                 1.0000
     17 ****         4.0715  -1.3317  -0.6930 C.3            1 S1                 0.0000
     18 ****         4.4688  -2.7802  -1.0153 C.3            1 S1                 0.0000
     19 ****         3.1980  -3.4426  -1.5463 C.3            1 S1                 0.0000
     20 ****         2.0743  -2.5536  -1.0254 C.3            1 S1                 0.0000
     21 ****        -4.8567   3.7007  -0.0779 H              1 S1                 0.0000
     22 ****        -3.4411   2.7641  -0.6066 H              1 S1                 0.0000
     23 ****        -3.5054   3.4333   1.0469 H              1 S1                 0.0000
     24 ****        -6.8115   2.2425   0.4774 H              1 S1                 0.0000
     25 ****        -7.1010  -0.3326   1.5033 H              1 S1                 0.0000
     26 ****        -2.1177   1.4951   1.4500 H              1 S1                 0.0000
     27 ****        -2.3656  -0.1000   2.1313 H              1 S1                 0.0000
     28 ****        -2.3605  -1.1025  -0.1690 H              1 S1                 0.0000
     29 ****        -2.1706   0.4789  -0.8691 H              1 S1                 0.0000
     30 ****         1.8663  -0.5257   0.7811 H              1 S1                 0.0000
     31 ****         2.8742   1.5294  -1.2774 H              1 S1                 0.0000
     32 ****         3.6078   0.9776   1.7053 H              1 S1                 0.0000
     33 ****         4.3860   2.2118   0.5862 H              1 S1                 0.0000
     34 ****         2.1518   3.3217   0.2686 H              1 S1                 0.0000
     35 ****         1.3804   2.0808   1.3859 H              1 S1                 0.0000
     36 ****         4.6730  -0.6098  -1.2462 H              1 S1                 0.0000
     37 ****         4.2230  -1.1470   0.3716 H              1 S1                 0.0000
     38 ****         5.2790  -2.8301  -1.7436 H              1 S1                 0.0000
     39 ****         4.8094  -3.2835  -0.1097 H              1 S1                 0.0000
     40 ****         3.2026  -3.4243  -2.6370 H              1 S1                 0.0000
     41 ****         3.0963  -4.4811  -1.2297 H              1 S1                 0.0000
     42 ****         1.8221  -2.8336  -0.0011 H              1 S1                 0.0000
     43 ****         1.1724  -2.6371  -1.6326 H              1 S1                 0.0000
     44 ****         2.6105  -0.8865  -2.0075 H              1 S1                 0.0000
     45 ****        -4.7332  -1.1428   1.8729 H              1 S1                 0.0000
     46 ****        -0.1341  -0.4901   1.1031 LP             1 S1                 0.0000
     47 ****        -0.6252   0.4003  -2.3449 LP             1 S1                 0.0000
     48 ****         1.0931   0.4224  -2.5622 LP             1 S1                 0.0000
@<TRIPOS>BOND
    1    1    2 1     
    2    1   21 1     
    3    1   22 1     
    4    1   23 1     
    5    2    6 1     
    6    2    3 1     
    7    3    4 2     
    8    3   24 1     
    9    4    5 1     
   10    4   25 1     
   11    5    6 2     
   12    5   45 1     
   13    6    7 1     
   14    7    8 1     
   15    7   26 1     
   16    7   27 1     
   17    8    9 1     
   18    8   28 1     
   19    8   29 1     
   20    9   10 1     
   21   10   11 2     
   22   10   12 1     
   23   12   13 1     
   24   12   16 1     
   25   12   30 1     
   26   13   15 1     
   27   13   14 1     
   28   13   31 1     
   29   14   15 1     
   30   14   32 1     
   31   14   33 1     
   32   15   34 1     
   33   15   35 1     
   34   16   20 1     
   35   16   17 1     
   36   16   44 1     
   37   17   18 1     
   38   17   36 1     
   39   17   37 1     
   40   18   19 1     
   41   18   38 1     
   42   18   39 1     
   43   19   20 1     
   44   19   40 1     
   45   19   41 1     
   46   20   42 1     
   47   20   43 1     
   48    9   46 1     
   49   11   47 1     
   50   11   48 1     
@<TRIPOS>SUBSTRUCTURE
      1 S1             1
@<TRIPOS>SET
LONE_PAIRS      STATIC     ATOMS    <user>   **** ""
3 46 47 48
DONOR_HYDROGENS      STATIC     ATOMS    <user>   **** ""
2 45 44
ATOM$BLUE        STATIC     ATOMS    COLORGROUP SYSTEM
3 46 47 48
ATOM$RED        STATIC     ATOMS    COLORGROUP SYSTEM
2 45 44
