AV-unprocessed.smi:2027|AV-procd|sdf|8220|dock2
  -GOLD-   2272010493D 1   1.00000     0.00000
 Structure written by MMmdl.
 51 53  0  0  0  0  0  0  0  0  3 V2000
  151.8944  144.4887  160.3061 C   0  0  0  0  0  0  0  0  0  0  0  0
  151.8501  143.3477  159.3043 C   0  0  0  0  0  0  0  0  0  0  0  0
  150.9385  143.4298  158.2275 C   0  0  0  0  0  0  0  0  0  0  0  0
  150.9149  142.3662  157.3330 C   0  0  0  0  0  0  0  0  0  0  0  0
  150.1385  142.1476  156.1929 N   0  3  0  0  0  0  0  0  0  0  0  0
  150.4661  140.9455  155.6431 C   0  0  0  0  0  0  0  0  0  0  0  0
  151.4389  140.3911  156.4165 N   0  0  0  0  0  0  0  0  0  0  0  0
  152.1338  139.1042  156.2671 C   0  0  0  0  0  0  0  0  0  0  0  0
  151.1832  137.8871  156.2870 C   0  0  1  0  0  0  0  0  0  0  0  0
  150.5760  137.8596  157.5633 O   0  0  0  0  0  0  0  0  0  0  0  0
  150.0875  137.9446  155.1977 C   0  0  0  0  0  0  0  0  0  0  0  0
  149.4106  136.6439  154.9361 N   0  3  2  0  0  0  0  0  0  0  0  0
  148.2153  136.4290  155.7863 C   0  0  0  0  0  0  0  0  0  0  0  0
  150.3391  135.4845  155.0064 C   0  0  0  0  0  0  0  0  0  0  0  0
  149.6091  134.1676  154.9550 C   0  0  0  0  0  0  0  0  0  0  0  0
  149.7853  133.0368  155.8045 C   0  0  0  0  0  0  0  0  0  0  0  0
  148.9987  132.0241  155.4827 N   0  0  0  0  0  0  0  0  0  0  0  0
  148.2852  132.4740  154.4302 N   0  0  0  0  0  0  0  0  0  0  0  0
  147.3038  131.6090  153.8112 C   0  0  0  0  0  0  0  0  0  0  0  0
  148.6283  133.7654  154.0926 C   0  0  0  0  0  0  0  0  0  0  0  0
  151.7606  141.2490  157.4768 C   0  0  0  0  0  0  0  0  0  0  0  0
  152.6741  141.1594  158.5257 C   0  0  0  0  0  0  0  0  0  0  0  0
  152.7079  142.2269  159.4505 C   0  0  0  0  0  0  0  0  0  0  0  0
  153.6846  142.1471  160.6116 C   0  0  0  0  0  0  0  0  0  0  0  0
  151.1494  145.2510  160.0762 H   0  0  0  0  0  0  0  0  0  0  0  0
  152.8745  144.9661  160.2989 H   0  0  0  0  0  0  0  0  0  0  0  0
  151.6943  144.1228  161.3134 H   0  0  0  0  0  0  0  0  0  0  0  0
  150.2845  144.2816  158.1089 H   0  0  0  0  0  0  0  0  0  0  0  0
  150.0309  140.5102  154.7548 H   0  0  0  0  0  0  0  0  0  0  0  0
  152.6727  139.1389  155.3192 H   0  0  0  0  0  0  0  0  0  0  0  0
  152.8962  139.0220  157.0425 H   0  0  0  0  0  0  0  0  0  0  0  0
  151.7851  136.9860  156.1731 H   0  0  0  0  0  0  0  0  0  0  0  0
  150.3648  138.7431  157.8235 H   0  0  0  0  0  0  0  0  0  0  0  0
  149.3529  138.6814  155.5179 H   0  0  0  0  0  0  0  0  0  0  0  0
  150.5012  138.3110  154.2574 H   0  0  0  0  0  0  0  0  0  0  0  0
  148.4809  136.4373  156.8442 H   0  0  0  0  0  0  0  0  0  0  0  0
  147.7476  135.4695  155.5622 H   0  0  0  0  0  0  0  0  0  0  0  0
  147.4587  137.1934  155.6153 H   0  0  0  0  0  0  0  0  0  0  0  0
  151.0672  135.5627  154.1975 H   0  0  0  0  0  0  0  0  0  0  0  0
  150.9142  135.5443  155.9312 H   0  0  0  0  0  0  0  0  0  0  0  0
  150.4681  132.9187  156.6332 H   0  0  0  0  0  0  0  0  0  0  0  0
  146.8420  132.1145  152.9626 H   0  0  0  0  0  0  0  0  0  0  0  0
  146.5295  131.3516  154.5346 H   0  0  0  0  0  0  0  0  0  0  0  0
  147.7850  130.6957  153.4598 H   0  0  0  0  0  0  0  0  0  0  0  0
  148.1558  134.2832  153.2706 H   0  0  0  0  0  0  0  0  0  0  0  0
  153.3305  140.3099  158.6415 H   0  0  0  0  0  0  0  0  0  0  0  0
  154.2855  141.2381  160.5671 H   0  0  0  0  0  0  0  0  0  0  0  0
  153.1504  142.1450  161.5619 H   0  0  0  0  0  0  0  0  0  0  0  0
  154.3664  142.9976  160.5986 H   0  0  0  0  0  0  0  0  0  0  0  0
  149.0819  136.6766  153.9816 H   0  0  0  0  0  0  0  0  0  0  0  0
  149.4373  142.7721  155.8145 H   0  0  0  0  0  0  0  0  0  0  0  0
  1  2  1  0  0  0  0
  1 25  1  0  0  0  0
  1 26  1  0  0  0  0
  1 27  1  0  0  0  0
  2 23  1  0  0  0  0
  2  3  2  0  0  0  0
  3  4  1  0  0  0  0
  3 28  1  0  0  0  0
  4 21  2  0  0  0  0
  4  5  1  0  0  0  0
  5  6  2  0  0  0  0
  5 51  1  0  0  0  0
  6  7  1  0  0  0  0
  6 29  1  0  0  0  0
  7  8  1  0  0  0  0
  7 21  1  0  0  0  0
  8  9  1  0  0  0  0
  8 30  1  0  0  0  0
  8 31  1  0  0  0  0
  9 10  1  0  0  0  0
  9 11  1  0  0  0  0
  9 32  1  0  0  0  0
 10 33  1  0  0  0  0
 11 12  1  0  0  0  0
 11 34  1  0  0  0  0
 11 35  1  0  0  0  0
 12 13  1  0  0  0  0
 12 14  1  0  0  0  0
 12 50  1  0  0  0  0
 13 36  1  0  0  0  0
 13 37  1  0  0  0  0
 13 38  1  0  0  0  0
 14 15  1  0  0  0  0
 14 39  1  0  0  0  0
 14 40  1  0  0  0  0
 15 20  2  0  0  0  0
 15 16  1  0  0  0  0
 16 17  2  0  0  0  0
 16 41  1  0  0  0  0
 17 18  1  0  0  0  0
 18 19  1  0  0  0  0
 18 20  1  0  0  0  0
 19 42  1  0  0  0  0
 19 43  1  0  0  0  0
 19 44  1  0  0  0  0
 20 45  1  0  0  0  0
 21 22  1  0  0  0  0
 22 23  2  0  0  0  0
 22 46  1  0  0  0  0
 23 24  1  0  0  0  0
 24 47  1  0  0  0  0
 24 48  1  0  0  0  0
 24 49  1  0  0  0  0
M  CHG  1   5   1
M  CHG  1  12   1
M  END
> <s_m_source_file>
AV-unprocessed.smi

> <i_m_source_file_index>
2027

> <i_lp_mmshare_version>
43012

> <i_f3d_flags>
0

> <s_epik_input>
W0NIM11jKFtjSF0xKWMoW0NIM10pW2NIXWMoYzEyKW4oW2NIXW4yKVtDSDJdW0NASF0oW09IXSlbQ0gyXU4oW0NIM10pW0NIMl1jM1tjSF1ubihbQ0gzXSlbY0hdMw==

> <s_epik_cmdline>
J2VwaWtfcHl0aG9uJywgJy1waCcsICc3LjAnLCAnLXRuJywgJzgnLCAnLW1hJywgJzIwMCcsICctbWV0YWxfYmluZGluZycsICctaW1hZScsICc8aW5maWxlLm1hZT4nLCAnLW9tYWUnLCAnPG91dGZpbGUubWFlPic=

> <r_lp_tautomer_probability>
1

> <r_epik_Ionization_Penalty>
1.77469

> <r_epik_Ionization_Penalty_Charging>
1.77463

> <r_epik_Ionization_Penalty_Neutral>
6.41153e-05

> <r_epik_State_Penalty>
1.85225

> <r_epik_Charging_Adjusted_Penalty>
3.62688

> <i_epik_Tot_Q>
2

> <i_epik_Tot_abs_Q>
2

> <r_epik_Metal_State_Penalty>
1.92669

> <b_epik_Metal_Only>
0

> <s_lp_Force_Field>
OPLS_2005

> <r_lp_Energy>
22.5678

> <b_lp_Chiralities_Consistent>
1

> <s_lp_Variant>
AV-unprocessed.smi:2027-12

> <Gold.Version>
5.8.1

> <Gold.Id.Protein>
6NUR|6NUR_protein|mol2

> <Gold.PLP.Fitness>
59.1685

> <Gold.PLP.PLP>
-45.3687

> <Gold.PLP.part.hbond>
-2.0000

> <Gold.PLP.part.metal>
0.0000

> <Gold.PLP.part.buried>
-2.7877

> <Gold.PLP.part.nonpolar>
-39.6406

> <Gold.PLP.part.repulsive>
0.1185

> <Gold.PLP.ligand.clash>
0.0000

> <Gold.PLP.ligand.torsion>
0.6745

> <Gold.PLP.Chemscore.Hbond>
4.0000

> <Gold.PLP.Chemscore.CHOScore>
1.0000

> <Gold.PLP.Chemscore.Metal>
0.0000

> <Gold.Chemscore.Hbonds>
donor molecule, donor type, donor heavy atom, donor atom, acceptor molecule, acceptor atom, score
      L1  H     5    51       P1  8028  1.76
      L1  H    12    50       P1  7948  1.40
      L1  C    20    45       P1  7948  1.00

> <Gold.PLP.Chemscore.Internal.Correction>
0.1488

> <Gold.Rescore>
     Score         DG    S(hbond)    S(metal)    S(lipo)     H(rot)  DE(clash)    DE(int)     intcor
     18.61     -19.20       1.92        0.00     119.05       2.58       0.22       0.38       ----

> <Gold.Chemscore.Fitness>
18.6070

> <Gold.Chemscore.DG>
-19.2045

> <Gold.Chemscore.ZeroCoef>
-5.4800

> <Gold.Chemscore.Hbond>
1.9189

> <Gold.Chemscore.Metal>
0.0000

> <Gold.Chemscore.Lipo>
119.0532

> <Gold.Chemscore.Internal_Hbond>
0.0000

> <Gold.Chemscore.DEClash>
0.2165

> <Gold.Chemscore.DEInternal>
0.3811

> <Gold.Chemscore.Rot>
2.5836

> <Gold.Chemscore.Internal.Correction>
   9.000000E+99

> <Gold.Chemscore.Hbonds>
donor molecule, donor type, donor heavy atom, donor atom, acceptor molecule, acceptor atom, score
      L1  H     5    51       P1  8028  0.81
      L1  H    12    50       P1  7948  0.68

> <Gold.Chemscore.Hbond.Weighted>
-6.4092

> <Gold.Chemscore.Metal.Weighted>
-0.0000

> <Gold.Chemscore.Lipo.Weighted>
-13.9292

> <Gold.Chemscore.Internal_Hbond.Weighted>
0.0000

> <Gold.Chemscore.DEClash.Weighted>
0.2165

> <Gold.Chemscore.DEInternal.Weighted>
0.3811

> <Gold.Chemscore.Rot.Weighted>
6.6139

> <Gold.Chemscore.Internal.Correction.Weighted>
   9.000000E+99

> <Gold.Protein.RotatedTorsions>
[ 6907 6896 6895 6894 ] final  -23.37 input  -60.11 | X-H torsion
[ 7974 7965 7964 7962 ] final -131.26 input  175.53 | X-H torsion
[ 8008 7997 7996 7995 ] final  -82.81 input   59.86 | X-H torsion
[ 10167 10162 10161 10158 ] final -104.01 input  -65.29 | X-H torsion
[ 10718 10713 10712 10709 ] final   45.44 input   66.30 | X-H torsion
[ 10763 10752 10751 10750 ] final  -78.87 input  -60.55 | X-H torsion
[ 11005 11000 10999 10996 ] final  -47.70 input  -57.11 | X-H torsion

> <Gold.Protein.ActiveResidues>
 VAL166  LYS551  ARG553  GLY616  TRP617  ASP618  TYR619  PRO620  LYS621  CYS622 
 ASP623  PHE694  ASN695  SER759  ASP760  ASP761  ALA762  ILE779  LEU786  VAL792 
 PHE793  MET794  SER795  GLU796  ALA797  LYS798  CYS799  TRP800  GLU811  SER814 

> <Gold.Protein.RotatedAtoms>
  151.2050  135.0458  159.8887 H   0  0  0  0  0  0  0  0  0  0  0  0  # atno 6907 bound_to 6896
  152.5429  134.0808  159.8245 H   0  0  0  0  0  0  0  0  0  0  0  0  # atno 6908 bound_to 6896
  151.0953  133.5237  159.2644 H   0  0  0  0  0  0  0  0  0  0  0  0  # atno 6909 bound_to 6896
  144.9397  140.7224  143.4855 H   0  0  0  0  0  0  0  0  0  0  0  0  # atno 7974 bound_to 7965
  154.6125  140.0628  156.9511 H   0  0  0  0  0  0  0  0  0  0  0  0  # atno 8008 bound_to 7997
  155.1950  140.3310  155.4334 H   0  0  0  0  0  0  0  0  0  0  0  0  # atno 8009 bound_to 7997
  156.2385  140.1874  156.7038 H   0  0  0  0  0  0  0  0  0  0  0  0  # atno 8010 bound_to 7997
  140.2138  143.3726  152.1028 H   0  0  0  0  0  0  0  0  0  0  0  0  # atno 10167 bound_to 10162
  157.4375  130.8062  149.7662 H   0  0  0  0  0  0  0  0  0  0  0  0  # atno 10718 bound_to 10713
  154.5314  135.5715  153.6762 H   0  0  0  0  0  0  0  0  0  0  0  0  # atno 10763 bound_to 10752
  152.9940  135.6205  154.2624 H   0  0  0  0  0  0  0  0  0  0  0  0  # atno 10764 bound_to 10752
  154.2550  135.2858  155.2781 H   0  0  0  0  0  0  0  0  0  0  0  0  # atno 10765 bound_to 10752
  141.0656  133.6695  156.3334 H   0  0  0  0  0  0  0  0  0  0  0  0  # atno 11005 bound_to 11000
  145.3011  139.1850  143.4689 LP  0  0  0  0  0  0  0  0  0  0  0  0  # atno 17320 bound_to 7965
  146.3280  140.3002  142.8620 LP  0  0  0  0  0  0  0  0  0  0  0  0  # atno 17321 bound_to 7965
  139.5170  144.6985  151.5562 LP  0  0  0  0  0  0  0  0  0  0  0  0  # atno 17342 bound_to 10162
  140.6304  143.9087  150.6601 LP  0  0  0  0  0  0  0  0  0  0  0  0  # atno 17343 bound_to 10162
  155.9936  130.3923  150.2893 LP  0  0  0  0  0  0  0  0  0  0  0  0  # atno 17370 bound_to 10713
  157.1055  131.0207  151.3069 LP  0  0  0  0  0  0  0  0  0  0  0  0  # atno 17371 bound_to 10713
  140.5780  134.5774  157.5473 LP  0  0  0  0  0  0  0  0  0  0  0  0  # atno 17394 bound_to 11000
  139.9473  134.7679  156.0531 LP  0  0  0  0  0  0  0  0  0  0  0  0  # atno 17395 bound_to 11000

$$$$
