#       Name:                AV-unprocessed.smi:1965
#       Creating user name   scv26
#       Creation time:       Fri Mar 27 10:11:01 2020


#       File generated by GOLD software.
#

@<TRIPOS>MOLECULE
AV-unprocessed.smi:1965
    40    42     1
SMALL
NO_CHARGES


@<TRIPOS>ATOM
      1 ****        -2.1767  -2.3665   0.8906 O.2            1 S1                 0.0000
      2 ****        -0.9551  -2.4100   1.0303 C.2            1 S1                 0.0000
      3 ****        -0.2446  -3.5675   1.0401 N.pl3          1 S1                -1.0000
      4 ****         1.0920  -3.5961   1.1946 C.2            1 S1                 0.0000
      5 ****         1.9482  -3.5959   0.1662 N.2            1 S1                 0.0000
      6 ****         3.2875  -3.6244   0.5589 C.2            1 S1                 0.0000
      7 ****         3.4544  -3.6505   1.9180 C.2            1 S1                 0.0000
      8 ****         1.9256  -3.6450   2.7498 S.3            1 S1                 0.0000
      9 ****        -0.2764  -1.2553   1.1717 N.am           1 S1                 0.0000
     10 ****        -0.8550   0.0844   1.1507 C.3            1 S1                 0.0000
     11 ****         0.1215   1.1709   1.6204 C.3            1 S1                 0.0000
     12 ****        -0.2610   2.4268   0.8172 C.3            1 S1                 0.0000
     13 ****        -1.3774   2.0254  -0.0676 N.4            1 S1                 1.0000
     14 ****        -1.5598   2.8220  -1.3078 C.3            1 S1                 0.0000
     15 ****        -0.5652   2.4350  -2.4152 C.3            1 S1                 0.0000
     16 ****        -0.6093   0.9267  -2.6804 C.3            1 S1                 0.0000
     17 ****        -0.3072   0.1680  -1.3840 C.3            1 S1                 0.0000
     18 ****        -1.2862   0.5599  -0.2469 C.3            1 S1                 0.0000
     19 ****         4.0584  -3.6239  -0.1972 H              1 S1                 0.0000
     20 ****         4.3770  -3.6759   2.4779 H              1 S1                 0.0000
     21 ****         0.7250  -1.3189   1.2847 H              1 S1                 0.0000
     22 ****        -1.7239   0.1068   1.8119 H              1 S1                 0.0000
     23 ****         0.0540   1.3330   2.6966 H              1 S1                 0.0000
     24 ****         1.1522   0.8919   1.3955 H              1 S1                 0.0000
     25 ****        -0.5739   3.2462   1.4647 H              1 S1                 0.0000
     26 ****         0.5950   2.7703   0.2354 H              1 S1                 0.0000
     27 ****        -2.5759   2.6518  -1.6657 H              1 S1                 0.0000
     28 ****        -1.4871   3.8854  -1.0777 H              1 S1                 0.0000
     29 ****        -0.8004   2.9796  -3.3301 H              1 S1                 0.0000
     30 ****         0.4459   2.7310  -2.1341 H              1 S1                 0.0000
     31 ****        -1.5915   0.6412  -3.0589 H              1 S1                 0.0000
     32 ****         0.1151   0.6581  -3.4498 H              1 S1                 0.0000
     33 ****        -0.3606  -0.9049  -1.5722 H              1 S1                 0.0000
     34 ****         0.7215   0.3730  -1.0848 H              1 S1                 0.0000
     35 ****        -2.2770   0.1738  -0.4902 H              1 S1                 0.0000
     36 ****        -2.2087   2.1724   0.4868 H              1 S1                 0.0000
     37 ****        -2.6974  -3.2126   0.7765 LP             1 S1                 0.0000
     38 ****        -2.6490  -1.4850   0.8912 LP             1 S1                 0.0000
     39 ****        -0.7339  -4.4324   0.9281 LP             1 S1                 0.0000
     40 ****         1.6570  -3.5771  -0.7903 LP             1 S1                 0.0000
@<TRIPOS>BOND
    1    1    2 2     
    2    2    3 1     
    3    2    9 am    
    4    3    4 1     
    5    4    8 1     
    6    4    5 2     
    7    5    6 1     
    8    6    7 2     
    9    6   19 1     
   10    7    8 1     
   11    7   20 1     
   12    9   10 1     
   13    9   21 1     
   14   10   18 1     
   15   10   11 1     
   16   10   22 1     
   17   11   12 1     
   18   11   23 1     
   19   11   24 1     
   20   12   13 1     
   21   12   25 1     
   22   12   26 1     
   23   13   18 1     
   24   13   14 1     
   25   13   36 1     
   26   14   15 1     
   27   14   27 1     
   28   14   28 1     
   29   15   16 1     
   30   15   29 1     
   31   15   30 1     
   32   16   17 1     
   33   16   31 1     
   34   16   32 1     
   35   17   18 1     
   36   17   33 1     
   37   17   34 1     
   38   18   35 1     
   39    1   37 1     
   40    1   38 1     
   41    3   39 1     
   42    5   40 1     
@<TRIPOS>SUBSTRUCTURE
      1 S1             1
@<TRIPOS>SET
LONE_PAIRS      STATIC     ATOMS    <user>   **** ""
4 37 38 39 40
DONOR_HYDROGENS      STATIC     ATOMS    <user>   **** ""
2 21 36
ATOM$BLUE        STATIC     ATOMS    COLORGROUP SYSTEM
4 37 38 39 40
ATOM$RED        STATIC     ATOMS    COLORGROUP SYSTEM
2 21 36
