AV-unprocessed.smi:1978|AV-procd|sdf|7998|dock2
  -GOLD-   2272010183D 1   1.00000     0.00000
 Structure written by MMmdl.
 45 46  0  0  0  0  0  0  0  0  2 V2000
  134.1198  138.0319  154.0735 C   0  0  0  0  0  0  0  0  0  0  0  0
  135.4048  137.4912  154.6000 C   0  0  0  0  0  0  0  0  0  0  0  0
  136.4129  136.7674  154.0278 C   0  0  0  0  0  0  0  0  0  0  0  0
  137.3305  136.5961  155.0983 C   0  0  0  0  0  0  0  0  0  0  0  0
  138.5440  135.8864  154.9111 N   0  0  0  0  0  0  0  0  0  0  0  0
  139.2836  135.8128  153.7915 C   0  0  0  0  0  0  0  0  0  0  0  0
  139.0250  136.3800  152.7297 O   0  0  0  0  0  0  0  0  0  0  0  0
  140.3571  135.0281  153.9645 N   0  0  0  0  0  0  0  0  0  0  0  0
  141.3501  134.7347  152.9341 C   0  0  0  0  0  0  0  0  0  0  0  0
  142.8178  134.9149  153.4215 C   0  0  2  0  0  0  0  0  0  0  0  0
  143.3127  136.3326  153.0324 C   0  0  0  0  0  0  0  0  0  0  0  0
  143.7132  133.8224  152.9010 N   0  3  2  0  0  0  0  0  0  0  0  0
  145.1625  134.0269  153.2078 C   0  0  0  0  0  0  0  0  0  0  0  0
  145.9969  132.7782  152.8768 C   0  0  0  0  0  0  0  0  0  0  0  0
  145.8241  132.3601  151.4154 C   0  0  0  0  0  0  0  0  0  0  0  0
  144.3335  132.1819  151.1077 C   0  0  0  0  0  0  0  0  0  0  0  0
  143.5100  133.4381  151.4630 C   0  0  2  0  0  0  0  0  0  0  0  0
  143.7698  134.5967  150.4728 C   0  0  0  0  0  0  0  0  0  0  0  0
  136.9186  137.1610  156.2228 N   0  0  0  0  0  0  0  0  0  0  0  0
  135.6817  137.7369  155.9094 O   0  0  0  0  0  0  0  0  0  0  0  0
  134.1388  138.0890  152.9851 H   0  0  0  0  0  0  0  0  0  0  0  0
  133.9325  139.0339  154.4603 H   0  0  0  0  0  0  0  0  0  0  0  0
  133.2852  137.3943  154.3647 H   0  0  0  0  0  0  0  0  0  0  0  0
  136.4800  136.4206  153.0073 H   0  0  0  0  0  0  0  0  0  0  0  0
  138.8779  135.3717  155.7126 H   0  0  0  0  0  0  0  0  0  0  0  0
  140.4966  134.6018  154.8691 H   0  0  0  0  0  0  0  0  0  0  0  0
  141.1433  133.7244  152.5871 H   0  0  0  0  0  0  0  0  0  0  0  0
  141.1589  135.3939  152.0867 H   0  0  0  0  0  0  0  0  0  0  0  0
  142.8280  134.8496  154.5104 H   0  0  0  0  0  0  0  0  0  0  0  0
  142.6335  137.1120  153.3768 H   0  0  0  0  0  0  0  0  0  0  0  0
  143.4044  136.4362  151.9508 H   0  0  0  0  0  0  0  0  0  0  0  0
  144.2744  136.5811  153.4784 H   0  0  0  0  0  0  0  0  0  0  0  0
  145.5422  134.8952  152.6687 H   0  0  0  0  0  0  0  0  0  0  0  0
  145.3275  134.2321  154.2612 H   0  0  0  0  0  0  0  0  0  0  0  0
  147.0504  132.9679  153.0855 H   0  0  0  0  0  0  0  0  0  0  0  0
  145.6968  131.9569  153.5291 H   0  0  0  0  0  0  0  0  0  0  0  0
  146.2613  133.1110  150.7568 H   0  0  0  0  0  0  0  0  0  0  0  0
  146.3616  131.4309  151.2242 H   0  0  0  0  0  0  0  0  0  0  0  0
  144.1987  131.9256  150.0561 H   0  0  0  0  0  0  0  0  0  0  0  0
  143.9529  131.3315  151.6756 H   0  0  0  0  0  0  0  0  0  0  0  0
  142.4753  133.1247  151.3332 H   0  0  0  0  0  0  0  0  0  0  0  0
  143.5725  134.2770  149.4493 H   0  0  0  0  0  0  0  0  0  0  0  0
  144.8000  134.9491  150.5047 H   0  0  0  0  0  0  0  0  0  0  0  0
  143.1268  135.4547  150.6642 H   0  0  0  0  0  0  0  0  0  0  0  0
  143.4448  133.0010  153.4236 H   0  0  0  0  0  0  0  0  0  0  0  0
  1  2  1  0  0  0  0
  1 21  1  0  0  0  0
  1 22  1  0  0  0  0
  1 23  1  0  0  0  0
  2 20  1  0  0  0  0
  2  3  2  0  0  0  0
  3  4  1  0  0  0  0
  3 24  1  0  0  0  0
  4  5  1  0  0  0  0
  4 19  2  0  0  0  0
  5  6  1  0  0  0  0
  5 25  1  0  0  0  0
  6  7  2  0  0  0  0
  6  8  1  0  0  0  0
  8  9  1  0  0  0  0
  8 26  1  0  0  0  0
  9 10  1  0  0  0  0
  9 27  1  0  0  0  0
  9 28  1  0  0  0  0
 10 11  1  0  0  0  0
 10 12  1  0  0  0  0
 10 29  1  0  0  0  0
 11 30  1  0  0  0  0
 11 31  1  0  0  0  0
 11 32  1  0  0  0  0
 12 17  1  0  0  0  0
 12 13  1  0  0  0  0
 12 45  1  0  0  0  0
 13 14  1  0  0  0  0
 13 33  1  0  0  0  0
 13 34  1  0  0  0  0
 14 15  1  0  0  0  0
 14 35  1  0  0  0  0
 14 36  1  0  0  0  0
 15 16  1  0  0  0  0
 15 37  1  0  0  0  0
 15 38  1  0  0  0  0
 16 17  1  0  0  0  0
 16 39  1  0  0  0  0
 16 40  1  0  0  0  0
 17 18  1  0  0  0  0
 17 41  1  0  0  0  0
 18 42  1  0  0  0  0
 18 43  1  0  0  0  0
 18 44  1  0  0  0  0
 19 20  1  0  0  0  0
M  CHG  1  12   1
M  END
> <s_m_source_file>
AV-unprocessed.smi

> <i_m_source_file_index>
1978

> <i_lp_mmshare_version>
43012

> <i_f3d_flags>
0

> <s_epik_input>
W0NIM11jMVtjSF1jKG5vMSlbTkhdQyg9TylbTkhdW0NIMl1bQ0BIXShbQ0gzXSlOMltDSDJdW0NIMl1bQ0gyXVtDSDJdW0NASF0yW0NIM10=

> <s_epik_cmdline>
J2VwaWtfcHl0aG9uJywgJy1waCcsICc3LjAnLCAnLXRuJywgJzgnLCAnLW1hJywgJzIwMCcsICctbWV0YWxfYmluZGluZycsICctaW1hZScsICc8aW5maWxlLm1hZT4nLCAnLW9tYWUnLCAnPG91dGZpbGUubWFlPic=

> <r_epik_Ionization_Penalty>
0.00265971

> <r_epik_Ionization_Penalty_Charging>
0.00262393

> <r_epik_Ionization_Penalty_Neutral>
3.57846e-05

> <r_epik_State_Penalty>
0.00182566

> <r_epik_Charging_Adjusted_Penalty>
0.00444959

> <i_epik_Tot_Q>
1

> <i_epik_Tot_abs_Q>
1

> <r_epik_Metal_State_Penalty>
0.0216344

> <b_epik_Metal_Only>
0

> <s_lp_Force_Field>
OPLS_2005

> <r_lp_Energy>
22.9215

> <b_lp_Chiralities_Consistent>
1

> <s_lp_Variant>
AV-unprocessed.smi:1978-7

> <Gold.Version>
5.8.1

> <Gold.Id.Protein>
6NUR|6NUR_protein|mol2

> <Gold.PLP.Fitness>
40.6099

> <Gold.PLP.PLP>
-30.5275

> <Gold.PLP.part.hbond>
-3.0000

> <Gold.PLP.part.metal>
0.0000

> <Gold.PLP.part.buried>
-6.8109

> <Gold.PLP.part.nonpolar>
-22.1074

> <Gold.PLP.part.repulsive>
0.3960

> <Gold.PLP.ligand.clash>
0.0000

> <Gold.PLP.ligand.torsion>
1.0086

> <Gold.PLP.Chemscore.Hbond>
4.0000

> <Gold.PLP.Chemscore.CHOScore>
0.0000

> <Gold.PLP.Chemscore.Metal>
0.0000

> <Gold.Chemscore.Hbonds>
donor molecule, donor type, donor heavy atom, donor atom, acceptor molecule, acceptor atom, score
      L1  H     5    25       P1 11000  0.52
      L1  H     8    26       P1 11000  1.00
      L1  H    12    45       P1 10957  2.00

> <Gold.PLP.Chemscore.Internal.Correction>
0.0996

> <Gold.Rescore>
     Score         DG    S(hbond)    S(metal)    S(lipo)     H(rot)  DE(clash)    DE(int)     intcor
     14.72     -17.07       2.47        0.00      62.51       1.55       0.00       2.35       ----

> <Gold.Chemscore.Fitness>
14.7212

> <Gold.Chemscore.DG>
-17.0738

> <Gold.Chemscore.ZeroCoef>
-5.4800

> <Gold.Chemscore.Hbond>
2.4675

> <Gold.Chemscore.Metal>
0.0000

> <Gold.Chemscore.Lipo>
62.5103

> <Gold.Chemscore.Internal_Hbond>
0.0000

> <Gold.Chemscore.DEClash>
0.0000

> <Gold.Chemscore.DEInternal>
2.3527

> <Gold.Chemscore.Rot>
1.5474

> <Gold.Chemscore.Internal.Correction>
   9.000000E+99

> <Gold.Chemscore.Hbonds>
donor molecule, donor type, donor heavy atom, donor atom, acceptor molecule, acceptor atom, score
      L1  H     5    25       P1 11000  0.03
      L1  H     8    26       P1 11000  0.91
      L1  H    12    45       P1 10957  0.79

> <Gold.Chemscore.Hbond.Weighted>
-8.2414

> <Gold.Chemscore.Metal.Weighted>
-0.0000

> <Gold.Chemscore.Lipo.Weighted>
-7.3137

> <Gold.Chemscore.Internal_Hbond.Weighted>
0.0000

> <Gold.Chemscore.DEClash.Weighted>
0.0000

> <Gold.Chemscore.DEInternal.Weighted>
2.3527

> <Gold.Chemscore.Rot.Weighted>
3.9612

> <Gold.Chemscore.Internal.Correction.Weighted>
   9.000000E+99

> <Gold.Protein.RotatedTorsions>
[ 6907 6896 6895 6894 ] final  -31.26 input  -60.11 | X-H torsion
[ 7974 7965 7964 7962 ] final  162.42 input  175.53 | X-H torsion
[ 8008 7997 7996 7995 ] final   47.52 input   59.86 | X-H torsion
[ 10167 10162 10161 10158 ] final   22.09 input  -65.29 | X-H torsion
[ 10718 10713 10712 10709 ] final  168.49 input   66.30 | X-H torsion
[ 10763 10752 10751 10750 ] final   71.07 input  -60.55 | X-H torsion
[ 11005 11000 10999 10996 ] final -110.96 input  -57.11 | X-H torsion

> <Gold.Protein.ActiveResidues>
 VAL166  LYS551  ARG553  GLY616  TRP617  ASP618  TYR619  PRO620  LYS621  CYS622 
 ASP623  PHE694  ASN695  SER759  ASP760  ASP761  ALA762  ILE779  LEU786  VAL792 
 PHE793  MET794  SER795  GLU796  ALA797  LYS798  CYS799  TRP800  GLU811  SER814 

> <Gold.Protein.RotatedAtoms>
  151.0944  134.9935  159.8418 H   0  0  0  0  0  0  0  0  0  0  0  0  # atno 6907 bound_to 6896
  152.5432  134.2026  159.8728 H   0  0  0  0  0  0  0  0  0  0  0  0  # atno 6908 bound_to 6896
  151.2064  133.4537  159.2630 H   0  0  0  0  0  0  0  0  0  0  0  0  # atno 6909 bound_to 6896
  144.7637  139.8037  143.6323 H   0  0  0  0  0  0  0  0  0  0  0  0  # atno 7974 bound_to 7965
  155.3705  140.3423  155.4243 H   0  0  0  0  0  0  0  0  0  0  0  0  # atno 8008 bound_to 7997
  156.1665  140.1617  156.8556 H   0  0  0  0  0  0  0  0  0  0  0  0  # atno 8009 bound_to 7997
  154.5190  140.0771  156.8118 H   0  0  0  0  0  0  0  0  0  0  0  0  # atno 8010 bound_to 7997
  140.5375  143.9734  150.6500 H   0  0  0  0  0  0  0  0  0  0  0  0  # atno 10167 bound_to 10162
  157.0363  131.0274  151.2728 H   0  0  0  0  0  0  0  0  0  0  0  0  # atno 10718 bound_to 10713
  153.0377  135.5150  154.7537 H   0  0  0  0  0  0  0  0  0  0  0  0  # atno 10763 bound_to 10752
  154.6499  135.2923  155.0002 H   0  0  0  0  0  0  0  0  0  0  0  0  # atno 10764 bound_to 10752
  154.0889  135.6653  153.4902 H   0  0  0  0  0  0  0  0  0  0  0  0  # atno 10765 bound_to 10752
  141.0762  133.9297  157.2385 H   0  0  0  0  0  0  0  0  0  0  0  0  # atno 11005 bound_to 11000
  146.1725  139.4882  142.9918 LP  0  0  0  0  0  0  0  0  0  0  0  0  # atno 17320 bound_to 7965
  145.6536  141.0257  143.1747 LP  0  0  0  0  0  0  0  0  0  0  0  0  # atno 17321 bound_to 7965
  140.3126  143.3188  152.0864 LP  0  0  0  0  0  0  0  0  0  0  0  0  # atno 17342 bound_to 10162
  139.4976  144.6626  151.6429 LP  0  0  0  0  0  0  0  0  0  0  0  0  # atno 17343 bound_to 10162
  157.5139  130.7955  149.7734 LP  0  0  0  0  0  0  0  0  0  0  0  0  # atno 17370 bound_to 10713
  156.0053  130.3859  150.2456 LP  0  0  0  0  0  0  0  0  0  0  0  0  # atno 17371 bound_to 10713
  139.9574  135.0162  156.9167 LP  0  0  0  0  0  0  0  0  0  0  0  0  # atno 17394 bound_to 11000
  140.5568  134.0573  155.7386 LP  0  0  0  0  0  0  0  0  0  0  0  0  # atno 17395 bound_to 11000

$$$$
