AV-unprocessed.smi:739|AV-procd|sdf|3542|dock10
  -GOLD-   22720 0533D 1   1.00000     0.00000
 Structure written by MMmdl.
 32 34  0  0  0  0  0  0  0  0  1 V2000
  150.0450  142.1313  155.6016 O   0  0  0  0  0  0  0  0  0  0  0  0
  150.3538  141.3474  156.7357 C   0  0  2  0  0  0  0  0  0  0  0  0
  151.8241  141.6092  157.1180 C   0  0  0  0  0  0  0  0  0  0  0  0
  151.9548  142.6741  158.0965 N   0  0  0  0  0  0  0  0  0  0  0  0
  151.4922  143.9342  157.9878 C   0  0  0  0  0  0  0  0  0  0  0  0
  151.7061  144.7525  159.0140 N   0  0  0  0  0  0  0  0  0  0  0  0
  152.3898  143.9284  159.8914 C   0  0  0  0  0  0  0  0  0  0  0  0
  152.9060  144.1892  161.1807 C   0  0  0  0  0  0  0  0  0  0  0  0
  153.5743  143.1777  161.9015 C   0  0  0  0  0  0  0  0  0  0  0  0
  154.0619  143.4447  163.1364 F   0  0  0  0  0  0  0  0  0  0  0  0
  153.7370  141.8920  161.3439 C   0  0  0  0  0  0  0  0  0  0  0  0
  154.3785  140.9258  162.0428 F   0  0  0  0  0  0  0  0  0  0  0  0
  153.2328  141.6094  160.0603 C   0  0  0  0  0  0  0  0  0  0  0  0
  152.5654  142.6212  159.3455 C   0  0  0  0  0  0  0  0  0  0  0  0
  150.0700  139.8686  156.5078 C   0  0  0  0  0  0  0  0  0  0  0  0
  149.1440  139.1937  157.3328 C   0  0  0  0  0  0  0  0  0  0  0  0
  148.8995  137.8189  157.1494 C   0  0  0  0  0  0  0  0  0  0  0  0
  149.5778  137.1111  156.1389 C   0  0  0  0  0  0  0  0  0  0  0  0
  149.3432  135.7892  155.9633 F   0  0  0  0  0  0  0  0  0  0  0  0
  150.5011  137.7786  155.3118 C   0  0  0  0  0  0  0  0  0  0  0  0
  150.7473  139.1531  155.4955 C   0  0  0  0  0  0  0  0  0  0  0  0
  149.9679  143.0334  155.8731 H   0  0  0  0  0  0  0  0  0  0  0  0
  149.7104  141.7058  157.5407 H   0  0  0  0  0  0  0  0  0  0  0  0
  152.2916  140.7057  157.5117 H   0  0  0  0  0  0  0  0  0  0  0  0
  152.3963  141.8954  156.2343 H   0  0  0  0  0  0  0  0  0  0  0  0
  150.9631  144.2678  157.1070 H   0  0  0  0  0  0  0  0  0  0  0  0
  152.7868  145.1695  161.6179 H   0  0  0  0  0  0  0  0  0  0  0  0
  153.3541  140.6252  159.6333 H   0  0  0  0  0  0  0  0  0  0  0  0
  148.6256  139.7260  158.1167 H   0  0  0  0  0  0  0  0  0  0  0  0
  148.1936  137.3064  157.7862 H   0  0  0  0  0  0  0  0  0  0  0  0
  151.0234  137.2357  154.5380 H   0  0  0  0  0  0  0  0  0  0  0  0
  151.4656  139.6539  154.8629 H   0  0  0  0  0  0  0  0  0  0  0  0
  1  2  1  0  0  0  0
  1 22  1  0  0  0  0
  2  3  1  0  0  0  0
  2 15  1  0  0  0  0
  2 23  1  0  0  0  0
  3  4  1  0  0  0  0
  3 24  1  0  0  0  0
  3 25  1  0  0  0  0
  4 14  1  0  0  0  0
  4  5  1  0  0  0  0
  5  6  2  0  0  0  0
  5 26  1  0  0  0  0
  6  7  1  0  0  0  0
  7 14  2  0  0  0  0
  7  8  1  0  0  0  0
  8  9  2  0  0  0  0
  8 27  1  0  0  0  0
  9 10  1  0  0  0  0
  9 11  1  0  0  0  0
 11 12  1  0  0  0  0
 11 13  2  0  0  0  0
 13 14  1  0  0  0  0
 13 28  1  0  0  0  0
 15 21  1  0  0  0  0
 15 16  2  0  0  0  0
 16 17  1  0  0  0  0
 16 29  1  0  0  0  0
 17 18  2  0  0  0  0
 17 30  1  0  0  0  0
 18 19  1  0  0  0  0
 18 20  1  0  0  0  0
 20 21  2  0  0  0  0
 20 31  1  0  0  0  0
 21 32  1  0  0  0  0
M  END
> <s_m_source_file>
AV-unprocessed.smi

> <i_m_source_file_index>
739

> <i_lp_mmshare_version>
43012

> <i_f3d_flags>
0

> <s_epik_input>
W2NIXTFbY0hdYyhGKVtjSF1bY0hdYzFbQ0BIXShbT0hdKVtDSDJdbihbY0hdbjIpYyhjMjMpW2NIXWMoRiljKEYpW2NIXTM=

> <s_epik_cmdline>
J2VwaWtfcHl0aG9uJywgJy1waCcsICc3LjAnLCAnLXRuJywgJzgnLCAnLW1hJywgJzIwMCcsICctbWV0YWxfYmluZGluZycsICctaW1hZScsICc8aW5maWxlLm1hZT4nLCAnLW9tYWUnLCAnPG91dGZpbGUubWFlPic=

> <r_epik_Ionization_Penalty>
0.0156356

> <r_epik_Ionization_Penalty_Charging>
0

> <r_epik_Ionization_Penalty_Neutral>
0.0156356

> <r_epik_State_Penalty>
0.0122974

> <r_epik_Charging_Adjusted_Penalty>
0.0122974

> <i_epik_Tot_Q>
0

> <i_epik_Tot_abs_Q>
0

> <r_epik_Metal_State_Penalty>
1.24258e-05

> <b_epik_Metal_Only>
0

> <s_lp_Force_Field>
OPLS_2005

> <r_lp_Energy>
11.0566

> <b_lp_Chiralities_Consistent>
1

> <s_lp_Variant>
AV-unprocessed.smi:739-1

> <Gold.Version>
5.8.1

> <Gold.Id.Protein>
6NUR|6NUR_protein|mol2

> <Gold.PLP.Fitness>
52.8083

> <Gold.PLP.PLP>
-48.0685

> <Gold.PLP.part.hbond>
-1.0000

> <Gold.PLP.part.metal>
0.0000

> <Gold.PLP.part.buried>
-5.0875

> <Gold.PLP.part.nonpolar>
-40.8750

> <Gold.PLP.part.repulsive>
0.1174

> <Gold.PLP.ligand.clash>
0.0000

> <Gold.PLP.ligand.torsion>
0.4818

> <Gold.PLP.Chemscore.Hbond>
0.8960

> <Gold.PLP.Chemscore.CHOScore>
1.0000

> <Gold.PLP.Chemscore.Metal>
0.0000

> <Gold.Chemscore.Hbonds>
donor molecule, donor type, donor heavy atom, donor atom, acceptor molecule, acceptor atom, score
      L1  H     1    22       P1  8028  0.90
      L1  C     5    26       P1  8028  0.97

> <Gold.PLP.Chemscore.Internal.Correction>
0.0155

> <Gold.Rescore>
     Score         DG    S(hbond)    S(metal)    S(lipo)     H(rot)  DE(clash)    DE(int)     intcor
     14.40     -15.24       0.79        0.00     106.33       2.07       0.30       0.54       ----

> <Gold.Chemscore.Fitness>
14.4041

> <Gold.Chemscore.DG>
-15.2443

> <Gold.Chemscore.ZeroCoef>
-5.4800

> <Gold.Chemscore.Hbond>
0.7852

> <Gold.Chemscore.Metal>
0.0000

> <Gold.Chemscore.Lipo>
106.3328

> <Gold.Chemscore.Internal_Hbond>
0.0000

> <Gold.Chemscore.DEClash>
0.3036

> <Gold.Chemscore.DEInternal>
0.5366

> <Gold.Chemscore.Rot>
2.0700

> <Gold.Chemscore.Internal.Correction>
   9.000000E+99

> <Gold.Chemscore.Hbonds>
donor molecule, donor type, donor heavy atom, donor atom, acceptor molecule, acceptor atom, score
      L1  H     1    22       P1  8028  0.82

> <Gold.Chemscore.Hbond.Weighted>
-2.6226

> <Gold.Chemscore.Metal.Weighted>
-0.0000

> <Gold.Chemscore.Lipo.Weighted>
-12.4409

> <Gold.Chemscore.Internal_Hbond.Weighted>
0.0000

> <Gold.Chemscore.DEClash.Weighted>
0.3036

> <Gold.Chemscore.DEInternal.Weighted>
0.5366

> <Gold.Chemscore.Rot.Weighted>
5.2992

> <Gold.Chemscore.Internal.Correction.Weighted>
   9.000000E+99

> <Gold.Protein.RotatedTorsions>
[ 6907 6896 6895 6894 ] final  -92.77 input  -60.11 | X-H torsion
[ 7974 7965 7964 7962 ] final   77.08 input  175.53 | X-H torsion
[ 8008 7997 7996 7995 ] final  -77.69 input   59.86 | X-H torsion
[ 10167 10162 10161 10158 ] final   49.29 input  -65.29 | X-H torsion
[ 10718 10713 10712 10709 ] final   96.74 input   66.30 | X-H torsion
[ 10763 10752 10751 10750 ] final   34.68 input  -60.55 | X-H torsion
[ 11005 11000 10999 10996 ] final   70.44 input  -57.11 | X-H torsion

> <Gold.Protein.ActiveResidues>
 VAL166  LYS551  ARG553  GLY616  TRP617  ASP618  TYR619  PRO620  LYS621  CYS622 
 ASP623  PHE694  ASN695  SER759  ASP760  ASP761  ALA762  ILE779  LEU786  VAL792 
 PHE793  MET794  SER795  GLU796  ALA797  LYS798  CYS799  TRP800  GLU811  SER814 

> <Gold.Protein.RotatedAtoms>
  150.6911  134.2070  159.4344 H   0  0  0  0  0  0  0  0  0  0  0  0  # atno 6907 bound_to 6896
  152.0034  134.9913  160.0575 H   0  0  0  0  0  0  0  0  0  0  0  0  # atno 6908 bound_to 6896
  152.1557  133.4515  159.4873 H   0  0  0  0  0  0  0  0  0  0  0  0  # atno 6909 bound_to 6896
  145.6946  139.2563  143.1740 H   0  0  0  0  0  0  0  0  0  0  0  0  # atno 7974 bound_to 7965
  154.5620  140.0706  156.8833 H   0  0  0  0  0  0  0  0  0  0  0  0  # atno 8008 bound_to 7997
  155.2794  140.3370  155.4241 H   0  0  0  0  0  0  0  0  0  0  0  0  # atno 8009 bound_to 7997
  156.2050  140.1736  156.7805 H   0  0  0  0  0  0  0  0  0  0  0  0  # atno 8010 bound_to 7997
  140.2844  144.3119  150.6256 H   0  0  0  0  0  0  0  0  0  0  0  0  # atno 10167 bound_to 10162
  157.6923  131.0587  150.4537 H   0  0  0  0  0  0  0  0  0  0  0  0  # atno 10718 bound_to 10713
  153.0153  135.6354  154.1707 H   0  0  0  0  0  0  0  0  0  0  0  0  # atno 10763 bound_to 10752
  154.1446  135.2832  155.3153 H   0  0  0  0  0  0  0  0  0  0  0  0  # atno 10764 bound_to 10752
  154.6099  135.5560  153.7523 H   0  0  0  0  0  0  0  0  0  0  0  0  # atno 10765 bound_to 10752
  139.9598  134.7081  156.0672 H   0  0  0  0  0  0  0  0  0  0  0  0  # atno 11005 bound_to 11000
  146.0851  140.7719  142.9622 LP  0  0  0  0  0  0  0  0  0  0  0  0  # atno 17320 bound_to 7965
  144.6986  140.3550  143.7174 LP  0  0  0  0  0  0  0  0  0  0  0  0  # atno 17321 bound_to 7965
  140.5784  143.2174  151.7472 LP  0  0  0  0  0  0  0  0  0  0  0  0  # atno 17342 bound_to 10162
  139.4954  144.4115  152.0075 LP  0  0  0  0  0  0  0  0  0  0  0  0  # atno 17343 bound_to 10162
  156.4887  130.4090  149.6419 LP  0  0  0  0  0  0  0  0  0  0  0  0  # atno 17370 bound_to 10713
  156.3438  130.7396  151.2345 LP  0  0  0  0  0  0  0  0  0  0  0  0  # atno 17371 bound_to 10713
  141.1273  133.6595  156.3371 LP  0  0  0  0  0  0  0  0  0  0  0  0  # atno 17394 bound_to 11000
  140.5527  134.6012  157.5412 LP  0  0  0  0  0  0  0  0  0  0  0  0  # atno 17395 bound_to 11000

$$$$
