#       Name:                AV-unprocessed.smi:49
#       Creating user name   scv26
#       Creation time:       Thu Mar 26 16:35:15 2020


#       File generated by GOLD software.
#

@<TRIPOS>MOLECULE
AV-unprocessed.smi:49
    32    33     1
SMALL
NO_CHARGES


@<TRIPOS>ATOM
      1 ****        -4.1422   1.0387   1.0385 C.3            1 S1                 0.0000
      2 ****        -3.6342  -0.3988   1.1882 C.3            1 S1                 0.0000
      3 ****        -2.1306  -0.4897   1.0464 C.2            1 S1                 0.0000
      4 ****        -1.4643  -0.6509  -0.0925 N.2            1 S1                 0.0000
      5 ****        -0.1655  -0.6511   0.2395 C.2            1 S1                 0.0000
      6 ****         0.9670  -0.7786  -0.7635 C.3            1 S1                 0.0000
      7 ****         1.4792   0.5979  -1.2254 C.3            1 S1                 0.0000
      8 ****         2.8681   0.7044  -0.6037 C.3            1 S1                 0.0000
      9 ****         3.7422   1.5290  -1.3450 O.3            1 S1                 0.0000
     10 ****         3.3218  -0.7492  -0.5770 C.3            1 S1                 0.0000
     11 ****         2.1250  -1.4969  -0.2188 N.3            1 S1                 0.0000
     12 ****        -0.0155  -0.4634   1.5611 N.2            1 S1                 0.0000
     13 ****        -1.2375  -0.3660   2.0437 N.pl3          1 S1                -1.0000
     14 ****         0.5814  -1.3170  -1.6299 H              1 S1                 0.0000
     15 ****         2.7882   1.0839   0.4162 H              1 S1                 0.0000
     16 ****        -5.2261   1.0813   1.1448 H              1 S1                 0.0000
     17 ****        -3.8856   1.4445   0.0596 H              1 S1                 0.0000
     18 ****        -3.7053   1.6895   1.7963 H              1 S1                 0.0000
     19 ****        -3.9206  -0.7959   2.1624 H              1 S1                 0.0000
     20 ****        -4.0988  -1.0392   0.4382 H              1 S1                 0.0000
     21 ****         1.5599   0.5967  -2.3135 H              1 S1                 0.0000
     22 ****         0.8253   1.4256  -0.9470 H              1 S1                 0.0000
     23 ****         3.3929   2.4069  -1.3472 H              1 S1                 0.0000
     24 ****         3.6598  -1.0524  -1.5689 H              1 S1                 0.0000
     25 ****         4.1381  -0.9242   0.1241 H              1 S1                 0.0000
     26 ****         2.1783  -2.4247  -0.6257 H              1 S1                 0.0000
     27 ****        -1.8523  -0.7514  -1.0087 LP             1 S1                 0.0000
     28 ****         3.8114   1.1905  -2.2835 LP             1 S1                 0.0000
     29 ****         4.6484   1.5270  -0.9223 LP             1 S1                 0.0000
     30 ****         2.0416  -1.5832   0.7739 LP             1 S1                 0.0000
     31 ****         0.8429  -0.4091   2.0712 LP             1 S1                 0.0000
     32 ****        -1.4663  -0.2218   3.0064 LP             1 S1                 0.0000
@<TRIPOS>BOND
    1    1    2 1     
    2    1   16 1     
    3    1   17 1     
    4    1   18 1     
    5    2    3 1     
    6    2   19 1     
    7    2   20 1     
    8    3   13 1     
    9    3    4 2     
   10    4    5 1     
   11    5    6 1     
   12    5   12 2     
   13    6   14 1     
   14    6   11 1     
   15    6    7 1     
   16    7    8 1     
   17    7   21 1     
   18    7   22 1     
   19    8   15 1     
   20    8    9 1     
   21    8   10 1     
   22    9   23 1     
   23   10   11 1     
   24   10   24 1     
   25   10   25 1     
   26   11   26 1     
   27   12   13 1     
   28    4   27 1     
   29    9   28 1     
   30    9   29 1     
   31   11   30 1     
   32   12   31 1     
   33   13   32 1     
@<TRIPOS>SUBSTRUCTURE
      1 S1             1
@<TRIPOS>SET
LONE_PAIRS      STATIC     ATOMS    <user>   **** ""
6 27 28 29 30 31 32
DONOR_HYDROGENS      STATIC     ATOMS    <user>   **** ""
2 23 26
ATOM$BLUE        STATIC     ATOMS    COLORGROUP SYSTEM
6 27 28 29 30 31 32
ATOM$RED        STATIC     ATOMS    COLORGROUP SYSTEM
2 23 26
