AV-unprocessed.smi:2069|AV-procd|sdf|8436|dock7
  -GOLD-   2272011133D 1   1.00000     0.00000
 Structure written by MMmdl.
 37 38  0  0  0  0  0  0  0  0  2 V2000
  155.2999  135.7554  161.7599 C   0  0  0  0  0  0  0  0  0  0  0  0
  154.3575  136.5797  160.9518 C   0  0  0  0  0  0  0  0  0  0  0  0
  153.9102  136.1971  159.7534 N   0  0  0  0  0  0  0  0  0  0  0  0
  153.0437  137.1271  159.1978 N   0  0  0  0  0  0  0  0  0  0  0  0
  152.8402  138.1929  159.9851 C   0  0  0  0  0  0  0  0  0  0  0  0
  152.0378  139.2085  159.6256 N   0  5  0  0  0  0  0  0  0  0  0  0
  151.2465  139.0929  158.5347 C   0  0  0  0  0  0  0  0  0  0  0  0
  151.1678  138.1147  157.7880 O   0  0  0  0  0  0  0  0  0  0  0  0
  150.4988  140.1781  158.2945 N   0  0  0  0  0  0  0  0  0  0  0  0
  149.5644  140.3340  157.1843 C   0  0  0  0  0  0  0  0  0  0  0  0
  150.1849  141.1218  155.9978 C   0  0  1  0  0  0  0  0  0  0  0  0
  150.8129  142.4297  156.5439 C   0  0  0  0  0  0  0  0  0  0  0  0
  151.1398  140.3225  155.1940 N   0  0  0  0  0  0  0  0  0  0  0  0
  152.3857  140.0330  155.9135 C   0  0  0  0  0  0  0  0  0  0  0  0
  153.3646  139.1749  155.0934 C   0  0  0  0  0  0  0  0  0  0  0  0
  152.7325  137.9637  154.7032 O   0  0  0  0  0  0  0  0  0  0  0  0
  151.5612  138.1986  153.9343 C   0  0  0  0  0  0  0  0  0  0  0  0
  150.5686  139.0463  154.7484 C   0  0  0  0  0  0  0  0  0  0  0  0
  153.7429  138.1305  161.4991 S   0  0  0  0  0  0  0  0  0  0  0  0
  154.7678  134.9184  162.2119 H   0  0  0  0  0  0  0  0  0  0  0  0
  155.7460  136.3566  162.5523 H   0  0  0  0  0  0  0  0  0  0  0  0
  156.0977  135.3654  161.1272 H   0  0  0  0  0  0  0  0  0  0  0  0
  150.5919  140.9583  158.9282 H   0  0  0  0  0  0  0  0  0  0  0  0
  149.2269  139.3542  156.8424 H   0  0  0  0  0  0  0  0  0  0  0  0
  148.6985  140.8462  157.6004 H   0  0  0  0  0  0  0  0  0  0  0  0
  149.3600  141.4130  155.3456 H   0  0  0  0  0  0  0  0  0  0  0  0
  150.1277  142.9885  157.1805 H   0  0  0  0  0  0  0  0  0  0  0  0
  151.0866  143.1211  155.7484 H   0  0  0  0  0  0  0  0  0  0  0  0
  151.7065  142.2205  157.1327 H   0  0  0  0  0  0  0  0  0  0  0  0
  152.9093  140.9532  156.1643 H   0  0  0  0  0  0  0  0  0  0  0  0
  152.1610  139.5277  156.8541 H   0  0  0  0  0  0  0  0  0  0  0  0
  153.7071  139.7170  154.2106 H   0  0  0  0  0  0  0  0  0  0  0  0
  154.2485  138.9387  155.6861 H   0  0  0  0  0  0  0  0  0  0  0  0
  151.8224  138.6992  153.0006 H   0  0  0  0  0  0  0  0  0  0  0  0
  151.1125  137.2412  153.6692 H   0  0  0  0  0  0  0  0  0  0  0  0
  150.2257  138.4731  155.6113 H   0  0  0  0  0  0  0  0  0  0  0  0
  149.7000  139.2146  154.1146 H   0  0  0  0  0  0  0  0  0  0  0  0
  1  2  1  0  0  0  0
  1 20  1  0  0  0  0
  1 21  1  0  0  0  0
  1 22  1  0  0  0  0
  2 19  1  0  0  0  0
  2  3  2  0  0  0  0
  3  4  1  0  0  0  0
  4  5  2  0  0  0  0
  5  6  1  0  0  0  0
  5 19  1  0  0  0  0
  6  7  1  0  0  0  0
  7  8  2  0  0  0  0
  7  9  1  0  0  0  0
  9 10  1  0  0  0  0
  9 23  1  0  0  0  0
 10 11  1  0  0  0  0
 10 24  1  0  0  0  0
 10 25  1  0  0  0  0
 11 12  1  0  0  0  0
 11 13  1  0  0  0  0
 11 26  1  0  0  0  0
 12 27  1  0  0  0  0
 12 28  1  0  0  0  0
 12 29  1  0  0  0  0
 13 18  1  0  0  0  0
 13 14  1  0  0  0  0
 14 15  1  0  0  0  0
 14 30  1  0  0  0  0
 14 31  1  0  0  0  0
 15 16  1  0  0  0  0
 15 32  1  0  0  0  0
 15 33  1  0  0  0  0
 16 17  1  0  0  0  0
 17 18  1  0  0  0  0
 17 34  1  0  0  0  0
 17 35  1  0  0  0  0
 18 36  1  0  0  0  0
 18 37  1  0  0  0  0
M  CHG  1   6  -1
M  END
> <s_m_source_file>
AV-unprocessed.smi

> <i_m_source_file_index>
2069

> <i_lp_mmshare_version>
43012

> <i_f3d_flags>
0

> <s_epik_input>
W0NIM11jMW5uYyhzMSlbTkhdQyg9TylbTkhdW0NIMl1bQ0BIXShbQ0gzXSlOMltDSDJdW0NIMl1PW0NIMl1bQ0gyXTI=

> <s_epik_cmdline>
J2VwaWtfcHl0aG9uJywgJy1waCcsICc3LjAnLCAnLXRuJywgJzgnLCAnLW1hJywgJzIwMCcsICctbWV0YWxfYmluZGluZycsICctaW1hZScsICc8aW5maWxlLm1hZT4nLCAnLW9tYWUnLCAnPG91dGZpbGUubWFlPic=

> <r_lp_tautomer_probability>
1

> <r_epik_Ionization_Penalty>
3.82002

> <r_epik_Ionization_Penalty_Charging>
3.36369

> <r_epik_Ionization_Penalty_Neutral>
0.456339

> <r_epik_State_Penalty>
3.571

> <r_epik_Charging_Adjusted_Penalty>
6.93469

> <i_epik_Tot_Q>
-1

> <i_epik_Tot_abs_Q>
1

> <r_epik_Metal_State_Penalty>
0.710436

> <b_epik_Metal_Only>
1

> <s_lp_Force_Field>
OPLS_2005

> <r_lp_Energy>
26.7527

> <b_lp_Chiralities_Consistent>
1

> <s_lp_Variant>
AV-unprocessed.smi:2069-6

> <Gold.Version>
5.8.1

> <Gold.Id.Protein>
6NUR|6NUR_protein|mol2

> <Gold.PLP.Fitness>
35.2965

> <Gold.PLP.PLP>
-27.7963

> <Gold.PLP.part.hbond>
-3.5661

> <Gold.PLP.part.metal>
0.0000

> <Gold.PLP.part.buried>
-3.2710

> <Gold.PLP.part.nonpolar>
-21.3868

> <Gold.PLP.part.repulsive>
0.2925

> <Gold.PLP.ligand.clash>
0.0000

> <Gold.PLP.ligand.torsion>
0.3143

> <Gold.PLP.Chemscore.Hbond>
2.7020

> <Gold.PLP.Chemscore.CHOScore>
0.0000

> <Gold.PLP.Chemscore.Metal>
0.0000

> <Gold.Chemscore.Hbonds>
donor molecule, donor type, donor heavy atom, donor atom, acceptor molecule, acceptor atom, score
      P1  H  6896  6907       L1     3  0.61
      P1  H  7989  7998       L1    13  0.75
      P1  H 10752 10765       L1    16  0.11

> <Gold.PLP.Chemscore.Internal.Correction>
0.0228

> <Gold.Rescore>
     Score         DG    S(hbond)    S(metal)    S(lipo)     H(rot)  DE(clash)    DE(int)     intcor
     11.84     -13.96       1.36        0.00      68.04       1.57       0.01       2.11       ----

> <Gold.Chemscore.Fitness>
11.8404

> <Gold.Chemscore.DG>
-13.9592

> <Gold.Chemscore.ZeroCoef>
-5.4800

> <Gold.Chemscore.Hbond>
1.3609

> <Gold.Chemscore.Metal>
0.0000

> <Gold.Chemscore.Lipo>
68.0439

> <Gold.Chemscore.Internal_Hbond>
0.0000

> <Gold.Chemscore.DEClash>
0.0089

> <Gold.Chemscore.DEInternal>
2.1098

> <Gold.Chemscore.Rot>
1.5732

> <Gold.Chemscore.Internal.Correction>
   9.000000E+99

> <Gold.Chemscore.Hbonds>
donor molecule, donor type, donor heavy atom, donor atom, acceptor molecule, acceptor atom, score
      P1  H  6896  6907       L1     3  0.08
      P1  H  7989  7998       L1    13  0.05
      P1  H 10752 10765       L1    16  0.03

> <Gold.Chemscore.Hbond.Weighted>
-4.5455

> <Gold.Chemscore.Metal.Weighted>
-0.0000

> <Gold.Chemscore.Lipo.Weighted>
-7.9611

> <Gold.Chemscore.Internal_Hbond.Weighted>
0.0000

> <Gold.Chemscore.DEClash.Weighted>
0.0089

> <Gold.Chemscore.DEInternal.Weighted>
2.1098

> <Gold.Chemscore.Rot.Weighted>
4.0274

> <Gold.Chemscore.Internal.Correction.Weighted>
   9.000000E+99

> <Gold.Protein.RotatedTorsions>
[ 6907 6896 6895 6894 ] final   66.07 input  -60.11 | X-H torsion
[ 7974 7965 7964 7962 ] final   80.33 input  175.53 | X-H torsion
[ 8008 7997 7996 7995 ] final  -72.85 input   59.86 | X-H torsion
[ 10167 10162 10161 10158 ] final  -57.35 input  -65.29 | X-H torsion
[ 10718 10713 10712 10709 ] final  -23.97 input   66.30 | X-H torsion
[ 10763 10752 10751 10750 ] final  167.58 input  -60.55 | X-H torsion
[ 11005 11000 10999 10996 ] final  -17.32 input  -57.11 | X-H torsion

> <Gold.Protein.ActiveResidues>
 VAL166  LYS551  ARG553  GLY616  TRP617  ASP618  TYR619  PRO620  LYS621  CYS622 
 ASP623  PHE694  ASN695  SER759  ASP760  ASP761  ALA762  ILE779  LEU786  VAL792 
 PHE793  MET794  SER795  GLU796  ALA797  LYS798  CYS799  TRP800  GLU811  SER814 

> <Gold.Protein.RotatedAtoms>
  152.4454  134.5506  159.9865 H   0  0  0  0  0  0  0  0  0  0  0  0  # atno 6907 bound_to 6896
  151.5592  133.3400  159.2976 H   0  0  0  0  0  0  0  0  0  0  0  0  # atno 6908 bound_to 6896
  150.8369  134.7678  159.6964 H   0  0  0  0  0  0  0  0  0  0  0  0  # atno 6909 bound_to 6896
  145.6526  139.2451  143.1968 H   0  0  0  0  0  0  0  0  0  0  0  0  # atno 7974 bound_to 7965
  154.5199  140.0790  156.8152 H   0  0  0  0  0  0  0  0  0  0  0  0  # atno 8008 bound_to 7997
  155.3598  140.3417  155.4222 H   0  0  0  0  0  0  0  0  0  0  0  0  # atno 8009 bound_to 7997
  156.1670  140.1607  156.8502 H   0  0  0  0  0  0  0  0  0  0  0  0  # atno 8010 bound_to 7997
  140.6263  143.2440  151.5354 H   0  0  0  0  0  0  0  0  0  0  0  0  # atno 10167 bound_to 10162
  156.4840  130.4551  149.6795 H   0  0  0  0  0  0  0  0  0  0  0  0  # atno 10718 bound_to 10713
  154.3559  135.2753  155.2347 H   0  0  0  0  0  0  0  0  0  0  0  0  # atno 10763 bound_to 10752
  154.4556  135.5920  153.6224 H   0  0  0  0  0  0  0  0  0  0  0  0  # atno 10764 bound_to 10752
  152.9846  135.6052  154.3774 H   0  0  0  0  0  0  0  0  0  0  0  0  # atno 10765 bound_to 10752
  140.8156  133.8107  155.9607 H   0  0  0  0  0  0  0  0  0  0  0  0  # atno 11005 bound_to 11000
  146.1191  140.7331  142.9466 LP  0  0  0  0  0  0  0  0  0  0  0  0  # atno 17320 bound_to 7965
  144.7117  140.4064  143.7075 LP  0  0  0  0  0  0  0  0  0  0  0  0  # atno 17321 bound_to 7965
  139.5483  144.2462  152.1484 LP  0  0  0  0  0  0  0  0  0  0  0  0  # atno 17342 bound_to 10162
  140.1695  144.4950  150.6587 LP  0  0  0  0  0  0  0  0  0  0  0  0  # atno 17343 bound_to 10162
  156.3493  130.7424  151.2381 LP  0  0  0  0  0  0  0  0  0  0  0  0  # atno 17370 bound_to 10713
  157.7480  131.0381  150.4489 LP  0  0  0  0  0  0  0  0  0  0  0  0  # atno 17371 bound_to 10713
  140.9152  134.2210  157.4961 LP  0  0  0  0  0  0  0  0  0  0  0  0  # atno 17394 bound_to 11000
  139.8711  134.9768  156.4935 LP  0  0  0  0  0  0  0  0  0  0  0  0  # atno 17395 bound_to 11000

$$$$
