AV-unprocessed.smi:2816|AV-procd|sdf|10843|dock6
  -GOLD-   2272015283D 1   1.00000     0.00000
 Structure written by MMmdl.
 43 45  0  0  0  0  0  0  0  0  1 V2000
  152.1419  131.5098  155.9510 C   0  0  0  0  0  0  0  0  0  0  0  0
  151.1082  130.4665  156.4096 C   0  0  0  0  0  0  0  0  0  0  0  0
  150.7190  129.5697  155.2203 C   0  0  0  0  0  0  0  0  0  0  0  0
  151.7067  129.6196  157.5479 C   0  0  0  0  0  0  0  0  0  0  0  0
  149.6066  131.3851  157.0161 S   0  0  0  0  0  0  0  0  0  0  0  0
  148.6098  130.4004  157.4659 O   0  0  0  0  0  0  0  0  0  0  0  0
  150.0636  132.4224  157.9545 O   0  0  0  0  0  0  0  0  0  0  0  0
  148.9276  132.2198  155.5804 C   0  0  0  0  0  0  0  0  0  0  0  0
  149.7883  132.8476  154.6575 C   0  0  0  0  0  0  0  0  0  0  0  0
  149.2172  133.4518  153.5222 C   0  0  0  0  0  0  0  0  0  0  0  0
  147.8138  133.3966  153.3469 C   0  0  0  0  0  0  0  0  0  0  0  0
  147.1493  133.9600  152.2479 N   0  0  0  0  0  0  0  0  0  0  0  0
  145.7081  133.8172  152.0733 C   0  0  1  0  0  0  0  0  0  0  0  0
  145.1709  134.4100  150.7653 C   0  0  0  0  0  0  0  0  0  0  0  0
  144.4032  133.2201  150.1728 C   0  0  1  0  0  0  0  0  0  0  0  0
  145.3574  132.1715  149.5883 C   0  0  0  0  0  0  0  0  0  0  0  0
  145.9506  131.5546  150.8531 C   0  0  0  0  0  0  0  0  0  0  0  0
  145.2433  132.3538  151.9620 C   0  0  2  0  0  0  0  0  0  0  0  0
  143.9795  132.5551  151.3516 O   0  0  0  0  0  0  0  0  0  0  0  0
  147.0531  132.7345  154.3350 C   0  0  0  0  0  0  0  0  0  0  0  0
  147.5881  132.1498  155.4271 N   0  0  0  0  0  0  0  0  0  0  0  0
  153.0522  131.0342  155.5843 H   0  0  0  0  0  0  0  0  0  0  0  0
  152.4233  132.1737  156.7689 H   0  0  0  0  0  0  0  0  0  0  0  0
  151.7484  132.1307  155.1456 H   0  0  0  0  0  0  0  0  0  0  0  0
  150.2676  130.1493  154.4146 H   0  0  0  0  0  0  0  0  0  0  0  0
  150.0050  128.8004  155.5140 H   0  0  0  0  0  0  0  0  0  0  0  0
  151.5913  129.0609  154.8090 H   0  0  0  0  0  0  0  0  0  0  0  0
  152.6336  129.1391  157.2332 H   0  0  0  0  0  0  0  0  0  0  0  0
  151.0282  128.8280  157.8634 H   0  0  0  0  0  0  0  0  0  0  0  0
  151.9359  130.2300  158.4218 H   0  0  0  0  0  0  0  0  0  0  0  0
  150.8572  132.8649  154.8096 H   0  0  0  0  0  0  0  0  0  0  0  0
  149.8607  133.9410  152.8069 H   0  0  0  0  0  0  0  0  0  0  0  0
  147.6334  134.6370  151.6755 H   0  0  0  0  0  0  0  0  0  0  0  0
  145.1951  134.2727  152.9213 H   0  0  0  0  0  0  0  0  0  0  0  0
  144.4984  135.2421  150.9764 H   0  0  0  0  0  0  0  0  0  0  0  0
  145.9500  134.7679  150.0904 H   0  0  0  0  0  0  0  0  0  0  0  0
  143.5947  133.5056  149.4996 H   0  0  0  0  0  0  0  0  0  0  0  0
  144.8089  131.4212  149.0178 H   0  0  0  0  0  0  0  0  0  0  0  0
  146.1126  132.6125  148.9368 H   0  0  0  0  0  0  0  0  0  0  0  0
  145.6864  130.4983  150.9162 H   0  0  0  0  0  0  0  0  0  0  0  0
  147.0372  131.6302  150.8940 H   0  0  0  0  0  0  0  0  0  0  0  0
  145.1982  131.8332  152.9189 H   0  0  0  0  0  0  0  0  0  0  0  0
  145.9789  132.6644  154.2432 H   0  0  0  0  0  0  0  0  0  0  0  0
  1  2  1  0  0  0  0
  1 22  1  0  0  0  0
  1 23  1  0  0  0  0
  1 24  1  0  0  0  0
  2  3  1  0  0  0  0
  2  4  1  0  0  0  0
  2  5  1  0  0  0  0
  3 25  1  0  0  0  0
  3 26  1  0  0  0  0
  3 27  1  0  0  0  0
  4 28  1  0  0  0  0
  4 29  1  0  0  0  0
  4 30  1  0  0  0  0
  5  6  2  0  0  0  0
  5  7  2  0  0  0  0
  5  8  1  0  0  0  0
  8 21  1  0  0  0  0
  8  9  2  0  0  0  0
  9 10  1  0  0  0  0
  9 31  1  0  0  0  0
 10 11  2  0  0  0  0
 10 32  1  0  0  0  0
 11 12  1  0  0  0  0
 11 20  1  0  0  0  0
 12 13  1  0  0  0  0
 12 33  1  0  0  0  0
 13 18  1  0  0  0  0
 13 14  1  0  0  0  0
 13 34  1  0  0  0  0
 14 15  1  0  0  0  0
 14 35  1  0  0  0  0
 14 36  1  0  0  0  0
 15 19  1  0  0  0  0
 15 16  1  0  0  0  0
 15 37  1  0  0  0  0
 16 17  1  0  0  0  0
 16 38  1  0  0  0  0
 16 39  1  0  0  0  0
 17 18  1  0  0  0  0
 17 40  1  0  0  0  0
 17 41  1  0  0  0  0
 18 19  1  0  0  0  0
 18 42  1  0  0  0  0
 20 21  2  0  0  0  0
 20 43  1  0  0  0  0
M  END
> <s_m_source_file>
AV-unprocessed.smi

> <i_m_source_file_index>
2816

> <i_lp_mmshare_version>
43012

> <i_f3d_flags>
0

> <s_epik_input>
W0NIM11DKFtDSDNdKShbQ0gzXSlTKD1PKSg9TyljMVtjSF1bY0hdYyhbY0hdbjEpW05IXVtDQEhdKFtDSDJdW0NAQEhdMjMpW0NAQEhdKE8zKVtDSDJdW0NIMl0y

> <s_epik_cmdline>
J2VwaWtfcHl0aG9uJywgJy1waCcsICc3LjAnLCAnLXRuJywgJzgnLCAnLW1hJywgJzIwMCcsICctbWV0YWxfYmluZGluZycsICctaW1hZScsICc8aW5maWxlLm1hZT4nLCAnLW9tYWUnLCAnPG91dGZpbGUubWFlPic=

> <r_lp_tautomer_probability>
1

> <r_epik_Ionization_Penalty>
1.94439e-07

> <r_epik_Ionization_Penalty_Charging>
0

> <r_epik_Ionization_Penalty_Neutral>
1.94439e-07

> <r_epik_State_Penalty>
-0

> <r_epik_Charging_Adjusted_Penalty>
0

> <i_epik_Tot_Q>
0

> <i_epik_Tot_abs_Q>
0

> <r_epik_Metal_State_Penalty>
-0

> <b_epik_Metal_Only>
0

> <s_lp_Force_Field>
OPLS_2005

> <r_lp_Energy>
43.8741

> <b_lp_Chiralities_Consistent>
1

> <s_lp_Variant>
AV-unprocessed.smi:2816-2

> <Gold.Version>
5.8.1

> <Gold.Id.Protein>
6NUR|6NUR_protein|mol2

> <Gold.PLP.Fitness>
35.4920

> <Gold.PLP.PLP>
-30.4516

> <Gold.PLP.part.hbond>
-2.0000

> <Gold.PLP.part.metal>
0.0000

> <Gold.PLP.part.buried>
-3.9882

> <Gold.PLP.part.nonpolar>
-24.7266

> <Gold.PLP.part.repulsive>
0.2096

> <Gold.PLP.ligand.clash>
0.0000

> <Gold.PLP.ligand.torsion>
1.3404

> <Gold.PLP.Chemscore.Hbond>
1.8320

> <Gold.PLP.Chemscore.CHOScore>
0.0000

> <Gold.PLP.Chemscore.Metal>
0.0000

> <Gold.Chemscore.Hbonds>
donor molecule, donor type, donor heavy atom, donor atom, acceptor molecule, acceptor atom, score
      L1  H    12    33       P1  7948  0.83
      P1  H  6896  6907       L1     7  1.00

> <Gold.PLP.Chemscore.Internal.Correction>
2.2251

> <Gold.Rescore>
     Score         DG    S(hbond)    S(metal)    S(lipo)     H(rot)  DE(clash)    DE(int)     intcor
     15.54     -17.98       1.81        0.00      80.12       1.15       0.05       2.39       ----

> <Gold.Chemscore.Fitness>
15.5433

> <Gold.Chemscore.DG>
-17.9771

> <Gold.Chemscore.ZeroCoef>
-5.4800

> <Gold.Chemscore.Hbond>
1.8142

> <Gold.Chemscore.Metal>
0.0000

> <Gold.Chemscore.Lipo>
80.1206

> <Gold.Chemscore.Internal_Hbond>
0.0000

> <Gold.Chemscore.DEClash>
0.0465

> <Gold.Chemscore.DEInternal>
2.3873

> <Gold.Chemscore.Rot>
1.1471

> <Gold.Chemscore.Internal.Correction>
   9.000000E+99

> <Gold.Chemscore.Hbonds>
donor molecule, donor type, donor heavy atom, donor atom, acceptor molecule, acceptor atom, score
      L1  H    12    33       P1  7948  0.24
      P1  H  6896  6907       L1     7  0.99

> <Gold.Chemscore.Hbond.Weighted>
-6.0596

> <Gold.Chemscore.Metal.Weighted>
-0.0000

> <Gold.Chemscore.Lipo.Weighted>
-9.3741

> <Gold.Chemscore.Internal_Hbond.Weighted>
0.0000

> <Gold.Chemscore.DEClash.Weighted>
0.0465

> <Gold.Chemscore.DEInternal.Weighted>
2.3873

> <Gold.Chemscore.Rot.Weighted>
2.9366

> <Gold.Chemscore.Internal.Correction.Weighted>
   9.000000E+99

> <Gold.Protein.RotatedTorsions>
[ 6907 6896 6895 6894 ] final -135.21 input  -60.11 | X-H torsion
[ 7974 7965 7964 7962 ] final   97.92 input  175.53 | X-H torsion
[ 8008 7997 7996 7995 ] final  132.53 input   59.86 | X-H torsion
[ 10167 10162 10161 10158 ] final   38.28 input  -65.29 | X-H torsion
[ 10718 10713 10712 10709 ] final  -72.44 input   66.30 | X-H torsion
[ 10763 10752 10751 10750 ] final    5.61 input  -60.55 | X-H torsion
[ 11005 11000 10999 10996 ] final -117.30 input  -57.11 | X-H torsion

> <Gold.Protein.ActiveResidues>
 VAL166  LYS551  ARG553  GLY616  TRP617  ASP618  TYR619  PRO620  LYS621  CYS622 
 ASP623  PHE694  ASN695  SER759  ASP760  ASP761  ALA762  ILE779  LEU786  VAL792 
 PHE793  MET794  SER795  GLU796  ALA797  LYS798  CYS799  TRP800  GLU811  SER814 

> <Gold.Protein.RotatedAtoms>
  150.9951  133.6111  159.2702 H   0  0  0  0  0  0  0  0  0  0  0  0  # atno 6907 bound_to 6896
  151.3317  135.0842  159.9351 H   0  0  0  0  0  0  0  0  0  0  0  0  # atno 6908 bound_to 6896
  152.5257  133.9579  159.7757 H   0  0  0  0  0  0  0  0  0  0  0  0  # atno 6909 bound_to 6896
  145.4190  139.2324  143.3206 H   0  0  0  0  0  0  0  0  0  0  0  0  # atno 7974 bound_to 7965
  156.2983  140.2544  156.3105 H   0  0  0  0  0  0  0  0  0  0  0  0  # atno 8008 bound_to 7997
  154.9331  140.0398  157.2077 H   0  0  0  0  0  0  0  0  0  0  0  0  # atno 8009 bound_to 7997
  154.8199  140.2858  155.5798 H   0  0  0  0  0  0  0  0  0  0  0  0  # atno 8010 bound_to 7997
  140.3952  144.1798  150.6132 H   0  0  0  0  0  0  0  0  0  0  0  0  # atno 10167 bound_to 10162
  156.0320  130.4372  150.2592 H   0  0  0  0  0  0  0  0  0  0  0  0  # atno 10718 bound_to 10713
  153.2573  135.6919  153.7615 H   0  0  0  0  0  0  0  0  0  0  0  0  # atno 10763 bound_to 10752
  153.6687  135.3348  155.3148 H   0  0  0  0  0  0  0  0  0  0  0  0  # atno 10764 bound_to 10752
  154.8417  135.4494  154.1551 H   0  0  0  0  0  0  0  0  0  0  0  0  # atno 10765 bound_to 10752
  141.0364  133.9903  157.3064 H   0  0  0  0  0  0  0  0  0  0  0  0  # atno 11005 bound_to 11000
  146.2666  140.4912  142.8831 LP  0  0  0  0  0  0  0  0  0  0  0  0  # atno 17320 bound_to 7965
  144.8258  140.6625  143.6323 LP  0  0  0  0  0  0  0  0  0  0  0  0  # atno 17321 bound_to 7965
  140.4798  143.2383  151.8972 LP  0  0  0  0  0  0  0  0  0  0  0  0  # atno 17342 bound_to 10162
  139.4787  144.5282  151.8705 LP  0  0  0  0  0  0  0  0  0  0  0  0  # atno 17343 bound_to 10162
  157.0694  131.0112  151.3195 LP  0  0  0  0  0  0  0  0  0  0  0  0  # atno 17370 bound_to 10713
  157.5011  130.7880  149.7605 LP  0  0  0  0  0  0  0  0  0  0  0  0  # atno 17371 bound_to 10713
  139.9243  135.0201  156.8179 LP  0  0  0  0  0  0  0  0  0  0  0  0  # atno 17394 bound_to 11000
  140.6315  133.9901  155.7664 LP  0  0  0  0  0  0  0  0  0  0  0  0  # atno 17395 bound_to 11000

$$$$
