AV-unprocessed.smi:2881|AV-procd|sdf|11055|dock2
  -GOLD-   2272015523D 1   1.00000     0.00000
 Structure written by MMmdl.
 40 42  0  0  0  0  0  0  0  0  1 V2000
  151.7107  145.6653  159.9135 C   0  0  0  0  0  0  0  0  0  0  0  0
  152.2031  144.3882  160.5043 C   0  0  0  0  0  0  0  0  0  0  0  0
  152.8496  143.3225  159.9447 C   0  0  0  0  0  0  0  0  0  0  0  0
  153.0488  142.4188  161.0315 C   0  0  0  0  0  0  0  0  0  0  0  0
  153.7073  141.0653  161.0059 C   0  0  0  0  0  0  0  0  0  0  0  0
  153.4162  140.3584  159.6818 C   0  0  0  0  0  0  0  0  0  0  0  0
  154.3347  139.8428  159.0450 O   0  0  0  0  0  0  0  0  0  0  0  0
  152.1348  140.3419  159.2829 N   0  0  0  0  0  0  0  0  0  0  0  0
  151.6330  139.6976  158.0716 C   0  0  2  0  0  0  0  0  0  0  0  0
  151.3842  140.7469  156.9655 C   0  0  1  0  0  0  0  0  0  0  0  0
  151.2373  140.0195  155.6169 C   0  0  0  0  0  0  0  0  0  0  0  0
  149.8581  139.3468  155.7502 C   0  0  0  0  0  0  0  0  0  0  0  0
  149.4000  139.7731  157.1620 C   0  0  2  0  0  0  0  0  0  0  0  0
  149.9489  141.1923  157.2320 C   0  0  0  0  0  0  0  0  0  0  0  0
  150.2250  139.0777  158.2716 C   0  0  1  0  0  0  0  0  0  0  0  0
  150.1825  137.5375  158.2431 C   0  0  0  0  0  0  0  0  0  0  0  0
  150.9621  137.0083  159.2936 O   0  0  0  0  0  0  0  0  0  0  0  0
  152.5579  142.8867  162.1708 N   0  0  0  0  0  0  0  0  0  0  0  0
  152.0484  144.0867  161.8375 N   0  0  0  0  0  0  0  0  0  0  0  0
  151.6018  144.6807  162.5216 H   0  0  0  0  0  0  0  0  0  0  0  0
  152.0973  145.8013  158.9034 H   0  0  0  0  0  0  0  0  0  0  0  0
  152.0275  146.5191  160.5130 H   0  0  0  0  0  0  0  0  0  0  0  0
  150.6216  145.6727  159.8616 H   0  0  0  0  0  0  0  0  0  0  0  0
  153.1407  143.2036  158.9115 H   0  0  0  0  0  0  0  0  0  0  0  0
  154.7879  141.1523  161.1293 H   0  0  0  0  0  0  0  0  0  0  0  0
  153.3511  140.4563  161.8379 H   0  0  0  0  0  0  0  0  0  0  0  0
  151.4513  140.7964  159.8708 H   0  0  0  0  0  0  0  0  0  0  0  0
  152.3557  138.9576  157.7219 H   0  0  0  0  0  0  0  0  0  0  0  0
  152.1214  141.5507  156.9405 H   0  0  0  0  0  0  0  0  0  0  0  0
  151.2377  140.7302  154.7895 H   0  0  0  0  0  0  0  0  0  0  0  0
  152.0379  139.3005  155.4392 H   0  0  0  0  0  0  0  0  0  0  0  0
  149.1750  139.7380  154.9950 H   0  0  0  0  0  0  0  0  0  0  0  0
  149.9009  138.2665  155.6173 H   0  0  0  0  0  0  0  0  0  0  0  0
  148.3226  139.6963  157.3109 H   0  0  0  0  0  0  0  0  0  0  0  0
  149.8135  141.6639  158.2068 H   0  0  0  0  0  0  0  0  0  0  0  0
  149.5492  141.8516  156.4592 H   0  0  0  0  0  0  0  0  0  0  0  0
  149.8094  139.4065  159.2266 H   0  0  0  0  0  0  0  0  0  0  0  0
  149.1586  137.1843  158.3660 H   0  0  0  0  0  0  0  0  0  0  0  0
  150.5534  137.1427  157.2973 H   0  0  0  0  0  0  0  0  0  0  0  0
  151.0888  137.6815  159.9446 H   0  0  0  0  0  0  0  0  0  0  0  0
  1  2  1  0  0  0  0
  1 21  1  0  0  0  0
  1 22  1  0  0  0  0
  1 23  1  0  0  0  0
  2 19  1  0  0  0  0
  2  3  2  0  0  0  0
  3  4  1  0  0  0  0
  3 24  1  0  0  0  0
  4  5  1  0  0  0  0
  4 18  2  0  0  0  0
  5  6  1  0  0  0  0
  5 25  1  0  0  0  0
  5 26  1  0  0  0  0
  6  7  2  0  0  0  0
  6  8  1  0  0  0  0
  8  9  1  0  0  0  0
  8 27  1  0  0  0  0
  9 15  1  0  0  0  0
  9 10  1  0  0  0  0
  9 28  1  0  0  0  0
 10 14  1  0  0  0  0
 10 11  1  0  0  0  0
 10 29  1  0  0  0  0
 11 12  1  0  0  0  0
 11 30  1  0  0  0  0
 11 31  1  0  0  0  0
 12 13  1  0  0  0  0
 12 32  1  0  0  0  0
 12 33  1  0  0  0  0
 13 14  1  0  0  0  0
 13 15  1  0  0  0  0
 13 34  1  0  0  0  0
 14 35  1  0  0  0  0
 14 36  1  0  0  0  0
 15 16  1  0  0  0  0
 15 37  1  0  0  0  0
 16 17  1  0  0  0  0
 16 38  1  0  0  0  0
 16 39  1  0  0  0  0
 17 40  1  0  0  0  0
 18 19  1  0  0  0  0
 19 20  1  0  0  0  0
M  END
> <s_m_source_file>
AV-unprocessed.smi

> <i_m_source_file_index>
2881

> <i_lp_mmshare_version>
43012

> <i_f3d_flags>
0

> <s_epik_input>
W0NIM11jMVtjSF1jKG5bbkhdMSlbQ0gyXUMoPU8pW05IXVtDQEhdKFtDQEBIXTIzKVtDQEhdKFtDSDJdW09IXSlbQ0BASF0oW0NIMl0zKVtDSDJdW0NIMl0y

> <s_epik_cmdline>
J2VwaWtfcHl0aG9uJywgJy1waCcsICc3LjAnLCAnLXRuJywgJzgnLCAnLW1hJywgJzIwMCcsICctbWV0YWxfYmluZGluZycsICctaW1hZScsICc8aW5maWxlLm1hZT4nLCAnLW9tYWUnLCAnPG91dGZpbGUubWFlPic=

> <r_lp_tautomer_probability>
0.5

> <r_epik_Ionization_Penalty>
9.4349e-05

> <r_epik_Ionization_Penalty_Charging>
0

> <r_epik_Ionization_Penalty_Neutral>
9.4349e-05

> <r_epik_State_Penalty>
0.41068

> <r_epik_Charging_Adjusted_Penalty>
0.41068

> <i_epik_Tot_Q>
0

> <i_epik_Tot_abs_Q>
0

> <r_epik_Metal_State_Penalty>
0.4107

> <b_epik_Metal_Only>
0

> <s_lp_Force_Field>
OPLS_2005

> <r_lp_Energy>
47.7549

> <b_lp_Chiralities_Consistent>
1

> <s_lp_Variant>
AV-unprocessed.smi:2881-1

> <Gold.Version>
5.8.1

> <Gold.Id.Protein>
6NUR|6NUR_protein|mol2

> <Gold.PLP.Fitness>
43.9779

> <Gold.PLP.PLP>
-39.4815

> <Gold.PLP.part.hbond>
-3.1011

> <Gold.PLP.part.metal>
0.0000

> <Gold.PLP.part.buried>
-6.4570

> <Gold.PLP.part.nonpolar>
-30.0405

> <Gold.PLP.part.repulsive>
0.3437

> <Gold.PLP.ligand.clash>
0.0000

> <Gold.PLP.ligand.torsion>
0.7704

> <Gold.PLP.Chemscore.Hbond>
2.0000

> <Gold.PLP.Chemscore.CHOScore>
0.0000

> <Gold.PLP.Chemscore.Metal>
0.0000

> <Gold.Chemscore.Hbonds>
donor molecule, donor type, donor heavy atom, donor atom, acceptor molecule, acceptor atom, score
      P1  H  6896  6908       L1    17  0.99
      P1  H  7997  8009       L1     7  1.00

> <Gold.PLP.Chemscore.Internal.Correction>
0.0371

> <Gold.Rescore>
     Score         DG    S(hbond)    S(metal)    S(lipo)     H(rot)  DE(clash)    DE(int)     intcor
     16.35     -16.98       1.98        0.00      91.44       2.28       0.00       0.63       ----

> <Gold.Chemscore.Fitness>
16.3467

> <Gold.Chemscore.DG>
-16.9760

> <Gold.Chemscore.ZeroCoef>
-5.4800

> <Gold.Chemscore.Hbond>
1.9828

> <Gold.Chemscore.Metal>
0.0000

> <Gold.Chemscore.Lipo>
91.4409

> <Gold.Chemscore.Internal_Hbond>
0.0000

> <Gold.Chemscore.DEClash>
0.0028

> <Gold.Chemscore.DEInternal>
0.6265

> <Gold.Chemscore.Rot>
2.2755

> <Gold.Chemscore.Internal.Correction>
   9.000000E+99

> <Gold.Chemscore.Hbonds>
donor molecule, donor type, donor heavy atom, donor atom, acceptor molecule, acceptor atom, score
      P1  H  6896  6908       L1    17  0.88
      P1  H  7997  8009       L1     7  0.99

> <Gold.Chemscore.Hbond.Weighted>
-6.6227

> <Gold.Chemscore.Metal.Weighted>
-0.0000

> <Gold.Chemscore.Lipo.Weighted>
-10.6986

> <Gold.Chemscore.Internal_Hbond.Weighted>
0.0000

> <Gold.Chemscore.DEClash.Weighted>
0.0028

> <Gold.Chemscore.DEInternal.Weighted>
0.6265

> <Gold.Chemscore.Rot.Weighted>
5.8252

> <Gold.Chemscore.Internal.Correction.Weighted>
   9.000000E+99

> <Gold.Protein.RotatedTorsions>
[ 6907 6896 6895 6894 ] final -153.97 input  -60.11 | X-H torsion
[ 7974 7965 7964 7962 ] final  142.20 input  175.53 | X-H torsion
[ 8008 7997 7996 7995 ] final  124.08 input   59.86 | X-H torsion
[ 10167 10162 10161 10158 ] final  -57.56 input  -65.29 | X-H torsion
[ 10718 10713 10712 10709 ] final  140.18 input   66.30 | X-H torsion
[ 10763 10752 10751 10750 ] final   47.04 input  -60.55 | X-H torsion
[ 11005 11000 10999 10996 ] final -158.50 input  -57.11 | X-H torsion

> <Gold.Protein.ActiveResidues>
 VAL166  LYS551  ARG553  GLY616  TRP617  ASP618  TYR619  PRO620  LYS621  CYS622 
 ASP623  PHE694  ASN695  SER759  ASP760  ASP761  ALA762  ILE779  LEU786  VAL792 
 PHE793  MET794  SER795  GLU796  ALA797  LYS798  CYS799  TRP800  GLU811  SER814 

> <Gold.Protein.RotatedAtoms>
  151.2504  133.4353  159.2610 H   0  0  0  0  0  0  0  0  0  0  0  0  # atno 6907 bound_to 6896
  151.0622  134.9744  159.8276 H   0  0  0  0  0  0  0  0  0  0  0  0  # atno 6908 bound_to 6896
  152.5400  134.2454  159.8931 H   0  0  0  0  0  0  0  0  0  0  0  0  # atno 6909 bound_to 6896
  144.9029  139.5398  143.5745 H   0  0  0  0  0  0  0  0  0  0  0  0  # atno 7974 bound_to 7965
  156.2789  140.2748  156.1731 H   0  0  0  0  0  0  0  0  0  0  0  0  # atno 8008 bound_to 7997
  155.0634  140.0386  157.2602 H   0  0  0  0  0  0  0  0  0  0  0  0  # atno 8009 bound_to 7997
  154.7099  140.2666  155.6645 H   0  0  0  0  0  0  0  0  0  0  0  0  # atno 8010 bound_to 7997
  140.6251  143.2435  151.5384 H   0  0  0  0  0  0  0  0  0  0  0  0  # atno 10167 bound_to 10162
  157.4061  131.1022  151.0502 H   0  0  0  0  0  0  0  0  0  0  0  0  # atno 10718 bound_to 10713
  152.9804  135.5989  154.3698 H   0  0  0  0  0  0  0  0  0  0  0  0  # atno 10763 bound_to 10752
  154.3372  135.2768  155.2443 H   0  0  0  0  0  0  0  0  0  0  0  0  # atno 10764 bound_to 10752
  154.4541  135.5982  153.6266 H   0  0  0  0  0  0  0  0  0  0  0  0  # atno 10765 bound_to 10752
  140.6529  134.4431  157.5235 H   0  0  0  0  0  0  0  0  0  0  0  0  # atno 11005 bound_to 11000
  146.3118  139.7774  142.9014 LP  0  0  0  0  0  0  0  0  0  0  0  0  # atno 17320 bound_to 7965
  145.3585  141.0321  143.3298 LP  0  0  0  0  0  0  0  0  0  0  0  0  # atno 17321 bound_to 7965
  139.5472  144.2489  152.1465 LP  0  0  0  0  0  0  0  0  0  0  0  0  # atno 17342 bound_to 10162
  140.1718  144.4928  150.6575 LP  0  0  0  0  0  0  0  0  0  0  0  0  # atno 17343 bound_to 10162
  157.1484  130.6173  149.5575 LP  0  0  0  0  0  0  0  0  0  0  0  0  # atno 17370 bound_to 10713
  155.9837  130.4857  150.6945 LP  0  0  0  0  0  0  0  0  0  0  0  0  # atno 17371 bound_to 10713
  139.9039  134.8492  156.1782 LP  0  0  0  0  0  0  0  0  0  0  0  0  # atno 17394 bound_to 11000
  141.0523  133.6882  156.1795 LP  0  0  0  0  0  0  0  0  0  0  0  0  # atno 17395 bound_to 11000

$$$$
