AV-unprocessed.smi:3348|AV-procd|sdf|12929|dock2
  -GOLD-   2272019353D 1   1.00000     0.00000
 Structure written by MMmdl.
 46 47  0  0  0  0  0  0  0  0  1 V2000
  147.2797  139.3191  155.5364 C   0  0  0  0  0  0  0  0  0  0  0  0
  148.2189  140.5110  155.3053 C   0  0  2  0  0  0  0  0  0  0  0  0
  149.1322  140.2322  154.0865 C   0  0  0  0  0  0  0  0  0  0  0  0
  150.2792  139.3918  154.3783 N   0  0  0  0  0  0  0  0  0  0  0  0
  150.3723  138.0168  154.3077 C   0  0  0  0  0  0  0  0  0  0  0  0
  151.6437  137.6772  154.6721 C   0  0  0  0  0  0  0  0  0  0  0  0
  152.2631  138.9293  154.9442 C   0  0  0  0  0  0  0  0  0  0  0  0
  151.4451  139.9541  154.7645 N   0  0  0  0  0  0  0  0  0  0  0  0
  148.9940  140.7503  156.5266 N   0  0  0  0  0  0  0  0  0  0  0  0
  150.0314  141.7761  156.4167 C   0  0  0  0  0  0  0  0  0  0  0  0
  150.5063  142.2251  157.8006 C   0  0  0  0  0  0  0  0  0  0  0  0
  151.8929  142.5161  157.7069 O   0  0  0  0  0  0  0  0  0  0  0  0
  152.4441  143.1791  158.8368 C   0  0  1  0  0  0  0  0  0  0  0  0
  151.5656  144.3928  159.2079 C   0  0  0  0  0  0  0  0  0  0  0  0
  152.0367  145.0543  160.5115 C   0  0  0  0  0  0  0  0  0  0  0  0
  152.0787  144.0382  161.6612 C   0  0  0  0  0  0  0  0  0  0  0  0
  152.9617  142.8342  161.3001 C   0  0  0  0  0  0  0  0  0  0  0  0
  152.4989  142.1563  159.9947 C   0  0  2  0  0  0  0  0  0  0  0  0
  153.4020  140.9588  159.6551 C   0  0  0  0  0  0  0  0  0  0  0  0
  146.6567  139.1352  154.6606 H   0  0  0  0  0  0  0  0  0  0  0  0
  146.6119  139.5019  156.3788 H   0  0  0  0  0  0  0  0  0  0  0  0
  147.8380  138.4056  155.7450 H   0  0  0  0  0  0  0  0  0  0  0  0
  147.5908  141.3776  155.0940 H   0  0  0  0  0  0  0  0  0  0  0  0
  148.5579  139.7672  153.2837 H   0  0  0  0  0  0  0  0  0  0  0  0
  149.5096  141.1732  153.6837 H   0  0  0  0  0  0  0  0  0  0  0  0
  149.5334  137.4020  154.0162 H   0  0  0  0  0  0  0  0  0  0  0  0
  152.0659  136.6853  154.7354 H   0  0  0  0  0  0  0  0  0  0  0  0
  153.2763  139.1224  155.2646 H   0  0  0  0  0  0  0  0  0  0  0  0
  148.3673  140.9917  157.2876 H   0  0  0  0  0  0  0  0  0  0  0  0
  150.8869  141.4355  155.8385 H   0  0  0  0  0  0  0  0  0  0  0  0
  149.6260  142.6340  155.8796 H   0  0  0  0  0  0  0  0  0  0  0  0
  149.9673  143.1286  158.0891 H   0  0  0  0  0  0  0  0  0  0  0  0
  150.2977  141.4632  158.5520 H   0  0  0  0  0  0  0  0  0  0  0  0
  153.4608  143.5130  158.6196 H   0  0  0  0  0  0  0  0  0  0  0  0
  151.5753  145.1329  158.4084 H   0  0  0  0  0  0  0  0  0  0  0  0
  150.5287  144.0723  159.3184 H   0  0  0  0  0  0  0  0  0  0  0  0
  153.0284  145.4846  160.3660 H   0  0  0  0  0  0  0  0  0  0  0  0
  151.3747  145.8815  160.7695 H   0  0  0  0  0  0  0  0  0  0  0  0
  152.4532  144.5165  162.5666 H   0  0  0  0  0  0  0  0  0  0  0  0
  151.0675  143.6966  161.8867 H   0  0  0  0  0  0  0  0  0  0  0  0
  153.9971  143.1628  161.1973 H   0  0  0  0  0  0  0  0  0  0  0  0
  152.9469  142.1145  162.1193 H   0  0  0  0  0  0  0  0  0  0  0  0
  151.4898  141.7736  160.1566 H   0  0  0  0  0  0  0  0  0  0  0  0
  154.4264  141.2777  159.4605 H   0  0  0  0  0  0  0  0  0  0  0  0
  153.0458  140.4298  158.7710 H   0  0  0  0  0  0  0  0  0  0  0  0
  153.4270  140.2408  160.4752 H   0  0  0  0  0  0  0  0  0  0  0  0
  1  2  1  0  0  0  0
  1 20  1  0  0  0  0
  1 21  1  0  0  0  0
  1 22  1  0  0  0  0
  2  3  1  0  0  0  0
  2  9  1  0  0  0  0
  2 23  1  0  0  0  0
  3  4  1  0  0  0  0
  3 24  1  0  0  0  0
  3 25  1  0  0  0  0
  4  8  1  0  0  0  0
  4  5  1  0  0  0  0
  5  6  2  0  0  0  0
  5 26  1  0  0  0  0
  6  7  1  0  0  0  0
  6 27  1  0  0  0  0
  7  8  2  0  0  0  0
  7 28  1  0  0  0  0
  9 10  1  0  0  0  0
  9 29  1  0  0  0  0
 10 11  1  0  0  0  0
 10 30  1  0  0  0  0
 10 31  1  0  0  0  0
 11 12  1  0  0  0  0
 11 32  1  0  0  0  0
 11 33  1  0  0  0  0
 12 13  1  0  0  0  0
 13 18  1  0  0  0  0
 13 14  1  0  0  0  0
 13 34  1  0  0  0  0
 14 15  1  0  0  0  0
 14 35  1  0  0  0  0
 14 36  1  0  0  0  0
 15 16  1  0  0  0  0
 15 37  1  0  0  0  0
 15 38  1  0  0  0  0
 16 17  1  0  0  0  0
 16 39  1  0  0  0  0
 16 40  1  0  0  0  0
 17 18  1  0  0  0  0
 17 41  1  0  0  0  0
 17 42  1  0  0  0  0
 18 19  1  0  0  0  0
 18 43  1  0  0  0  0
 19 44  1  0  0  0  0
 19 45  1  0  0  0  0
 19 46  1  0  0  0  0
M  END
> <s_m_source_file>
AV-unprocessed.smi

> <i_m_source_file_index>
3348

> <i_lp_mmshare_version>
43012

> <i_f3d_flags>
0

> <s_epik_input>
bjFbY0hdW2NIXVtjSF1uMVtDSDJdW0NAQEhdKFtDSDNdKVtOSF1bQ0gyXVtDSDJdT1tDQEBIXTJbQ0gyXVtDSDJdW0NIMl1bQ0gyXVtDQEhdMltDSDNd

> <s_epik_cmdline>
J2VwaWtfcHl0aG9uJywgJy1waCcsICc3LjAnLCAnLXRuJywgJzgnLCAnLW1hJywgJzIwMCcsICctbWV0YWxfYmluZGluZycsICctaW1hZScsICc8aW5maWxlLm1hZT4nLCAnLW9tYWUnLCAnPG91dGZpbGUubWFlPic=

> <r_lp_tautomer_probability>
1

> <r_epik_Ionization_Penalty>
2.46945

> <r_epik_Ionization_Penalty_Charging>
0

> <r_epik_Ionization_Penalty_Neutral>
2.46945

> <r_epik_State_Penalty>
2.6322

> <r_epik_Charging_Adjusted_Penalty>
2.6322

> <i_epik_Tot_Q>
0

> <i_epik_Tot_abs_Q>
0

> <r_epik_Metal_State_Penalty>
2.63217

> <b_epik_Metal_Only>
0

> <s_lp_Force_Field>
OPLS_2005

> <r_lp_Energy>
18.1963

> <b_lp_Chiralities_Consistent>
1

> <s_lp_Variant>
AV-unprocessed.smi:3348-15

> <Gold.Version>
5.8.1

> <Gold.Id.Protein>
6NUR|6NUR_protein|mol2

> <Gold.PLP.Fitness>
47.9774

> <Gold.PLP.PLP>
-43.9923

> <Gold.PLP.part.hbond>
-1.0000

> <Gold.PLP.part.metal>
0.0000

> <Gold.PLP.part.buried>
-1.2268

> <Gold.PLP.part.nonpolar>
-41.0463

> <Gold.PLP.part.repulsive>
0.1057

> <Gold.PLP.ligand.clash>
0.0000

> <Gold.PLP.ligand.torsion>
0.9706

> <Gold.PLP.Chemscore.Hbond>
0.9500

> <Gold.PLP.Chemscore.CHOScore>
0.9702

> <Gold.PLP.Chemscore.Metal>
0.0000

> <Gold.Chemscore.Hbonds>
donor molecule, donor type, donor heavy atom, donor atom, acceptor molecule, acceptor atom, score
      P1  H  7989  7998       L1     8  0.85
      L1  C     5    26       P1  7948  1.00

> <Gold.PLP.Chemscore.Internal.Correction>
0.1657

> <Gold.Rescore>
     Score         DG    S(hbond)    S(metal)    S(lipo)     H(rot)  DE(clash)    DE(int)     intcor
     15.78     -18.18       0.74        0.00     125.00       1.72       0.19       2.21       ----

> <Gold.Chemscore.Fitness>
15.7764

> <Gold.Chemscore.DG>
-18.1774

> <Gold.Chemscore.ZeroCoef>
-5.4800

> <Gold.Chemscore.Hbond>
0.7440

> <Gold.Chemscore.Metal>
0.0000

> <Gold.Chemscore.Lipo>
124.9995

> <Gold.Chemscore.Internal_Hbond>
0.0000

> <Gold.Chemscore.DEClash>
0.1917

> <Gold.Chemscore.DEInternal>
2.2093

> <Gold.Chemscore.Rot>
1.7237

> <Gold.Chemscore.Internal.Correction>
   9.000000E+99

> <Gold.Chemscore.Hbonds>
donor molecule, donor type, donor heavy atom, donor atom, acceptor molecule, acceptor atom, score
      P1  H  7989  7998       L1     8  0.14

> <Gold.Chemscore.Hbond.Weighted>
-2.4850

> <Gold.Chemscore.Metal.Weighted>
-0.0000

> <Gold.Chemscore.Lipo.Weighted>
-14.6249

> <Gold.Chemscore.Internal_Hbond.Weighted>
0.0000

> <Gold.Chemscore.DEClash.Weighted>
0.1917

> <Gold.Chemscore.DEInternal.Weighted>
2.2093

> <Gold.Chemscore.Rot.Weighted>
4.4126

> <Gold.Chemscore.Internal.Correction.Weighted>
   9.000000E+99

> <Gold.Protein.RotatedTorsions>
[ 6907 6896 6895 6894 ] final    6.24 input  -60.11 | X-H torsion
[ 7974 7965 7964 7962 ] final -112.19 input  175.53 | X-H torsion
[ 8008 7997 7996 7995 ] final   86.96 input   59.86 | X-H torsion
[ 10167 10162 10161 10158 ] final  107.96 input  -65.29 | X-H torsion
[ 10718 10713 10712 10709 ] final   31.12 input   66.30 | X-H torsion
[ 10763 10752 10751 10750 ] final  171.20 input  -60.55 | X-H torsion
[ 11005 11000 10999 10996 ] final   -7.10 input  -57.11 | X-H torsion

> <Gold.Protein.ActiveResidues>
 VAL166  LYS551  ARG553  GLY616  TRP617  ASP618  TYR619  PRO620  LYS621  CYS622 
 ASP623  PHE694  ASN695  SER759  ASP760  ASP761  ALA762  ILE779  LEU786  VAL792 
 PHE793  MET794  SER795  GLU796  ALA797  LYS798  CYS799  TRP800  GLU811  SER814 

> <Gold.Protein.RotatedAtoms>
  151.6704  135.0977  160.0196 H   0  0  0  0  0  0  0  0  0  0  0  0  # atno 6907 bound_to 6896
  152.3894  133.6654  159.6234 H   0  0  0  0  0  0  0  0  0  0  0  0  # atno 6908 bound_to 6896
  150.7813  133.8896  159.3350 H   0  0  0  0  0  0  0  0  0  0  0  0  # atno 6909 bound_to 6896
  145.1470  140.8808  143.3669 H   0  0  0  0  0  0  0  0  0  0  0  0  # atno 7974 bound_to 7965
  155.9693  140.3387  155.6561 H   0  0  0  0  0  0  0  0  0  0  0  0  # atno 8008 bound_to 7997
  155.6695  140.0725  157.2543 H   0  0  0  0  0  0  0  0  0  0  0  0  # atno 8009 bound_to 7997
  154.4162  140.1694  156.1851 H   0  0  0  0  0  0  0  0  0  0  0  0  # atno 8010 bound_to 7997
  139.6884  144.7111  151.1391 H   0  0  0  0  0  0  0  0  0  0  0  0  # atno 10167 bound_to 10162
  157.2683  130.7195  149.6491 H   0  0  0  0  0  0  0  0  0  0  0  0  # atno 10718 bound_to 10713
  154.4085  135.2756  155.2051 H   0  0  0  0  0  0  0  0  0  0  0  0  # atno 10763 bound_to 10752
  154.4047  135.6036  153.5921 H   0  0  0  0  0  0  0  0  0  0  0  0  # atno 10764 bound_to 10752
  152.9831  135.5935  154.4364 H   0  0  0  0  0  0  0  0  0  0  0  0  # atno 10765 bound_to 10752
  140.7091  133.8924  155.8738 H   0  0  0  0  0  0  0  0  0  0  0  0  # atno 11005 bound_to 11000
  145.0472  139.3211  143.5947 LP  0  0  0  0  0  0  0  0  0  0  0  0  # atno 17320 bound_to 7965
  146.3499  139.9866  142.8690 LP  0  0  0  0  0  0  0  0  0  0  0  0  # atno 17321 bound_to 7965
  140.7675  143.5595  150.9115 LP  0  0  0  0  0  0  0  0  0  0  0  0  # atno 17342 bound_to 10162
  139.9271  143.6537  152.3084 LP  0  0  0  0  0  0  0  0  0  0  0  0  # atno 17343 bound_to 10162
  155.9663  130.4375  150.5180 LP  0  0  0  0  0  0  0  0  0  0  0  0  # atno 17370 bound_to 10713
  157.3099  131.0662  151.2008 LP  0  0  0  0  0  0  0  0  0  0  0  0  # atno 17371 bound_to 10713
  141.0099  134.1034  157.4232 LP  0  0  0  0  0  0  0  0  0  0  0  0  # atno 17394 bound_to 11000
  139.8876  135.0091  156.6571 LP  0  0  0  0  0  0  0  0  0  0  0  0  # atno 17395 bound_to 11000

$$$$
