AV-unprocessed.smi:310|AV-procd|sdf|2295|dock5
  -GOLD-   2262022193D 1   1.00000     0.00000
 Structure written by MMmdl.
 41 43  0  0  0  0  0  0  0  0  1 V2000
  149.7680  129.9214  154.5610 C   0  0  0  0  0  0  0  0  0  0  0  0
  149.8935  131.3922  154.7661 C   0  0  0  0  0  0  0  0  0  0  0  0
  149.7911  132.4620  153.9219 C   0  0  0  0  0  0  0  0  0  0  0  0
  150.0212  133.5701  154.7801 C   0  0  0  0  0  0  0  0  0  0  0  0
  149.9989  134.8963  154.2780 N   0  0  0  0  0  0  0  0  0  0  0  0
  150.6165  135.9763  154.7870 C   0  0  0  0  0  0  0  0  0  0  0  0
  151.3255  135.9790  155.7936 O   0  0  0  0  0  0  0  0  0  0  0  0
  150.3643  137.0716  154.0551 N   0  0  0  0  0  0  0  0  0  0  0  0
  150.8709  138.4108  154.3405 C   0  0  0  0  0  0  0  0  0  0  0  0
  152.3477  138.3226  154.7830 C   0  0  0  0  0  0  0  0  0  0  0  0
  152.8597  139.6890  155.2704 C   0  0  0  0  0  0  0  0  0  0  0  0
  151.9955  140.1523  156.3646 N   0  0  0  0  0  0  0  0  0  0  0  0
  152.3403  140.2376  157.6740 C   0  0  0  0  0  0  0  0  0  0  0  0
  153.4375  139.8597  158.0877 O   0  0  0  0  0  0  0  0  0  0  0  0
  151.3355  140.8423  158.6085 C   0  0  0  0  0  0  0  0  0  0  0  0
  150.8485  142.2539  158.3328 C   0  0  0  0  0  0  0  0  0  0  0  0
  151.8068  141.9975  159.4666 C   0  0  0  0  0  0  0  0  0  0  0  0
  150.6365  140.4298  155.8837 C   0  0  0  0  0  0  0  0  0  0  0  0
  149.9996  139.1094  155.4109 C   0  0  0  0  0  0  0  0  0  0  0  0
  150.2447  133.2094  156.0346 N   0  0  0  0  0  0  0  0  0  0  0  0
  150.1644  131.8117  156.0318 O   0  0  0  0  0  0  0  0  0  0  0  0
  149.4781  129.6937  153.5350 H   0  0  0  0  0  0  0  0  0  0  0  0
  149.0134  129.5015  155.2264 H   0  0  0  0  0  0  0  0  0  0  0  0
  150.7150  129.4211  154.7639 H   0  0  0  0  0  0  0  0  0  0  0  0
  149.5838  132.4505  152.8622 H   0  0  0  0  0  0  0  0  0  0  0  0
  149.4484  135.0392  153.4445 H   0  0  0  0  0  0  0  0  0  0  0  0
  149.7729  136.9749  153.2428 H   0  0  0  0  0  0  0  0  0  0  0  0
  150.8372  139.0087  153.4275 H   0  0  0  0  0  0  0  0  0  0  0  0
  152.4542  137.5927  155.5871 H   0  0  0  0  0  0  0  0  0  0  0  0
  152.9646  137.9665  153.9573 H   0  0  0  0  0  0  0  0  0  0  0  0
  153.9142  139.6307  155.5363 H   0  0  0  0  0  0  0  0  0  0  0  0
  152.8167  140.4102  154.4529 H   0  0  0  0  0  0  0  0  0  0  0  0
  150.5922  140.1683  159.0303 H   0  0  0  0  0  0  0  0  0  0  0  0
  151.2357  142.7934  157.4704 H   0  0  0  0  0  0  0  0  0  0  0  0
  149.8125  142.4742  158.5815 H   0  0  0  0  0  0  0  0  0  0  0  0
  151.4229  142.0452  160.4835 H   0  0  0  0  0  0  0  0  0  0  0  0
  152.8316  142.3445  159.3438 H   0  0  0  0  0  0  0  0  0  0  0  0
  150.0024  140.8920  156.6413 H   0  0  0  0  0  0  0  0  0  0  0  0
  150.6800  141.1430  155.0592 H   0  0  0  0  0  0  0  0  0  0  0  0
  149.0007  139.3006  155.0174 H   0  0  0  0  0  0  0  0  0  0  0  0
  149.8711  138.4496  156.2704 H   0  0  0  0  0  0  0  0  0  0  0  0
  1  2  1  0  0  0  0
  1 22  1  0  0  0  0
  1 23  1  0  0  0  0
  1 24  1  0  0  0  0
  2 21  1  0  0  0  0
  2  3  2  0  0  0  0
  3  4  1  0  0  0  0
  3 25  1  0  0  0  0
  4  5  1  0  0  0  0
  4 20  2  0  0  0  0
  5  6  1  0  0  0  0
  5 26  1  0  0  0  0
  6  7  2  0  0  0  0
  6  8  1  0  0  0  0
  8  9  1  0  0  0  0
  8 27  1  0  0  0  0
  9 19  1  0  0  0  0
  9 10  1  0  0  0  0
  9 28  1  0  0  0  0
 10 11  1  0  0  0  0
 10 29  1  0  0  0  0
 10 30  1  0  0  0  0
 11 12  1  0  0  0  0
 11 31  1  0  0  0  0
 11 32  1  0  0  0  0
 12 13  1  0  0  0  0
 12 18  1  0  0  0  0
 13 14  2  0  0  0  0
 13 15  1  0  0  0  0
 15 17  1  0  0  0  0
 15 16  1  0  0  0  0
 15 33  1  0  0  0  0
 16 17  1  0  0  0  0
 16 34  1  0  0  0  0
 16 35  1  0  0  0  0
 17 36  1  0  0  0  0
 17 37  1  0  0  0  0
 18 19  1  0  0  0  0
 18 38  1  0  0  0  0
 18 39  1  0  0  0  0
 19 40  1  0  0  0  0
 19 41  1  0  0  0  0
 20 21  1  0  0  0  0
M  END
> <s_m_source_file>
AV-unprocessed.smi

> <i_m_source_file_index>
310

> <i_lp_mmshare_version>
43012

> <i_f3d_flags>
0

> <s_epik_input>
W0NIM11jMVtjSF1jKG5vMSlbTkhdQyg9TylbTkhdW0NIXTJbQ0gyXVtDSDJdTihbQ0gyXVtDSDJdMilDKD1PKVtDSF0zW0NIMl1bQ0gyXTM=

> <s_epik_cmdline>
J2VwaWtfcHl0aG9uJywgJy1waCcsICc3LjAnLCAnLXRuJywgJzgnLCAnLW1hJywgJzIwMCcsICctbWV0YWxfYmluZGluZycsICctaW1hZScsICc8aW5maWxlLm1hZT4nLCAnLW9tYWUnLCAnPG91dGZpbGUubWFlPic=

> <r_lp_tautomer_probability>
1

> <r_epik_Ionization_Penalty>
2.91812e-05

> <r_epik_Ionization_Penalty_Charging>
0

> <r_epik_Ionization_Penalty_Neutral>
2.91812e-05

> <r_epik_State_Penalty>
-0

> <r_epik_Charging_Adjusted_Penalty>
0

> <i_epik_Tot_Q>
0

> <i_epik_Tot_abs_Q>
0

> <r_epik_Metal_State_Penalty>
0.00922567

> <b_epik_Metal_Only>
0

> <s_lp_Force_Field>
OPLS_2005

> <r_lp_Energy>
27.9216

> <b_lp_Chiralities_Consistent>
1

> <s_lp_Variant>
AV-unprocessed.smi:310-1

> <Gold.Version>
5.8.1

> <Gold.Id.Protein>
6NUR|6NUR_protein|mol2

> <Gold.PLP.Fitness>
43.7789

> <Gold.PLP.PLP>
-34.1123

> <Gold.PLP.part.hbond>
-4.5281

> <Gold.PLP.part.metal>
0.0000

> <Gold.PLP.part.buried>
0.9180

> <Gold.PLP.part.nonpolar>
-29.9025

> <Gold.PLP.part.repulsive>
0.1472

> <Gold.PLP.ligand.clash>
0.0255

> <Gold.PLP.ligand.torsion>
0.4853

> <Gold.PLP.Chemscore.Hbond>
3.5138

> <Gold.PLP.Chemscore.CHOScore>
0.0000

> <Gold.PLP.Chemscore.Metal>
0.0000

> <Gold.Chemscore.Hbonds>
donor molecule, donor type, donor heavy atom, donor atom, acceptor molecule, acceptor atom, score
      L1  H     5    26       P1  7948  0.59
      L1  H     8    27       P1  7948  1.00
      P1  H  7997  8008       L1    14  1.00
      P1  H 10752 10763       L1     7  0.95

> <Gold.PLP.Chemscore.Internal.Correction>
0.1214

> <Gold.Rescore>
     Score         DG    S(hbond)    S(metal)    S(lipo)     H(rot)  DE(clash)    DE(int)     intcor
     14.73     -17.94       2.36        0.00      66.81       1.26       0.40       2.81       ----

> <Gold.Chemscore.Fitness>
14.7268

> <Gold.Chemscore.DG>
-17.9409

> <Gold.Chemscore.ZeroCoef>
-5.4800

> <Gold.Chemscore.Hbond>
2.3575

> <Gold.Chemscore.Metal>
0.0000

> <Gold.Chemscore.Lipo>
66.8065

> <Gold.Chemscore.Internal_Hbond>
0.0000

> <Gold.Chemscore.DEClash>
0.4006

> <Gold.Chemscore.DEInternal>
2.8135

> <Gold.Chemscore.Rot>
1.2615

> <Gold.Chemscore.Internal.Correction>
   9.000000E+99

> <Gold.Chemscore.Hbonds>
donor molecule, donor type, donor heavy atom, donor atom, acceptor molecule, acceptor atom, score
      L1  H     5    26       P1  7948  0.04
      L1  H     8    27       P1  7948  0.39
      P1  H  7997  8008       L1    14  0.58
      P1  H 10752 10763       L1     7  0.21

> <Gold.Chemscore.Hbond.Weighted>
-7.8741

> <Gold.Chemscore.Metal.Weighted>
-0.0000

> <Gold.Chemscore.Lipo.Weighted>
-7.8164

> <Gold.Chemscore.Internal_Hbond.Weighted>
0.0000

> <Gold.Chemscore.DEClash.Weighted>
0.4006

> <Gold.Chemscore.DEInternal.Weighted>
2.8135

> <Gold.Chemscore.Rot.Weighted>
3.2295

> <Gold.Chemscore.Internal.Correction.Weighted>
   9.000000E+99

> <Gold.Protein.RotatedTorsions>
[ 6907 6896 6895 6894 ] final -149.73 input  -60.11 | X-H torsion
[ 7974 7965 7964 7962 ] final   26.78 input  175.53 | X-H torsion
[ 8008 7997 7996 7995 ] final  -74.93 input   59.86 | X-H torsion
[ 10167 10162 10161 10158 ] final  -99.38 input  -65.29 | X-H torsion
[ 10718 10713 10712 10709 ] final  130.33 input   66.30 | X-H torsion
[ 10763 10752 10751 10750 ] final   83.49 input  -60.55 | X-H torsion
[ 11005 11000 10999 10996 ] final   17.29 input  -57.11 | X-H torsion

> <Gold.Protein.ActiveResidues>
 VAL166  LYS551  ARG553  GLY616  TRP617  ASP618  TYR619  PRO620  LYS621  CYS622 
 ASP623  PHE694  ASN695  SER759  ASP760  ASP761  ALA762  ILE779  LEU786  VAL792 
 PHE793  MET794  SER795  GLU796  ALA797  LYS798  CYS799  TRP800  GLU811  SER814 

> <Gold.Protein.RotatedAtoms>
  151.1884  133.4682  159.2594 H   0  0  0  0  0  0  0  0  0  0  0  0  # atno 6907 bound_to 6896
  151.1188  135.0068  159.8539 H   0  0  0  0  0  0  0  0  0  0  0  0  # atno 6908 bound_to 6896
  152.5455  134.1797  159.8683 H   0  0  0  0  0  0  0  0  0  0  0  0  # atno 6909 bound_to 6896
  146.1819  139.7281  142.8894 H   0  0  0  0  0  0  0  0  0  0  0  0  # atno 7974 bound_to 7965
  154.5373  140.0753  156.8449 H   0  0  0  0  0  0  0  0  0  0  0  0  # atno 8008 bound_to 7997
  155.3252  140.3398  155.4222 H   0  0  0  0  0  0  0  0  0  0  0  0  # atno 8009 bound_to 7997
  156.1840  140.1662  156.8206 H   0  0  0  0  0  0  0  0  0  0  0  0  # atno 8010 bound_to 7997
  140.2631  143.3394  152.0607 H   0  0  0  0  0  0  0  0  0  0  0  0  # atno 10167 bound_to 10162
  157.5072  131.1096  150.9345 H   0  0  0  0  0  0  0  0  0  0  0  0  # atno 10718 bound_to 10713
  153.1296  135.4689  154.9327 H   0  0  0  0  0  0  0  0  0  0  0  0  # atno 10763 bound_to 10752
  154.7652  135.3142  154.8303 H   0  0  0  0  0  0  0  0  0  0  0  0  # atno 10764 bound_to 10752
  153.8848  135.6890  153.4818 H   0  0  0  0  0  0  0  0  0  0  0  0  # atno 10765 bound_to 10752
  140.4376  134.1355  155.7687 H   0  0  0  0  0  0  0  0  0  0  0  0  # atno 11005 bound_to 11000
  145.4051  141.0390  143.3048 LP  0  0  0  0  0  0  0  0  0  0  0  0  # atno 17320 bound_to 7965
  144.8330  139.5597  143.6935 LP  0  0  0  0  0  0  0  0  0  0  0  0  # atno 17321 bound_to 7965
  139.5011  144.6706  151.6252 LP  0  0  0  0  0  0  0  0  0  0  0  0  # atno 17342 bound_to 10162
  140.5950  143.9712  150.6349 LP  0  0  0  0  0  0  0  0  0  0  0  0  # atno 17343 bound_to 10162
  156.9997  130.5595  149.5310 LP  0  0  0  0  0  0  0  0  0  0  0  0  # atno 17370 bound_to 10713
  156.0265  130.5359  150.8422 LP  0  0  0  0  0  0  0  0  0  0  0  0  # atno 17371 bound_to 10713
  141.1719  133.8591  157.1544 LP  0  0  0  0  0  0  0  0  0  0  0  0  # atno 17394 bound_to 11000
  140.0091  134.9995  157.0357 LP  0  0  0  0  0  0  0  0  0  0  0  0  # atno 17395 bound_to 11000

$$$$
