AV-unprocessed.smi:3293|AV-procd|sdf|12631|dock3
  -GOLD-   2272018563D 1   1.00000     0.00000
 Structure written by MMmdl.
 44 45  0  0  0  0  0  0  0  0  2 V2000
  154.0638  140.7263  161.0663 C   0  0  0  0  0  0  0  0  0  0  0  0
  153.2190  141.9561  160.7773 C   0  0  0  0  0  0  0  0  0  0  0  0
  152.9404  142.8233  161.7693 C   0  0  0  0  0  0  0  0  0  0  0  0
  152.1744  144.1124  161.5836 C   0  0  0  0  0  0  0  0  0  0  0  0
  152.2054  144.5618  160.1211 C   0  0  0  0  0  0  0  0  0  0  0  0
  151.8083  143.4175  159.1743 C   0  0  1  0  0  0  0  0  0  0  0  0
  151.7679  143.9421  157.7261 C   0  0  0  0  0  0  0  0  0  0  0  0
  152.7296  142.1678  159.3298 C   0  0  2  0  0  0  0  0  0  0  0  0
  152.0242  140.9142  158.7471 C   0  0  0  0  0  0  0  0  0  0  0  0
  151.8696  140.9675  157.2785 N   0  3  0  0  0  0  0  0  0  0  0  0
  150.5556  140.5008  156.7959 C   0  0  0  0  0  0  0  0  0  0  0  0
  150.5854  140.2241  155.2871 C   0  0  0  0  0  0  0  0  0  0  0  0
  149.2844  140.5985  154.6339 C   0  0  0  0  0  0  0  0  0  0  0  0
  148.4771  139.8001  153.7741 C   0  0  0  0  0  0  0  0  0  0  0  0
  147.3829  140.4238  153.3700 N   0  0  0  0  0  0  0  0  0  0  0  0
  147.4522  141.6376  153.9538 N   0  0  0  0  0  0  0  0  0  0  0  0
  146.3966  142.6009  153.7255 C   0  0  0  0  0  0  0  0  0  0  0  0
  148.5903  141.7730  154.7193 C   0  0  0  0  0  0  0  0  0  0  0  0
  154.8849  140.6497  160.3532 H   0  0  0  0  0  0  0  0  0  0  0  0
  153.4624  139.8191  161.0155 H   0  0  0  0  0  0  0  0  0  0  0  0
  154.4983  140.7706  162.0655 H   0  0  0  0  0  0  0  0  0  0  0  0
  153.2837  142.6226  162.7739 H   0  0  0  0  0  0  0  0  0  0  0  0
  151.1491  143.9627  161.9235 H   0  0  0  0  0  0  0  0  0  0  0  0
  152.6133  144.8848  162.2157 H   0  0  0  0  0  0  0  0  0  0  0  0
  151.5382  145.4147  159.9912 H   0  0  0  0  0  0  0  0  0  0  0  0
  153.2073  144.9132  159.8695 H   0  0  0  0  0  0  0  0  0  0  0  0
  150.7930  143.1239  159.4469 H   0  0  0  0  0  0  0  0  0  0  0  0
  152.7584  144.2512  157.3906 H   0  0  0  0  0  0  0  0  0  0  0  0
  151.1099  144.8077  157.6440 H   0  0  0  0  0  0  0  0  0  0  0  0
  151.3986  143.1975  157.0226 H   0  0  0  0  0  0  0  0  0  0  0  0
  153.6306  142.3575  158.7442 H   0  0  0  0  0  0  0  0  0  0  0  0
  152.5807  140.0184  159.0263 H   0  0  0  0  0  0  0  0  0  0  0  0
  151.0260  140.7948  159.1652 H   0  0  0  0  0  0  0  0  0  0  0  0
  152.0085  141.9208  156.9749 H   0  0  0  0  0  0  0  0  0  0  0  0
  150.2792  139.5935  157.3349 H   0  0  0  0  0  0  0  0  0  0  0  0
  149.8010  141.2552  157.0233 H   0  0  0  0  0  0  0  0  0  0  0  0
  151.4101  140.7760  154.8347 H   0  0  0  0  0  0  0  0  0  0  0  0
  150.8066  139.1694  155.1181 H   0  0  0  0  0  0  0  0  0  0  0  0
  148.6517  138.7894  153.4355 H   0  0  0  0  0  0  0  0  0  0  0  0
  146.4914  143.4313  154.4258 H   0  0  0  0  0  0  0  0  0  0  0  0
  145.4241  142.1288  153.8676 H   0  0  0  0  0  0  0  0  0  0  0  0
  146.4637  142.9847  152.7073 H   0  0  0  0  0  0  0  0  0  0  0  0
  148.8084  142.6833  155.2585 H   0  0  0  0  0  0  0  0  0  0  0  0
  152.5852  140.3884  156.8626 H   0  0  0  0  0  0  0  0  0  0  0  0
  1  2  1  0  0  0  0
  1 19  1  0  0  0  0
  1 20  1  0  0  0  0
  1 21  1  0  0  0  0
  2  8  1  0  0  0  0
  2  3  2  0  0  0  0
  3  4  1  0  0  0  0
  3 22  1  0  0  0  0
  4  5  1  0  0  0  0
  4 23  1  0  0  0  0
  4 24  1  0  0  0  0
  5  6  1  0  0  0  0
  5 25  1  0  0  0  0
  5 26  1  0  0  0  0
  6  7  1  0  0  0  0
  6  8  1  0  0  0  0
  6 27  1  0  0  0  0
  7 28  1  0  0  0  0
  7 29  1  0  0  0  0
  7 30  1  0  0  0  0
  8  9  1  0  0  0  0
  8 31  1  0  0  0  0
  9 10  1  0  0  0  0
  9 32  1  0  0  0  0
  9 33  1  0  0  0  0
 10 11  1  0  0  0  0
 10 34  1  0  0  0  0
 10 44  1  0  0  0  0
 11 12  1  0  0  0  0
 11 35  1  0  0  0  0
 11 36  1  0  0  0  0
 12 13  1  0  0  0  0
 12 37  1  0  0  0  0
 12 38  1  0  0  0  0
 13 18  2  0  0  0  0
 13 14  1  0  0  0  0
 14 15  2  0  0  0  0
 14 39  1  0  0  0  0
 15 16  1  0  0  0  0
 16 17  1  0  0  0  0
 16 18  1  0  0  0  0
 17 40  1  0  0  0  0
 17 41  1  0  0  0  0
 17 42  1  0  0  0  0
 18 43  1  0  0  0  0
M  CHG  1  10   1
M  END
> <s_m_source_file>
AV-unprocessed.smi

> <i_m_source_file_index>
3293

> <i_lp_mmshare_version>
43012

> <i_f3d_flags>
0

> <s_epik_input>
W0NIM11DMT1bQ0hdW0NIMl1bQ0gyXVtDQEBIXShbQ0gzXSlbQ0BIXTFbQ0gyXVtOSF1bQ0gyXVtDSDJdYzJbY0hdbm4oW0NIM10pW2NIXTI=

> <s_epik_cmdline>
J2VwaWtfcHl0aG9uJywgJy1waCcsICc3LjAnLCAnLXRuJywgJzgnLCAnLW1hJywgJzIwMCcsICctbWV0YWxfYmluZGluZycsICctaW1hZScsICc8aW5maWxlLm1hZT4nLCAnLW9tYWUnLCAnPG91dGZpbGUubWFlPic=

> <r_lp_tautomer_probability>
1

> <r_epik_Ionization_Penalty>
0.000598621

> <r_epik_Ionization_Penalty_Charging>
0.000582095

> <r_epik_Ionization_Penalty_Neutral>
1.65262e-05

> <r_epik_State_Penalty>
-0

> <r_epik_Charging_Adjusted_Penalty>
0.000582095

> <i_epik_Tot_Q>
1

> <i_epik_Tot_abs_Q>
1

> <r_epik_Metal_State_Penalty>
-0

> <b_epik_Metal_Only>
0

> <s_lp_Force_Field>
OPLS_2005

> <r_lp_Energy>
11.8092

> <b_lp_Chiralities_Consistent>
1

> <s_lp_Variant>
AV-unprocessed.smi:3293-3

> <Gold.Version>
5.8.1

> <Gold.Id.Protein>
6NUR|6NUR_protein|mol2

> <Gold.PLP.Fitness>
50.6007

> <Gold.PLP.PLP>
-48.8966

> <Gold.PLP.part.hbond>
0.0000

> <Gold.PLP.part.metal>
0.0000

> <Gold.PLP.part.buried>
-1.4118

> <Gold.PLP.part.nonpolar>
-46.6277

> <Gold.PLP.part.repulsive>
0.2736

> <Gold.PLP.ligand.clash>
0.0000

> <Gold.PLP.ligand.torsion>
0.7453

> <Gold.PLP.Chemscore.Hbond>
0.0000

> <Gold.PLP.Chemscore.CHOScore>
1.0386

> <Gold.PLP.Chemscore.Metal>
0.0000

> <Gold.Chemscore.Hbonds>
donor molecule, donor type, donor heavy atom, donor atom, acceptor molecule, acceptor atom, score
      L1  C    14    39       P1  7957  0.04
      L1  C    18    43       P1  8028  1.00

> <Gold.PLP.Chemscore.Internal.Correction>
0.0790

> <Gold.Rescore>
     Score         DG    S(hbond)    S(metal)    S(lipo)     H(rot)  DE(clash)    DE(int)     intcor
     16.74     -17.60       0.00        0.00     136.06       1.48       0.06       0.80       ----

> <Gold.Chemscore.Fitness>
16.7382

> <Gold.Chemscore.DG>
-17.5983

> <Gold.Chemscore.ZeroCoef>
-5.4800

> <Gold.Chemscore.Hbond>
0.0000

> <Gold.Chemscore.Metal>
0.0000

> <Gold.Chemscore.Lipo>
136.0611

> <Gold.Chemscore.Internal_Hbond>
0.0000

> <Gold.Chemscore.DEClash>
0.0610

> <Gold.Chemscore.DEInternal>
0.7992

> <Gold.Chemscore.Rot>
1.4847

> <Gold.Chemscore.Internal.Correction>
   9.000000E+99

> <Gold.Chemscore.Hbond.Weighted>
-0.0000

> <Gold.Chemscore.Metal.Weighted>
-0.0000

> <Gold.Chemscore.Lipo.Weighted>
-15.9192

> <Gold.Chemscore.Internal_Hbond.Weighted>
0.0000

> <Gold.Chemscore.DEClash.Weighted>
0.0610

> <Gold.Chemscore.DEInternal.Weighted>
0.7992

> <Gold.Chemscore.Rot.Weighted>
3.8008

> <Gold.Chemscore.Internal.Correction.Weighted>
   9.000000E+99

> <Gold.Protein.RotatedTorsions>
[ 6907 6896 6895 6894 ] final -114.80 input  -60.11 | X-H torsion
[ 7974 7965 7964 7962 ] final  -12.48 input  175.53 | X-H torsion
[ 8008 7997 7996 7995 ] final -116.36 input   59.86 | X-H torsion
[ 10167 10162 10161 10158 ] final   86.80 input  -65.29 | X-H torsion
[ 10718 10713 10712 10709 ] final   58.03 input   66.30 | X-H torsion
[ 10763 10752 10751 10750 ] final  113.78 input  -60.55 | X-H torsion
[ 11005 11000 10999 10996 ] final  176.79 input  -57.11 | X-H torsion

> <Gold.Protein.ActiveResidues>
 VAL166  LYS551  ARG553  GLY616  TRP617  ASP618  TYR619  PRO620  LYS621  CYS622 
 ASP623  PHE694  ASN695  SER759  ASP760  ASP761  ALA762  ILE779  LEU786  VAL792 
 PHE793  MET794  SER795  GLU796  ALA797  LYS798  CYS799  TRP800  GLU811  SER814 

> <Gold.Protein.RotatedAtoms>
  150.7929  133.8749  159.3269 H   0  0  0  0  0  0  0  0  0  0  0  0  # atno 6907 bound_to 6896
  151.6582  135.0991  160.0184 H   0  0  0  0  0  0  0  0  0  0  0  0  # atno 6908 bound_to 6896
  152.4006  133.6774  159.6349 H   0  0  0  0  0  0  0  0  0  0  0  0  # atno 6909 bound_to 6896
  146.2150  140.3063  142.8379 H   0  0  0  0  0  0  0  0  0  0  0  0  # atno 7974 bound_to 7965
  155.0666  140.0393  157.2594 H   0  0  0  0  0  0  0  0  0  0  0  0  # atno 8008 bound_to 7997
  154.7016  140.2674  155.6689 H   0  0  0  0  0  0  0  0  0  0  0  0  # atno 8009 bound_to 7997
  156.2762  140.2739  156.1629 H   0  0  0  0  0  0  0  0  0  0  0  0  # atno 8010 bound_to 7997
  139.8838  144.6425  150.8813 H   0  0  0  0  0  0  0  0  0  0  0  0  # atno 10167 bound_to 10162
  157.5563  130.8803  149.9041 H   0  0  0  0  0  0  0  0  0  0  0  0  # atno 10718 bound_to 10713
  153.4976  135.3645  155.2523 H   0  0  0  0  0  0  0  0  0  0  0  0  # atno 10763 bound_to 10752
  154.8749  135.3992  154.3516 H   0  0  0  0  0  0  0  0  0  0  0  0  # atno 10764 bound_to 10752
  153.4146  135.7078  153.6401 H   0  0  0  0  0  0  0  0  0  0  0  0  # atno 10765 bound_to 10752
  140.3770  134.6980  157.4427 H   0  0  0  0  0  0  0  0  0  0  0  0  # atno 11005 bound_to 11000
  144.9020  140.7654  143.5861 LP  0  0  0  0  0  0  0  0  0  0  0  0  # atno 17320 bound_to 7965
  145.2990  139.1857  143.4700 LP  0  0  0  0  0  0  0  0  0  0  0  0  # atno 17321 bound_to 7965
  140.7739  143.3564  151.1913 LP  0  0  0  0  0  0  0  0  0  0  0  0  # atno 17342 bound_to 10162
  139.7171  143.9282  152.2971 LP  0  0  0  0  0  0  0  0  0  0  0  0  # atno 17343 bound_to 10162
  156.0622  130.3698  150.0958 LP  0  0  0  0  0  0  0  0  0  0  0  0  # atno 17370 bound_to 10713
  156.9126  130.9656  151.3561 LP  0  0  0  0  0  0  0  0  0  0  0  0  # atno 17371 bound_to 10713
  140.0508  134.6134  155.8865 LP  0  0  0  0  0  0  0  0  0  0  0  0  # atno 17394 bound_to 11000
  141.1936  133.6579  156.5555 LP  0  0  0  0  0  0  0  0  0  0  0  0  # atno 17395 bound_to 11000

$$$$
