AV-unprocessed.smi:1163|AV-procd|sdf|4925|dock4
  -GOLD-   22720 3503D 1   1.00000     0.00000
 Structure written by MMmdl.
 40 41  0  0  0  0  0  0  0  0  2 V2000
  137.3299  144.2449  155.2581 C   0  0  0  0  0  0  0  0  0  0  0  0
  137.0146  142.8635  155.1222 O   0  0  0  0  0  0  0  0  0  0  0  0
  138.0159  141.9983  154.7312 C   0  0  0  0  0  0  0  0  0  0  0  0
  137.6886  140.6474  154.5019 C   0  0  0  0  0  0  0  0  0  0  0  0
  138.7048  139.7563  154.1071 C   0  0  0  0  0  0  0  0  0  0  0  0
  140.0231  140.2479  153.9471 C   0  0  0  0  0  0  0  0  0  0  0  0
  141.1459  139.4601  153.5695 N   0  0  0  0  0  0  0  0  0  0  0  0
  141.3425  138.1372  153.7050 C   0  0  0  0  0  0  0  0  0  0  0  0
  140.5341  137.3342  154.1693 O   0  0  0  0  0  0  0  0  0  0  0  0
  142.5543  137.7800  153.2569 N   0  0  0  0  0  0  0  0  0  0  0  0
  143.0777  136.4178  153.2706 C   0  0  1  0  0  0  0  0  0  0  0  0
  142.0217  135.3537  152.9737 C   0  0  0  0  0  0  0  0  0  0  0  0
  142.8062  134.2029  152.3196 C   0  0  0  0  0  0  0  0  0  0  0  0
  144.1783  134.7051  152.0636 N   0  3  1  0  0  0  0  0  0  0  0  0
  144.8154  134.2187  150.8159 C   0  0  0  0  0  0  0  0  0  0  0  0
  144.8532  132.6832  150.7277 C   0  0  0  0  0  0  0  0  0  0  0  0
  145.0367  132.1825  151.9484 F   0  0  0  0  0  0  0  0  0  0  0  0
  143.6986  132.2239  150.2456 F   0  0  0  0  0  0  0  0  0  0  0  0
  145.8510  132.2697  149.9475 F   0  0  0  0  0  0  0  0  0  0  0  0
  144.1126  136.1728  152.1729 C   0  0  0  0  0  0  0  0  0  0  0  0
  140.2453  141.6165  154.2068 C   0  0  0  0  0  0  0  0  0  0  0  0
  139.2764  142.4756  154.5862 N   0  0  0  0  0  0  0  0  0  0  0  0
  136.4397  144.7886  155.5741 H   0  0  0  0  0  0  0  0  0  0  0  0
  137.6612  144.6741  154.3115 H   0  0  0  0  0  0  0  0  0  0  0  0
  138.1005  144.4053  156.0134 H   0  0  0  0  0  0  0  0  0  0  0  0
  136.6748  140.2983  154.6317 H   0  0  0  0  0  0  0  0  0  0  0  0
  138.4469  138.7216  153.9493 H   0  0  0  0  0  0  0  0  0  0  0  0
  141.8912  139.9713  153.1192 H   0  0  0  0  0  0  0  0  0  0  0  0
  143.1556  138.4994  152.8819 H   0  0  0  0  0  0  0  0  0  0  0  0
  143.5259  136.2055  154.2435 H   0  0  0  0  0  0  0  0  0  0  0  0
  141.4889  135.0385  153.8714 H   0  0  0  0  0  0  0  0  0  0  0  0
  141.2829  135.7361  152.2677 H   0  0  0  0  0  0  0  0  0  0  0  0
  142.8577  133.3328  152.9749 H   0  0  0  0  0  0  0  0  0  0  0  0
  142.3127  133.8948  151.3963 H   0  0  0  0  0  0  0  0  0  0  0  0
  144.3146  134.6450  149.9454 H   0  0  0  0  0  0  0  0  0  0  0  0
  145.8417  134.5887  150.7937 H   0  0  0  0  0  0  0  0  0  0  0  0
  143.7748  136.5993  151.2260 H   0  0  0  0  0  0  0  0  0  0  0  0
  145.0877  136.5992  152.4109 H   0  0  0  0  0  0  0  0  0  0  0  0
  141.2349  142.0388  154.1075 H   0  0  0  0  0  0  0  0  0  0  0  0
  144.7506  134.3948  152.8364 H   0  0  0  0  0  0  0  0  0  0  0  0
  1  2  1  0  0  0  0
  1 23  1  0  0  0  0
  1 24  1  0  0  0  0
  1 25  1  0  0  0  0
  2  3  1  0  0  0  0
  3 22  1  0  0  0  0
  3  4  2  0  0  0  0
  4  5  1  0  0  0  0
  4 26  1  0  0  0  0
  5  6  2  0  0  0  0
  5 27  1  0  0  0  0
  6  7  1  0  0  0  0
  6 21  1  0  0  0  0
  7  8  1  0  0  0  0
  7 28  1  0  0  0  0
  8  9  2  0  0  0  0
  8 10  1  0  0  0  0
 10 11  1  0  0  0  0
 10 29  1  0  0  0  0
 11 20  1  0  0  0  0
 11 12  1  0  0  0  0
 11 30  1  0  0  0  0
 12 13  1  0  0  0  0
 12 31  1  0  0  0  0
 12 32  1  0  0  0  0
 13 14  1  0  0  0  0
 13 33  1  0  0  0  0
 13 34  1  0  0  0  0
 14 15  1  0  0  0  0
 14 20  1  0  0  0  0
 14 40  1  0  0  0  0
 15 16  1  0  0  0  0
 15 35  1  0  0  0  0
 15 36  1  0  0  0  0
 16 17  1  0  0  0  0
 16 18  1  0  0  0  0
 16 19  1  0  0  0  0
 20 37  1  0  0  0  0
 20 38  1  0  0  0  0
 21 22  2  0  0  0  0
 21 39  1  0  0  0  0
M  CHG  1  14   1
M  END
> <s_m_source_file>
AV-unprocessed.smi

> <i_m_source_file_index>
1163

> <i_lp_mmshare_version>
43012

> <i_f3d_flags>
0

> <s_epik_input>
W0NIM11PYzFbY0hdW2NIXWMoW2NIXW4xKVtOSF1DKD1PKVtOSF1bQ0BASF0yW0NIMl1bQ0gyXU4oW0NIMl0yKVtDSDJdQyhGKShGKUY=

> <s_epik_cmdline>
J2VwaWtfcHl0aG9uJywgJy1waCcsICc3LjAnLCAnLXRuJywgJzgnLCAnLW1hJywgJzIwMCcsICctbWV0YWxfYmluZGluZycsICctaW1hZScsICc8aW5maWxlLm1hZT4nLCAnLW9tYWUnLCAnPG91dGZpbGUubWFlPic=

> <r_lp_tautomer_probability>
1

> <r_epik_Ionization_Penalty>
1.12054

> <r_epik_Ionization_Penalty_Charging>
1.12047

> <r_epik_Ionization_Penalty_Neutral>
7.20346e-05

> <r_epik_State_Penalty>
1.17927

> <r_epik_Charging_Adjusted_Penalty>
2.29974

> <i_epik_Tot_Q>
1

> <i_epik_Tot_abs_Q>
1

> <r_epik_Metal_State_Penalty>
1.17928

> <b_epik_Metal_Only>
0

> <s_lp_Force_Field>
OPLS_2005

> <r_lp_Energy>
29.7576

> <b_lp_Chiralities_Consistent>
1

> <s_lp_Variant>
AV-unprocessed.smi:1163-6

> <Gold.Version>
5.8.1

> <Gold.Id.Protein>
6NUR|6NUR_protein|mol2

> <Gold.PLP.Fitness>
43.5273

> <Gold.PLP.PLP>
-35.8664

> <Gold.PLP.part.hbond>
-3.0000

> <Gold.PLP.part.metal>
0.0000

> <Gold.PLP.part.buried>
-5.8328

> <Gold.PLP.part.nonpolar>
-27.3751

> <Gold.PLP.part.repulsive>
0.1980

> <Gold.PLP.ligand.clash>
0.0000

> <Gold.PLP.ligand.torsion>
0.9155

> <Gold.PLP.Chemscore.Hbond>
2.0000

> <Gold.PLP.Chemscore.CHOScore>
1.0000

> <Gold.PLP.Chemscore.Metal>
0.0000

> <Gold.Chemscore.Hbonds>
donor molecule, donor type, donor heavy atom, donor atom, acceptor molecule, acceptor atom, score
      L1  H     7    28       P1 10175  1.00
      L1  H    10    29       P1 10175  0.99
      L1  C    21    39       P1 10174  1.00

> <Gold.PLP.Chemscore.Internal.Correction>
0.4919

> <Gold.Rescore>
     Score         DG    S(hbond)    S(metal)    S(lipo)     H(rot)  DE(clash)    DE(int)     intcor
      8.75     -12.42       1.42        0.00      55.39       1.68       0.23       3.43       ----

> <Gold.Chemscore.Fitness>
8.7527

> <Gold.Chemscore.DG>
-12.4176

> <Gold.Chemscore.ZeroCoef>
-5.4800

> <Gold.Chemscore.Hbond>
1.4227

> <Gold.Chemscore.Metal>
0.0000

> <Gold.Chemscore.Lipo>
55.3918

> <Gold.Chemscore.Internal_Hbond>
0.0000

> <Gold.Chemscore.DEClash>
0.2320

> <Gold.Chemscore.DEInternal>
3.4328

> <Gold.Chemscore.Rot>
1.6778

> <Gold.Chemscore.Internal.Correction>
   9.000000E+99

> <Gold.Chemscore.Hbonds>
donor molecule, donor type, donor heavy atom, donor atom, acceptor molecule, acceptor atom, score
      L1  H     7    28       P1 10175  0.35
      L1  H    10    29       P1 10175  0.90

> <Gold.Chemscore.Hbond.Weighted>
-4.7519

> <Gold.Chemscore.Metal.Weighted>
-0.0000

> <Gold.Chemscore.Lipo.Weighted>
-6.4808

> <Gold.Chemscore.Internal_Hbond.Weighted>
0.0000

> <Gold.Chemscore.DEClash.Weighted>
0.2320

> <Gold.Chemscore.DEInternal.Weighted>
3.4328

> <Gold.Chemscore.Rot.Weighted>
4.2951

> <Gold.Chemscore.Internal.Correction.Weighted>
   9.000000E+99

> <Gold.Protein.RotatedTorsions>
[ 6907 6896 6895 6894 ] final -139.18 input  -60.11 | X-H torsion
[ 7974 7965 7964 7962 ] final -169.07 input  175.53 | X-H torsion
[ 8008 7997 7996 7995 ] final -134.94 input   59.86 | X-H torsion
[ 10167 10162 10161 10158 ] final  103.42 input  -65.29 | X-H torsion
[ 10718 10713 10712 10709 ] final  111.49 input   66.30 | X-H torsion
[ 10763 10752 10751 10750 ] final  129.93 input  -60.55 | X-H torsion
[ 11005 11000 10999 10996 ] final  -49.31 input  -57.11 | X-H torsion

> <Gold.Protein.ActiveResidues>
 VAL166  LYS551  ARG553  GLY616  TRP617  ASP618  TYR619  PRO620  LYS621  CYS622 
 ASP623  PHE694  ASN695  SER759  ASP760  ASP761  ALA762  ILE779  LEU786  VAL792 
 PHE793  MET794  SER795  GLU796  ALA797  LYS798  CYS799  TRP800  GLU811  SER814 

> <Gold.Protein.RotatedAtoms>
  151.0445  133.5677  159.2647 H   0  0  0  0  0  0  0  0  0  0  0  0  # atno 6907 bound_to 6896
  151.2711  135.0684  159.9144 H   0  0  0  0  0  0  0  0  0  0  0  0  # atno 6908 bound_to 6896
  152.5370  134.0175  159.8020 H   0  0  0  0  0  0  0  0  0  0  0  0  # atno 6909 bound_to 6896
  144.7192  140.2276  143.6308 H   0  0  0  0  0  0  0  0  0  0  0  0  # atno 7974 bound_to 7965
  155.3704  140.0488  157.3045 H   0  0  0  0  0  0  0  0  0  0  0  0  # atno 8008 bound_to 7997
  154.5133  140.2199  155.9077 H   0  0  0  0  0  0  0  0  0  0  0  0  # atno 8009 bound_to 7997
  156.1607  140.3117  155.8809 H   0  0  0  0  0  0  0  0  0  0  0  0  # atno 8010 bound_to 7997
  139.7264  144.7046  151.0790 H   0  0  0  0  0  0  0  0  0  0  0  0  # atno 10167 bound_to 10162
  157.6442  131.0951  150.6756 H   0  0  0  0  0  0  0  0  0  0  0  0  # atno 10718 bound_to 10713
  153.7498  135.3211  155.3319 H   0  0  0  0  0  0  0  0  0  0  0  0  # atno 10763 bound_to 10752
  154.8267  135.4564  154.0943 H   0  0  0  0  0  0  0  0  0  0  0  0  # atno 10764 bound_to 10752
  153.2142  135.6940  153.8159 H   0  0  0  0  0  0  0  0  0  0  0  0  # atno 10765 bound_to 10752
  141.0752  133.6668  156.3567 H   0  0  0  0  0  0  0  0  0  0  0  0  # atno 11005 bound_to 11000
  145.8441  139.2144  143.1810 LP  0  0  0  0  0  0  0  0  0  0  0  0  # atno 17320 bound_to 7965
  146.0319  140.8249  142.9871 LP  0  0  0  0  0  0  0  0  0  0  0  0  # atno 17321 bound_to 7965
  140.7763  143.5099  150.9665 LP  0  0  0  0  0  0  0  0  0  0  0  0  # atno 17342 bound_to 10162
  139.8787  143.7100  152.3159 LP  0  0  0  0  0  0  0  0  0  0  0  0  # atno 17343 bound_to 10162
  156.7076  130.4642  149.5556 LP  0  0  0  0  0  0  0  0  0  0  0  0  # atno 17370 bound_to 10713
  156.1752  130.6463  151.0886 LP  0  0  0  0  0  0  0  0  0  0  0  0  # atno 17371 bound_to 10713
  140.5589  134.5954  157.5428 LP  0  0  0  0  0  0  0  0  0  0  0  0  # atno 17394 bound_to 11000
  139.9564  134.7528  156.0332 LP  0  0  0  0  0  0  0  0  0  0  0  0  # atno 17395 bound_to 11000

$$$$
