AV-unprocessed.smi:228|AV-procd|sdf|1744|dock10
  -GOLD-   2262020253D 1   1.00000     0.00000
 Structure written by MMmdl.
 60 63  0  0  0  0  0  0  0  0  2 V2000
  152.5075  139.1985  155.2929 C   0  0  0  0  0  0  0  0  0  0  0  0
  151.5217  139.6287  156.2766 N   0  0  0  0  0  0  0  0  0  0  0  0
  150.2847  140.2090  155.7473 C   0  0  0  0  0  0  0  0  0  0  0  0
  150.0150  141.6457  156.2526 C   0  0  1  0  0  0  0  0  0  0  0  0
  148.8821  142.1457  155.5714 O   0  0  0  0  0  0  0  0  0  0  0  0
  149.7057  141.6684  157.7625 C   0  0  0  0  0  0  0  0  0  0  0  0
  150.7343  142.4077  158.5368 N   0  3  0  0  0  0  0  0  0  0  0  0
  151.8723  141.5484  158.9404 C   0  0  0  0  0  0  0  0  0  0  0  0
  152.8746  142.3493  159.7890 C   0  0  0  0  0  0  0  0  0  0  0  0
  153.3201  143.4845  159.0574 O   0  0  0  0  0  0  0  0  0  0  0  0
  152.2496  144.3637  158.7343 C   0  0  0  0  0  0  0  0  0  0  0  0
  151.2276  143.6287  157.8511 C   0  0  0  0  0  0  0  0  0  0  0  0
  151.4317  138.7732  157.3290 C   0  0  0  0  0  0  0  0  0  0  0  0
  152.5592  138.3568  157.9668 N   0  0  0  0  0  0  0  0  0  0  0  0
  152.4783  137.5090  158.9957 C   0  0  0  0  0  0  0  0  0  0  0  0
  151.3910  136.9607  159.5386 N   0  0  0  0  0  0  0  0  0  0  0  0
  150.2547  137.3738  158.9071 C   0  0  0  0  0  0  0  0  0  0  0  0
  150.1873  138.2731  157.8052 C   0  0  0  0  0  0  0  0  0  0  0  0
  148.8646  138.4499  157.4191 N   0  0  0  0  0  0  0  0  0  0  0  0
  148.1875  137.7049  158.2493 C   0  0  0  0  0  0  0  0  0  0  0  0
  148.9417  137.0194  159.1758 N   0  0  0  0  0  0  0  0  0  0  0  0
  148.4465  136.1277  160.1875 C   0  0  0  0  0  0  0  0  0  0  0  0
  148.1787  134.6501  159.8881 C   0  0  0  0  0  0  0  0  0  0  0  0
  146.9879  134.6757  160.8752 C   0  0  0  0  0  0  0  0  0  0  0  0
  145.7190  133.9180  160.4365 C   0  0  0  0  0  0  0  0  0  0  0  0
  144.6114  134.1824  161.2748 O   0  0  0  0  0  0  0  0  0  0  0  0
  147.3418  134.1924  162.2939 C   0  0  0  0  0  0  0  0  0  0  0  0
  146.2416  134.3073  163.1737 O   0  0  0  0  0  0  0  0  0  0  0  0
  146.9987  136.2102  160.6774 C   0  0  0  0  0  0  0  0  0  0  0  0
  153.5155  139.2117  155.7076 H   0  0  0  0  0  0  0  0  0  0  0  0
  152.5039  139.8582  154.4248 H   0  0  0  0  0  0  0  0  0  0  0  0
  152.2913  138.1864  154.9478 H   0  0  0  0  0  0  0  0  0  0  0  0
  150.2993  140.1911  154.6566 H   0  0  0  0  0  0  0  0  0  0  0  0
  149.4625  139.5508  156.0315 H   0  0  0  0  0  0  0  0  0  0  0  0
  150.8583  142.2991  156.0361 H   0  0  0  0  0  0  0  0  0  0  0  0
  148.8822  143.0888  155.6405 H   0  0  0  0  0  0  0  0  0  0  0  0
  148.7233  142.1191  157.9137 H   0  0  0  0  0  0  0  0  0  0  0  0
  149.6350  140.6527  158.1549 H   0  0  0  0  0  0  0  0  0  0  0  0
  151.5075  140.6955  159.5141 H   0  0  0  0  0  0  0  0  0  0  0  0
  152.3656  141.1516  158.0517 H   0  0  0  0  0  0  0  0  0  0  0  0
  152.4237  142.6632  160.7320 H   0  0  0  0  0  0  0  0  0  0  0  0
  153.7358  141.7292  160.0388 H   0  0  0  0  0  0  0  0  0  0  0  0
  151.7805  144.7377  159.6459 H   0  0  0  0  0  0  0  0  0  0  0  0
  152.6503  145.2279  158.2044 H   0  0  0  0  0  0  0  0  0  0  0  0
  151.6899  143.3545  156.9015 H   0  0  0  0  0  0  0  0  0  0  0  0
  150.4029  144.3016  157.6187 H   0  0  0  0  0  0  0  0  0  0  0  0
  153.4180  137.2285  159.4478 H   0  0  0  0  0  0  0  0  0  0  0  0
  147.1105  137.6325  158.2031 H   0  0  0  0  0  0  0  0  0  0  0  0
  149.1269  136.2144  161.0369 H   0  0  0  0  0  0  0  0  0  0  0  0
  147.8877  134.4734  158.8524 H   0  0  0  0  0  0  0  0  0  0  0  0
  148.9930  133.9835  160.1741 H   0  0  0  0  0  0  0  0  0  0  0  0
  145.4392  134.1891  159.4182 H   0  0  0  0  0  0  0  0  0  0  0  0
  145.8827  132.8402  160.4411 H   0  0  0  0  0  0  0  0  0  0  0  0
  144.8319  133.9205  162.1557 H   0  0  0  0  0  0  0  0  0  0  0  0
  147.6741  133.1540  162.2824 H   0  0  0  0  0  0  0  0  0  0  0  0
  148.1648  134.7713  162.7138 H   0  0  0  0  0  0  0  0  0  0  0  0
  145.6733  134.9929  162.8570 H   0  0  0  0  0  0  0  0  0  0  0  0
  146.8711  136.7922  161.5907 H   0  0  0  0  0  0  0  0  0  0  0  0
  146.3097  136.5549  159.9059 H   0  0  0  0  0  0  0  0  0  0  0  0
  150.2868  142.7034  159.3930 H   0  0  0  0  0  0  0  0  0  0  0  0
  1  2  1  0  0  0  0
  1 30  1  0  0  0  0
  1 31  1  0  0  0  0
  1 32  1  0  0  0  0
  2  3  1  0  0  0  0
  2 13  1  0  0  0  0
  3  4  1  0  0  0  0
  3 33  1  0  0  0  0
  3 34  1  0  0  0  0
  4  5  1  0  0  0  0
  4  6  1  0  0  0  0
  4 35  1  0  0  0  0
  5 36  1  0  0  0  0
  6  7  1  0  0  0  0
  6 37  1  0  0  0  0
  6 38  1  0  0  0  0
  7 12  1  0  0  0  0
  7  8  1  0  0  0  0
  7 60  1  0  0  0  0
  8  9  1  0  0  0  0
  8 39  1  0  0  0  0
  8 40  1  0  0  0  0
  9 10  1  0  0  0  0
  9 41  1  0  0  0  0
  9 42  1  0  0  0  0
 10 11  1  0  0  0  0
 11 12  1  0  0  0  0
 11 43  1  0  0  0  0
 11 44  1  0  0  0  0
 12 45  1  0  0  0  0
 12 46  1  0  0  0  0
 13 18  1  0  0  0  0
 13 14  2  0  0  0  0
 14 15  1  0  0  0  0
 15 16  2  0  0  0  0
 15 47  1  0  0  0  0
 16 17  1  0  0  0  0
 17 21  1  0  0  0  0
 17 18  2  0  0  0  0
 18 19  1  0  0  0  0
 19 20  2  0  0  0  0
 20 21  1  0  0  0  0
 20 48  1  0  0  0  0
 21 22  1  0  0  0  0
 22 29  1  0  0  0  0
 22 23  1  0  0  0  0
 22 49  1  0  0  0  0
 23 24  1  0  0  0  0
 23 50  1  0  0  0  0
 23 51  1  0  0  0  0
 24 25  1  0  0  0  0
 24 27  1  0  0  0  0
 24 29  1  0  0  0  0
 25 26  1  0  0  0  0
 25 52  1  0  0  0  0
 25 53  1  0  0  0  0
 26 54  1  0  0  0  0
 27 28  1  0  0  0  0
 27 55  1  0  0  0  0
 27 56  1  0  0  0  0
 28 57  1  0  0  0  0
 29 58  1  0  0  0  0
 29 59  1  0  0  0  0
M  CHG  1   7   1
M  END
> <s_m_source_file>
AV-unprocessed.smi

> <i_m_source_file_index>
228

> <i_lp_mmshare_version>
43012

> <i_f3d_flags>
0

> <s_epik_input>
W0NIMl0xW0NIMl1PW0NIMl1bQ0gyXU4xW0NIMl1bQ0BASF0oW09IXSlbQ0gyXU4oW0NIM10pYyhuW2NIXW4yKWMoYzIzKW5bY0hdbjNbQ0hdKFtDSDJdNClbQ0gyXUM0KFtDSDJdW09IXSlbQ0gyXVtPSF0=

> <s_epik_cmdline>
J2VwaWtfcHl0aG9uJywgJy1waCcsICc3LjAnLCAnLXRuJywgJzgnLCAnLW1hJywgJzIwMCcsICctbWV0YWxfYmluZGluZycsICctaW1hZScsICc8aW5maWxlLm1hZT4nLCAnLW9tYWUnLCAnPG91dGZpbGUubWFlPic=

> <r_lp_tautomer_probability>
1

> <r_epik_Ionization_Penalty>
0.403032

> <r_epik_Ionization_Penalty_Charging>
0.40072

> <r_epik_Ionization_Penalty_Neutral>
0.00231206

> <r_epik_State_Penalty>
0.387266

> <r_epik_Charging_Adjusted_Penalty>
0.787986

> <i_epik_Tot_Q>
1

> <i_epik_Tot_abs_Q>
1

> <r_epik_Metal_State_Penalty>
0.385845

> <b_epik_Metal_Only>
0

> <s_lp_Force_Field>
OPLS_2005

> <r_lp_Energy>
50.3724

> <b_lp_Chiralities_Consistent>
1

> <s_lp_Variant>
AV-unprocessed.smi:228-2

> <Gold.Version>
5.8.1

> <Gold.Id.Protein>
6NUR|6NUR_protein|mol2

> <Gold.PLP.Fitness>
48.2875

> <Gold.PLP.PLP>
-46.4588

> <Gold.PLP.part.hbond>
-2.9043

> <Gold.PLP.part.metal>
0.0000

> <Gold.PLP.part.buried>
-7.9876

> <Gold.PLP.part.nonpolar>
-36.8695

> <Gold.PLP.part.repulsive>
0.0823

> <Gold.PLP.ligand.clash>
0.0000

> <Gold.PLP.ligand.torsion>
2.6854

> <Gold.PLP.Chemscore.Hbond>
2.0000

> <Gold.PLP.Chemscore.CHOScore>
0.0000

> <Gold.PLP.Chemscore.Metal>
0.0000

> <Gold.Chemscore.Hbonds>
donor molecule, donor type, donor heavy atom, donor atom, acceptor molecule, acceptor atom, score
      L1  H     5    36       P1  8028  1.00
      P1  H  6896  6907       L1    16  1.00

> <Gold.PLP.Chemscore.Internal.Correction>
1.1995

> <Gold.Rescore>
     Score         DG    S(hbond)    S(metal)    S(lipo)     H(rot)  DE(clash)    DE(int)     intcor
      6.99     -10.85       1.91        0.00     103.11       5.11       0.11       3.74       ----

> <Gold.Chemscore.Fitness>
6.9943

> <Gold.Chemscore.DG>
-10.8452

> <Gold.Chemscore.ZeroCoef>
-5.4800

> <Gold.Chemscore.Hbond>
1.9148

> <Gold.Chemscore.Metal>
0.0000

> <Gold.Chemscore.Lipo>
103.1099

> <Gold.Chemscore.Internal_Hbond>
0.0000

> <Gold.Chemscore.DEClash>
0.1135

> <Gold.Chemscore.DEInternal>
3.7375

> <Gold.Chemscore.Rot>
5.1149

> <Gold.Chemscore.Internal.Correction>
   9.000000E+99

> <Gold.Chemscore.Hbonds>
donor molecule, donor type, donor heavy atom, donor atom, acceptor molecule, acceptor atom, score
      L1  H     5    36       P1  8028  0.99
      P1  H  6896  6907       L1    16  0.69

> <Gold.Chemscore.Hbond.Weighted>
-6.3955

> <Gold.Chemscore.Metal.Weighted>
-0.0000

> <Gold.Chemscore.Lipo.Weighted>
-12.0639

> <Gold.Chemscore.Internal_Hbond.Weighted>
0.0000

> <Gold.Chemscore.DEClash.Weighted>
0.1135

> <Gold.Chemscore.DEInternal.Weighted>
3.7375

> <Gold.Chemscore.Rot.Weighted>
13.0942

> <Gold.Chemscore.Internal.Correction.Weighted>
   9.000000E+99

> <Gold.Protein.RotatedTorsions>
[ 6907 6896 6895 6894 ] final  -19.20 input  -60.11 | X-H torsion
[ 7974 7965 7964 7962 ] final  -93.25 input  175.53 | X-H torsion
[ 8008 7997 7996 7995 ] final -127.19 input   59.86 | X-H torsion
[ 10167 10162 10161 10158 ] final -132.24 input  -65.29 | X-H torsion
[ 10718 10713 10712 10709 ] final   83.26 input   66.30 | X-H torsion
[ 10763 10752 10751 10750 ] final  141.33 input  -60.55 | X-H torsion
[ 11005 11000 10999 10996 ] final   -2.68 input  -57.11 | X-H torsion

> <Gold.Protein.ActiveResidues>
 VAL166  LYS551  ARG553  GLY616  TRP617  ASP618  TYR619  PRO620  LYS621  CYS622 
 ASP623  PHE694  ASN695  SER759  ASP760  ASP761  ALA762  ILE779  LEU786  VAL792 
 PHE793  MET794  SER795  GLU796  ALA797  LYS798  CYS799  TRP800  GLU811  SER814 

> <Gold.Protein.RotatedAtoms>
  151.2667  135.0671  159.9118 H   0  0  0  0  0  0  0  0  0  0  0  0  # atno 6907 bound_to 6896
  152.5357  134.0174  159.7976 H   0  0  0  0  0  0  0  0  0  0  0  0  # atno 6908 bound_to 6896
  151.0405  133.5660  159.2682 H   0  0  0  0  0  0  0  0  0  0  0  0  # atno 6909 bound_to 6896
  145.3890  140.9526  143.2351 H   0  0  0  0  0  0  0  0  0  0  0  0  # atno 7974 bound_to 7965
  155.2421  140.0429  157.2976 H   0  0  0  0  0  0  0  0  0  0  0  0  # atno 8008 bound_to 7997
  154.5822  140.2403  155.8008 H   0  0  0  0  0  0  0  0  0  0  0  0  # atno 8009 bound_to 7997
  156.2201  140.2972  155.9939 H   0  0  0  0  0  0  0  0  0  0  0  0  # atno 8010 bound_to 7997
  139.9106  143.6498  152.2576 H   0  0  0  0  0  0  0  0  0  0  0  0  # atno 10167 bound_to 10162
  157.6875  131.0083  150.2496 H   0  0  0  0  0  0  0  0  0  0  0  0  # atno 10718 bound_to 10713
  153.9375  135.2983  155.3444 H   0  0  0  0  0  0  0  0  0  0  0  0  # atno 10763 bound_to 10752
  154.7494  135.4987  153.9266 H   0  0  0  0  0  0  0  0  0  0  0  0  # atno 10764 bound_to 10752
  153.1059  135.6747  153.9693 H   0  0  0  0  0  0  0  0  0  0  0  0  # atno 10765 bound_to 10752
  140.6610  133.9320  155.8436 H   0  0  0  0  0  0  0  0  0  0  0  0  # atno 11005 bound_to 11000
  144.8454  139.5406  143.6881 LP  0  0  0  0  0  0  0  0  0  0  0  0  # atno 17320 bound_to 7965
  146.2806  139.6868  142.9231 LP  0  0  0  0  0  0  0  0  0  0  0  0  # atno 17321 bound_to 7965
  139.6946  144.7643  151.1379 LP  0  0  0  0  0  0  0  0  0  0  0  0  # atno 17342 bound_to 10162
  140.7686  143.5542  150.9171 LP  0  0  0  0  0  0  0  0  0  0  0  0  # atno 17343 bound_to 10162
  156.3095  130.3770  149.7674 LP  0  0  0  0  0  0  0  0  0  0  0  0  # atno 17370 bound_to 10713
  156.5279  130.8244  151.3227 LP  0  0  0  0  0  0  0  0  0  0  0  0  # atno 17371 bound_to 10713
  141.0465  134.0546  157.3838 LP  0  0  0  0  0  0  0  0  0  0  0  0  # atno 17394 bound_to 11000
  139.9013  135.0165  156.7281 LP  0  0  0  0  0  0  0  0  0  0  0  0  # atno 17395 bound_to 11000

$$$$
