AV-unprocessed.smi:3260|AV-procd|sdf|12477|dock2
  -GOLD-   2272018373D 1   1.00000     0.00000
 Structure written by MMmdl.
 38 39  0  0  0  0  0  0  0  0  1 V2000
  145.5982  136.1028  151.4270 C   0  0  0  0  0  0  0  0  0  0  0  0
  146.1706  137.3504  151.8855 N   0  0  0  0  0  0  0  0  0  0  0  0
  146.4221  137.7586  153.1777 C   0  0  0  0  0  0  0  0  0  0  0  0
  146.9641  139.0116  153.1136 C   0  0  0  0  0  0  0  0  0  0  0  0
  147.4118  139.9037  154.2375 C   0  0  0  0  0  0  0  0  0  0  0  0
  147.7730  141.3105  153.7335 C   0  0  0  0  0  0  0  0  0  0  0  0
  148.4324  142.0975  154.7689 N   0  0  0  0  0  0  0  0  0  0  0  0
  149.6726  141.8749  155.2256 C   0  0  0  0  0  0  0  0  0  0  0  0
  150.4035  140.9703  154.8212 O   0  0  0  0  0  0  0  0  0  0  0  0
  150.0196  142.7566  156.1734 N   0  0  0  0  0  0  0  0  0  0  0  0
  151.3160  142.8002  156.8400 C   0  0  0  0  0  0  0  0  0  0  0  0
  151.2150  143.4811  158.2146 C   0  0  1  0  0  0  0  0  0  0  0  0
  152.4956  143.3935  159.0411 C   0  0  0  0  0  0  0  0  0  0  0  0
  152.3810  144.5729  159.9938 C   0  0  0  0  0  0  0  0  0  0  0  0
  151.3144  145.4673  159.3540 C   0  0  0  0  0  0  0  0  0  0  0  0
  151.0445  144.8838  158.0867 O   0  0  0  0  0  0  0  0  0  0  0  0
  147.0056  139.2822  151.7160 C   0  0  0  0  0  0  0  0  0  0  0  0
  146.5317  138.2867  150.9844 N   0  0  0  0  0  0  0  0  0  0  0  0
  145.2474  135.5175  152.2774 H   0  0  0  0  0  0  0  0  0  0  0  0
  146.3515  135.5287  150.8869 H   0  0  0  0  0  0  0  0  0  0  0  0
  144.7556  136.3030  150.7641 H   0  0  0  0  0  0  0  0  0  0  0  0
  146.1947  137.1327  154.0280 H   0  0  0  0  0  0  0  0  0  0  0  0
  146.6308  139.9822  154.9945 H   0  0  0  0  0  0  0  0  0  0  0  0
  148.2728  139.4675  154.7456 H   0  0  0  0  0  0  0  0  0  0  0  0
  148.4088  141.2485  152.8484 H   0  0  0  0  0  0  0  0  0  0  0  0
  146.8704  141.8416  153.4298 H   0  0  0  0  0  0  0  0  0  0  0  0
  147.9097  142.8665  155.1615 H   0  0  0  0  0  0  0  0  0  0  0  0
  149.3474  143.4614  156.4384 H   0  0  0  0  0  0  0  0  0  0  0  0
  151.6554  141.7720  156.9671 H   0  0  0  0  0  0  0  0  0  0  0  0
  152.0618  143.2953  156.2154 H   0  0  0  0  0  0  0  0  0  0  0  0
  150.3792  143.0697  158.7844 H   0  0  0  0  0  0  0  0  0  0  0  0
  152.6005  142.4384  159.5564 H   0  0  0  0  0  0  0  0  0  0  0  0
  153.3675  143.5278  158.3993 H   0  0  0  0  0  0  0  0  0  0  0  0
  152.0632  144.2510  160.9861 H   0  0  0  0  0  0  0  0  0  0  0  0
  153.3362  145.0884  160.0981 H   0  0  0  0  0  0  0  0  0  0  0  0
  150.4026  145.4644  159.9528 H   0  0  0  0  0  0  0  0  0  0  0  0
  151.6451  146.5003  159.2432 H   0  0  0  0  0  0  0  0  0  0  0  0
  147.3640  140.1694  151.2149 H   0  0  0  0  0  0  0  0  0  0  0  0
  1  2  1  0  0  0  0
  1 19  1  0  0  0  0
  1 20  1  0  0  0  0
  1 21  1  0  0  0  0
  2 18  1  0  0  0  0
  2  3  1  0  0  0  0
  3  4  2  0  0  0  0
  3 22  1  0  0  0  0
  4  5  1  0  0  0  0
  4 17  1  0  0  0  0
  5  6  1  0  0  0  0
  5 23  1  0  0  0  0
  5 24  1  0  0  0  0
  6  7  1  0  0  0  0
  6 25  1  0  0  0  0
  6 26  1  0  0  0  0
  7  8  1  0  0  0  0
  7 27  1  0  0  0  0
  8  9  2  0  0  0  0
  8 10  1  0  0  0  0
 10 11  1  0  0  0  0
 10 28  1  0  0  0  0
 11 12  1  0  0  0  0
 11 29  1  0  0  0  0
 11 30  1  0  0  0  0
 12 16  1  0  0  0  0
 12 13  1  0  0  0  0
 12 31  1  0  0  0  0
 13 14  1  0  0  0  0
 13 32  1  0  0  0  0
 13 33  1  0  0  0  0
 14 15  1  0  0  0  0
 14 34  1  0  0  0  0
 14 35  1  0  0  0  0
 15 16  1  0  0  0  0
 15 36  1  0  0  0  0
 15 37  1  0  0  0  0
 17 18  2  0  0  0  0
 17 38  1  0  0  0  0
M  END
> <s_m_source_file>
AV-unprocessed.smi

> <i_m_source_file_index>
3260

> <i_lp_mmshare_version>
43012

> <i_f3d_flags>
0

> <s_epik_input>
W0NIM11uMVtjSF1jKFtjSF1uMSlbQ0gyXVtDSDJdW05IXUMoPU8pW05IXVtDSDJdW0NAQEhdMltDSDJdW0NIMl1bQ0gyXU8y

> <s_epik_cmdline>
J2VwaWtfcHl0aG9uJywgJy1waCcsICc3LjAnLCAnLXRuJywgJzgnLCAnLW1hJywgJzIwMCcsICctbWV0YWxfYmluZGluZycsICctaW1hZScsICc8aW5maWxlLm1hZT4nLCAnLW9tYWUnLCAnPG91dGZpbGUubWFlPic=

> <r_lp_tautomer_probability>
1

> <r_epik_Ionization_Penalty>
0.000550106

> <r_epik_Ionization_Penalty_Charging>
0

> <r_epik_Ionization_Penalty_Neutral>
0.000550106

> <r_epik_State_Penalty>
-0

> <r_epik_Charging_Adjusted_Penalty>
0

> <i_epik_Tot_Q>
0

> <i_epik_Tot_abs_Q>
0

> <r_epik_Metal_State_Penalty>
-0

> <b_epik_Metal_Only>
0

> <s_lp_Force_Field>
OPLS_2005

> <r_lp_Energy>
10.8429

> <b_lp_Chiralities_Consistent>
1

> <s_lp_Variant>
AV-unprocessed.smi:3260-2

> <Gold.Version>
5.8.1

> <Gold.Id.Protein>
6NUR|6NUR_protein|mol2

> <Gold.PLP.Fitness>
47.3128

> <Gold.PLP.PLP>
-36.6481

> <Gold.PLP.part.hbond>
-4.0000

> <Gold.PLP.part.metal>
0.0000

> <Gold.PLP.part.buried>
-1.3877

> <Gold.PLP.part.nonpolar>
-32.8836

> <Gold.PLP.part.repulsive>
2.0722

> <Gold.PLP.ligand.clash>
0.0000

> <Gold.PLP.ligand.torsion>
0.3701

> <Gold.PLP.Chemscore.Hbond>
3.1227

> <Gold.PLP.Chemscore.CHOScore>
0.6615

> <Gold.PLP.Chemscore.Metal>
0.0000

> <Gold.Chemscore.Hbonds>
donor molecule, donor type, donor heavy atom, donor atom, acceptor molecule, acceptor atom, score
      L1  H     7    27       P1  8028  0.33
      L1  H    10    28       P1  8028  0.59
      P1  H  7954  7966       L1    18  1.00
      P1  H  7989  7998       L1     9  0.72
      L1  C    17    38       P1  7957  0.56

> <Gold.PLP.Chemscore.Internal.Correction>
0.0522

> <Gold.Rescore>
     Score         DG    S(hbond)    S(metal)    S(lipo)     H(rot)  DE(clash)    DE(int)     intcor
     15.81     -20.19       2.29        0.00     100.78       1.85       4.00       0.37       ----

> <Gold.Chemscore.Fitness>
15.8117

> <Gold.Chemscore.DG>
-20.1876

> <Gold.Chemscore.ZeroCoef>
-5.4800

> <Gold.Chemscore.Hbond>
2.2934

> <Gold.Chemscore.Metal>
0.0000

> <Gold.Chemscore.Lipo>
100.7774

> <Gold.Chemscore.Internal_Hbond>
0.0000

> <Gold.Chemscore.DEClash>
4.0027

> <Gold.Chemscore.DEInternal>
0.3732

> <Gold.Chemscore.Rot>
1.8528

> <Gold.Chemscore.Internal.Correction>
   9.000000E+99

> <Gold.Chemscore.Hbonds>
donor molecule, donor type, donor heavy atom, donor atom, acceptor molecule, acceptor atom, score
      L1  H     7    27       P1  8028  0.29
      L1  H    10    28       P1  8028  0.57
      P1  H  7954  7966       L1    18  0.22
      P1  H  7989  7998       L1     9  0.72

> <Gold.Chemscore.Hbond.Weighted>
-7.6599

> <Gold.Chemscore.Metal.Weighted>
-0.0000

> <Gold.Chemscore.Lipo.Weighted>
-11.7910

> <Gold.Chemscore.Internal_Hbond.Weighted>
0.0000

> <Gold.Chemscore.DEClash.Weighted>
4.0027

> <Gold.Chemscore.DEInternal.Weighted>
0.3732

> <Gold.Chemscore.Rot.Weighted>
4.7433

> <Gold.Chemscore.Internal.Correction.Weighted>
   9.000000E+99

> <Gold.Protein.RotatedTorsions>
[ 6907 6896 6895 6894 ] final  -15.04 input  -60.11 | X-H torsion
[ 7974 7965 7964 7962 ] final   99.35 input  175.53 | X-H torsion
[ 8008 7997 7996 7995 ] final  168.64 input   59.86 | X-H torsion
[ 10167 10162 10161 10158 ] final   78.43 input  -65.29 | X-H torsion
[ 10718 10713 10712 10709 ] final  152.20 input   66.30 | X-H torsion
[ 10763 10752 10751 10750 ] final   62.24 input  -60.55 | X-H torsion
[ 11005 11000 10999 10996 ] final  113.25 input  -57.11 | X-H torsion

> <Gold.Protein.ActiveResidues>
 VAL166  LYS551  ARG553  GLY616  TRP617  ASP618  TYR619  PRO620  LYS621  CYS622 
 ASP623  PHE694  ASN695  SER759  ASP760  ASP761  ALA762  ILE779  LEU786  VAL792 
 PHE793  MET794  SER795  GLU796  ALA797  LYS798  CYS799  TRP800  GLU811  SER814 

> <Gold.Protein.RotatedAtoms>
  151.3300  135.0839  159.9335 H   0  0  0  0  0  0  0  0  0  0  0  0  # atno 6907 bound_to 6896
  152.5237  133.9552  159.7701 H   0  0  0  0  0  0  0  0  0  0  0  0  # atno 6908 bound_to 6896
  150.9889  133.6117  159.2741 H   0  0  0  0  0  0  0  0  0  0  0  0  # atno 6909 bound_to 6896
  145.4000  139.2349  143.3305 H   0  0  0  0  0  0  0  0  0  0  0  0  # atno 7974 bound_to 7965
  156.1529  140.1585  156.8741 H   0  0  0  0  0  0  0  0  0  0  0  0  # atno 8008 bound_to 7997
  154.5087  140.0806  156.7984 H   0  0  0  0  0  0  0  0  0  0  0  0  # atno 8009 bound_to 7997
  155.3861  140.3407  155.4251 H   0  0  0  0  0  0  0  0  0  0  0  0  # atno 8010 bound_to 7997
  139.9710  144.5895  150.7986 H   0  0  0  0  0  0  0  0  0  0  0  0  # atno 10167 bound_to 10162
  157.2609  131.0798  151.1666 H   0  0  0  0  0  0  0  0  0  0  0  0  # atno 10718 bound_to 10713
  152.9976  135.5472  154.6162 H   0  0  0  0  0  0  0  0  0  0  0  0  # atno 10763 bound_to 10752
  154.5472  135.2824  155.1044 H   0  0  0  0  0  0  0  0  0  0  0  0  # atno 10764 bound_to 10752
  154.2298  135.6435  153.5224 H   0  0  0  0  0  0  0  0  0  0  0  0  # atno 10765 bound_to 10752
  139.8948  134.9546  156.6710 H   0  0  0  0  0  0  0  0  0  0  0  0  # atno 11005 bound_to 11000
  146.2756  140.4696  142.8797 LP  0  0  0  0  0  0  0  0  0  0  0  0  # atno 17320 bound_to 7965
  144.8380  140.6813  143.6247 LP  0  0  0  0  0  0  0  0  0  0  0  0  # atno 17321 bound_to 7965
  140.7522  143.2986  151.3140 LP  0  0  0  0  0  0  0  0  0  0  0  0  # atno 17342 bound_to 10162
  139.6481  144.0413  152.2606 LP  0  0  0  0  0  0  0  0  0  0  0  0  # atno 17343 bound_to 10162
  157.3176  130.6921  149.6251 LP  0  0  0  0  0  0  0  0  0  0  0  0  # atno 17370 bound_to 10713
  155.9664  130.4345  150.5051 LP  0  0  0  0  0  0  0  0  0  0  0  0  # atno 17371 bound_to 10713
  140.7373  133.9007  155.8253 LP  0  0  0  0  0  0  0  0  0  0  0  0  # atno 17394 bound_to 11000
  141.0105  134.1026  157.4226 LP  0  0  0  0  0  0  0  0  0  0  0  0  # atno 17395 bound_to 11000

$$$$
