AV-unprocessed.smi:3165|AV-procd|sdf|12085|dock6
  -GOLD-   2272017513D 1   1.00000     0.00000
 Structure written by MMmdl.
 38 39  0  0  0  0  0  0  0  0  2 V2000
  147.8386  142.0147  154.1026 C   0  0  0  0  0  0  0  0  0  0  0  0
  149.0974  141.3638  154.6994 C   0  0  2  0  0  0  0  0  0  0  0  0
  148.9397  139.8362  154.8811 C   0  0  0  0  0  0  0  0  0  0  0  0
  150.2120  139.1399  154.9424 N   0  0  0  0  0  0  0  0  0  0  0  0
  150.4590  137.8248  155.2775 C   0  0  0  0  0  0  0  0  0  0  0  0
  151.8093  137.6345  155.2037 C   0  0  0  0  0  0  0  0  0  0  0  0
  152.3103  138.9087  154.8166 C   0  0  0  0  0  0  0  0  0  0  0  0
  151.3520  139.8082  154.6639 N   0  0  0  0  0  0  0  0  0  0  0  0
  149.4283  142.0230  155.9826 N   0  3  0  0  0  0  0  0  0  0  0  0
  150.8171  141.8300  156.4516 C   0  0  0  0  0  0  0  0  0  0  0  0
  151.0487  142.5309  157.7977 C   0  0  2  0  0  0  0  0  0  0  0  0
  151.5804  143.9654  157.6100 C   0  0  0  0  0  0  0  0  0  0  0  0
  151.8974  144.6066  158.9656 C   0  0  0  0  0  0  0  0  0  0  0  0
  152.8337  143.6920  159.7616 C   0  0  0  0  0  0  0  0  0  0  0  0
  152.2508  142.2725  159.8417 C   0  0  0  0  0  0  0  0  0  0  0  0
  152.0090  141.7714  158.5298 O   0  0  0  0  0  0  0  0  0  0  0  0
  147.6138  141.6207  153.1111 H   0  0  0  0  0  0  0  0  0  0  0  0
  147.9666  143.0927  153.9975 H   0  0  0  0  0  0  0  0  0  0  0  0
  146.9662  141.8431  154.7338 H   0  0  0  0  0  0  0  0  0  0  0  0
  149.9185  141.5554  154.0066 H   0  0  0  0  0  0  0  0  0  0  0  0
  148.3935  139.6042  155.7956 H   0  0  0  0  0  0  0  0  0  0  0  0
  148.3580  139.4178  154.0586 H   0  0  0  0  0  0  0  0  0  0  0  0
  149.6640  137.1409  155.5360 H   0  0  0  0  0  0  0  0  0  0  0  0
  152.3571  136.7246  155.3989 H   0  0  0  0  0  0  0  0  0  0  0  0
  153.3346  139.2053  154.6450 H   0  0  0  0  0  0  0  0  0  0  0  0
  149.2906  143.0161  155.8597 H   0  0  0  0  0  0  0  0  0  0  0  0
  151.0445  140.7680  156.5435 H   0  0  0  0  0  0  0  0  0  0  0  0
  151.4972  142.2410  155.7044 H   0  0  0  0  0  0  0  0  0  0  0  0
  150.1087  142.5633  158.3521 H   0  0  0  0  0  0  0  0  0  0  0  0
  152.4826  143.9469  156.9969 H   0  0  0  0  0  0  0  0  0  0  0  0
  150.8509  144.5729  157.0735 H   0  0  0  0  0  0  0  0  0  0  0  0
  152.3513  145.5882  158.8261 H   0  0  0  0  0  0  0  0  0  0  0  0
  150.9735  144.7632  159.5240 H   0  0  0  0  0  0  0  0  0  0  0  0
  153.8111  143.6573  159.2788 H   0  0  0  0  0  0  0  0  0  0  0  0
  152.9931  144.0934  160.7627 H   0  0  0  0  0  0  0  0  0  0  0  0
  152.9515  141.6088  160.3485 H   0  0  0  0  0  0  0  0  0  0  0  0
  151.3271  142.2631  160.4225 H   0  0  0  0  0  0  0  0  0  0  0  0
  148.7889  141.6985  156.6943 H   0  0  0  0  0  0  0  0  0  0  0  0
  1  2  1  0  0  0  0
  1 17  1  0  0  0  0
  1 18  1  0  0  0  0
  1 19  1  0  0  0  0
  2  3  1  0  0  0  0
  2  9  1  0  0  0  0
  2 20  1  0  0  0  0
  3  4  1  0  0  0  0
  3 21  1  0  0  0  0
  3 22  1  0  0  0  0
  4  8  1  0  0  0  0
  4  5  1  0  0  0  0
  5  6  2  0  0  0  0
  5 23  1  0  0  0  0
  6  7  1  0  0  0  0
  6 24  1  0  0  0  0
  7  8  2  0  0  0  0
  7 25  1  0  0  0  0
  9 10  1  0  0  0  0
  9 26  1  0  0  0  0
  9 38  1  0  0  0  0
 10 11  1  0  0  0  0
 10 27  1  0  0  0  0
 10 28  1  0  0  0  0
 11 16  1  0  0  0  0
 11 12  1  0  0  0  0
 11 29  1  0  0  0  0
 12 13  1  0  0  0  0
 12 30  1  0  0  0  0
 12 31  1  0  0  0  0
 13 14  1  0  0  0  0
 13 32  1  0  0  0  0
 13 33  1  0  0  0  0
 14 15  1  0  0  0  0
 14 34  1  0  0  0  0
 14 35  1  0  0  0  0
 15 16  1  0  0  0  0
 15 36  1  0  0  0  0
 15 37  1  0  0  0  0
M  CHG  1   9   1
M  END
> <s_m_source_file>
AV-unprocessed.smi

> <i_m_source_file_index>
3165

> <i_lp_mmshare_version>
43012

> <i_f3d_flags>
0

> <s_epik_input>
bjFbY0hdW2NIXVtjSF1uMVtDSDJdW0NAQEhdKFtDSDNdKVtOSF1bQ0gyXVtDQEBIXTJbQ0gyXVtDSDJdW0NIMl1bQ0gyXU8y

> <s_epik_cmdline>
J2VwaWtfcHl0aG9uJywgJy1waCcsICc3LjAnLCAnLXRuJywgJzgnLCAnLW1hJywgJzIwMCcsICctbWV0YWxfYmluZGluZycsICctaW1hZScsICc8aW5maWxlLm1hZT4nLCAnLW9tYWUnLCAnPG91dGZpbGUubWFlPic=

> <r_lp_tautomer_probability>
1

> <r_epik_Ionization_Penalty>
0.00849196

> <r_epik_Ionization_Penalty_Charging>
0.00848754

> <r_epik_Ionization_Penalty_Neutral>
4.42049e-06

> <r_epik_State_Penalty>
0.00639836

> <r_epik_Charging_Adjusted_Penalty>
0.0148859

> <i_epik_Tot_Q>
1

> <i_epik_Tot_abs_Q>
1

> <r_epik_Metal_State_Penalty>
0.00639878

> <b_epik_Metal_Only>
0

> <s_lp_Force_Field>
OPLS_2005

> <r_lp_Energy>
12.7964

> <b_lp_Chiralities_Consistent>
1

> <s_lp_Variant>
AV-unprocessed.smi:3165-1

> <Gold.Version>
5.8.1

> <Gold.Id.Protein>
6NUR|6NUR_protein|mol2

> <Gold.PLP.Fitness>
48.5471

> <Gold.PLP.PLP>
-41.1998

> <Gold.PLP.part.hbond>
-1.9772

> <Gold.PLP.part.metal>
0.0000

> <Gold.PLP.part.buried>
-4.5095

> <Gold.PLP.part.nonpolar>
-36.0091

> <Gold.PLP.part.repulsive>
0.1841

> <Gold.PLP.ligand.clash>
0.0000

> <Gold.PLP.ligand.torsion>
0.8385

> <Gold.PLP.Chemscore.Hbond>
3.0000

> <Gold.PLP.Chemscore.CHOScore>
0.0000

> <Gold.PLP.Chemscore.Metal>
0.0000

> <Gold.Chemscore.Hbonds>
donor molecule, donor type, donor heavy atom, donor atom, acceptor molecule, acceptor atom, score
      L1  H     9    26       P1  8028  2.00
      P1  H  7989  7998       L1     8  1.00

> <Gold.PLP.Chemscore.Internal.Correction>
0.0244

> <Gold.Rescore>
     Score         DG    S(hbond)    S(metal)    S(lipo)     H(rot)  DE(clash)    DE(int)     intcor
     18.50     -20.85       1.98        0.00     110.74       1.64       0.11       2.24       ----

> <Gold.Chemscore.Fitness>
18.5049

> <Gold.Chemscore.DG>
-20.8532

> <Gold.Chemscore.ZeroCoef>
-5.4800

> <Gold.Chemscore.Hbond>
1.9838

> <Gold.Chemscore.Metal>
0.0000

> <Gold.Chemscore.Lipo>
110.7433

> <Gold.Chemscore.Internal_Hbond>
0.0000

> <Gold.Chemscore.DEClash>
0.1106

> <Gold.Chemscore.DEInternal>
2.2377

> <Gold.Chemscore.Rot>
1.6444

> <Gold.Chemscore.Internal.Correction>
   9.000000E+99

> <Gold.Chemscore.Hbonds>
donor molecule, donor type, donor heavy atom, donor atom, acceptor molecule, acceptor atom, score
      L1  H     9    26       P1  8028  1.00
      P1  H  7989  7998       L1     8  0.84

> <Gold.Chemscore.Hbond.Weighted>
-6.6259

> <Gold.Chemscore.Metal.Weighted>
-0.0000

> <Gold.Chemscore.Lipo.Weighted>
-12.9570

> <Gold.Chemscore.Internal_Hbond.Weighted>
0.0000

> <Gold.Chemscore.DEClash.Weighted>
0.1106

> <Gold.Chemscore.DEInternal.Weighted>
2.2377

> <Gold.Chemscore.Rot.Weighted>
4.2097

> <Gold.Chemscore.Internal.Correction.Weighted>
   9.000000E+99

> <Gold.Protein.RotatedTorsions>
[ 6907 6896 6895 6894 ] final  -11.42 input  -60.11 | X-H torsion
[ 7974 7965 7964 7962 ] final -167.47 input  175.53 | X-H torsion
[ 8008 7997 7996 7995 ] final -168.17 input   59.86 | X-H torsion
[ 10167 10162 10161 10158 ] final -145.57 input  -65.29 | X-H torsion
[ 10718 10713 10712 10709 ] final   45.59 input   66.30 | X-H torsion
[ 10763 10752 10751 10750 ] final  144.06 input  -60.55 | X-H torsion
[ 11005 11000 10999 10996 ] final   74.29 input  -57.11 | X-H torsion

> <Gold.Protein.ActiveResidues>
 VAL166  LYS551  ARG553  GLY616  TRP617  ASP618  TYR619  PRO620  LYS621  CYS622 
 ASP623  PHE694  ASN695  SER759  ASP760  ASP761  ALA762  ILE779  LEU786  VAL792 
 PHE793  MET794  SER795  GLU796  ALA797  LYS798  CYS799  TRP800  GLU811  SER814 

> <Gold.Protein.RotatedAtoms>
  151.3865  135.0948  159.9512 H   0  0  0  0  0  0  0  0  0  0  0  0  # atno 6907 bound_to 6896
  152.5093  133.9022  159.7457 H   0  0  0  0  0  0  0  0  0  0  0  0  # atno 6908 bound_to 6896
  150.9466  133.6541  159.2809 H   0  0  0  0  0  0  0  0  0  0  0  0  # atno 6909 bound_to 6896
  144.7222  140.2514  143.6278 H   0  0  0  0  0  0  0  0  0  0  0  0  # atno 7974 bound_to 7965
  155.8877  140.1019  157.1440 H   0  0  0  0  0  0  0  0  0  0  0  0  # atno 8008 bound_to 7997
  154.4011  140.1317  156.4340 H   0  0  0  0  0  0  0  0  0  0  0  0  # atno 8009 bound_to 7997
  155.7569  140.3464  155.5181 H   0  0  0  0  0  0  0  0  0  0  0  0  # atno 8010 bound_to 7997
  139.7793  143.8124  152.2636 H   0  0  0  0  0  0  0  0  0  0  0  0  # atno 10167 bound_to 10162
  157.4391  130.8071  149.7677 H   0  0  0  0  0  0  0  0  0  0  0  0  # atno 10718 bound_to 10713
  153.9826  135.2940  155.3419 H   0  0  0  0  0  0  0  0  0  0  0  0  # atno 10763 bound_to 10752
  154.7260  135.5088  153.8891 H   0  0  0  0  0  0  0  0  0  0  0  0  # atno 10764 bound_to 10752
  153.0847  135.6690  154.0087 H   0  0  0  0  0  0  0  0  0  0  0  0  # atno 10765 bound_to 10752
  139.9398  134.7420  156.1129 H   0  0  0  0  0  0  0  0  0  0  0  0  # atno 11005 bound_to 11000
  145.8224  139.2049  143.1930 LP  0  0  0  0  0  0  0  0  0  0  0  0  # atno 17320 bound_to 7965
  146.0502  140.8077  142.9785 LP  0  0  0  0  0  0  0  0  0  0  0  0  # atno 17321 bound_to 7965
  139.8182  144.7307  150.9608 LP  0  0  0  0  0  0  0  0  0  0  0  0  # atno 17342 bound_to 10162
  140.7818  143.4185  151.0879 LP  0  0  0  0  0  0  0  0  0  0  0  0  # atno 17343 bound_to 10162
  155.9942  130.3919  150.2869 LP  0  0  0  0  0  0  0  0  0  0  0  0  # atno 17370 bound_to 10713
  157.1032  131.0201  151.3077 LP  0  0  0  0  0  0  0  0  0  0  0  0  # atno 17371 bound_to 10713
  141.1028  133.6671  156.2794 LP  0  0  0  0  0  0  0  0  0  0  0  0  # atno 17394 bound_to 11000
  140.5980  134.5583  157.5512 LP  0  0  0  0  0  0  0  0  0  0  0  0  # atno 17395 bound_to 11000

$$$$
