AV-unprocessed.smi:275|AV-procd|sdf|2067|dock10
  -GOLD-   2262021323D 1   1.00000     0.00000
 Structure written by MMmdl.
 65 69  0  0  0  0  0  0  0  0  1 V2000
  151.0852  131.6392  155.2306 C   0  0  0  0  0  0  0  0  0  0  0  0
  149.9936  131.9375  156.2685 C   0  0  0  0  0  0  0  0  0  0  0  0
  148.9335  130.8135  156.2465 C   0  0  0  0  0  0  0  0  0  0  0  0
  149.4628  133.3891  156.1261 C   0  0  1  0  0  0  0  0  0  0  0  0
  150.5614  134.3562  156.0603 N   0  0  0  0  0  0  0  0  0  0  0  0
  150.4799  135.4949  156.9285 C   0  0  0  0  0  0  0  0  0  0  0  0
  149.4239  135.5916  157.7820 N   0  0  0  0  0  0  0  0  0  0  0  0
  149.2842  136.6282  158.6115 C   0  0  0  0  0  0  0  0  0  0  0  0
  150.0711  137.6931  158.7496 N   0  0  0  0  0  0  0  0  0  0  0  0
  151.1196  137.6372  157.8825 C   0  0  0  0  0  0  0  0  0  0  0  0
  151.3915  136.5955  156.9468 C   0  0  0  0  0  0  0  0  0  0  0  0
  152.5408  136.9121  156.2303 N   0  0  0  0  0  0  0  0  0  0  0  0
  152.9303  138.0565  156.7193 C   0  0  0  0  0  0  0  0  0  0  0  0
  152.1387  138.5597  157.7236 N   0  0  0  0  0  0  0  0  0  0  0  0
  152.3414  139.8047  158.4440 C   0  0  0  0  0  0  0  0  0  0  0  0
  151.2438  140.8599  158.1584 C   0  0  2  0  0  0  0  0  0  0  0  0
  150.5093  140.6129  156.8177 C   0  0  0  0  0  0  0  0  0  0  0  0
  151.4199  140.4770  155.7460 O   0  0  0  0  0  0  0  0  0  0  0  0
  151.8005  142.3020  158.2677 C   0  0  1  0  0  0  0  0  0  0  0  0
  150.7538  143.4000  158.1963 C   0  0  0  0  0  0  0  0  0  0  0  0
  151.4972  144.5920  158.7893 C   0  0  0  0  0  0  0  0  0  0  0  0
  152.3864  144.0473  159.7575 O   0  0  0  0  0  0  0  0  0  0  0  0
  152.4581  142.6325  159.6118 C   0  0  0  0  0  0  0  0  0  0  0  0
  150.3343  134.6078  154.6380 C   0  0  0  0  0  0  0  0  0  0  0  0
  148.9393  133.9870  154.7920 C   0  0  0  0  0  0  0  0  0  0  0  0
  147.7975  135.0194  154.9284 C   0  0  0  0  0  0  0  0  0  0  0  0
  146.4362  134.3817  155.2530 C   0  0  0  0  0  0  0  0  0  0  0  0
  146.0354  133.3655  154.1782 C   0  0  0  0  0  0  0  0  0  0  0  0
  147.1475  132.3344  153.9578 C   0  0  0  0  0  0  0  0  0  0  0  0
  148.4972  133.0191  153.6749 C   0  0  0  0  0  0  0  0  0  0  0  0
  150.6835  131.6628  154.2172 H   0  0  0  0  0  0  0  0  0  0  0  0
  151.5220  130.6531  155.3901 H   0  0  0  0  0  0  0  0  0  0  0  0
  151.8947  132.3671  155.2885 H   0  0  0  0  0  0  0  0  0  0  0  0
  150.4897  131.8649  157.2353 H   0  0  0  0  0  0  0  0  0  0  0  0
  148.4315  130.7522  155.2805 H   0  0  0  0  0  0  0  0  0  0  0  0
  148.1685  130.9389  157.0091 H   0  0  0  0  0  0  0  0  0  0  0  0
  149.3989  129.8443  156.4266 H   0  0  0  0  0  0  0  0  0  0  0  0
  148.7382  133.6192  156.9055 H   0  0  0  0  0  0  0  0  0  0  0  0
  148.4176  136.5997  159.2554 H   0  0  0  0  0  0  0  0  0  0  0  0
  153.8135  138.5661  156.3621 H   0  0  0  0  0  0  0  0  0  0  0  0
  152.3769  139.5652  159.5069 H   0  0  0  0  0  0  0  0  0  0  0  0
  153.3237  140.2028  158.1875 H   0  0  0  0  0  0  0  0  0  0  0  0
  150.4919  140.7480  158.9409 H   0  0  0  0  0  0  0  0  0  0  0  0
  149.8923  139.7157  156.8674 H   0  0  0  0  0  0  0  0  0  0  0  0
  149.8258  141.4314  156.5927 H   0  0  0  0  0  0  0  0  0  0  0  0
  151.1494  139.7458  155.2119 H   0  0  0  0  0  0  0  0  0  0  0  0
  152.5329  142.4725  157.4765 H   0  0  0  0  0  0  0  0  0  0  0  0
  150.3999  143.5942  157.1834 H   0  0  0  0  0  0  0  0  0  0  0  0
  149.8931  143.1489  158.8181 H   0  0  0  0  0  0  0  0  0  0  0  0
  152.0858  145.0936  158.0202 H   0  0  0  0  0  0  0  0  0  0  0  0
  150.8237  145.3253  159.2335 H   0  0  0  0  0  0  0  0  0  0  0  0
  151.9063  142.1774  160.4357 H   0  0  0  0  0  0  0  0  0  0  0  0
  153.4906  142.2866  159.6671 H   0  0  0  0  0  0  0  0  0  0  0  0
  150.3196  135.6466  154.3084 H   0  0  0  0  0  0  0  0  0  0  0  0
  151.0037  134.0153  154.0148 H   0  0  0  0  0  0  0  0  0  0  0  0
  148.0272  135.7500  155.7041 H   0  0  0  0  0  0  0  0  0  0  0  0
  147.7088  135.5982  154.0080 H   0  0  0  0  0  0  0  0  0  0  0  0
  146.4807  133.8901  156.2255 H   0  0  0  0  0  0  0  0  0  0  0  0
  145.6723  135.1554  155.3337 H   0  0  0  0  0  0  0  0  0  0  0  0
  145.1079  132.8655  154.4588 H   0  0  0  0  0  0  0  0  0  0  0  0
  145.8355  133.8883  153.2420 H   0  0  0  0  0  0  0  0  0  0  0  0
  147.2286  131.6976  154.8382 H   0  0  0  0  0  0  0  0  0  0  0  0
  146.8828  131.6782  153.1282 H   0  0  0  0  0  0  0  0  0  0  0  0
  148.4248  133.5599  152.7303 H   0  0  0  0  0  0  0  0  0  0  0  0
  149.2454  132.2502  153.4990 H   0  0  0  0  0  0  0  0  0  0  0  0
  1  2  1  0  0  0  0
  1 31  1  0  0  0  0
  1 32  1  0  0  0  0
  1 33  1  0  0  0  0
  2  3  1  0  0  0  0
  2  4  1  0  0  0  0
  2 34  1  0  0  0  0
  3 35  1  0  0  0  0
  3 36  1  0  0  0  0
  3 37  1  0  0  0  0
  4 25  1  0  0  0  0
  4  5  1  0  0  0  0
  4 38  1  0  0  0  0
  5  6  1  0  0  0  0
  5 24  1  0  0  0  0
  6 11  1  0  0  0  0
  6  7  2  0  0  0  0
  7  8  1  0  0  0  0
  8  9  2  0  0  0  0
  8 39  1  0  0  0  0
  9 10  1  0  0  0  0
 10 14  1  0  0  0  0
 10 11  2  0  0  0  0
 11 12  1  0  0  0  0
 12 13  2  0  0  0  0
 13 14  1  0  0  0  0
 13 40  1  0  0  0  0
 14 15  1  0  0  0  0
 15 16  1  0  0  0  0
 15 41  1  0  0  0  0
 15 42  1  0  0  0  0
 16 17  1  0  0  0  0
 16 19  1  0  0  0  0
 16 43  1  0  0  0  0
 17 18  1  0  0  0  0
 17 44  1  0  0  0  0
 17 45  1  0  0  0  0
 18 46  1  0  0  0  0
 19 23  1  0  0  0  0
 19 20  1  0  0  0  0
 19 47  1  0  0  0  0
 20 21  1  0  0  0  0
 20 48  1  0  0  0  0
 20 49  1  0  0  0  0
 21 22  1  0  0  0  0
 21 50  1  0  0  0  0
 21 51  1  0  0  0  0
 22 23  1  0  0  0  0
 23 52  1  0  0  0  0
 23 53  1  0  0  0  0
 24 25  1  0  0  0  0
 24 54  1  0  0  0  0
 24 55  1  0  0  0  0
 25 30  1  0  0  0  0
 25 26  1  0  0  0  0
 26 27  1  0  0  0  0
 26 56  1  0  0  0  0
 26 57  1  0  0  0  0
 27 28  1  0  0  0  0
 27 58  1  0  0  0  0
 27 59  1  0  0  0  0
 28 29  1  0  0  0  0
 28 60  1  0  0  0  0
 28 61  1  0  0  0  0
 29 30  1  0  0  0  0
 29 62  1  0  0  0  0
 29 63  1  0  0  0  0
 30 64  1  0  0  0  0
 30 65  1  0  0  0  0
M  END
> <s_m_source_file>
AV-unprocessed.smi

> <i_m_source_file_index>
275

> <i_lp_mmshare_version>
43012

> <i_f3d_flags>
0

> <s_epik_input>
W0NIMl0xW0NIMl1bQ0gyXVtDSDJdW0NIMl1DMTJbQ0BIXShbQ0hdKFtDSDNdKVtDSDNdKU4oW0NIMl0yKWMobltjSF1uMyljKGMzNCluW2NIXW40W0NIMl1bQ0BIXShbQ0gyXVtPSF0pW0NAQEhdNVtDSDJdW0NIMl1PW0NIMl01

> <s_epik_cmdline>
J2VwaWtfcHl0aG9uJywgJy1waCcsICc3LjAnLCAnLXRuJywgJzgnLCAnLW1hJywgJzIwMCcsICctbWV0YWxfYmluZGluZycsICctaW1hZScsICc8aW5maWxlLm1hZT4nLCAnLW9tYWUnLCAnPG91dGZpbGUubWFlPic=

> <r_lp_tautomer_probability>
1

> <r_epik_Ionization_Penalty>
0.00375122

> <r_epik_Ionization_Penalty_Charging>
0

> <r_epik_Ionization_Penalty_Neutral>
0.00375122

> <r_epik_State_Penalty>
0.00260593

> <r_epik_Charging_Adjusted_Penalty>
0.00260593

> <i_epik_Tot_Q>
0

> <i_epik_Tot_abs_Q>
0

> <r_epik_Metal_State_Penalty>
-0

> <b_epik_Metal_Only>
0

> <s_lp_Force_Field>
OPLS_2005

> <r_lp_Energy>
69.8585

> <b_lp_Chiralities_Consistent>
1

> <s_lp_Variant>
AV-unprocessed.smi:275-6

> <Gold.Version>
5.8.1

> <Gold.Id.Protein>
6NUR|6NUR_protein|mol2

> <Gold.PLP.Fitness>
40.6295

> <Gold.PLP.PLP>
-38.8620

> <Gold.PLP.part.hbond>
-1.9065

> <Gold.PLP.part.metal>
0.0000

> <Gold.PLP.part.buried>
-6.9324

> <Gold.PLP.part.nonpolar>
-30.2144

> <Gold.PLP.part.repulsive>
0.0165

> <Gold.PLP.ligand.clash>
0.0000

> <Gold.PLP.ligand.torsion>
0.7710

> <Gold.PLP.Chemscore.Hbond>
0.9600

> <Gold.PLP.Chemscore.CHOScore>
0.0000

> <Gold.PLP.Chemscore.Metal>
0.0000

> <Gold.Chemscore.Hbonds>
donor molecule, donor type, donor heavy atom, donor atom, acceptor molecule, acceptor atom, score
      P1  H 10752 10763       L1    12  0.93

> <Gold.PLP.Chemscore.Internal.Correction>
0.4296

> <Gold.Rescore>
     Score         DG    S(hbond)    S(metal)    S(lipo)     H(rot)  DE(clash)    DE(int)     intcor
     12.12     -14.25       0.93        0.00     103.79       2.54       0.01       2.12       ----

> <Gold.Chemscore.Fitness>
12.1204

> <Gold.Chemscore.DG>
-14.2465

> <Gold.Chemscore.ZeroCoef>
-5.4800

> <Gold.Chemscore.Hbond>
0.9341

> <Gold.Chemscore.Metal>
0.0000

> <Gold.Chemscore.Lipo>
103.7875

> <Gold.Chemscore.Internal_Hbond>
0.0000

> <Gold.Chemscore.DEClash>
0.0102

> <Gold.Chemscore.DEInternal>
2.1159

> <Gold.Chemscore.Rot>
2.5377

> <Gold.Chemscore.Internal.Correction>
   9.000000E+99

> <Gold.Chemscore.Hbonds>
donor molecule, donor type, donor heavy atom, donor atom, acceptor molecule, acceptor atom, score
      P1  H 10752 10763       L1    12  0.80

> <Gold.Chemscore.Hbond.Weighted>
-3.1199

> <Gold.Chemscore.Metal.Weighted>
-0.0000

> <Gold.Chemscore.Lipo.Weighted>
-12.1431

> <Gold.Chemscore.Internal_Hbond.Weighted>
0.0000

> <Gold.Chemscore.DEClash.Weighted>
0.0102

> <Gold.Chemscore.DEInternal.Weighted>
2.1159

> <Gold.Chemscore.Rot.Weighted>
6.4966

> <Gold.Chemscore.Internal.Correction.Weighted>
   9.000000E+99

> <Gold.Protein.RotatedTorsions>
[ 6907 6896 6895 6894 ] final  133.81 input  -60.11 | X-H torsion
[ 7974 7965 7964 7962 ] final -160.73 input  175.53 | X-H torsion
[ 8008 7997 7996 7995 ] final  -92.19 input   59.86 | X-H torsion
[ 10167 10162 10161 10158 ] final  106.89 input  -65.29 | X-H torsion
[ 10718 10713 10712 10709 ] final -119.72 input   66.30 | X-H torsion
[ 10763 10752 10751 10750 ] final   94.56 input  -60.55 | X-H torsion
[ 11005 11000 10999 10996 ] final  112.12 input  -57.11 | X-H torsion

> <Gold.Protein.ActiveResidues>
 VAL166  LYS551  ARG553  GLY616  TRP617  ASP618  TYR619  PRO620  LYS621  CYS622 
 ASP623  PHE694  ASN695  SER759  ASP760  ASP761  ALA762  ILE779  LEU786  VAL792 
 PHE793  MET794  SER795  GLU796  ALA797  LYS798  CYS799  TRP800  GLU811  SER814 

> <Gold.Protein.RotatedAtoms>
  152.3180  133.5823  159.5725 H   0  0  0  0  0  0  0  0  0  0  0  0  # atno 6907 bound_to 6896
  150.7356  134.0053  159.3660 H   0  0  0  0  0  0  0  0  0  0  0  0  # atno 6908 bound_to 6896
  151.7940  135.0728  160.0442 H   0  0  0  0  0  0  0  0  0  0  0  0  # atno 6909 bound_to 6896
  144.7416  140.3500  143.6117 H   0  0  0  0  0  0  0  0  0  0  0  0  # atno 7974 bound_to 7965
  154.7200  140.0511  157.0630 H   0  0  0  0  0  0  0  0  0  0  0  0  # atno 8008 bound_to 7997
  155.0440  140.3172  155.4696 H   0  0  0  0  0  0  0  0  0  0  0  0  # atno 8009 bound_to 7997
  156.2814  140.2128  156.5564 H   0  0  0  0  0  0  0  0  0  0  0  0  # atno 8010 bound_to 7997
  139.6972  144.7099  151.1247 H   0  0  0  0  0  0  0  0  0  0  0  0  # atno 10167 bound_to 10162
  156.1203  130.6318  150.9452 H   0  0  0  0  0  0  0  0  0  0  0  0  # atno 10718 bound_to 10713
  153.2430  135.4285  155.0718 H   0  0  0  0  0  0  0  0  0  0  0  0  # atno 10763 bound_to 10752
  154.8349  135.3407  154.6621 H   0  0  0  0  0  0  0  0  0  0  0  0  # atno 10764 bound_to 10752
  153.7044  135.7026  153.5111 H   0  0  0  0  0  0  0  0  0  0  0  0  # atno 10765 bound_to 10752
  139.8920  134.9523  156.6537 H   0  0  0  0  0  0  0  0  0  0  0  0  # atno 11005 bound_to 11000
  145.7286  139.1730  143.2443 LP  0  0  0  0  0  0  0  0  0  0  0  0  # atno 17320 bound_to 7965
  146.1223  140.7293  142.9451 LP  0  0  0  0  0  0  0  0  0  0  0  0  # atno 17321 bound_to 7965
  140.7699  143.5475  150.9242 LP  0  0  0  0  0  0  0  0  0  0  0  0  # atno 17342 bound_to 10162
  139.9155  143.6669  152.3107 LP  0  0  0  0  0  0  0  0  0  0  0  0  # atno 17343 bound_to 10162
  157.6386  131.0913  150.8297 LP  0  0  0  0  0  0  0  0  0  0  0  0  # atno 17370 bound_to 10713
  156.8395  130.5043  149.5322 LP  0  0  0  0  0  0  0  0  0  0  0  0  # atno 17371 bound_to 10713
  140.7501  133.8905  155.8340 LP  0  0  0  0  0  0  0  0  0  0  0  0  # atno 17394 bound_to 11000
  141.0008  134.1153  157.4319 LP  0  0  0  0  0  0  0  0  0  0  0  0  # atno 17395 bound_to 11000

$$$$
