AV-unprocessed.smi:2155|AV-procd|sdf|8778|dock9
  -GOLD-   2272011563D 1   1.00000     0.00000
 Structure written by MMmdl.
 42 43  0  0  0  0  0  0  0  0  1 V2000
  156.3072  133.0289  161.1607 C   0  0  0  0  0  0  0  0  0  0  0  0
  155.9127  134.3579  161.5797 N   0  0  0  0  0  0  0  0  0  0  0  0
  156.3928  134.8620  162.8130 C   0  0  0  0  0  0  0  0  0  0  0  0
  157.1373  134.2155  163.5508 O   0  0  0  0  0  0  0  0  0  0  0  0
  155.9384  136.2104  163.1307 C   0  0  0  0  0  0  0  0  0  0  0  0
  155.1327  136.8891  162.2851 C   0  0  0  0  0  0  0  0  0  0  0  0
  154.6860  136.3765  161.0807 N   0  0  0  0  0  0  0  0  0  0  0  0
  153.8046  137.1853  160.2283 C   0  0  0  0  0  0  0  0  0  0  0  0
  154.4029  138.5497  159.8580 C   0  0  0  0  0  0  0  0  0  0  0  0
  155.4636  138.6301  159.2367 O   0  0  0  0  0  0  0  0  0  0  0  0
  153.6930  139.6219  160.2351 N   0  0  0  0  0  0  0  0  0  0  0  0
  154.0836  141.0021  159.9757 C   0  0  0  0  0  0  0  0  0  0  0  0
  153.7622  141.9131  161.1730 C   0  0  0  0  0  0  0  0  0  0  0  0
  152.9019  143.1156  160.8135 C   0  0  0  0  0  0  0  0  0  0  0  0
  152.5267  143.3714  159.5449 C   0  0  0  0  0  0  0  0  0  0  0  0
  151.6543  144.5441  159.1332 C   0  0  0  0  0  0  0  0  0  0  0  0
  150.9618  145.2095  160.3342 C   0  0  0  0  0  0  0  0  0  0  0  0
  151.9310  145.3721  161.5117 C   0  0  0  0  0  0  0  0  0  0  0  0
  152.4847  144.0122  161.9735 C   0  0  0  0  0  0  0  0  0  0  0  0
  155.0773  135.0763  160.6961 C   0  0  0  0  0  0  0  0  0  0  0  0
  154.6992  134.5959  159.6243 O   0  0  0  0  0  0  0  0  0  0  0  0
  156.8045  132.4921  161.9680 H   0  0  0  0  0  0  0  0  0  0  0  0
  156.9792  133.1498  160.3097 H   0  0  0  0  0  0  0  0  0  0  0  0
  155.4023  132.4864  160.8806 H   0  0  0  0  0  0  0  0  0  0  0  0
  156.2516  136.6719  164.0559 H   0  0  0  0  0  0  0  0  0  0  0  0
  154.8213  137.8840  162.5684 H   0  0  0  0  0  0  0  0  0  0  0  0
  153.5879  136.6470  159.3045 H   0  0  0  0  0  0  0  0  0  0  0  0
  152.8392  137.3305  160.7169 H   0  0  0  0  0  0  0  0  0  0  0  0
  152.8317  139.4744  160.7410 H   0  0  0  0  0  0  0  0  0  0  0  0
  155.1501  141.0373  159.7491 H   0  0  0  0  0  0  0  0  0  0  0  0
  153.5617  141.3671  159.0899 H   0  0  0  0  0  0  0  0  0  0  0  0
  153.2499  141.3383  161.9450 H   0  0  0  0  0  0  0  0  0  0  0  0
  154.6955  142.2567  161.6214 H   0  0  0  0  0  0  0  0  0  0  0  0
  152.8571  142.7242  158.7455 H   0  0  0  0  0  0  0  0  0  0  0  0
  152.2857  145.2664  158.6149 H   0  0  0  0  0  0  0  0  0  0  0  0
  150.9068  144.2032  158.4164 H   0  0  0  0  0  0  0  0  0  0  0  0
  150.5541  146.1772  160.0402 H   0  0  0  0  0  0  0  0  0  0  0  0
  150.1145  144.6000  160.6508 H   0  0  0  0  0  0  0  0  0  0  0  0
  152.7568  146.0174  161.2087 H   0  0  0  0  0  0  0  0  0  0  0  0
  151.4367  145.8739  162.3440 H   0  0  0  0  0  0  0  0  0  0  0  0
  151.7271  143.4856  162.5547 H   0  0  0  0  0  0  0  0  0  0  0  0
  153.3362  144.1728  162.6356 H   0  0  0  0  0  0  0  0  0  0  0  0
  1  2  1  0  0  0  0
  1 22  1  0  0  0  0
  1 23  1  0  0  0  0
  1 24  1  0  0  0  0
  2 20  1  0  0  0  0
  2  3  1  0  0  0  0
  3  4  2  0  0  0  0
  3  5  1  0  0  0  0
  5  6  2  0  0  0  0
  5 25  1  0  0  0  0
  6  7  1  0  0  0  0
  6 26  1  0  0  0  0
  7  8  1  0  0  0  0
  7 20  1  0  0  0  0
  8  9  1  0  0  0  0
  8 27  1  0  0  0  0
  8 28  1  0  0  0  0
  9 10  2  0  0  0  0
  9 11  1  0  0  0  0
 11 12  1  0  0  0  0
 11 29  1  0  0  0  0
 12 13  1  0  0  0  0
 12 30  1  0  0  0  0
 12 31  1  0  0  0  0
 13 14  1  0  0  0  0
 13 32  1  0  0  0  0
 13 33  1  0  0  0  0
 14 19  1  0  0  0  0
 14 15  2  0  0  0  0
 15 16  1  0  0  0  0
 15 34  1  0  0  0  0
 16 17  1  0  0  0  0
 16 35  1  0  0  0  0
 16 36  1  0  0  0  0
 17 18  1  0  0  0  0
 17 37  1  0  0  0  0
 17 38  1  0  0  0  0
 18 19  1  0  0  0  0
 18 39  1  0  0  0  0
 18 40  1  0  0  0  0
 19 41  1  0  0  0  0
 19 42  1  0  0  0  0
 20 21  2  0  0  0  0
M  END
> <s_m_source_file>
AV-unprocessed.smi

> <i_m_source_file_index>
2155

> <i_lp_mmshare_version>
43012

> <i_f3d_flags>
0

> <s_epik_input>
W0NIM11uMWMoPU8pW2NIXVtjSF1uKGMxPU8pW0NIMl1DKD1PKVtOSF1bQ0gyXVtDSDJdQzI9W0NIXVtDSDJdW0NIMl1bQ0gyXVtDSDJdMg==

> <s_epik_cmdline>
J2VwaWtfcHl0aG9uJywgJy1waCcsICc3LjAnLCAnLXRuJywgJzgnLCAnLW1hJywgJzIwMCcsICctbWV0YWxfYmluZGluZycsICctaW1hZScsICc8aW5maWxlLm1hZT4nLCAnLW9tYWUnLCAnPG91dGZpbGUubWFlPic=

> <r_lp_tautomer_probability>
1

> <r_epik_Ionization_Penalty>
3.01725e-08

> <r_epik_Ionization_Penalty_Charging>
1.20689e-08

> <r_epik_Ionization_Penalty_Neutral>
1.81035e-08

> <r_epik_State_Penalty>
-0

> <r_epik_Charging_Adjusted_Penalty>
1.20689e-08

> <i_epik_Tot_Q>
0

> <i_epik_Tot_abs_Q>
0

> <r_epik_Metal_State_Penalty>
-0

> <b_epik_Metal_Only>
0

> <s_lp_Force_Field>
OPLS_2005

> <r_lp_Energy>
16.2907

> <b_lp_Chiralities_Consistent>
1

> <s_lp_Variant>
AV-unprocessed.smi:2155-1

> <Gold.Version>
5.8.1

> <Gold.Id.Protein>
6NUR|6NUR_protein|mol2

> <Gold.PLP.Fitness>
52.6628

> <Gold.PLP.PLP>
-50.7986

> <Gold.PLP.part.hbond>
-0.9970

> <Gold.PLP.part.metal>
0.0000

> <Gold.PLP.part.buried>
-4.7596

> <Gold.PLP.part.nonpolar>
-46.1506

> <Gold.PLP.part.repulsive>
0.1632

> <Gold.PLP.ligand.clash>
0.0000

> <Gold.PLP.ligand.torsion>
0.5432

> <Gold.PLP.Chemscore.Hbond>
0.9750

> <Gold.PLP.Chemscore.CHOScore>
0.0000

> <Gold.PLP.Chemscore.Metal>
0.0000

> <Gold.Chemscore.Hbonds>
donor molecule, donor type, donor heavy atom, donor atom, acceptor molecule, acceptor atom, score
      P1  H  6896  6909       L1    21  0.73

> <Gold.PLP.Chemscore.Internal.Correction>
0.0255

> <Gold.Rescore>
     Score         DG    S(hbond)    S(metal)    S(lipo)     H(rot)  DE(clash)    DE(int)     intcor
     16.84     -17.28       0.94        0.00     116.35       1.94       0.04       0.41       ----

> <Gold.Chemscore.Fitness>
16.8426

> <Gold.Chemscore.DG>
-17.2840

> <Gold.Chemscore.ZeroCoef>
-5.4800

> <Gold.Chemscore.Hbond>
0.9445

> <Gold.Chemscore.Metal>
0.0000

> <Gold.Chemscore.Lipo>
116.3541

> <Gold.Chemscore.Internal_Hbond>
0.0000

> <Gold.Chemscore.DEClash>
0.0353

> <Gold.Chemscore.DEInternal>
0.4060

> <Gold.Chemscore.Rot>
1.9390

> <Gold.Chemscore.Internal.Correction>
   9.000000E+99

> <Gold.Chemscore.Hbonds>
donor molecule, donor type, donor heavy atom, donor atom, acceptor molecule, acceptor atom, score
      P1  H  6896  6909       L1    21  0.33
      P1  H  7997  8008       L1    10  0.01

> <Gold.Chemscore.Hbond.Weighted>
-3.1545

> <Gold.Chemscore.Metal.Weighted>
-0.0000

> <Gold.Chemscore.Lipo.Weighted>
-13.6134

> <Gold.Chemscore.Internal_Hbond.Weighted>
0.0000

> <Gold.Chemscore.DEClash.Weighted>
0.0353

> <Gold.Chemscore.DEInternal.Weighted>
0.4060

> <Gold.Chemscore.Rot.Weighted>
4.9639

> <Gold.Chemscore.Internal.Correction.Weighted>
   9.000000E+99

> <Gold.Protein.RotatedTorsions>
[ 6907 6896 6895 6894 ] final -156.14 input  -60.11 | X-H torsion
[ 7974 7965 7964 7962 ] final -152.59 input  175.53 | X-H torsion
[ 8008 7997 7996 7995 ] final -165.82 input   59.86 | X-H torsion
[ 10167 10162 10161 10158 ] final   86.55 input  -65.29 | X-H torsion
[ 10718 10713 10712 10709 ] final  171.59 input   66.30 | X-H torsion
[ 10763 10752 10751 10750 ] final  136.99 input  -60.55 | X-H torsion
[ 11005 11000 10999 10996 ] final   16.14 input  -57.11 | X-H torsion

> <Gold.Protein.ActiveResidues>
 VAL166  LYS551  ARG553  GLY616  TRP617  ASP618  TYR619  PRO620  LYS621  CYS622 
 ASP623  PHE694  ASN695  SER759  ASP760  ASP761  ALA762  ILE779  LEU786  VAL792 
 PHE793  MET794  SER795  GLU796  ALA797  LYS798  CYS799  TRP800  GLU811  SER814 

> <Gold.Protein.RotatedAtoms>
  151.2831  133.4200  159.2627 H   0  0  0  0  0  0  0  0  0  0  0  0  # atno 6907 bound_to 6896
  151.0343  134.9562  159.8138 H   0  0  0  0  0  0  0  0  0  0  0  0  # atno 6908 bound_to 6896
  152.5352  134.2791  159.9053 H   0  0  0  0  0  0  0  0  0  0  0  0  # atno 6909 bound_to 6896
  144.7786  140.4641  143.5855 H   0  0  0  0  0  0  0  0  0  0  0  0  # atno 7974 bound_to 7965
  155.8551  140.0969  157.1649 H   0  0  0  0  0  0  0  0  0  0  0  0  # atno 8008 bound_to 7997
  154.3987  140.1375  156.3954 H   0  0  0  0  0  0  0  0  0  0  0  0  # atno 8009 bound_to 7997
  155.7918  140.3455  155.5356 H   0  0  0  0  0  0  0  0  0  0  0  0  # atno 8010 bound_to 7997
  139.8864  144.6411  150.8787 H   0  0  0  0  0  0  0  0  0  0  0  0  # atno 10167 bound_to 10162
  156.9913  131.0148  151.2856 H   0  0  0  0  0  0  0  0  0  0  0  0  # atno 10718 bound_to 10713
  153.8657  135.3062  155.3440 H   0  0  0  0  0  0  0  0  0  0  0  0  # atno 10763 bound_to 10752
  154.7828  135.4826  153.9885 H   0  0  0  0  0  0  0  0  0  0  0  0  # atno 10764 bound_to 10752
  153.1435  135.6829  153.9085 H   0  0  0  0  0  0  0  0  0  0  0  0  # atno 10765 bound_to 10752
  140.4504  134.1230  155.7702 H   0  0  0  0  0  0  0  0  0  0  0  0  # atno 11005 bound_to 11000
  145.6115  139.1514  143.3073 LP  0  0  0  0  0  0  0  0  0  0  0  0  # atno 17320 bound_to 7965
  146.1980  140.6231  142.9115 LP  0  0  0  0  0  0  0  0  0  0  0  0  # atno 17321 bound_to 7965
  140.7735  143.3545  151.1949 LP  0  0  0  0  0  0  0  0  0  0  0  0  # atno 17342 bound_to 10162
  139.7149  143.9316  152.2963 LP  0  0  0  0  0  0  0  0  0  0  0  0  # atno 17343 bound_to 10162
  157.5457  130.8149  149.8083 LP  0  0  0  0  0  0  0  0  0  0  0  0  # atno 17370 bound_to 10713
  156.0206  130.3797  150.1973 LP  0  0  0  0  0  0  0  0  0  0  0  0  # atno 17371 bound_to 10713
  141.1666  133.8690  157.1695 LP  0  0  0  0  0  0  0  0  0  0  0  0  # atno 17394 bound_to 11000
  140.0010  135.0027  157.0190 LP  0  0  0  0  0  0  0  0  0  0  0  0  # atno 17395 bound_to 11000

$$$$
