AV-unprocessed.smi:298|AV-procd|sdf|2262|dock7
  -GOLD-   2262022153D 1   1.00000     0.00000
 Structure written by MMmdl.
 38 40  0  0  0  0  0  0  0  0  1 V2000
  153.3127  142.3251  161.9900 C   0  0  0  0  0  0  0  0  0  0  0  0
  152.7430  142.1289  160.5962 C   0  0  0  0  0  0  0  0  0  0  0  0
  153.0678  140.9546  159.8801 C   0  0  0  0  0  0  0  0  0  0  0  0
  152.5552  140.7316  158.5834 C   0  0  0  0  0  0  0  0  0  0  0  0
  152.7353  139.6685  157.7149 N   0  0  0  0  0  0  0  0  0  0  0  0
  151.9985  140.0446  156.6734 C   0  0  0  0  0  0  0  0  0  0  0  0
  151.3608  141.2272  156.7653 N   0  0  0  0  0  0  0  0  0  0  0  0
  150.5018  141.8396  155.7682 C   0  0  0  0  0  0  0  0  0  0  0  0
  149.2155  141.0242  155.5166 C   0  0  1  0  0  0  0  0  0  0  0  0
  148.1331  141.8998  155.2630 O   0  0  0  0  0  0  0  0  0  0  0  0
  149.3436  140.0108  154.3581 C   0  0  0  0  0  0  0  0  0  0  0  0
  150.1390  138.8391  154.6883 N   0  0  0  0  0  0  0  0  0  0  0  0
  151.2175  138.3258  154.0873 C   0  0  0  0  0  0  0  0  0  0  0  0
  151.6888  137.2290  154.6671 N   0  0  0  0  0  0  0  0  0  0  0  0
  150.7899  137.1275  155.6888 C   0  0  0  0  0  0  0  0  0  0  0  0
  150.8611  136.0476  156.6586 C   0  0  0  0  0  0  0  0  0  0  0  0
  150.9182  135.1876  157.4309 N   0  0  0  0  0  0  0  0  0  0  0  0
  149.8442  138.0617  155.7589 N   0  0  0  0  0  0  0  0  0  0  0  0
  151.7024  141.7241  158.0184 C   0  0  0  0  0  0  0  0  0  0  0  0
  151.3729  142.8973  158.7197 C   0  0  0  0  0  0  0  0  0  0  0  0
  151.8932  143.1040  160.0144 C   0  0  0  0  0  0  0  0  0  0  0  0
  151.5290  144.3729  160.7649 C   0  0  0  0  0  0  0  0  0  0  0  0
  153.9556  141.4930  162.2780 H   0  0  0  0  0  0  0  0  0  0  0  0
  152.5098  142.3966  162.7240 H   0  0  0  0  0  0  0  0  0  0  0  0
  153.9072  143.2379  162.0359 H   0  0  0  0  0  0  0  0  0  0  0  0
  153.7137  140.2111  160.3236 H   0  0  0  0  0  0  0  0  0  0  0  0
  151.9136  139.4232  155.7938 H   0  0  0  0  0  0  0  0  0  0  0  0
  150.2659  142.8513  156.0996 H   0  0  0  0  0  0  0  0  0  0  0  0
  151.0692  141.9406  154.8419 H   0  0  0  0  0  0  0  0  0  0  0  0
  148.9690  140.4716  156.4240 H   0  0  0  0  0  0  0  0  0  0  0  0
  148.4623  142.7854  155.2382 H   0  0  0  0  0  0  0  0  0  0  0  0
  148.3512  139.6690  154.0616 H   0  0  0  0  0  0  0  0  0  0  0  0
  149.7761  140.4909  153.4790 H   0  0  0  0  0  0  0  0  0  0  0  0
  151.6622  138.7607  153.2042 H   0  0  0  0  0  0  0  0  0  0  0  0
  150.7217  143.6298  158.2657 H   0  0  0  0  0  0  0  0  0  0  0  0
  150.8539  145.0004  160.1822 H   0  0  0  0  0  0  0  0  0  0  0  0
  152.4233  144.9569  160.9841 H   0  0  0  0  0  0  0  0  0  0  0  0
  151.0326  144.1322  161.7053 H   0  0  0  0  0  0  0  0  0  0  0  0
  1  2  1  0  0  0  0
  1 23  1  0  0  0  0
  1 24  1  0  0  0  0
  1 25  1  0  0  0  0
  2 21  1  0  0  0  0
  2  3  2  0  0  0  0
  3  4  1  0  0  0  0
  3 26  1  0  0  0  0
  4 19  2  0  0  0  0
  4  5  1  0  0  0  0
  5  6  2  0  0  0  0
  6  7  1  0  0  0  0
  6 27  1  0  0  0  0
  7  8  1  0  0  0  0
  7 19  1  0  0  0  0
  8  9  1  0  0  0  0
  8 28  1  0  0  0  0
  8 29  1  0  0  0  0
  9 10  1  0  0  0  0
  9 11  1  0  0  0  0
  9 30  1  0  0  0  0
 10 31  1  0  0  0  0
 11 12  1  0  0  0  0
 11 32  1  0  0  0  0
 11 33  1  0  0  0  0
 12 18  1  0  0  0  0
 12 13  1  0  0  0  0
 13 14  2  0  0  0  0
 13 34  1  0  0  0  0
 14 15  1  0  0  0  0
 15 16  1  0  0  0  0
 15 18  2  0  0  0  0
 16 17  3  0  0  0  0
 19 20  1  0  0  0  0
 20 21  2  0  0  0  0
 20 35  1  0  0  0  0
 21 22  1  0  0  0  0
 22 36  1  0  0  0  0
 22 37  1  0  0  0  0
 22 38  1  0  0  0  0
M  END
> <s_m_source_file>
AV-unprocessed.smi

> <i_m_source_file_index>
298

> <i_lp_mmshare_version>
43012

> <i_f3d_flags>
0

> <s_epik_input>
W0NIM11jKFtjSF0xKWMoW0NIM10pW2NIXWMoYzEyKW4oW2NIXW4yKVtDSDJdW0NASF0oW09IXSlbQ0gyXW4zW2NIXW5jKG4zKUMjTg==

> <s_epik_cmdline>
J2VwaWtfcHl0aG9uJywgJy1waCcsICc3LjAnLCAnLXRuJywgJzgnLCAnLW1hJywgJzIwMCcsICctbWV0YWxfYmluZGluZycsICctaW1hZScsICc8aW5maWxlLm1hZT4nLCAnLW9tYWUnLCAnPG91dGZpbGUubWFlPic=

> <r_epik_Ionization_Penalty>
0.0968684

> <r_epik_Ionization_Penalty_Charging>
0

> <r_epik_Ionization_Penalty_Neutral>
0.0968684

> <r_epik_State_Penalty>
0.0870047

> <r_epik_Charging_Adjusted_Penalty>
0.0870047

> <i_epik_Tot_Q>
0

> <i_epik_Tot_abs_Q>
0

> <r_epik_Metal_State_Penalty>
0.0746849

> <b_epik_Metal_Only>
0

> <s_lp_Force_Field>
OPLS_2005

> <r_lp_Energy>
12.6861

> <b_lp_Chiralities_Consistent>
1

> <s_lp_Variant>
AV-unprocessed.smi:298-2

> <Gold.Version>
5.8.1

> <Gold.Id.Protein>
6NUR|6NUR_protein|mol2

> <Gold.PLP.Fitness>
54.0666

> <Gold.PLP.PLP>
-45.2100

> <Gold.PLP.part.hbond>
-4.0000

> <Gold.PLP.part.metal>
0.0000

> <Gold.PLP.part.buried>
-6.6746

> <Gold.PLP.part.nonpolar>
-34.7367

> <Gold.PLP.part.repulsive>
0.1588

> <Gold.PLP.ligand.clash>
0.0000

> <Gold.PLP.ligand.torsion>
0.6253

> <Gold.PLP.Chemscore.Hbond>
3.3648

> <Gold.PLP.Chemscore.CHOScore>
0.0000

> <Gold.PLP.Chemscore.Metal>
0.0000

> <Gold.Chemscore.Hbonds>
donor molecule, donor type, donor heavy atom, donor atom, acceptor molecule, acceptor atom, score
      L1  H    10    31       P1  8028  1.00
      P1  H  6896  6907       L1    17  0.21
      P1  H  7997  8009       L1     5  1.00
      P1  H 10752 10765       L1    14  1.00

> <Gold.PLP.Chemscore.Internal.Correction>
0.0128

> <Gold.Rescore>
     Score         DG    S(hbond)    S(metal)    S(lipo)     H(rot)  DE(clash)    DE(int)     intcor
     16.28     -17.14       2.40        0.00      97.36       3.03       0.03       0.83       ----

> <Gold.Chemscore.Fitness>
16.2795

> <Gold.Chemscore.DG>
-17.1405

> <Gold.Chemscore.ZeroCoef>
-5.4800

> <Gold.Chemscore.Hbond>
2.4043

> <Gold.Chemscore.Metal>
0.0000

> <Gold.Chemscore.Lipo>
97.3586

> <Gold.Chemscore.Internal_Hbond>
0.0000

> <Gold.Chemscore.DEClash>
0.0299

> <Gold.Chemscore.DEInternal>
0.8311

> <Gold.Chemscore.Rot>
3.0316

> <Gold.Chemscore.Internal.Correction>
   9.000000E+99

> <Gold.Chemscore.Hbonds>
donor molecule, donor type, donor heavy atom, donor atom, acceptor molecule, acceptor atom, score
      L1  H    10    31       P1  8028  0.95
      P1  H  6896  6907       L1    17  0.21
      P1  H  7997  8009       L1     5  0.08
      P1  H 10752 10765       L1    14  0.84

> <Gold.Chemscore.Hbond.Weighted>
-8.0304

> <Gold.Chemscore.Metal.Weighted>
-0.0000

> <Gold.Chemscore.Lipo.Weighted>
-11.3910

> <Gold.Chemscore.Internal_Hbond.Weighted>
0.0000

> <Gold.Chemscore.DEClash.Weighted>
0.0299

> <Gold.Chemscore.DEInternal.Weighted>
0.8311

> <Gold.Chemscore.Rot.Weighted>
7.7609

> <Gold.Chemscore.Internal.Correction.Weighted>
   9.000000E+99

> <Gold.Protein.RotatedTorsions>
[ 6907 6896 6895 6894 ] final  -79.78 input  -60.11 | X-H torsion
[ 7974 7965 7964 7962 ] final  156.49 input  175.53 | X-H torsion
[ 8008 7997 7996 7995 ] final  154.25 input   59.86 | X-H torsion
[ 10167 10162 10161 10158 ] final   36.32 input  -65.29 | X-H torsion
[ 10718 10713 10712 10709 ] final   14.23 input   66.30 | X-H torsion
[ 10763 10752 10751 10750 ] final  168.67 input  -60.55 | X-H torsion
[ 11005 11000 10999 10996 ] final  168.57 input  -57.11 | X-H torsion

> <Gold.Protein.ActiveResidues>
 VAL166  LYS551  ARG553  GLY616  TRP617  ASP618  TYR619  PRO620  LYS621  CYS622 
 ASP623  PHE694  ASN695  SER759  ASP760  ASP761  ALA762  ILE779  LEU786  VAL792 
 PHE793  MET794  SER795  GLU796  ALA797  LYS798  CYS799  TRP800  GLU811  SER814 

> <Gold.Protein.RotatedAtoms>
  150.6942  134.4069  159.5144 H   0  0  0  0  0  0  0  0  0  0  0  0  # atno 6907 bound_to 6896
  152.1834  134.8732  160.0533 H   0  0  0  0  0  0  0  0  0  0  0  0  # atno 6908 bound_to 6896
  151.9714  133.3692  159.4109 H   0  0  0  0  0  0  0  0  0  0  0  0  # atno 6909 bound_to 6896
  144.7960  139.7210  143.6201 H   0  0  0  0  0  0  0  0  0  0  0  0  # atno 7974 bound_to 7965
  156.2540  140.1971  156.6618 H   0  0  0  0  0  0  0  0  0  0  0  0  # atno 8008 bound_to 7997
  154.6459  140.0578  156.9925 H   0  0  0  0  0  0  0  0  0  0  0  0  # atno 8009 bound_to 7997
  155.1492  140.3249  155.4437 H   0  0  0  0  0  0  0  0  0  0  0  0  # atno 8010 bound_to 7997
  140.4139  144.1555  150.6141 H   0  0  0  0  0  0  0  0  0  0  0  0  # atno 10167 bound_to 10162
  157.0361  130.6212  149.5743 H   0  0  0  0  0  0  0  0  0  0  0  0  # atno 10718 bound_to 10713
  154.3720  135.2753  155.2261 H   0  0  0  0  0  0  0  0  0  0  0  0  # atno 10763 bound_to 10752
  154.4404  135.5955  153.6129 H   0  0  0  0  0  0  0  0  0  0  0  0  # atno 10764 bound_to 10752
  152.9838  135.6017  154.3953 H   0  0  0  0  0  0  0  0  0  0  0  0  # atno 10765 bound_to 10752
  140.2886  134.7692  157.3819 H   0  0  0  0  0  0  0  0  0  0  0  0  # atno 11005 bound_to 11000
  146.2228  139.5667  142.9607 LP  0  0  0  0  0  0  0  0  0  0  0  0  # atno 17320 bound_to 7965
  145.5672  141.0398  143.2194 LP  0  0  0  0  0  0  0  0  0  0  0  0  # atno 17321 bound_to 7965
  140.4608  143.2449  151.9222 LP  0  0  0  0  0  0  0  0  0  0  0  0  # atno 17342 bound_to 10162
  139.4782  144.5469  151.8445 LP  0  0  0  0  0  0  0  0  0  0  0  0  # atno 17343 bound_to 10162
  156.0053  130.5139  150.7809 LP  0  0  0  0  0  0  0  0  0  0  0  0  # atno 17370 bound_to 10713
  157.5141  131.0927  151.0162 LP  0  0  0  0  0  0  0  0  0  0  0  0  # atno 17371 bound_to 10713
  140.1217  134.5211  155.8178 LP  0  0  0  0  0  0  0  0  0  0  0  0  # atno 17394 bound_to 11000
  141.2150  133.6758  156.6877 LP  0  0  0  0  0  0  0  0  0  0  0  0  # atno 17395 bound_to 11000

$$$$
