AV-unprocessed.smi:281|AV-procd|sdf|2101|dock10
  -GOLD-   2262021393D 1   1.00000     0.00000
 Structure written by MMmdl.
 55 59  0  0  0  0  0  0  0  0  1 V2000
  146.2905  135.1406  156.5956 C   0  0  0  0  0  0  0  0  0  0  0  0
  147.8052  134.9844  156.4281 C   0  0  2  0  0  0  0  0  0  0  0  0
  148.4772  136.3021  156.0104 C   0  0  0  0  0  0  0  0  0  0  0  0
  149.8934  136.0733  155.7687 N   0  0  0  0  0  0  0  0  0  0  0  0
  150.5953  137.2087  155.5708 C   0  0  0  0  0  0  0  0  0  0  0  0
  151.5746  137.2502  154.6293 N   0  0  0  0  0  0  0  0  0  0  0  0
  152.2653  138.3784  154.4372 C   0  0  0  0  0  0  0  0  0  0  0  0
  152.1398  139.5514  155.0627 N   0  0  0  0  0  0  0  0  0  0  0  0
  151.1535  139.5093  156.0046 C   0  0  0  0  0  0  0  0  0  0  0  0
  150.3406  138.3857  156.3206 C   0  0  0  0  0  0  0  0  0  0  0  0
  149.4485  138.7092  157.3345 N   0  0  0  0  0  0  0  0  0  0  0  0
  149.7197  139.9573  157.6046 C   0  0  0  0  0  0  0  0  0  0  0  0
  150.7240  140.5192  156.8477 N   0  0  0  0  0  0  0  0  0  0  0  0
  151.2233  141.8828  156.9334 C   0  0  0  0  0  0  0  0  0  0  0  0
  151.1460  142.4773  158.3590 C   0  0  1  0  0  0  0  0  0  0  0  0
  149.7933  142.7620  158.6701 O   0  0  0  0  0  0  0  0  0  0  0  0
  151.7102  141.5665  159.4468 C   0  0  0  0  0  0  0  0  0  0  0  0
  152.2858  142.5529  160.4531 C   0  0  0  0  0  0  0  0  0  0  0  0
  152.8530  143.5462  159.6169 O   0  0  0  0  0  0  0  0  0  0  0  0
  151.9686  143.7711  158.5241 C   0  0  0  0  0  0  0  0  0  0  0  0
  150.1286  135.0451  154.7638 C   0  0  0  0  0  0  0  0  0  0  0  0
  149.4217  133.7242  155.1464 C   0  0  2  0  0  0  0  0  0  0  0  0
  150.0821  132.9904  156.3229 C   0  0  0  0  0  0  0  0  0  0  0  0
  150.7411  131.7714  155.6907 C   0  0  0  0  0  0  0  0  0  0  0  0
  149.8624  131.4633  154.6250 O   0  0  0  0  0  0  0  0  0  0  0  0
  149.5356  132.6937  153.9971 C   0  0  1  0  0  0  0  0  0  0  0  0
  148.2929  132.5335  153.1100 C   0  0  0  0  0  0  0  0  0  0  0  0
  148.0412  133.9926  155.4272 O   0  0  0  0  0  0  0  0  0  0  0  0
  146.0548  135.8827  157.3588 H   0  0  0  0  0  0  0  0  0  0  0  0
  145.8327  134.1978  156.8962 H   0  0  0  0  0  0  0  0  0  0  0  0
  145.8205  135.4569  155.6638 H   0  0  0  0  0  0  0  0  0  0  0  0
  148.2219  134.6538  157.3801 H   0  0  0  0  0  0  0  0  0  0  0  0
  148.0087  136.6936  155.1060 H   0  0  0  0  0  0  0  0  0  0  0  0
  148.3501  137.0523  156.7925 H   0  0  0  0  0  0  0  0  0  0  0  0
  153.0269  138.3356  153.6727 H   0  0  0  0  0  0  0  0  0  0  0  0
  149.1873  140.5070  158.3669 H   0  0  0  0  0  0  0  0  0  0  0  0
  152.2556  141.8869  156.5808 H   0  0  0  0  0  0  0  0  0  0  0  0
  150.6602  142.5026  156.2342 H   0  0  0  0  0  0  0  0  0  0  0  0
  149.6201  142.4700  159.5521 H   0  0  0  0  0  0  0  0  0  0  0  0
  150.9745  140.8874  159.8804 H   0  0  0  0  0  0  0  0  0  0  0  0
  152.5255  140.9622  159.0474 H   0  0  0  0  0  0  0  0  0  0  0  0
  151.5001  142.9922  161.0698 H   0  0  0  0  0  0  0  0  0  0  0  0
  153.0317  142.1024  161.1083 H   0  0  0  0  0  0  0  0  0  0  0  0
  152.5520  144.0107  157.6344 H   0  0  0  0  0  0  0  0  0  0  0  0
  151.3369  144.6342  158.7408 H   0  0  0  0  0  0  0  0  0  0  0  0
  149.7508  135.3930  153.8009 H   0  0  0  0  0  0  0  0  0  0  0  0
  151.2008  134.8813  154.6457 H   0  0  0  0  0  0  0  0  0  0  0  0
  150.7914  133.6039  156.8796 H   0  0  0  0  0  0  0  0  0  0  0  0
  149.3248  132.6434  157.0266 H   0  0  0  0  0  0  0  0  0  0  0  0
  151.7292  132.0174  155.2982 H   0  0  0  0  0  0  0  0  0  0  0  0
  150.8415  130.9374  156.3855 H   0  0  0  0  0  0  0  0  0  0  0  0
  150.3844  132.9520  153.3609 H   0  0  0  0  0  0  0  0  0  0  0  0
  148.0224  133.4801  152.6417 H   0  0  0  0  0  0  0  0  0  0  0  0
  147.4344  132.1824  153.6830 H   0  0  0  0  0  0  0  0  0  0  0  0
  148.4760  131.8097  152.3157 H   0  0  0  0  0  0  0  0  0  0  0  0
  1  2  1  0  0  0  0
  1 29  1  0  0  0  0
  1 30  1  0  0  0  0
  1 31  1  0  0  0  0
  2 28  1  0  0  0  0
  2  3  1  0  0  0  0
  2 32  1  0  0  0  0
  3  4  1  0  0  0  0
  3 33  1  0  0  0  0
  3 34  1  0  0  0  0
  4  5  1  0  0  0  0
  4 21  1  0  0  0  0
  5 10  1  0  0  0  0
  5  6  2  0  0  0  0
  6  7  1  0  0  0  0
  7  8  2  0  0  0  0
  7 35  1  0  0  0  0
  8  9  1  0  0  0  0
  9 13  1  0  0  0  0
  9 10  2  0  0  0  0
 10 11  1  0  0  0  0
 11 12  2  0  0  0  0
 12 13  1  0  0  0  0
 12 36  1  0  0  0  0
 13 14  1  0  0  0  0
 14 15  1  0  0  0  0
 14 37  1  0  0  0  0
 14 38  1  0  0  0  0
 15 20  1  0  0  0  0
 15 16  1  0  0  0  0
 15 17  1  0  0  0  0
 16 39  1  0  0  0  0
 17 18  1  0  0  0  0
 17 40  1  0  0  0  0
 17 41  1  0  0  0  0
 18 19  1  0  0  0  0
 18 42  1  0  0  0  0
 18 43  1  0  0  0  0
 19 20  1  0  0  0  0
 20 44  1  0  0  0  0
 20 45  1  0  0  0  0
 21 22  1  0  0  0  0
 21 46  1  0  0  0  0
 21 47  1  0  0  0  0
 22 26  1  0  0  0  0
 22 23  1  0  0  0  0
 22 28  1  0  0  0  0
 23 24  1  0  0  0  0
 23 48  1  0  0  0  0
 23 49  1  0  0  0  0
 24 25  1  0  0  0  0
 24 50  1  0  0  0  0
 24 51  1  0  0  0  0
 25 26  1  0  0  0  0
 26 27  1  0  0  0  0
 26 52  1  0  0  0  0
 27 53  1  0  0  0  0
 27 54  1  0  0  0  0
 27 55  1  0  0  0  0
M  END
> <s_m_source_file>
AV-unprocessed.smi

> <i_m_source_file_index>
281

> <i_lp_mmshare_version>
43012

> <i_f3d_flags>
0

> <s_epik_input>
W0NIM11bQ0BASF0xT1tDSDJdW0NIMl1bQ0BAXTEyW0NIMl1OKFtDSDJdW0NASF0oTzIpW0NIM10pYyhuW2NIXW4zKWMoYzM0KW5bY0hdbjRbQ0gyXVtDQEBdNShbT0hdKVtDSDJdW0NIMl1PW0NIMl01

> <s_epik_cmdline>
J2VwaWtfcHl0aG9uJywgJy1waCcsICc3LjAnLCAnLXRuJywgJzgnLCAnLW1hJywgJzIwMCcsICctbWV0YWxfYmluZGluZycsICctaW1hZScsICc8aW5maWxlLm1hZT4nLCAnLW9tYWUnLCAnPG91dGZpbGUubWFlPic=

> <r_lp_tautomer_probability>
1

> <r_epik_Ionization_Penalty>
0.00571331

> <r_epik_Ionization_Penalty_Charging>
0

> <r_epik_Ionization_Penalty_Neutral>
0.00571331

> <r_epik_State_Penalty>
0.00399586

> <r_epik_Charging_Adjusted_Penalty>
0.00399586

> <i_epik_Tot_Q>
0

> <i_epik_Tot_abs_Q>
0

> <r_epik_Metal_State_Penalty>
-0

> <b_epik_Metal_Only>
0

> <s_lp_Force_Field>
OPLS_2005

> <r_lp_Energy>
53.2983

> <b_lp_Chiralities_Consistent>
1

> <s_lp_Variant>
AV-unprocessed.smi:281-1

> <Gold.Version>
5.8.1

> <Gold.Id.Protein>
6NUR|6NUR_protein|mol2

> <Gold.PLP.Fitness>
45.8219

> <Gold.PLP.PLP>
-42.2022

> <Gold.PLP.part.hbond>
-2.5323

> <Gold.PLP.part.metal>
0.0000

> <Gold.PLP.part.buried>
-8.5759

> <Gold.PLP.part.nonpolar>
-30.6317

> <Gold.PLP.part.repulsive>
0.2859

> <Gold.PLP.ligand.clash>
0.0000

> <Gold.PLP.ligand.torsion>
0.8733

> <Gold.PLP.Chemscore.Hbond>
1.7498

> <Gold.PLP.Chemscore.CHOScore>
0.0000

> <Gold.PLP.Chemscore.Metal>
0.0000

> <Gold.Chemscore.Hbonds>
donor molecule, donor type, donor heavy atom, donor atom, acceptor molecule, acceptor atom, score
      P1  H  7989  7998       L1     8  0.72
      P1  H 10752 10763       L1     6  0.78

> <Gold.PLP.Chemscore.Internal.Correction>
0.1170

> <Gold.Rescore>
     Score         DG    S(hbond)    S(metal)    S(lipo)     H(rot)  DE(clash)    DE(int)     intcor
     12.39     -15.70       1.51        0.00      89.92       2.09       0.37       2.94       ----

> <Gold.Chemscore.Fitness>
12.3893

> <Gold.Chemscore.DG>
-15.6971

> <Gold.Chemscore.ZeroCoef>
-5.4800

> <Gold.Chemscore.Hbond>
1.5129

> <Gold.Chemscore.Metal>
0.0000

> <Gold.Chemscore.Lipo>
89.9248

> <Gold.Chemscore.Internal_Hbond>
0.0000

> <Gold.Chemscore.DEClash>
0.3687

> <Gold.Chemscore.DEInternal>
2.9391

> <Gold.Chemscore.Rot>
2.0927

> <Gold.Chemscore.Internal.Correction>
   9.000000E+99

> <Gold.Chemscore.Hbonds>
donor molecule, donor type, donor heavy atom, donor atom, acceptor molecule, acceptor atom, score
      P1  H  7989  7998       L1     8  0.23
      P1  H 10752 10763       L1     6  0.41

> <Gold.Chemscore.Hbond.Weighted>
-5.0532

> <Gold.Chemscore.Metal.Weighted>
-0.0000

> <Gold.Chemscore.Lipo.Weighted>
-10.5212

> <Gold.Chemscore.Internal_Hbond.Weighted>
0.0000

> <Gold.Chemscore.DEClash.Weighted>
0.3687

> <Gold.Chemscore.DEInternal.Weighted>
2.9391

> <Gold.Chemscore.Rot.Weighted>
5.3573

> <Gold.Chemscore.Internal.Correction.Weighted>
   9.000000E+99

> <Gold.Protein.RotatedTorsions>
[ 6907 6896 6895 6894 ] final   20.20 input  -60.11 | X-H torsion
[ 7974 7965 7964 7962 ] final   25.50 input  175.53 | X-H torsion
[ 8008 7997 7996 7995 ] final   52.26 input   59.86 | X-H torsion
[ 10167 10162 10161 10158 ] final   46.69 input  -65.29 | X-H torsion
[ 10718 10713 10712 10709 ] final  164.22 input   66.30 | X-H torsion
[ 10763 10752 10751 10750 ] final   41.48 input  -60.55 | X-H torsion
[ 11005 11000 10999 10996 ] final -116.42 input  -57.11 | X-H torsion

> <Gold.Protein.ActiveResidues>
 VAL166  LYS551  ARG553  GLY616  TRP617  ASP618  TYR619  PRO620  LYS621  CYS622 
 ASP623  PHE694  ASN695  SER759  ASP760  ASP761  ALA762  ILE779  LEU786  VAL792 
 PHE793  MET794  SER795  GLU796  ALA797  LYS798  CYS799  TRP800  GLU811  SER814 

> <Gold.Protein.RotatedAtoms>
  151.8927  135.0410  160.0498 H   0  0  0  0  0  0  0  0  0  0  0  0  # atno 6907 bound_to 6896
  152.2423  133.5141  159.5285 H   0  0  0  0  0  0  0  0  0  0  0  0  # atno 6908 bound_to 6896
  150.7057  134.0989  159.4001 H   0  0  0  0  0  0  0  0  0  0  0  0  # atno 6909 bound_to 6896
  146.1885  139.7457  142.8849 H   0  0  0  0  0  0  0  0  0  0  0  0  # atno 7974 bound_to 7965
  155.4488  140.3457  155.4298 H   0  0  0  0  0  0  0  0  0  0  0  0  # atno 8008 bound_to 7997
  156.1233  140.1493  156.9203 H   0  0  0  0  0  0  0  0  0  0  0  0  # atno 8009 bound_to 7997
  154.4839  140.0861  156.7421 H   0  0  0  0  0  0  0  0  0  0  0  0  # atno 8010 bound_to 7997
  140.3113  144.2817  150.6199 H   0  0  0  0  0  0  0  0  0  0  0  0  # atno 10167 bound_to 10162
  157.0975  131.0434  151.2512 H   0  0  0  0  0  0  0  0  0  0  0  0  # atno 10718 bound_to 10713
  152.9907  135.6160  154.2794 H   0  0  0  0  0  0  0  0  0  0  0  0  # atno 10763 bound_to 10752
  154.2524  135.2785  155.2813 H   0  0  0  0  0  0  0  0  0  0  0  0  # atno 10764 bound_to 10752
  154.5276  135.5797  153.6790 H   0  0  0  0  0  0  0  0  0  0  0  0  # atno 10765 bound_to 10752
  141.0423  133.9816  157.2974 H   0  0  0  0  0  0  0  0  0  0  0  0  # atno 11005 bound_to 11000
  145.3865  141.0366  143.3148 LP  0  0  0  0  0  0  0  0  0  0  0  0  # atno 17320 bound_to 7965
  144.8442  139.5423  143.6886 LP  0  0  0  0  0  0  0  0  0  0  0  0  # atno 17321 bound_to 7965
  140.5565  143.2198  151.7838 LP  0  0  0  0  0  0  0  0  0  0  0  0  # atno 17342 bound_to 10162
  139.4893  144.4406  151.9769 LP  0  0  0  0  0  0  0  0  0  0  0  0  # atno 17343 bound_to 10162
  157.4669  130.7686  149.7287 LP  0  0  0  0  0  0  0  0  0  0  0  0  # atno 17370 bound_to 10713
  155.9882  130.3961  150.3129 LP  0  0  0  0  0  0  0  0  0  0  0  0  # atno 17371 bound_to 10713
  139.9285  135.0201  156.8319 LP  0  0  0  0  0  0  0  0  0  0  0  0  # atno 17394 bound_to 11000
  140.6211  133.9993  155.7619 LP  0  0  0  0  0  0  0  0  0  0  0  0  # atno 17395 bound_to 11000

$$$$
