AV-unprocessed.smi:1|AV-procd|sdf|15|dock5
  -GOLD-   2262015113D 1   1.00000     0.00000
 Structure written by MMmdl.
 57 62  0  0  0  0  0  0  0  0  1 V2000
  153.2257  139.6430  157.6171 O   0  0  0  0  0  0  0  0  0  0  0  0
  152.3409  139.8263  158.4577 C   0  0  0  0  0  0  0  0  0  0  0  0
  151.3772  138.9378  158.9159 N   0  0  0  0  0  0  0  0  0  0  0  0
  150.8815  138.0436  158.1156 C   0  0  0  0  0  0  0  0  0  0  0  0
  151.1255  137.7366  156.7706 N   0  0  0  0  0  0  0  0  0  0  0  0
  150.5075  136.7135  156.0350 C   0  0  0  0  0  0  0  0  0  0  0  0
  149.6048  135.8955  156.5066 N   0  0  0  0  0  0  0  0  0  0  0  0
  149.3225  136.1598  157.8400 C   0  0  0  0  0  0  0  0  0  0  0  0
  149.8580  137.1273  158.6628 C   0  0  0  0  0  0  0  0  0  0  0  0
  149.3040  137.0568  159.9370 N   0  0  0  0  0  0  0  0  0  0  0  0
  148.4533  136.0396  159.8285 C   0  0  0  0  0  0  0  0  0  0  0  0
  148.4051  135.4559  158.6171 N   0  0  0  0  0  0  0  0  0  0  0  0
  147.5530  134.2955  158.2266 C   0  0  2  0  0  0  0  0  0  0  0  0
  148.3138  133.4201  157.4583 O   0  0  0  0  0  0  0  0  0  0  0  0
  147.4977  132.7907  156.4720 C   0  0  2  0  0  0  0  0  0  0  0  0
  148.1822  132.9699  155.1113 C   0  0  0  0  0  0  0  0  0  0  0  0
  147.6434  132.0401  154.1860 O   0  0  0  0  0  0  0  0  0  0  0  0
  148.4636  131.3367  153.3816 C   0  0  0  0  0  0  0  0  0  0  0  0
  149.6820  131.2563  153.5522 O   0  0  0  0  0  0  0  0  0  0  0  0
  147.7415  130.6614  152.2648 C   0  0  0  0  0  0  0  0  0  0  0  0
  146.4255  131.0685  151.9437 C   0  0  0  0  0  0  0  0  0  0  0  0
  145.7202  130.4523  150.8918 C   0  0  0  0  0  0  0  0  0  0  0  0
  146.3219  129.4200  150.1488 C   0  0  0  0  0  0  0  0  0  0  0  0
  147.6299  129.0045  150.4594 C   0  0  0  0  0  0  0  0  0  0  0  0
  148.3370  129.6202  151.5106 C   0  0  0  0  0  0  0  0  0  0  0  0
  146.1203  133.4647  156.5508 C   0  0  1  0  0  0  0  0  0  0  0  0
  145.2174  132.6456  157.2744 O   0  0  0  0  0  0  0  0  0  0  0  0
  144.3350  133.6153  158.3098 S   0  0  0  0  0  0  0  0  0  0  0  0
  143.0127  133.8490  157.7096 O   0  0  0  0  0  0  0  0  0  0  0  0
  144.5052  133.1028  159.6779 O   0  0  0  0  0  0  0  0  0  0  0  0
  145.2328  135.0168  158.1574 O   0  0  0  0  0  0  0  0  0  0  0  0
  146.3724  134.7362  157.3640 C   0  0  1  0  0  0  0  0  0  0  0  0
  152.2649  141.1663  159.1133 C   0  0  0  0  0  0  0  0  0  0  0  0
  151.0865  141.9359  159.0143 C   0  0  0  0  0  0  0  0  0  0  0  0
  151.0183  143.2045  159.6228 C   0  0  0  0  0  0  0  0  0  0  0  0
  152.1276  143.7074  160.3299 C   0  0  0  0  0  0  0  0  0  0  0  0
  153.3057  142.9419  160.4288 C   0  0  0  0  0  0  0  0  0  0  0  0
  153.3756  141.6734  159.8204 C   0  0  0  0  0  0  0  0  0  0  0  0
  150.8460  136.6443  155.0002 H   0  0  0  0  0  0  0  0  0  0  0  0
  147.8459  135.7077  160.6578 H   0  0  0  0  0  0  0  0  0  0  0  0
  147.2588  133.8112  159.1591 H   0  0  0  0  0  0  0  0  0  0  0  0
  147.4230  131.7280  156.7075 H   0  0  0  0  0  0  0  0  0  0  0  0
  148.0529  133.9908  154.7488 H   0  0  0  0  0  0  0  0  0  0  0  0
  149.2536  132.7905  155.2111 H   0  0  0  0  0  0  0  0  0  0  0  0
  145.9432  131.8598  152.4995 H   0  0  0  0  0  0  0  0  0  0  0  0
  144.7165  130.7729  150.6547 H   0  0  0  0  0  0  0  0  0  0  0  0
  145.7806  128.9478  149.3423 H   0  0  0  0  0  0  0  0  0  0  0  0
  148.0929  128.2121  149.8901 H   0  0  0  0  0  0  0  0  0  0  0  0
  149.3389  129.2766  151.7230 H   0  0  0  0  0  0  0  0  0  0  0  0
  145.6895  133.6800  155.5721 H   0  0  0  0  0  0  0  0  0  0  0  0
  146.6480  135.5711  156.7191 H   0  0  0  0  0  0  0  0  0  0  0  0
  150.2319  141.5574  158.4720 H   0  0  0  0  0  0  0  0  0  0  0  0
  150.1158  143.7925  159.5455 H   0  0  0  0  0  0  0  0  0  0  0  0
  152.0752  144.6806  160.7954 H   0  0  0  0  0  0  0  0  0  0  0  0
  154.1563  143.3282  160.9705 H   0  0  0  0  0  0  0  0  0  0  0  0
  154.2839  141.0933  159.8976 H   0  0  0  0  0  0  0  0  0  0  0  0
  151.8109  138.3012  156.2891 H   0  0  0  0  0  0  0  0  0  0  0  0
  1  2  2  0  0  0  0
  2  3  1  0  0  0  0
  2 33  1  0  0  0  0
  3  4  2  0  0  0  0
  4  9  1  0  0  0  0
  4  5  1  0  0  0  0
  5  6  1  0  0  0  0
  5 57  1  0  0  0  0
  6  7  2  0  0  0  0
  6 39  1  0  0  0  0
  7  8  1  0  0  0  0
  8 12  1  0  0  0  0
  8  9  2  0  0  0  0
  9 10  1  0  0  0  0
 10 11  2  0  0  0  0
 11 12  1  0  0  0  0
 11 40  1  0  0  0  0
 12 13  1  0  0  0  0
 13 32  1  0  0  0  0
 13 14  1  0  0  0  0
 13 41  1  0  0  0  0
 14 15  1  0  0  0  0
 15 16  1  0  0  0  0
 15 26  1  0  0  0  0
 15 42  1  0  0  0  0
 16 17  1  0  0  0  0
 16 43  1  0  0  0  0
 16 44  1  0  0  0  0
 17 18  1  0  0  0  0
 18 19  2  0  0  0  0
 18 20  1  0  0  0  0
 20 25  1  0  0  0  0
 20 21  2  0  0  0  0
 21 22  1  0  0  0  0
 21 45  1  0  0  0  0
 22 23  2  0  0  0  0
 22 46  1  0  0  0  0
 23 24  1  0  0  0  0
 23 47  1  0  0  0  0
 24 25  2  0  0  0  0
 24 48  1  0  0  0  0
 25 49  1  0  0  0  0
 26 32  1  0  0  0  0
 26 27  1  0  0  0  0
 26 50  1  0  0  0  0
 27 28  1  0  0  0  0
 28 29  2  0  0  0  0
 28 30  2  0  0  0  0
 28 31  1  0  0  0  0
 31 32  1  0  0  0  0
 32 51  1  0  0  0  0
 33 38  1  0  0  0  0
 33 34  2  0  0  0  0
 34 35  1  0  0  0  0
 34 52  1  0  0  0  0
 35 36  2  0  0  0  0
 35 53  1  0  0  0  0
 36 37  1  0  0  0  0
 36 54  1  0  0  0  0
 37 38  2  0  0  0  0
 37 55  1  0  0  0  0
 38 56  1  0  0  0  0
M  END
> <s_m_source_file>
AV-unprocessed.smi

> <i_m_source_file_index>
1

> <i_lp_mmshare_version>
43012

> <i_f3d_flags>
0

> <s_epik_input>
W2NIXTFbY0hdW2NIXVtjSF1bY0hdYzFDKD1PKVtOSF1jKG5bY0hdbjIpYyhjMjMpbltjSF1uM1tDQEBIXShbQ0BIXShbQ0BIXTQ1KU9TKE81KSg9Tyk9TylPW0NASF00W0NIMl1PQyg9TyljNltjSF1bY0hdW2NIXVtjSF1bY0hdNg==

> <s_epik_cmdline>
J2VwaWtfcHl0aG9uJywgJy1waCcsICc3LjAnLCAnLXRuJywgJzgnLCAnLW1hJywgJzIwMCcsICctbWV0YWxfYmluZGluZycsICctaW1hZScsICc8aW5maWxlLm1hZT4nLCAnLW9tYWUnLCAnPG91dGZpbGUubWFlPic=

> <r_epik_Ionization_Penalty>
0.122545

> <r_epik_Ionization_Penalty_Charging>
0.122545

> <r_epik_Ionization_Penalty_Neutral>
7.8935e-16

> <r_epik_State_Penalty>
2.69178

> <r_epik_Charging_Adjusted_Penalty>
2.81433

> <i_epik_Tot_Q>
0

> <i_epik_Tot_abs_Q>
0

> <r_epik_Metal_State_Penalty>
3.02665

> <b_epik_Metal_Only>
0

> <s_epik_Chemistry_Notes>
This compound has an ester and may undergo hydrolysis at high or low pH. This compound contains an acetal/aminal-like group ( X-CH(R)-Y where X, Y are N, S, or O) that may be acid/base labile, releasing an aldehyde.

> <s_lp_Force_Field>
OPLS_2005

> <r_lp_Energy>
60.8199

> <b_lp_Chiralities_Consistent>
1

> <s_lp_Variant>
AV-unprocessed.smi:1-15

> <Gold.Version>
5.8.1

> <Gold.Id.Protein>
6NUR|6NUR_protein|mol2

> <Gold.PLP.Fitness>
52.6889

> <Gold.PLP.PLP>
-50.2487

> <Gold.PLP.part.hbond>
-3.3449

> <Gold.PLP.part.metal>
0.0000

> <Gold.PLP.part.buried>
-8.4997

> <Gold.PLP.part.nonpolar>
-39.7682

> <Gold.PLP.part.repulsive>
0.2636

> <Gold.PLP.ligand.clash>
0.0000

> <Gold.PLP.ligand.torsion>
2.5119

> <Gold.PLP.Chemscore.Hbond>
2.4368

> <Gold.PLP.Chemscore.CHOScore>
0.0000

> <Gold.PLP.Chemscore.Metal>
0.0000

> <Gold.Chemscore.Hbonds>
donor molecule, donor type, donor heavy atom, donor atom, acceptor molecule, acceptor atom, score
      P1  H  6931  6943       L1    10  0.15
      P1  H  7997  8009       L1     1  1.00
      P1  H 11000 11005       L1    29  1.00

> <Gold.PLP.Chemscore.Internal.Correction>
0.1536

> <Gold.Rescore>
     Score         DG    S(hbond)    S(metal)    S(lipo)     H(rot)  DE(clash)    DE(int)     intcor
     19.02     -21.15       2.34        0.00     113.89       2.13       0.07       2.07       ----

> <Gold.Chemscore.Fitness>
19.0157

> <Gold.Chemscore.DG>
-21.1521

> <Gold.Chemscore.ZeroCoef>
-5.4800

> <Gold.Chemscore.Hbond>
2.3377

> <Gold.Chemscore.Metal>
0.0000

> <Gold.Chemscore.Lipo>
113.8950

> <Gold.Chemscore.Internal_Hbond>
0.0000

> <Gold.Chemscore.DEClash>
0.0688

> <Gold.Chemscore.DEInternal>
2.0676

> <Gold.Chemscore.Rot>
2.1333

> <Gold.Chemscore.Internal.Correction>
   9.000000E+99

> <Gold.Chemscore.Hbonds>
donor molecule, donor type, donor heavy atom, donor atom, acceptor molecule, acceptor atom, score
      P1  H  6931  6943       L1    10  0.14
      P1  H  7997  8009       L1     1  0.94
      P1  H 11000 11005       L1    29  0.99

> <Gold.Chemscore.Hbond.Weighted>
-7.8078

> <Gold.Chemscore.Metal.Weighted>
-0.0000

> <Gold.Chemscore.Lipo.Weighted>
-13.3257

> <Gold.Chemscore.Internal_Hbond.Weighted>
0.0000

> <Gold.Chemscore.DEClash.Weighted>
0.0688

> <Gold.Chemscore.DEInternal.Weighted>
2.0676

> <Gold.Chemscore.Rot.Weighted>
5.4614

> <Gold.Chemscore.Internal.Correction.Weighted>
   9.000000E+99

> <Gold.Protein.RotatedTorsions>
[ 6907 6896 6895 6894 ] final  -44.53 input  -60.11 | X-H torsion
[ 7974 7965 7964 7962 ] final   82.22 input  175.53 | X-H torsion
[ 8008 7997 7996 7995 ] final  179.96 input   59.86 | X-H torsion
[ 10167 10162 10161 10158 ] final -148.60 input  -65.29 | X-H torsion
[ 10718 10713 10712 10709 ] final  -78.80 input   66.30 | X-H torsion
[ 10763 10752 10751 10750 ] final   97.07 input  -60.55 | X-H torsion
[ 11005 11000 10999 10996 ] final  -99.97 input  -57.11 | X-H torsion

> <Gold.Protein.ActiveResidues>
 VAL166  LYS551  ARG553  GLY616  TRP617  ASP618  TYR619  PRO620  LYS621  CYS622 
 ASP623  PHE694  ASN695  SER759  ASP760  ASP761  ALA762  ILE779  LEU786  VAL792 
 PHE793  MET794  SER795  GLU796  ALA797  LYS798  CYS799  TRP800  GLU811  SER814 

> <Gold.Protein.RotatedAtoms>
  150.9318  134.8732  159.7555 H   0  0  0  0  0  0  0  0  0  0  0  0  # atno 6907 bound_to 6896
  152.5041  134.4068  159.9445 H   0  0  0  0  0  0  0  0  0  0  0  0  # atno 6908 bound_to 6896
  151.4095  133.3692  159.2777 H   0  0  0  0  0  0  0  0  0  0  0  0  # atno 6909 bound_to 6896
  145.6280  139.2399  143.2101 H   0  0  0  0  0  0  0  0  0  0  0  0  # atno 7974 bound_to 7965
  156.0374  140.1296  157.0192 H   0  0  0  0  0  0  0  0  0  0  0  0  # atno 8008 bound_to 7997
  154.4376  140.1037  156.6258 H   0  0  0  0  0  0  0  0  0  0  0  0  # atno 8009 bound_to 7997
  155.5717  140.3466  155.4519 H   0  0  0  0  0  0  0  0  0  0  0  0  # atno 8010 bound_to 7997
  139.7517  143.8509  152.2588 H   0  0  0  0  0  0  0  0  0  0  0  0  # atno 10167 bound_to 10162
  156.0108  130.4528  150.3551 H   0  0  0  0  0  0  0  0  0  0  0  0  # atno 10718 bound_to 10713
  153.2725  135.4196  155.1001 H   0  0  0  0  0  0  0  0  0  0  0  0  # atno 10763 bound_to 10752
  154.8461  135.3475  154.6224 H   0  0  0  0  0  0  0  0  0  0  0  0  # atno 10764 bound_to 10752
  153.6644  135.7047  153.5224 H   0  0  0  0  0  0  0  0  0  0  0  0  # atno 10765 bound_to 10752
  141.1289  133.8362  157.1041 H   0  0  0  0  0  0  0  0  0  0  0  0  # atno 11005 bound_to 11000
  146.1379  140.7097  142.9381 LP  0  0  0  0  0  0  0  0  0  0  0  0  # atno 17320 bound_to 7965
  144.7205  140.4356  143.7012 LP  0  0  0  0  0  0  0  0  0  0  0  0  # atno 17321 bound_to 7965
  139.8489  144.7174  150.9239 LP  0  0  0  0  0  0  0  0  0  0  0  0  # atno 17342 bound_to 10162
  140.7798  143.3917  151.1299 LP  0  0  0  0  0  0  0  0  0  0  0  0  # atno 17343 bound_to 10162
  157.1642  131.0352  151.2826 LP  0  0  0  0  0  0  0  0  0  0  0  0  # atno 17370 bound_to 10713
  157.4285  130.7477  149.6971 LP  0  0  0  0  0  0  0  0  0  0  0  0  # atno 17371 bound_to 10713
  140.0315  134.9898  157.0790 LP  0  0  0  0  0  0  0  0  0  0  0  0  # atno 17394 bound_to 11000
  140.4277  134.1813  155.7167 LP  0  0  0  0  0  0  0  0  0  0  0  0  # atno 17395 bound_to 11000

$$$$
