AV-unprocessed.smi:639|AV-procd|sdf|3148|dock5
  -GOLD-   22720 0 73D 1   1.00000     0.00000
 Structure written by MMmdl.
 23 24  0  0  0  0  0  0  0  0  2 V2000
  151.8810  144.1330  158.7148 C   0  0  0  0  0  0  0  0  0  0  0  0
  151.7056  142.8495  158.0701 N   0  0  0  0  0  0  0  0  0  0  0  0
  150.9829  142.5475  156.9367 C   0  0  0  0  0  0  0  0  0  0  0  0
  151.1062  141.2034  156.7077 C   0  0  0  0  0  0  0  0  0  0  0  0
  150.5075  140.3529  155.6007 C   0  0  1  0  0  0  0  0  0  0  0  0
  149.5669  141.1853  154.7076 C   0  0  0  0  0  0  0  0  0  0  0  0
  151.5182  139.7014  154.7793 N   0  5  0  0  0  0  0  0  0  0  0  0
  151.4012  138.3600  154.9245 C   0  0  0  0  0  0  0  0  0  0  0  0
  152.0842  137.4837  154.3993 O   0  0  0  0  0  0  0  0  0  0  0  0
  150.3957  138.0616  155.7526 N   0  0  0  0  0  0  0  0  0  0  0  0
  149.7853  139.1543  156.2006 C   0  0  0  0  0  0  0  0  0  0  0  0
  148.8144  139.2065  156.9554 O   0  0  0  0  0  0  0  0  0  0  0  0
  151.9388  140.7736  157.7837 C   0  0  0  0  0  0  0  0  0  0  0  0
  152.2970  141.7572  158.5929 N   0  0  0  0  0  0  0  0  0  0  0  0
  151.3502  144.9062  158.1586 H   0  0  0  0  0  0  0  0  0  0  0  0
  152.9408  144.3867  158.7512 H   0  0  0  0  0  0  0  0  0  0  0  0
  151.4856  144.0926  159.7302 H   0  0  0  0  0  0  0  0  0  0  0  0
  150.4426  143.3058  156.3892 H   0  0  0  0  0  0  0  0  0  0  0  0
  148.7548  141.6283  155.2852 H   0  0  0  0  0  0  0  0  0  0  0  0
  149.1151  140.5790  153.9209 H   0  0  0  0  0  0  0  0  0  0  0  0
  150.1060  142.0006  154.2236 H   0  0  0  0  0  0  0  0  0  0  0  0
  150.1251  137.1206  155.9962 H   0  0  0  0  0  0  0  0  0  0  0  0
  152.2927  139.7756  157.9962 H   0  0  0  0  0  0  0  0  0  0  0  0
  1  2  1  0  0  0  0
  1 15  1  0  0  0  0
  1 16  1  0  0  0  0
  1 17  1  0  0  0  0
  2 14  1  0  0  0  0
  2  3  1  0  0  0  0
  3  4  2  0  0  0  0
  3 18  1  0  0  0  0
  4  5  1  0  0  0  0
  4 13  1  0  0  0  0
  5 11  1  0  0  0  0
  5  6  1  0  0  0  0
  5  7  1  0  0  0  0
  6 19  1  0  0  0  0
  6 20  1  0  0  0  0
  6 21  1  0  0  0  0
  7  8  1  0  0  0  0
  8  9  2  0  0  0  0
  8 10  1  0  0  0  0
 10 11  1  0  0  0  0
 10 22  1  0  0  0  0
 11 12  2  0  0  0  0
 13 14  2  0  0  0  0
 13 23  1  0  0  0  0
M  CHG  1   7  -1
M  END
> <s_m_source_file>
AV-unprocessed.smi

> <i_m_source_file_index>
639

> <i_lp_mmshare_version>
43012

> <i_f3d_flags>
0

> <s_epik_input>
W0NIM11uMVtjSF1jKFtjSF1uMSlbQ0BAXTIoW0NIM10pW05IXUMoPU8pW05IXUMyPU8=

> <s_epik_cmdline>
J2VwaWtfcHl0aG9uJywgJy1waCcsICc3LjAnLCAnLXRuJywgJzgnLCAnLW1hJywgJzIwMCcsICctbWV0YWxfYmluZGluZycsICctaW1hZScsICc8aW5maWxlLm1hZT4nLCAnLW9tYWUnLCAnPG91dGZpbGUubWFlPic=

> <r_lp_tautomer_probability>
1

> <r_epik_Ionization_Penalty>
4.83415

> <r_epik_Ionization_Penalty_Charging>
4.8337

> <r_epik_Ionization_Penalty_Neutral>
0.000449923

> <r_epik_State_Penalty>
4.85653

> <r_epik_Charging_Adjusted_Penalty>
9.69023

> <i_epik_Tot_Q>
-1

> <i_epik_Tot_abs_Q>
1

> <r_epik_Metal_State_Penalty>
1.31841

> <b_epik_Metal_Only>
1

> <s_lp_Force_Field>
OPLS_2005

> <r_lp_Energy>
8.78459

> <b_lp_Chiralities_Consistent>
1

> <s_lp_Variant>
AV-unprocessed.smi:639-5

> <Gold.Version>
5.8.1

> <Gold.Id.Protein>
6NUR|6NUR_protein|mol2

> <Gold.PLP.Fitness>
33.8656

> <Gold.PLP.PLP>
-25.4443

> <Gold.PLP.part.hbond>
-2.0000

> <Gold.PLP.part.metal>
0.0000

> <Gold.PLP.part.buried>
-3.5433

> <Gold.PLP.part.nonpolar>
-20.2238

> <Gold.PLP.part.repulsive>
0.2443

> <Gold.PLP.ligand.clash>
0.0000

> <Gold.PLP.ligand.torsion>
0.0903

> <Gold.PLP.Chemscore.Hbond>
1.8480

> <Gold.PLP.Chemscore.CHOScore>
1.0000

> <Gold.PLP.Chemscore.Metal>
0.0000

> <Gold.Chemscore.Hbonds>
donor molecule, donor type, donor heavy atom, donor atom, acceptor molecule, acceptor atom, score
      P1  H  7989  7998       L1     7  1.00
      P1  H 10752 10765       L1     9  0.85
      L1  C     3    18       P1  8028  1.00

> <Gold.PLP.Chemscore.Internal.Correction>
0.0579

> <Gold.Rescore>
     Score         DG    S(hbond)    S(metal)    S(lipo)     H(rot)  DE(clash)    DE(int)     intcor
     13.24     -13.32       1.42        0.00      48.44       1.00       0.00       0.08       ----

> <Gold.Chemscore.Fitness>
13.2392

> <Gold.Chemscore.DG>
-13.3228

> <Gold.Chemscore.ZeroCoef>
-5.4800

> <Gold.Chemscore.Hbond>
1.4178

> <Gold.Chemscore.Metal>
0.0000

> <Gold.Chemscore.Lipo>
48.4375

> <Gold.Chemscore.Internal_Hbond>
0.0000

> <Gold.Chemscore.DEClash>
0.0009

> <Gold.Chemscore.DEInternal>
0.0827

> <Gold.Chemscore.Rot>
1.0000

> <Gold.Chemscore.Internal.Correction>
   9.000000E+99

> <Gold.Chemscore.Hbonds>
donor molecule, donor type, donor heavy atom, donor atom, acceptor molecule, acceptor atom, score
      P1  H  7989  7998       L1     7  0.25
      P1  H 10752 10765       L1     9  0.79

> <Gold.Chemscore.Hbond.Weighted>
-4.7356

> <Gold.Chemscore.Metal.Weighted>
-0.0000

> <Gold.Chemscore.Lipo.Weighted>
-5.6672

> <Gold.Chemscore.Internal_Hbond.Weighted>
0.0000

> <Gold.Chemscore.DEClash.Weighted>
0.0009

> <Gold.Chemscore.DEInternal.Weighted>
0.0827

> <Gold.Chemscore.Rot.Weighted>
2.5600

> <Gold.Chemscore.Internal.Correction.Weighted>
   9.000000E+99

> <Gold.Protein.RotatedTorsions>
[ 6907 6896 6895 6894 ] final   70.41 input  -60.11 | X-H torsion
[ 7974 7965 7964 7962 ] final   69.90 input  175.53 | X-H torsion
[ 8008 7997 7996 7995 ] final    0.41 input   59.86 | X-H torsion
[ 10167 10162 10161 10158 ] final -147.24 input  -65.29 | X-H torsion
[ 10718 10713 10712 10709 ] final  124.20 input   66.30 | X-H torsion
[ 10763 10752 10751 10750 ] final  155.69 input  -60.55 | X-H torsion
[ 11005 11000 10999 10996 ] final   16.77 input  -57.11 | X-H torsion

> <Gold.Protein.ActiveResidues>
 VAL166  LYS551  ARG553  GLY616  TRP617  ASP618  TYR619  PRO620  LYS621  CYS622 
 ASP623  PHE694  ASN695  SER759  ASP760  ASP761  ALA762  ILE779  LEU786  VAL792 
 PHE793  MET794  SER795  GLU796  ALA797  LYS798  CYS799  TRP800  GLU811  SER814 

> <Gold.Protein.RotatedAtoms>
  152.4747  134.4873  159.9684 H   0  0  0  0  0  0  0  0  0  0  0  0  # atno 6907 bound_to 6896
  151.4892  133.3523  159.2858 H   0  0  0  0  0  0  0  0  0  0  0  0  # atno 6908 bound_to 6896
  150.8778  134.8191  159.7264 H   0  0  0  0  0  0  0  0  0  0  0  0  # atno 6909 bound_to 6896
  145.7848  139.2905  143.1245 H   0  0  0  0  0  0  0  0  0  0  0  0  # atno 7974 bound_to 7965
  154.6678  140.2605  155.7039 H   0  0  0  0  0  0  0  0  0  0  0  0  # atno 8008 bound_to 7997
  156.2646  140.2835  156.1097 H   0  0  0  0  0  0  0  0  0  0  0  0  # atno 8009 bound_to 7997
  155.1213  140.0377  157.2741 H   0  0  0  0  0  0  0  0  0  0  0  0  # atno 8010 bound_to 7997
  139.7640  143.8335  152.2612 H   0  0  0  0  0  0  0  0  0  0  0  0  # atno 10167 bound_to 10162
  157.5604  131.1090  150.8548 H   0  0  0  0  0  0  0  0  0  0  0  0  # atno 10718 bound_to 10713
  154.1723  135.2804  155.3077 H   0  0  0  0  0  0  0  0  0  0  0  0  # atno 10763 bound_to 10752
  154.6065  135.5512  153.7432 H   0  0  0  0  0  0  0  0  0  0  0  0  # atno 10764 bound_to 10752
  153.0161  135.6405  154.1863 H   0  0  0  0  0  0  0  0  0  0  0  0  # atno 10765 bound_to 10752
  140.4434  134.1299  155.7693 H   0  0  0  0  0  0  0  0  0  0  0  0  # atno 11005 bound_to 11000
  146.0037  140.8497  143.0005 LP  0  0  0  0  0  0  0  0  0  0  0  0  # atno 17320 bound_to 7965
  144.6791  140.2389  143.7346 LP  0  0  0  0  0  0  0  0  0  0  0  0  # atno 17321 bound_to 7965
  139.8350  144.7236  150.9403 LP  0  0  0  0  0  0  0  0  0  0  0  0  # atno 17342 bound_to 10162
  140.7809  143.4035  151.1109 LP  0  0  0  0  0  0  0  0  0  0  0  0  # atno 17343 bound_to 10162
  156.9047  130.5259  149.5282 LP  0  0  0  0  0  0  0  0  0  0  0  0  # atno 17370 bound_to 10713
  156.0658  130.5701  150.9285 LP  0  0  0  0  0  0  0  0  0  0  0  0  # atno 17371 bound_to 10713
  141.1696  133.8635  157.1612 LP  0  0  0  0  0  0  0  0  0  0  0  0  # atno 17394 bound_to 11000
  140.0055  135.0010  157.0283 LP  0  0  0  0  0  0  0  0  0  0  0  0  # atno 17395 bound_to 11000

$$$$
