#       Name:                AV-unprocessed.smi:500
#       Creating user name   scv26
#       Creation time:       Thu Mar 26 23:19:55 2020


#       File generated by GOLD software.
#

@<TRIPOS>MOLECULE
AV-unprocessed.smi:500
    52    54     1
SMALL
NO_CHARGES


@<TRIPOS>ATOM
      1 ****        -5.6622   0.3753   2.3038 C.3            1 S1                 0.0000
      2 ****        -4.1400   0.2334   2.3698 C.3            1 S1                 0.0000
      3 ****        -3.5955   0.5647   1.1010 O.3            1 S1                 0.0000
      4 ****        -2.1758   0.5485   1.0509 C.3            1 S1                 0.0000
      5 ****        -1.6219  -0.8843   0.9695 C.3            1 S1                 0.0000
      6 ****        -0.1553  -0.8902   0.8062 N.pl3          1 S1                 0.0000
      7 ****         0.6405  -0.9250  -0.3114 C.2            1 S1                 0.0000
      8 ****         0.2247  -0.9784  -1.7603 C.3            1 S1                 0.0000
      9 ****         0.2324  -2.4304  -2.2565 C.3            1 S1                 0.0000
     10 ****         1.1014  -0.1748  -2.6146 N.pl3          1 S1                -1.0000
     11 ****         1.0602   1.1864  -2.6862 C.2            1 S1                 0.0000
     12 ****         0.3431   1.9849  -2.0733 O.2            1 S1                 0.0000
     13 ****         2.0493   1.7305  -3.6464 C.2            1 S1                 0.0000
     14 ****         2.3106   3.0277  -4.0009 C.2            1 S1                 0.0000
     15 ****         3.3580   2.9891  -4.9627 C.2            1 S1                 0.0000
     16 ****         3.6662   1.6699  -5.1291 C.2            1 S1                 0.0000
     17 ****         2.8813   0.8909  -4.3370 O.3            1 S1                 0.0000
     18 ****         1.9336  -0.9137   0.1242 N.pl3          1 S1                 1.0000
     19 ****         1.9733  -0.8470   1.5151 C.ar           1 S1                 0.0000
     20 ****         3.0507  -0.8000   2.3937 C.ar           1 S1                 0.0000
     21 ****         2.7431  -0.7289   3.7681 C.ar           1 S1                 0.0000
     22 ****         1.4079  -0.7058   4.2205 C.ar           1 S1                 0.0000
     23 ****         0.3243  -0.7545   3.3188 C.ar           1 S1                 0.0000
     24 ****         0.6368  -0.8275   1.9608 C.ar           1 S1                 0.0000
     25 ****        -6.1184   0.1283   3.2626 H              1 S1                 0.0000
     26 ****        -6.0850  -0.2900   1.5506 H              1 S1                 0.0000
     27 ****        -5.9495   1.3958   2.0493 H              1 S1                 0.0000
     28 ****        -3.7412   0.8978   3.1376 H              1 S1                 0.0000
     29 ****        -3.8811  -0.7877   2.6490 H              1 S1                 0.0000
     30 ****        -1.8771   1.0941   0.1551 H              1 S1                 0.0000
     31 ****        -1.7519   1.0918   1.8969 H              1 S1                 0.0000
     32 ****        -1.8750  -1.4704   1.8522 H              1 S1                 0.0000
     33 ****        -2.0670  -1.4128   0.1265 H              1 S1                 0.0000
     34 ****        -0.8044  -0.6215  -1.8192 H              1 S1                 0.0000
     35 ****        -0.4391  -3.0486  -1.6601 H              1 S1                 0.0000
     36 ****         1.2293  -2.8691  -2.1960 H              1 S1                 0.0000
     37 ****        -0.0983  -2.4950  -3.2937 H              1 S1                 0.0000
     38 ****         1.8061   3.9007  -3.6135 H              1 S1                 0.0000
     39 ****         3.8260   3.8208  -5.4681 H              1 S1                 0.0000
     40 ****         4.3798   1.1361  -5.7391 H              1 S1                 0.0000
     41 ****         4.0732  -0.8137   2.0463 H              1 S1                 0.0000
     42 ****         3.5471  -0.6890   4.4886 H              1 S1                 0.0000
     43 ****         1.2101  -0.6486   5.2809 H              1 S1                 0.0000
     44 ****        -0.6941  -0.7314   3.6771 H              1 S1                 0.0000
     45 ****         2.7258  -0.9288  -0.5054 H              1 S1                 0.0000
     46 ****        -3.9069   1.4831   0.8568 LP             1 S1                 0.0000
     47 ****        -3.9399  -0.0931   0.4311 LP             1 S1                 0.0000
     48 ****         1.7720  -0.6540  -3.1808 LP             1 S1                 0.0000
     49 ****        -0.3277   1.6489  -1.4121 LP             1 S1                 0.0000
     50 ****         0.4336   2.9670  -2.2386 LP             1 S1                 0.0000
     51 ****         2.3445   0.2613  -4.8987 LP             1 S1                 0.0000
     52 ****         3.4479   0.3686  -3.6998 LP             1 S1                 0.0000
@<TRIPOS>BOND
    1    1    2 1     
    2    1   25 1     
    3    1   26 1     
    4    1   27 1     
    5    2    3 1     
    6    2   28 1     
    7    2   29 1     
    8    3    4 1     
    9    4    5 1     
   10    4   30 1     
   11    4   31 1     
   12    5    6 1     
   13    5   32 1     
   14    5   33 1     
   15    6   24 1     
   16    6    7 1     
   17    7    8 1     
   18    7   18 2     
   19    8    9 1     
   20    8   10 1     
   21    8   34 1     
   22    9   35 1     
   23    9   36 1     
   24    9   37 1     
   25   10   11 1     
   26   11   12 2     
   27   11   13 1     
   28   13   17 1     
   29   13   14 2     
   30   14   15 1     
   31   14   38 1     
   32   15   16 2     
   33   15   39 1     
   34   16   17 1     
   35   16   40 1     
   36   18   19 1     
   37   18   45 1     
   38   19   24 ar    
   39   19   20 ar    
   40   20   21 ar    
   41   20   41 1     
   42   21   22 ar    
   43   21   42 1     
   44   22   23 ar    
   45   22   43 1     
   46   23   24 ar    
   47   23   44 1     
   48    3   46 1     
   49    3   47 1     
   50   10   48 1     
   51   12   49 1     
   52   12   50 1     
   53   17   51 1     
   54   17   52 1     
@<TRIPOS>SUBSTRUCTURE
      1 S1             1
@<TRIPOS>SET
LONE_PAIRS      STATIC     ATOMS    <user>   **** ""
7 46 47 48 49 50 51 52
DONOR_HYDROGENS      STATIC     ATOMS    <user>   **** ""
1 45
ATOM$BLUE        STATIC     ATOMS    COLORGROUP SYSTEM
7 46 47 48 49 50 51 52
ATOM$RED        STATIC     ATOMS    COLORGROUP SYSTEM
1 45
