#       Name:                AV-unprocessed.smi:2883
#       Creating user name   scv26
#       Creation time:       Fri Mar 27 15:54:53 2020


#       File generated by GOLD software.
#

@<TRIPOS>MOLECULE
AV-unprocessed.smi:2883
    43    45     1
SMALL
NO_CHARGES


@<TRIPOS>ATOM
      1 ****        -1.9965   2.0092  -0.5451 C.3            1 S1                 0.0000
      2 ****        -2.8782   0.8613  -0.0002 C.3            1 S1                 0.0000
      3 ****        -3.2534   1.1442   1.4659 C.3            1 S1                 0.0000
      4 ****        -4.1567   0.8460  -0.8686 C.3            1 S1                 0.0000
      5 ****        -2.1414  -0.4830  -0.0876 C.ar           1 S1                 0.0000
      6 ****        -2.8544  -1.6178  -0.2044 N.pl3          1 S1                 1.0000
      7 ****        -2.2313  -2.8208  -0.1669 C.ar           1 S1                 0.0000
      8 ****        -0.8406  -2.8965   0.0287 C.ar           1 S1                 0.0000
      9 ****        -0.1562  -1.6807   0.1889 C.ar           1 S1                 0.0000
     10 ****         1.2290  -1.6872   0.4028 N.pl3          1 S1                 0.0000
     11 ****         2.0002  -0.4484   0.3811 C.3            1 S1                 0.0000
     12 ****         2.1691   0.1314  -1.0297 C.3            1 S1                 0.0000
     13 ****         3.6947   0.2311  -1.1507 C.3            1 S1                 0.0000
     14 ****         4.2829   1.3085  -0.2295 C.3            1 S1                 0.0000
     15 ****         4.1489   0.6524   1.1443 C.3            1 S1                 0.0000
     16 ****         3.4639  -0.6758   0.7948 C.3            1 S1                 0.0000
     17 ****         4.0737  -0.9444  -0.4574 O.3            1 S1                 0.0000
     18 ****        -0.8204  -0.5054   0.1479 N.ar           1 S1                 0.0000
     19 ****        -2.5271   2.9616  -0.5233 H              1 S1                 0.0000
     20 ****        -1.6970   1.8255  -1.5778 H              1 S1                 0.0000
     21 ****        -1.0875   2.1421   0.0431 H              1 S1                 0.0000
     22 ****        -2.3675   1.1887   2.1007 H              1 S1                 0.0000
     23 ****        -3.9046   0.3663   1.8661 H              1 S1                 0.0000
     24 ****        -3.7771   2.0955   1.5664 H              1 S1                 0.0000
     25 ****        -4.6641   1.8112  -0.8425 H              1 S1                 0.0000
     26 ****        -4.8769   0.1031  -0.5237 H              1 S1                 0.0000
     27 ****        -3.9267   0.6264  -1.9119 H              1 S1                 0.0000
     28 ****        -2.8689  -3.6847  -0.2849 H              1 S1                 0.0000
     29 ****        -0.3292  -3.8475   0.0639 H              1 S1                 0.0000
     30 ****         1.7316  -2.5630   0.3934 H              1 S1                 0.0000
     31 ****         1.5366   0.2729   1.0556 H              1 S1                 0.0000
     32 ****         1.7768  -0.5426  -1.7929 H              1 S1                 0.0000
     33 ****         1.6770   1.0974  -1.1482 H              1 S1                 0.0000
     34 ****         4.0542   0.2816  -2.1787 H              1 S1                 0.0000
     35 ****         5.3319   1.4924  -0.4642 H              1 S1                 0.0000
     36 ****         3.7444   2.2538  -0.3033 H              1 S1                 0.0000
     37 ****         5.1327   0.4758   1.5805 H              1 S1                 0.0000
     38 ****         3.5677   1.2514   1.8462 H              1 S1                 0.0000
     39 ****         3.6083  -1.4515   1.5479 H              1 S1                 0.0000
     40 ****        -3.8666  -1.5808  -0.3266 H              1 S1                 0.0000
     41 ****         5.0670  -1.0290  -0.3794 LP             1 S1                 0.0000
     42 ****         3.7017  -1.7679  -0.8858 LP             1 S1                 0.0000
     43 ****        -0.3259   0.3515   0.2936 LP             1 S1                 0.0000
@<TRIPOS>BOND
    1    1    2 1     
    2    1   19 1     
    3    1   20 1     
    4    1   21 1     
    5    2    3 1     
    6    2    4 1     
    7    2    5 1     
    8    3   22 1     
    9    3   23 1     
   10    3   24 1     
   11    4   25 1     
   12    4   26 1     
   13    4   27 1     
   14    5   18 ar    
   15    5    6 ar    
   16    6    7 ar    
   17    6   40 1     
   18    7    8 ar    
   19    7   28 1     
   20    8    9 ar    
   21    8   29 1     
   22    9   10 1     
   23    9   18 ar    
   24   10   11 1     
   25   10   30 1     
   26   11   16 1     
   27   11   12 1     
   28   11   31 1     
   29   12   13 1     
   30   12   32 1     
   31   12   33 1     
   32   13   17 1     
   33   13   14 1     
   34   13   34 1     
   35   14   15 1     
   36   14   35 1     
   37   14   36 1     
   38   15   16 1     
   39   15   37 1     
   40   15   38 1     
   41   16   17 1     
   42   16   39 1     
   43   17   41 1     
   44   17   42 1     
   45   18   43 1     
@<TRIPOS>SUBSTRUCTURE
      1 S1             1
@<TRIPOS>SET
LONE_PAIRS      STATIC     ATOMS    <user>   **** ""
3 41 42 43
DONOR_HYDROGENS      STATIC     ATOMS    <user>   **** ""
2 40 30
ATOM$BLUE        STATIC     ATOMS    COLORGROUP SYSTEM
3 41 42 43
ATOM$RED        STATIC     ATOMS    COLORGROUP SYSTEM
2 40 30
