AV-unprocessed.smi:2248|AV-procd|sdf|9094|dock6
  -GOLD-   2272012293D 1   1.00000     0.00000
 Structure written by MMmdl.
 35 36  0  0  0  0  0  0  0  0  1 V2000
  153.4077  141.3084  160.4899 C   0  0  0  0  0  0  0  0  0  0  0  0
  152.7006  142.4498  159.7898 C   0  0  0  0  0  0  0  0  0  0  0  0
  152.8042  143.7699  160.2703 C   0  0  0  0  0  0  0  0  0  0  0  0
  152.1248  144.7842  159.5723 C   0  0  0  0  0  0  0  0  0  0  0  0
  151.3762  144.4397  158.4303 C   0  0  0  0  0  0  0  0  0  0  0  0
  151.3250  143.0903  158.0137 C   0  0  0  0  0  0  0  0  0  0  0  0
  150.5442  142.8472  156.8528 N   0  0  0  0  0  0  0  0  0  0  0  0
  150.1382  141.6648  156.3573 C   0  0  0  0  0  0  0  0  0  0  0  0
  150.3925  140.5620  156.8427 O   0  0  0  0  0  0  0  0  0  0  0  0
  149.4046  141.8299  155.2474 N   0  0  0  0  0  0  0  0  0  0  0  0
  148.8100  140.7455  154.4741 C   0  0  2  0  0  0  0  0  0  0  0  0
  147.9767  139.8609  155.3603 C   0  0  0  0  0  0  0  0  0  0  0  0
  148.3452  138.5833  155.3039 C   0  0  0  0  0  0  0  0  0  0  0  0
  149.5078  138.3500  154.3730 C   0  0  2  0  0  0  0  0  0  0  0  0
  150.6840  137.6287  155.0533 C   0  0  0  0  0  0  0  0  0  0  0  0
  151.6233  137.1937  154.0927 O   0  0  0  0  0  0  0  0  0  0  0  0
  149.8684  139.7759  153.8845 C   0  0  0  0  0  0  0  0  0  0  0  0
  151.9834  142.1194  158.6945 N   0  0  0  0  0  0  0  0  0  0  0  0
  148.1683  141.1480  153.6885 H   0  0  0  0  0  0  0  0  0  0  0  0
  149.1497  137.7573  153.5300 H   0  0  0  0  0  0  0  0  0  0  0  0
  153.7643  141.6106  161.4749 H   0  0  0  0  0  0  0  0  0  0  0  0
  154.2646  140.9791  159.9018 H   0  0  0  0  0  0  0  0  0  0  0  0
  152.7333  140.4613  160.6193 H   0  0  0  0  0  0  0  0  0  0  0  0
  153.3876  144.0017  161.1492 H   0  0  0  0  0  0  0  0  0  0  0  0
  152.1769  145.8099  159.9060 H   0  0  0  0  0  0  0  0  0  0  0  0
  150.8489  145.2074  157.8827 H   0  0  0  0  0  0  0  0  0  0  0  0
  150.2594  143.6695  156.3417 H   0  0  0  0  0  0  0  0  0  0  0  0
  149.2422  142.7692  154.9152 H   0  0  0  0  0  0  0  0  0  0  0  0
  147.1619  140.2458  155.9558 H   0  0  0  0  0  0  0  0  0  0  0  0
  147.8740  137.7780  155.8479 H   0  0  0  0  0  0  0  0  0  0  0  0
  151.1878  138.3009  155.7486 H   0  0  0  0  0  0  0  0  0  0  0  0
  150.3345  136.7706  155.6285 H   0  0  0  0  0  0  0  0  0  0  0  0
  151.1554  136.8938  153.3281 H   0  0  0  0  0  0  0  0  0  0  0  0
  149.8720  139.8243  152.7949 H   0  0  0  0  0  0  0  0  0  0  0  0
  150.8736  140.0491  154.2100 H   0  0  0  0  0  0  0  0  0  0  0  0
  1  2  1  0  0  0  0
  1 21  1  0  0  0  0
  1 22  1  0  0  0  0
  1 23  1  0  0  0  0
  2 18  1  0  0  0  0
  2  3  2  0  0  0  0
  3  4  1  0  0  0  0
  3 24  1  0  0  0  0
  4  5  2  0  0  0  0
  4 25  1  0  0  0  0
  5  6  1  0  0  0  0
  5 26  1  0  0  0  0
  6  7  1  0  0  0  0
  6 18  2  0  0  0  0
  7  8  1  0  0  0  0
  7 27  1  0  0  0  0
  8  9  2  0  0  0  0
  8 10  1  0  0  0  0
 10 11  1  0  0  0  0
 10 28  1  0  0  0  0
 11 19  1  0  0  0  0
 11 17  1  0  0  0  0
 11 12  1  0  0  0  0
 12 13  2  0  0  0  0
 12 29  1  0  0  0  0
 13 14  1  0  0  0  0
 13 30  1  0  0  0  0
 14 20  1  0  0  0  0
 14 15  1  0  0  0  0
 14 17  1  0  0  0  0
 15 16  1  0  0  0  0
 15 31  1  0  0  0  0
 15 32  1  0  0  0  0
 16 33  1  0  0  0  0
 17 34  1  0  0  0  0
 17 35  1  0  0  0  0
M  END
> <s_m_source_file>
AV-unprocessed.smi

> <i_m_source_file_index>
2248

> <i_lp_mmshare_version>
43012

> <i_f3d_flags>
0

> <s_epik_input>
W0NIM11jMVtjSF1bY0hdW2NIXWMobjEpW05IXUMoPU8pW05IXVtDQEBIXTJbQ0hdPVtDSF1bQ0BASF0oW0NIMl0yKVtDSDJdW09IXQ==

> <s_epik_cmdline>
J2VwaWtfcHl0aG9uJywgJy1waCcsICc3LjAnLCAnLXRuJywgJzgnLCAnLW1hJywgJzIwMCcsICctbWV0YWxfYmluZGluZycsICctaW1hZScsICc8aW5maWxlLm1hZT4nLCAnLW9tYWUnLCAnPG91dGZpbGUubWFlPic=

> <r_lp_tautomer_probability>
1

> <r_epik_Ionization_Penalty>
8.36606e-05

> <r_epik_Ionization_Penalty_Charging>
0

> <r_epik_Ionization_Penalty_Neutral>
8.36606e-05

> <r_epik_State_Penalty>
-0

> <r_epik_Charging_Adjusted_Penalty>
0

> <i_epik_Tot_Q>
0

> <i_epik_Tot_abs_Q>
0

> <r_epik_Metal_State_Penalty>
-0

> <b_epik_Metal_Only>
0

> <s_lp_Force_Field>
OPLS_2005

> <r_lp_Energy>
17.2686

> <b_lp_Chiralities_Consistent>
1

> <s_lp_Variant>
AV-unprocessed.smi:2248-1

> <Gold.Version>
5.8.1

> <Gold.Id.Protein>
6NUR|6NUR_protein|mol2

> <Gold.PLP.Fitness>
46.9126

> <Gold.PLP.PLP>
-36.0890

> <Gold.PLP.part.hbond>
-4.0000

> <Gold.PLP.part.metal>
0.0000

> <Gold.PLP.part.buried>
-1.8392

> <Gold.PLP.part.nonpolar>
-31.0484

> <Gold.PLP.part.repulsive>
0.2311

> <Gold.PLP.ligand.clash>
0.0000

> <Gold.PLP.ligand.torsion>
0.1446

> <Gold.PLP.Chemscore.Hbond>
3.6998

> <Gold.PLP.Chemscore.CHOScore>
0.0000

> <Gold.PLP.Chemscore.Metal>
0.0000

> <Gold.Chemscore.Hbonds>
donor molecule, donor type, donor heavy atom, donor atom, acceptor molecule, acceptor atom, score
      L1  H     7    27       P1  8028  0.99
      L1  H    10    28       P1  8028  0.68
      L1  H    16    33       P1  7949  0.95
      P1  H 10752 10765       L1    16  0.95

> <Gold.PLP.Chemscore.Internal.Correction>
0.0133

> <Gold.Rescore>
     Score         DG    S(hbond)    S(metal)    S(lipo)     H(rot)  DE(clash)    DE(int)     intcor
     16.05     -21.04       2.87        0.00      90.72       1.82       2.32       2.67       ----

> <Gold.Chemscore.Fitness>
16.0510

> <Gold.Chemscore.DG>
-21.0360

> <Gold.Chemscore.ZeroCoef>
-5.4800

> <Gold.Chemscore.Hbond>
2.8733

> <Gold.Chemscore.Metal>
0.0000

> <Gold.Chemscore.Lipo>
90.7202

> <Gold.Chemscore.Internal_Hbond>
0.0000

> <Gold.Chemscore.DEClash>
2.3157

> <Gold.Chemscore.DEInternal>
2.6694

> <Gold.Chemscore.Rot>
1.8184

> <Gold.Chemscore.Internal.Correction>
   9.000000E+99

> <Gold.Chemscore.Hbonds>
donor molecule, donor type, donor heavy atom, donor atom, acceptor molecule, acceptor atom, score
      L1  H     7    27       P1  8028  0.94
      L1  H    10    28       P1  8028  0.65
      L1  H    16    33       P1  7949  0.43
      P1  H 10752 10765       L1    16  0.20

> <Gold.Chemscore.Hbond.Weighted>
-9.5968

> <Gold.Chemscore.Metal.Weighted>
-0.0000

> <Gold.Chemscore.Lipo.Weighted>
-10.6143

> <Gold.Chemscore.Internal_Hbond.Weighted>
0.0000

> <Gold.Chemscore.DEClash.Weighted>
2.3157

> <Gold.Chemscore.DEInternal.Weighted>
2.6694

> <Gold.Chemscore.Rot.Weighted>
4.6551

> <Gold.Chemscore.Internal.Correction.Weighted>
   9.000000E+99

> <Gold.Protein.RotatedTorsions>
[ 6907 6896 6895 6894 ] final  -53.26 input  -60.11 | X-H torsion
[ 7974 7965 7964 7962 ] final   52.51 input  175.53 | X-H torsion
[ 8008 7997 7996 7995 ] final  -22.44 input   59.86 | X-H torsion
[ 10167 10162 10161 10158 ] final  -76.17 input  -65.29 | X-H torsion
[ 10718 10713 10712 10709 ] final  105.43 input   66.30 | X-H torsion
[ 10763 10752 10751 10750 ] final  162.52 input  -60.55 | X-H torsion
[ 11005 11000 10999 10996 ] final  -63.46 input  -57.11 | X-H torsion

> <Gold.Protein.ActiveResidues>
 VAL166  LYS551  ARG553  GLY616  TRP617  ASP618  TYR619  PRO620  LYS621  CYS622 
 ASP623  PHE694  ASN695  SER759  ASP760  ASP761  ALA762  ILE779  LEU786  VAL792 
 PHE793  MET794  SER795  GLU796  ALA797  LYS798  CYS799  TRP800  GLU811  SER814 

> <Gold.Protein.RotatedAtoms>
  150.8443  134.7746  159.6957 H   0  0  0  0  0  0  0  0  0  0  0  0  # atno 6907 bound_to 6896
  152.4523  134.5363  159.9836 H   0  0  0  0  0  0  0  0  0  0  0  0  # atno 6908 bound_to 6896
  151.5497  133.3381  159.2986 H   0  0  0  0  0  0  0  0  0  0  0  0  # atno 6909 bound_to 6896
  145.9806  139.4238  143.0134 H   0  0  0  0  0  0  0  0  0  0  0  0  # atno 7974 bound_to 7965
  154.4644  140.2008  156.0157 H   0  0  0  0  0  0  0  0  0  0  0  0  # atno 8008 bound_to 7997
  156.0900  140.3259  155.7775 H   0  0  0  0  0  0  0  0  0  0  0  0  # atno 8009 bound_to 7997
  155.4972  140.0551  157.2935 H   0  0  0  0  0  0  0  0  0  0  0  0  # atno 8010 bound_to 7997
  140.4880  143.2387  151.7953 H   0  0  0  0  0  0  0  0  0  0  0  0  # atno 10167 bound_to 10162
  157.6706  131.0827  150.5855 H   0  0  0  0  0  0  0  0  0  0  0  0  # atno 10718 bound_to 10713
  154.2797  135.2763  155.2702 H   0  0  0  0  0  0  0  0  0  0  0  0  # atno 10763 bound_to 10752
  154.5229  135.5751  153.6699 H   0  0  0  0  0  0  0  0  0  0  0  0  # atno 10764 bound_to 10752
  152.9931  135.6209  154.2955 H   0  0  0  0  0  0  0  0  0  0  0  0  # atno 10765 bound_to 10752
  141.1393  133.6652  156.5683 H   0  0  0  0  0  0  0  0  0  0  0  0  # atno 11005 bound_to 11000
  145.7775  140.9870  143.1116 LP  0  0  0  0  0  0  0  0  0  0  0  0  # atno 17320 bound_to 7965
  144.6860  139.9524  143.7478 LP  0  0  0  0  0  0  0  0  0  0  0  0  # atno 17321 bound_to 7965
  139.4845  144.4687  151.9452 LP  0  0  0  0  0  0  0  0  0  0  0  0  # atno 17342 bound_to 10162
  140.3773  144.2780  150.5912 LP  0  0  0  0  0  0  0  0  0  0  0  0  # atno 17343 bound_to 10162
  156.6156  130.4392  149.5842 LP  0  0  0  0  0  0  0  0  0  0  0  0  # atno 17370 bound_to 10713
  156.2396  130.6843  151.1543 LP  0  0  0  0  0  0  0  0  0  0  0  0  # atno 17371 bound_to 10713
  140.3933  134.7421  157.4735 LP  0  0  0  0  0  0  0  0  0  0  0  0  # atno 17394 bound_to 11000
  140.0550  134.6077  155.8816 LP  0  0  0  0  0  0  0  0  0  0  0  0  # atno 17395 bound_to 11000

$$$$
