AV-unprocessed.smi:730|AV-procd|sdf|3522|dock7
  -GOLD-   22720 0513D 1   1.00000     0.00000
 Structure written by MMmdl.
 40 41  0  0  0  0  0  0  0  0  1 V2000
  150.9780  133.8506  156.1926 C   0  0  0  0  0  0  0  0  0  0  0  0
  150.6101  132.3536  156.1735 C   0  0  0  0  0  0  0  0  0  0  0  0
  151.9105  131.5355  156.0648 C   0  0  0  0  0  0  0  0  0  0  0  0
  149.9039  132.0105  157.4986 C   0  0  0  0  0  0  0  0  0  0  0  0
  149.7084  132.0390  155.0125 C   0  0  0  0  0  0  0  0  0  0  0  0
  149.1687  132.7942  154.0066 C   0  0  0  0  0  0  0  0  0  0  0  0
  148.4195  131.8500  153.2561 C   0  0  0  0  0  0  0  0  0  0  0  0
  147.6950  132.2463  152.1031 N   0  0  0  0  0  0  0  0  0  0  0  0
  146.4376  132.7171  152.0488 C   0  0  0  0  0  0  0  0  0  0  0  0
  145.6985  132.8819  153.0197 O   0  0  0  0  0  0  0  0  0  0  0  0
  146.0736  132.9904  150.7876 N   0  0  0  0  0  0  0  0  0  0  0  0
  144.7738  133.5240  150.3859 C   0  0  2  0  0  0  0  0  0  0  0  0
  144.4677  134.8314  151.1410 C   0  0  0  0  0  0  0  0  0  0  0  0
  143.5347  134.4339  152.2831 C   0  0  0  0  0  0  0  0  0  0  0  0
  142.6834  133.3205  151.6823 C   0  0  0  0  0  0  0  0  0  0  0  0
  143.6450  132.5415  150.7736 C   0  0  1  0  0  0  0  0  0  0  0  0
  142.9583  132.0631  149.6354 O   0  0  0  0  0  0  0  0  0  0  0  0
  148.4913  130.6262  153.7543 N   0  0  0  0  0  0  0  0  0  0  0  0
  149.3158  130.7406  154.8787 O   0  0  0  0  0  0  0  0  0  0  0  0
  151.6345  134.0887  157.0303 H   0  0  0  0  0  0  0  0  0  0  0  0
  150.0904  134.4776  156.2854 H   0  0  0  0  0  0  0  0  0  0  0  0
  151.4960  134.1451  155.2791 H   0  0  0  0  0  0  0  0  0  0  0  0
  152.4417  131.7589  155.1389 H   0  0  0  0  0  0  0  0  0  0  0  0
  151.7105  130.4633  156.0766 H   0  0  0  0  0  0  0  0  0  0  0  0
  152.5872  131.7498  156.8925 H   0  0  0  0  0  0  0  0  0  0  0  0
  150.5351  132.2392  158.3579 H   0  0  0  0  0  0  0  0  0  0  0  0
  149.6501  130.9512  157.5542 H   0  0  0  0  0  0  0  0  0  0  0  0
  148.9778  132.5753  157.6114 H   0  0  0  0  0  0  0  0  0  0  0  0
  149.2922  133.8532  153.8352 H   0  0  0  0  0  0  0  0  0  0  0  0
  148.1869  132.1619  151.2261 H   0  0  0  0  0  0  0  0  0  0  0  0
  146.7432  132.8234  150.0509 H   0  0  0  0  0  0  0  0  0  0  0  0
  144.7775  133.7126  149.3102 H   0  0  0  0  0  0  0  0  0  0  0  0
  145.3576  135.3536  151.4948 H   0  0  0  0  0  0  0  0  0  0  0  0
  143.9412  135.5141  150.4727 H   0  0  0  0  0  0  0  0  0  0  0  0
  144.1177  134.0462  153.1195 H   0  0  0  0  0  0  0  0  0  0  0  0
  142.9378  135.2702  152.6482 H   0  0  0  0  0  0  0  0  0  0  0  0
  142.2193  132.6894  152.4407 H   0  0  0  0  0  0  0  0  0  0  0  0
  141.8819  133.7705  151.0938 H   0  0  0  0  0  0  0  0  0  0  0  0
  144.0452  131.6867  151.3218 H   0  0  0  0  0  0  0  0  0  0  0  0
  142.3030  132.6989  149.3911 H   0  0  0  0  0  0  0  0  0  0  0  0
  1  2  1  0  0  0  0
  1 20  1  0  0  0  0
  1 21  1  0  0  0  0
  1 22  1  0  0  0  0
  2  3  1  0  0  0  0
  2  4  1  0  0  0  0
  2  5  1  0  0  0  0
  3 23  1  0  0  0  0
  3 24  1  0  0  0  0
  3 25  1  0  0  0  0
  4 26  1  0  0  0  0
  4 27  1  0  0  0  0
  4 28  1  0  0  0  0
  5 19  1  0  0  0  0
  5  6  2  0  0  0  0
  6  7  1  0  0  0  0
  6 29  1  0  0  0  0
  7  8  1  0  0  0  0
  7 18  2  0  0  0  0
  8  9  1  0  0  0  0
  8 30  1  0  0  0  0
  9 10  2  0  0  0  0
  9 11  1  0  0  0  0
 11 12  1  0  0  0  0
 11 31  1  0  0  0  0
 12 16  1  0  0  0  0
 12 13  1  0  0  0  0
 12 32  1  0  0  0  0
 13 14  1  0  0  0  0
 13 33  1  0  0  0  0
 13 34  1  0  0  0  0
 14 15  1  0  0  0  0
 14 35  1  0  0  0  0
 14 36  1  0  0  0  0
 15 16  1  0  0  0  0
 15 37  1  0  0  0  0
 15 38  1  0  0  0  0
 16 17  1  0  0  0  0
 16 39  1  0  0  0  0
 17 40  1  0  0  0  0
 18 19  1  0  0  0  0
M  END
> <s_m_source_file>
AV-unprocessed.smi

> <i_m_source_file_index>
730

> <i_lp_mmshare_version>
43012

> <i_f3d_flags>
0

> <s_epik_input>
W0NIM11DKFtDSDNdKShbQ0gzXSljMVtjSF1jKG5vMSlbTkhdQyg9TylbTkhdW0NAQEhdMltDSDJdW0NIMl1bQ0gyXVtDQEhdMltPSF0=

> <s_epik_cmdline>
J2VwaWtfcHl0aG9uJywgJy1waCcsICc3LjAnLCAnLXRuJywgJzgnLCAnLW1hJywgJzIwMCcsICctbWV0YWxfYmluZGluZycsICctaW1hZScsICc8aW5maWxlLm1hZT4nLCAnLW9tYWUnLCAnPG91dGZpbGUubWFlPic=

> <r_lp_tautomer_probability>
1

> <r_epik_Ionization_Penalty>
2.23071e-05

> <r_epik_Ionization_Penalty_Charging>
0

> <r_epik_Ionization_Penalty_Neutral>
2.23071e-05

> <r_epik_State_Penalty>
-0

> <r_epik_Charging_Adjusted_Penalty>
0

> <i_epik_Tot_Q>
0

> <i_epik_Tot_abs_Q>
0

> <r_epik_Metal_State_Penalty>
-0

> <b_epik_Metal_Only>
0

> <s_lp_Force_Field>
OPLS_2005

> <r_lp_Energy>
16.5614

> <b_lp_Chiralities_Consistent>
1

> <s_lp_Variant>
AV-unprocessed.smi:730-1

> <Gold.Version>
5.8.1

> <Gold.Id.Protein>
6NUR|6NUR_protein|mol2

> <Gold.PLP.Fitness>
37.1102

> <Gold.PLP.PLP>
-31.9843

> <Gold.PLP.part.hbond>
-3.5781

> <Gold.PLP.part.metal>
0.0000

> <Gold.PLP.part.buried>
-4.0994

> <Gold.PLP.part.nonpolar>
-25.3984

> <Gold.PLP.part.repulsive>
0.2780

> <Gold.PLP.ligand.clash>
0.0000

> <Gold.PLP.ligand.torsion>
0.7611

> <Gold.PLP.Chemscore.Hbond>
2.2140

> <Gold.PLP.Chemscore.CHOScore>
0.0000

> <Gold.PLP.Chemscore.Metal>
0.0000

> <Gold.Chemscore.Hbonds>
donor molecule, donor type, donor heavy atom, donor atom, acceptor molecule, acceptor atom, score
      L1  H     8    30       P1 10747  0.75
      L1  H    17    40       P1 10186  0.70
      P1  H 10785 10796       L1    17  0.75

> <Gold.PLP.Chemscore.Internal.Correction>
0.0061

> <Gold.Rescore>
     Score         DG    S(hbond)    S(metal)    S(lipo)     H(rot)  DE(clash)    DE(int)     intcor
     12.82     -16.46       2.35        0.00      64.16       1.71       0.18       3.46       ----

> <Gold.Chemscore.Fitness>
12.8168

> <Gold.Chemscore.DG>
-16.4593

> <Gold.Chemscore.ZeroCoef>
-5.4800

> <Gold.Chemscore.Hbond>
2.3524

> <Gold.Chemscore.Metal>
0.0000

> <Gold.Chemscore.Lipo>
64.1568

> <Gold.Chemscore.Internal_Hbond>
0.0000

> <Gold.Chemscore.DEClash>
0.1830

> <Gold.Chemscore.DEInternal>
3.4595

> <Gold.Chemscore.Rot>
1.7125

> <Gold.Chemscore.Internal.Correction>
   9.000000E+99

> <Gold.Chemscore.Hbonds>
donor molecule, donor type, donor heavy atom, donor atom, acceptor molecule, acceptor atom, score
      L1  H     8    30       P1 10747  0.76
      L1  H    17    40       P1 10186  0.68
      P1  H 10785 10796       L1    17  0.74

> <Gold.Chemscore.Hbond.Weighted>
-7.8570

> <Gold.Chemscore.Metal.Weighted>
-0.0000

> <Gold.Chemscore.Lipo.Weighted>
-7.5063

> <Gold.Chemscore.Internal_Hbond.Weighted>
0.0000

> <Gold.Chemscore.DEClash.Weighted>
0.1830

> <Gold.Chemscore.DEInternal.Weighted>
3.4595

> <Gold.Chemscore.Rot.Weighted>
4.3841

> <Gold.Chemscore.Internal.Correction.Weighted>
   9.000000E+99

> <Gold.Protein.RotatedTorsions>
[ 6907 6896 6895 6894 ] final   -6.79 input  -60.11 | X-H torsion
[ 7974 7965 7964 7962 ] final -110.24 input  175.53 | X-H torsion
[ 8008 7997 7996 7995 ] final   91.80 input   59.86 | X-H torsion
[ 10167 10162 10161 10158 ] final   89.74 input  -65.29 | X-H torsion
[ 10718 10713 10712 10709 ] final  139.25 input   66.30 | X-H torsion
[ 10763 10752 10751 10750 ] final  104.90 input  -60.55 | X-H torsion
[ 11005 11000 10999 10996 ] final  -70.43 input  -57.11 | X-H torsion

> <Gold.Protein.ActiveResidues>
 VAL166  LYS551  ARG553  GLY616  TRP617  ASP618  TYR619  PRO620  LYS621  CYS622 
 ASP623  PHE694  ASN695  SER759  ASP760  ASP761  ALA762  ILE779  LEU786  VAL792 
 PHE793  MET794  SER795  GLU796  ALA797  LYS798  CYS799  TRP800  GLU811  SER814 

> <Gold.Protein.RotatedAtoms>
  151.4599  135.1037  159.9721 H   0  0  0  0  0  0  0  0  0  0  0  0  # atno 6907 bound_to 6896
  152.4857  133.8362  159.7139 H   0  0  0  0  0  0  0  0  0  0  0  0  # atno 6908 bound_to 6896
  150.8964  133.7115  159.2917 H   0  0  0  0  0  0  0  0  0  0  0  0  # atno 6909 bound_to 6896
  145.1707  140.8924  143.3537 H   0  0  0  0  0  0  0  0  0  0  0  0  # atno 7974 bound_to 7965
  156.0280  140.3333  155.7109 H   0  0  0  0  0  0  0  0  0  0  0  0  # atno 8008 bound_to 7997
  155.5926  140.0647  157.2772 H   0  0  0  0  0  0  0  0  0  0  0  0  # atno 8009 bound_to 7997
  154.4342  140.1824  156.1078 H   0  0  0  0  0  0  0  0  0  0  0  0  # atno 8010 bound_to 7997
  139.8542  144.6577  150.9133 H   0  0  0  0  0  0  0  0  0  0  0  0  # atno 10167 bound_to 10162
  157.4165  131.1034  151.0399 H   0  0  0  0  0  0  0  0  0  0  0  0  # atno 10718 bound_to 10713
  153.3722  135.3927  155.1796 H   0  0  0  0  0  0  0  0  0  0  0  0  # atno 10763 bound_to 10752
  154.8696  135.3705  154.4964 H   0  0  0  0  0  0  0  0  0  0  0  0  # atno 10764 bound_to 10752
  153.5432  135.7084  153.5687 H   0  0  0  0  0  0  0  0  0  0  0  0  # atno 10765 bound_to 10752
  141.1574  133.6790  156.6752 H   0  0  0  0  0  0  0  0  0  0  0  0  # atno 11005 bound_to 11000
  145.0236  139.3402  143.6060 LP  0  0  0  0  0  0  0  0  0  0  0  0  # atno 17320 bound_to 7965
  146.3469  139.9546  142.8724 LP  0  0  0  0  0  0  0  0  0  0  0  0  # atno 17321 bound_to 7965
  140.7783  143.3800  151.1494 LP  0  0  0  0  0  0  0  0  0  0  0  0  # atno 17342 bound_to 10162
  139.7435  143.8887  152.3057 LP  0  0  0  0  0  0  0  0  0  0  0  0  # atno 17343 bound_to 10162
  157.1345  130.6116  149.5538 LP  0  0  0  0  0  0  0  0  0  0  0  0  # atno 17370 bound_to 10713
  155.9867  130.4902  150.7090 LP  0  0  0  0  0  0  0  0  0  0  0  0  # atno 17371 bound_to 10713
  140.3145  134.8059  157.4203 LP  0  0  0  0  0  0  0  0  0  0  0  0  # atno 17394 bound_to 11000
  140.1150  134.5295  155.8232 LP  0  0  0  0  0  0  0  0  0  0  0  0  # atno 17395 bound_to 11000

$$$$
