AV-unprocessed.smi:3216|AV-procd|sdf|12287|dock10
  -GOLD-   2272018133D 1   1.00000     0.00000
 Structure written by MMmdl.
 37 37  0  0  0  0  0  0  0  0  2 V2000
  150.3927  140.2786  156.0714 C   0  0  0  0  0  0  0  0  0  0  0  0
  149.5360  140.1641  154.7986 C   0  0  0  0  0  0  0  0  0  0  0  0
  148.4639  141.2632  154.7662 C   0  0  0  0  0  0  0  0  0  0  0  0
  148.8924  138.7693  154.6476 C   0  0  0  0  0  0  0  0  0  0  0  0
  148.0337  138.6718  153.4708 N   0  0  0  0  0  0  0  0  0  0  0  0
  146.7368  138.3297  153.4899 C   0  0  0  0  0  0  0  0  0  0  0  0
  146.1243  138.0600  154.5239 O   0  0  0  0  0  0  0  0  0  0  0  0
  146.0295  138.3011  152.1338 C   0  0  0  0  0  0  0  0  0  0  0  0
  146.3774  137.0999  151.3474 N   0  3  0  0  0  0  0  0  0  0  0  0
  145.4339  135.9781  151.5129 C   0  0  0  0  0  0  0  0  0  0  0  0
  146.1829  134.6473  151.6753 C   0  0  0  0  0  0  0  0  0  0  0  0
  145.3840  133.5213  151.2314 N   0  0  0  0  0  0  0  0  0  0  0  0
  145.7801  132.2173  151.0200 C   0  0  0  0  0  0  0  0  0  0  0  0
  144.6817  131.5225  150.6010 C   0  0  0  0  0  0  0  0  0  0  0  0
  143.6490  132.5014  150.5816 C   0  0  0  0  0  0  0  0  0  0  0  0
  144.0733  133.6974  150.9576 N   0  0  0  0  0  0  0  0  0  0  0  0
  149.7944  140.1086  156.9671 H   0  0  0  0  0  0  0  0  0  0  0  0
  150.8392  141.2699  156.1548 H   0  0  0  0  0  0  0  0  0  0  0  0
  151.2092  139.5562  156.0735 H   0  0  0  0  0  0  0  0  0  0  0  0
  150.1921  140.3310  153.9432 H   0  0  0  0  0  0  0  0  0  0  0  0
  147.7583  141.1538  155.5906 H   0  0  0  0  0  0  0  0  0  0  0  0
  147.8962  141.2313  153.8357 H   0  0  0  0  0  0  0  0  0  0  0  0
  148.9131  142.2540  154.8415 H   0  0  0  0  0  0  0  0  0  0  0  0
  149.6700  138.0095  154.5613 H   0  0  0  0  0  0  0  0  0  0  0  0
  148.3192  138.5163  155.5414 H   0  0  0  0  0  0  0  0  0  0  0  0
  148.4600  138.8834  152.5798 H   0  0  0  0  0  0  0  0  0  0  0  0
  144.9516  138.3290  152.2988 H   0  0  0  0  0  0  0  0  0  0  0  0
  146.2983  139.1940  151.5674 H   0  0  0  0  0  0  0  0  0  0  0  0
  146.4068  137.3574  150.3712 H   0  0  0  0  0  0  0  0  0  0  0  0
  144.8057  136.1619  152.3858 H   0  0  0  0  0  0  0  0  0  0  0  0
  144.7759  135.9369  150.6435 H   0  0  0  0  0  0  0  0  0  0  0  0
  147.1127  134.6577  151.1043 H   0  0  0  0  0  0  0  0  0  0  0  0
  146.4539  134.4892  152.7201 H   0  0  0  0  0  0  0  0  0  0  0  0
  146.7978  131.8949  151.1838 H   0  0  0  0  0  0  0  0  0  0  0  0
  144.6247  130.4750  150.3445 H   0  0  0  0  0  0  0  0  0  0  0  0
  142.6116  132.3792  150.3069 H   0  0  0  0  0  0  0  0  0  0  0  0
  147.2992  136.7942  151.6256 H   0  0  0  0  0  0  0  0  0  0  0  0
  1  2  1  0  0  0  0
  1 17  1  0  0  0  0
  1 18  1  0  0  0  0
  1 19  1  0  0  0  0
  2  3  1  0  0  0  0
  2  4  1  0  0  0  0
  2 20  1  0  0  0  0
  3 21  1  0  0  0  0
  3 22  1  0  0  0  0
  3 23  1  0  0  0  0
  4  5  1  0  0  0  0
  4 24  1  0  0  0  0
  4 25  1  0  0  0  0
  5  6  1  0  0  0  0
  5 26  1  0  0  0  0
  6  7  2  0  0  0  0
  6  8  1  0  0  0  0
  8  9  1  0  0  0  0
  8 27  1  0  0  0  0
  8 28  1  0  0  0  0
  9 10  1  0  0  0  0
  9 29  1  0  0  0  0
  9 37  1  0  0  0  0
 10 11  1  0  0  0  0
 10 30  1  0  0  0  0
 10 31  1  0  0  0  0
 11 12  1  0  0  0  0
 11 32  1  0  0  0  0
 11 33  1  0  0  0  0
 12 16  1  0  0  0  0
 12 13  1  0  0  0  0
 13 14  2  0  0  0  0
 13 34  1  0  0  0  0
 14 15  1  0  0  0  0
 14 35  1  0  0  0  0
 15 16  2  0  0  0  0
 15 36  1  0  0  0  0
M  CHG  1   9   1
M  END
> <s_m_source_file>
AV-unprocessed.smi

> <i_m_source_file_index>
3216

> <i_lp_mmshare_version>
43012

> <i_f3d_flags>
0

> <s_epik_input>
W0NIM11bQ0hdKFtDSDNdKVtDSDJdW05IXUMoPU8pW0NIMl1bTkhdW0NIMl1bQ0gyXW4xW2NIXVtjSF1bY0hdbjE=

> <s_epik_cmdline>
J2VwaWtfcHl0aG9uJywgJy1waCcsICc3LjAnLCAnLXRuJywgJzgnLCAnLW1hJywgJzIwMCcsICctbWV0YWxfYmluZGluZycsICctaW1hZScsICc8aW5maWxlLm1hZT4nLCAnLW9tYWUnLCAnPG91dGZpbGUubWFlPic=

> <r_lp_tautomer_probability>
1

> <r_epik_Ionization_Penalty>
0.20724

> <r_epik_Ionization_Penalty_Charging>
0.207237

> <r_epik_Ionization_Penalty_Neutral>
3.19342e-06

> <r_epik_State_Penalty>
0.197611

> <r_epik_Charging_Adjusted_Penalty>
0.404848

> <i_epik_Tot_Q>
1

> <i_epik_Tot_abs_Q>
1

> <r_epik_Metal_State_Penalty>
0.197786

> <b_epik_Metal_Only>
0

> <s_lp_Force_Field>
OPLS_2005

> <r_lp_Energy>
2.0828

> <b_lp_Chiralities_Consistent>
1

> <s_lp_Variant>
AV-unprocessed.smi:3216-1

> <Gold.Version>
5.8.1

> <Gold.Id.Protein>
6NUR|6NUR_protein|mol2

> <Gold.PLP.Fitness>
46.6849

> <Gold.PLP.PLP>
-33.3338

> <Gold.PLP.part.hbond>
-3.3467

> <Gold.PLP.part.metal>
0.0000

> <Gold.PLP.part.buried>
-1.1051

> <Gold.PLP.part.nonpolar>
-30.3923

> <Gold.PLP.part.repulsive>
0.5690

> <Gold.PLP.ligand.clash>
0.0000

> <Gold.PLP.ligand.torsion>
1.0329

> <Gold.PLP.Chemscore.Hbond>
3.0000

> <Gold.PLP.Chemscore.CHOScore>
2.1099

> <Gold.PLP.Chemscore.Metal>
0.0000

> <Gold.Chemscore.Hbonds>
donor molecule, donor type, donor heavy atom, donor atom, acceptor molecule, acceptor atom, score
      L1  H     5    26       P1  7957  0.71
      L1  H     9    37       P1  7948  2.00
      L1  C    13    34       P1 10747  0.88
      L1  C    15    36       P1 10186  0.51
      L1  C    15    36       P1 10952  0.33

> <Gold.PLP.Chemscore.Internal.Correction>
0.0870

> <Gold.Rescore>
     Score         DG    S(hbond)    S(metal)    S(lipo)     H(rot)  DE(clash)    DE(int)     intcor
     13.99     -15.12       1.97        0.00      76.78       2.32       0.16       0.96       ----

> <Gold.Chemscore.Fitness>
13.9892

> <Gold.Chemscore.DG>
-15.1181

> <Gold.Chemscore.ZeroCoef>
-5.4800

> <Gold.Chemscore.Hbond>
1.9735

> <Gold.Chemscore.Metal>
0.0000

> <Gold.Chemscore.Lipo>
76.7785

> <Gold.Chemscore.Internal_Hbond>
0.0000

> <Gold.Chemscore.DEClash>
0.1648

> <Gold.Chemscore.DEInternal>
0.9641

> <Gold.Chemscore.Rot>
2.3189

> <Gold.Chemscore.Internal.Correction>
   9.000000E+99

> <Gold.Chemscore.Hbonds>
donor molecule, donor type, donor heavy atom, donor atom, acceptor molecule, acceptor atom, score
      L1  H     5    26       P1  7957  0.70
      L1  H     9    37       P1  7948  1.00

> <Gold.Chemscore.Hbond.Weighted>
-6.5914

> <Gold.Chemscore.Metal.Weighted>
-0.0000

> <Gold.Chemscore.Lipo.Weighted>
-8.9831

> <Gold.Chemscore.Internal_Hbond.Weighted>
0.0000

> <Gold.Chemscore.DEClash.Weighted>
0.1648

> <Gold.Chemscore.DEInternal.Weighted>
0.9641

> <Gold.Chemscore.Rot.Weighted>
5.9363

> <Gold.Chemscore.Internal.Correction.Weighted>
   9.000000E+99

> <Gold.Protein.RotatedTorsions>
[ 6907 6896 6895 6894 ] final  -47.58 input  -60.11 | X-H torsion
[ 7974 7965 7964 7962 ] final -171.81 input  175.53 | X-H torsion
[ 8008 7997 7996 7995 ] final -143.69 input   59.86 | X-H torsion
[ 10167 10162 10161 10158 ] final   20.84 input  -65.29 | X-H torsion
[ 10718 10713 10712 10709 ] final   66.39 input   66.30 | X-H torsion
[ 10763 10752 10751 10750 ] final -119.84 input  -60.55 | X-H torsion
[ 11005 11000 10999 10996 ] final    2.39 input  -57.11 | X-H torsion

> <Gold.Protein.ActiveResidues>
 VAL166  LYS551  ARG553  GLY616  TRP617  ASP618  TYR619  PRO620  LYS621  CYS622 
 ASP623  PHE694  ASN695  SER759  ASP760  ASP761  ALA762  ILE779  LEU786  VAL792 
 PHE793  MET794  SER795  GLU796  ALA797  LYS798  CYS799  TRP800  GLU811  SER814 

> <Gold.Protein.RotatedAtoms>
  150.8993  134.8404  159.7348 H   0  0  0  0  0  0  0  0  0  0  0  0  # atno 6907 bound_to 6896
  152.4883  134.4527  159.9589 H   0  0  0  0  0  0  0  0  0  0  0  0  # atno 6908 bound_to 6896
  151.4581  133.3561  159.2840 H   0  0  0  0  0  0  0  0  0  0  0  0  # atno 6909 bound_to 6896
  144.7153  140.1866  143.6353 H   0  0  0  0  0  0  0  0  0  0  0  0  # atno 7974 bound_to 7965
  155.5147  140.0586  157.2917 H   0  0  0  0  0  0  0  0  0  0  0  0  # atno 8008 bound_to 7997
  154.4539  140.1963  156.0384 H   0  0  0  0  0  0  0  0  0  0  0  0  # atno 8009 bound_to 7997
  156.0760  140.3253  155.7638 H   0  0  0  0  0  0  0  0  0  0  0  0  # atno 8010 bound_to 7997
  140.5473  143.9572  150.6555 H   0  0  0  0  0  0  0  0  0  0  0  0  # atno 10167 bound_to 10162
  157.6166  130.9265  150.0103 H   0  0  0  0  0  0  0  0  0  0  0  0  # atno 10718 bound_to 10713
  154.8628  135.4224  154.2364 H   0  0  0  0  0  0  0  0  0  0  0  0  # atno 10763 bound_to 10752
  153.3338  135.6989  153.6931 H   0  0  0  0  0  0  0  0  0  0  0  0  # atno 10764 bound_to 10752
  153.5937  135.3550  155.2893 H   0  0  0  0  0  0  0  0  0  0  0  0  # atno 10765 bound_to 10752
  140.6048  133.9802  155.8149 H   0  0  0  0  0  0  0  0  0  0  0  0  # atno 11005 bound_to 11000
  145.8807  139.2321  143.1607 LP  0  0  0  0  0  0  0  0  0  0  0  0  # atno 17320 bound_to 7965
  145.9997  140.8531  143.0024 LP  0  0  0  0  0  0  0  0  0  0  0  0  # atno 17321 bound_to 7965
  140.2988  143.3274  152.0991 LP  0  0  0  0  0  0  0  0  0  0  0  0  # atno 17342 bound_to 10162
  139.5012  144.6709  151.6244 LP  0  0  0  0  0  0  0  0  0  0  0  0  # atno 17343 bound_to 10162
  156.1291  130.3644  149.9760 LP  0  0  0  0  0  0  0  0  0  0  0  0  # atno 17370 bound_to 10713
  156.7825  130.9226  151.3646 LP  0  0  0  0  0  0  0  0  0  0  0  0  # atno 17371 bound_to 10713
  141.0848  134.0008  157.3331 LP  0  0  0  0  0  0  0  0  0  0  0  0  # atno 17394 bound_to 11000
  139.9217  135.0200  156.8087 LP  0  0  0  0  0  0  0  0  0  0  0  0  # atno 17395 bound_to 11000

$$$$
