AV-unprocessed.smi:1596|AV-procd|sdf|6419|dock6
  -GOLD-   22720 7 53D 1   1.00000     0.00000
 Structure written by MMmdl.
 48 49  0  0  0  0  0  0  0  0  1 V2000
  148.9749  140.8257  157.7028 C   0  0  0  0  0  0  0  0  0  0  0  0
  149.8209  141.6870  156.7510 C   0  0  0  0  0  0  0  0  0  0  0  0
  150.2543  140.9724  155.5504 N   0  0  0  0  0  0  0  0  0  0  0  0
  151.3034  139.9789  155.7775 C   0  0  0  0  0  0  0  0  0  0  0  0
  152.1754  140.2767  157.0083 C   0  0  0  0  0  0  0  0  0  0  0  0
  149.1864  140.4719  154.7841 C   0  0  0  0  0  0  0  0  0  0  0  0
  148.2238  141.3708  154.2794 C   0  0  0  0  0  0  0  0  0  0  0  0
  147.1588  140.8658  153.5096 C   0  0  0  0  0  0  0  0  0  0  0  0
  147.0934  139.4740  153.2625 C   0  0  0  0  0  0  0  0  0  0  0  0
  146.0579  138.8418  152.5227 N   0  0  0  0  0  0  0  0  0  0  0  0
  145.7479  137.5352  152.4693 C   0  0  0  0  0  0  0  0  0  0  0  0
  146.2991  136.6464  153.1184 O   0  0  0  0  0  0  0  0  0  0  0  0
  144.7301  137.3131  151.6253 N   0  0  0  0  0  0  0  0  0  0  0  0
  144.1367  136.0094  151.3431 C   0  0  2  0  0  0  0  0  0  0  0  0
  143.3675  135.5123  152.5804 C   0  0  0  0  0  0  0  0  0  0  0  0
  142.7635  134.1166  152.3458 C   0  0  0  0  0  0  0  0  0  0  0  0
  143.8222  133.0893  151.9025 C   0  0  2  0  0  0  0  0  0  0  0  0
  144.6891  132.7926  152.9795 O   0  0  0  0  0  0  0  0  0  0  0  0
  144.6336  133.5967  150.6952 C   0  0  0  0  0  0  0  0  0  0  0  0
  145.2254  134.9970  150.9349 C   0  0  0  0  0  0  0  0  0  0  0  0
  148.0982  138.6598  153.8247 C   0  0  0  0  0  0  0  0  0  0  0  0
  149.1233  139.1376  154.5613 N   0  0  0  0  0  0  0  0  0  0  0  0
  148.6214  141.4204  158.5451 H   0  0  0  0  0  0  0  0  0  0  0  0
  149.5445  139.9904  158.1105 H   0  0  0  0  0  0  0  0  0  0  0  0
  148.1002  140.4207  157.1933 H   0  0  0  0  0  0  0  0  0  0  0  0
  149.2291  142.5503  156.4452 H   0  0  0  0  0  0  0  0  0  0  0  0
  150.6889  142.0837  157.2793 H   0  0  0  0  0  0  0  0  0  0  0  0
  150.8350  139.0032  155.9112 H   0  0  0  0  0  0  0  0  0  0  0  0
  151.9309  139.8979  154.8890 H   0  0  0  0  0  0  0  0  0  0  0  0
  152.8959  139.4747  157.1691 H   0  0  0  0  0  0  0  0  0  0  0  0
  151.5668  140.3608  157.9092 H   0  0  0  0  0  0  0  0  0  0  0  0
  152.7400  141.2026  156.8943 H   0  0  0  0  0  0  0  0  0  0  0  0
  148.2974  142.4294  154.4818 H   0  0  0  0  0  0  0  0  0  0  0  0
  146.4112  141.5502  153.1403 H   0  0  0  0  0  0  0  0  0  0  0  0
  145.4525  139.4638  152.0070 H   0  0  0  0  0  0  0  0  0  0  0  0
  144.3333  138.1050  151.1411 H   0  0  0  0  0  0  0  0  0  0  0  0
  143.4237  136.1110  150.5224 H   0  0  0  0  0  0  0  0  0  0  0  0
  144.0341  135.4797  153.4435 H   0  0  0  0  0  0  0  0  0  0  0  0
  142.5729  136.2154  152.8329 H   0  0  0  0  0  0  0  0  0  0  0  0
  142.2550  133.7715  153.2467 H   0  0  0  0  0  0  0  0  0  0  0  0
  141.9960  134.1902  151.5742 H   0  0  0  0  0  0  0  0  0  0  0  0
  143.3235  132.1584  151.6309 H   0  0  0  0  0  0  0  0  0  0  0  0
  144.1713  132.4731  153.7028 H   0  0  0  0  0  0  0  0  0  0  0  0
  145.4276  132.8910  150.4486 H   0  0  0  0  0  0  0  0  0  0  0  0
  143.9817  133.6359  149.8216 H   0  0  0  0  0  0  0  0  0  0  0  0
  145.7330  135.3353  150.0308 H   0  0  0  0  0  0  0  0  0  0  0  0
  145.9886  134.9413  151.7124 H   0  0  0  0  0  0  0  0  0  0  0  0
  148.0842  137.5898  153.6757 H   0  0  0  0  0  0  0  0  0  0  0  0
  1  2  1  0  0  0  0
  1 23  1  0  0  0  0
  1 24  1  0  0  0  0
  1 25  1  0  0  0  0
  2  3  1  0  0  0  0
  2 26  1  0  0  0  0
  2 27  1  0  0  0  0
  3  4  1  0  0  0  0
  3  6  1  0  0  0  0
  4  5  1  0  0  0  0
  4 28  1  0  0  0  0
  4 29  1  0  0  0  0
  5 30  1  0  0  0  0
  5 31  1  0  0  0  0
  5 32  1  0  0  0  0
  6 22  1  0  0  0  0
  6  7  2  0  0  0  0
  7  8  1  0  0  0  0
  7 33  1  0  0  0  0
  8  9  2  0  0  0  0
  8 34  1  0  0  0  0
  9 10  1  0  0  0  0
  9 21  1  0  0  0  0
 10 11  1  0  0  0  0
 10 35  1  0  0  0  0
 11 12  2  0  0  0  0
 11 13  1  0  0  0  0
 13 14  1  0  0  0  0
 13 36  1  0  0  0  0
 14 20  1  0  0  0  0
 14 15  1  0  0  0  0
 14 37  1  0  0  0  0
 15 16  1  0  0  0  0
 15 38  1  0  0  0  0
 15 39  1  0  0  0  0
 16 17  1  0  0  0  0
 16 40  1  0  0  0  0
 16 41  1  0  0  0  0
 17 18  1  0  0  0  0
 17 19  1  0  0  0  0
 17 42  1  0  0  0  0
 18 43  1  0  0  0  0
 19 20  1  0  0  0  0
 19 44  1  0  0  0  0
 19 45  1  0  0  0  0
 20 46  1  0  0  0  0
 20 47  1  0  0  0  0
 21 22  2  0  0  0  0
 21 48  1  0  0  0  0
M  END
> <s_m_source_file>
AV-unprocessed.smi

> <i_m_source_file_index>
1596

> <i_lp_mmshare_version>
43012

> <i_f3d_flags>
0

> <s_epik_input>
W0NIM11bQ0gyXU4oW0NIMl1bQ0gzXSljMVtjSF1bY0hdYyhbY0hdbjEpW05IXUMoPU8pW05IXVtDQEBIXTJbQ0gyXVtDSDJdW0NAQEhdKFtPSF0pW0NIMl1bQ0gyXTI=

> <s_epik_cmdline>
J2VwaWtfcHl0aG9uJywgJy1waCcsICc3LjAnLCAnLXRuJywgJzgnLCAnLW1hJywgJzIwMCcsICctbWV0YWxfYmluZGluZycsICctaW1hZScsICc8aW5maWxlLm1hZT4nLCAnLW9tYWUnLCAnPG91dGZpbGUubWFlPic=

> <r_lp_tautomer_probability>
1

> <r_epik_Ionization_Penalty>
0.709395

> <r_epik_Ionization_Penalty_Charging>
0

> <r_epik_Ionization_Penalty_Neutral>
0.709395

> <r_epik_State_Penalty>
2.20721

> <r_epik_Charging_Adjusted_Penalty>
2.20721

> <i_epik_Tot_Q>
0

> <i_epik_Tot_abs_Q>
0

> <r_epik_Metal_State_Penalty>
1.55411

> <b_epik_Metal_Only>
0

> <s_lp_Force_Field>
OPLS_2005

> <r_lp_Energy>
19.3677

> <b_lp_Chiralities_Consistent>
1

> <s_lp_Variant>
AV-unprocessed.smi:1596-4

> <Gold.Version>
5.8.1

> <Gold.Id.Protein>
6NUR|6NUR_protein|mol2

> <Gold.PLP.Fitness>
43.7941

> <Gold.PLP.PLP>
-34.4131

> <Gold.PLP.part.hbond>
-2.7278

> <Gold.PLP.part.metal>
0.0000

> <Gold.PLP.part.buried>
-4.8086

> <Gold.PLP.part.nonpolar>
-30.1968

> <Gold.PLP.part.repulsive>
1.6516

> <Gold.PLP.ligand.clash>
0.0000

> <Gold.PLP.ligand.torsion>
0.6213

> <Gold.PLP.Chemscore.Hbond>
2.4534

> <Gold.PLP.Chemscore.CHOScore>
1.0000

> <Gold.PLP.Chemscore.Metal>
0.0000

> <Gold.Chemscore.Hbonds>
donor molecule, donor type, donor heavy atom, donor atom, acceptor molecule, acceptor atom, score
      L1  H    10    35       P1 10175  0.62
      L1  H    13    36       P1 10171  0.79
      L1  H    18    43       P1 10957  1.00
      L1  C    21    48       P1  7948  1.00

> <Gold.PLP.Chemscore.Internal.Correction>
0.2634

> <Gold.Rescore>
     Score         DG    S(hbond)    S(metal)    S(lipo)     H(rot)  DE(clash)    DE(int)     intcor
     13.84     -17.39       2.44        0.00      76.02       2.01       0.19       3.35       ----

> <Gold.Chemscore.Fitness>
13.8419

> <Gold.Chemscore.DG>
-17.3872

> <Gold.Chemscore.ZeroCoef>
-5.4800

> <Gold.Chemscore.Hbond>
2.4392

> <Gold.Chemscore.Metal>
0.0000

> <Gold.Chemscore.Lipo>
76.0154

> <Gold.Chemscore.Internal_Hbond>
0.0000

> <Gold.Chemscore.DEClash>
0.1919

> <Gold.Chemscore.DEInternal>
3.3535

> <Gold.Chemscore.Rot>
2.0052

> <Gold.Chemscore.Internal.Correction>
   9.000000E+99

> <Gold.Chemscore.Hbonds>
donor molecule, donor type, donor heavy atom, donor atom, acceptor molecule, acceptor atom, score
      L1  H    10    35       P1 10175  0.57
      L1  H    13    36       P1 10171  0.74
      L1  H    18    43       P1 10957  0.34

> <Gold.Chemscore.Hbond.Weighted>
-8.1468

> <Gold.Chemscore.Metal.Weighted>
-0.0000

> <Gold.Chemscore.Lipo.Weighted>
-8.8938

> <Gold.Chemscore.Internal_Hbond.Weighted>
0.0000

> <Gold.Chemscore.DEClash.Weighted>
0.1919

> <Gold.Chemscore.DEInternal.Weighted>
3.3535

> <Gold.Chemscore.Rot.Weighted>
5.1334

> <Gold.Chemscore.Internal.Correction.Weighted>
   9.000000E+99

> <Gold.Protein.RotatedTorsions>
[ 6907 6896 6895 6894 ] final   32.13 input  -60.11 | X-H torsion
[ 7974 7965 7964 7962 ] final   34.01 input  175.53 | X-H torsion
[ 8008 7997 7996 7995 ] final  165.69 input   59.86 | X-H torsion
[ 10167 10162 10161 10158 ] final  -45.56 input  -65.29 | X-H torsion
[ 10718 10713 10712 10709 ] final  138.85 input   66.30 | X-H torsion
[ 10763 10752 10751 10750 ] final   41.37 input  -60.55 | X-H torsion
[ 11005 11000 10999 10996 ] final  -16.69 input  -57.11 | X-H torsion

> <Gold.Protein.ActiveResidues>
 VAL166  LYS551  ARG553  GLY616  TRP617  ASP618  TYR619  PRO620  LYS621  CYS622 
 ASP623  PHE694  ASN695  SER759  ASP760  ASP761  ALA762  ILE779  LEU786  VAL792 
 PHE793  MET794  SER795  GLU796  ALA797  LYS798  CYS799  TRP800  GLU811  SER814 

> <Gold.Protein.RotatedAtoms>
  152.0700  134.9539  160.0574 H   0  0  0  0  0  0  0  0  0  0  0  0  # atno 6907 bound_to 6896
  152.0869  133.4176  159.4534 H   0  0  0  0  0  0  0  0  0  0  0  0  # atno 6908 bound_to 6896
  150.6836  134.2837  159.4681 H   0  0  0  0  0  0  0  0  0  0  0  0  # atno 6909 bound_to 6896
  146.1382  139.6323  142.9181 H   0  0  0  0  0  0  0  0  0  0  0  0  # atno 7974 bound_to 7965
  156.1780  140.1663  156.8328 H   0  0  0  0  0  0  0  0  0  0  0  0  # atno 8008 bound_to 7997
  154.5328  140.0753  156.8408 H   0  0  0  0  0  0  0  0  0  0  0  0  # atno 8009 bound_to 7997
  155.3372  140.3382  155.4241 H   0  0  0  0  0  0  0  0  0  0  0  0  # atno 8010 bound_to 7997
  140.6853  143.2873  151.3657 H   0  0  0  0  0  0  0  0  0  0  0  0  # atno 10167 bound_to 10162
  157.4209  131.1038  151.0355 H   0  0  0  0  0  0  0  0  0  0  0  0  # atno 10718 bound_to 10713
  152.9910  135.6164  154.2777 H   0  0  0  0  0  0  0  0  0  0  0  0  # atno 10763 bound_to 10752
  154.2507  135.2785  155.2819 H   0  0  0  0  0  0  0  0  0  0  0  0  # atno 10764 bound_to 10752
  154.5290  135.5793  153.6801 H   0  0  0  0  0  0  0  0  0  0  0  0  # atno 10765 bound_to 10752
  140.8093  133.8153  155.9548 H   0  0  0  0  0  0  0  0  0  0  0  0  # atno 11005 bound_to 11000
  145.5108  141.0435  143.2489 LP  0  0  0  0  0  0  0  0  0  0  0  0  # atno 17320 bound_to 7965
  144.7762  139.6624  143.7173 LP  0  0  0  0  0  0  0  0  0  0  0  0  # atno 17321 bound_to 7965
  139.6206  144.0914  152.2388 LP  0  0  0  0  0  0  0  0  0  0  0  0  # atno 17342 bound_to 10162
  140.0357  144.6046  150.7451 LP  0  0  0  0  0  0  0  0  0  0  0  0  # atno 17343 bound_to 10162
  157.1286  130.6092  149.5523 LP  0  0  0  0  0  0  0  0  0  0  0  0  # atno 17370 bound_to 10713
  155.9880  130.4922  150.7151 LP  0  0  0  0  0  0  0  0  0  0  0  0  # atno 17371 bound_to 10713
  140.9214  134.2137  157.4924 LP  0  0  0  0  0  0  0  0  0  0  0  0  # atno 17394 bound_to 11000
  139.8715  134.9794  156.5034 LP  0  0  0  0  0  0  0  0  0  0  0  0  # atno 17395 bound_to 11000

$$$$
