AV-unprocessed.smi:2686|AV-procd|sdf|10384|dock8
  -GOLD-   2272014413D 1   1.00000     0.00000
 Structure written by MMmdl.
 32 32  0  0  0  0  0  0  0  0  1 V2000
  146.4975  141.5765  154.7905 C   0  0  0  0  0  0  0  0  0  0  0  0
  145.0887  141.2771  154.9964 N   0  0  0  0  0  0  0  0  0  0  0  0
  144.5557  140.9273  156.1753 C   0  0  0  0  0  0  0  0  0  0  0  0
  145.2134  140.8451  157.2137 O   0  0  0  0  0  0  0  0  0  0  0  0
  143.0467  140.6505  156.1794 C   0  0  0  0  0  0  0  0  0  0  0  0
  142.5939  139.9530  154.9782 N   0  0  0  0  0  0  0  0  0  0  0  0
  141.6787  138.9714  154.9543 C   0  0  0  0  0  0  0  0  0  0  0  0
  141.1326  138.5378  155.9702 O   0  0  0  0  0  0  0  0  0  0  0  0
  141.3376  138.4103  153.5661 C   0  0  0  0  0  0  0  0  0  0  0  0
  141.8510  137.0491  153.3385 N   0  0  0  0  0  0  0  0  0  0  0  0
  143.0499  136.9350  152.6079 C   0  0  0  0  0  0  0  0  0  0  0  0
  143.6326  135.7518  152.3346 C   0  0  0  0  0  0  0  0  0  0  0  0
  144.8939  135.6577  151.4903 C   0  0  0  0  0  0  0  0  0  0  0  0
  144.6041  135.3449  150.2271 F   0  0  0  0  0  0  0  0  0  0  0  0
  145.5636  136.8110  151.4932 F   0  0  0  0  0  0  0  0  0  0  0  0
  145.6956  134.7120  151.9782 F   0  0  0  0  0  0  0  0  0  0  0  0
  142.9413  134.5685  152.8076 C   0  0  0  0  0  0  0  0  0  0  0  0
  141.7862  134.6592  153.4953 C   0  0  0  0  0  0  0  0  0  0  0  0
  141.1739  135.9548  153.7990 C   0  0  0  0  0  0  0  0  0  0  0  0
  140.1183  136.0497  154.4256 O   0  0  0  0  0  0  0  0  0  0  0  0
  146.6607  141.9120  153.7665 H   0  0  0  0  0  0  0  0  0  0  0  0
  147.1084  140.6891  154.9604 H   0  0  0  0  0  0  0  0  0  0  0  0
  146.8342  142.3646  155.4656 H   0  0  0  0  0  0  0  0  0  0  0  0
  144.4825  141.3270  154.1904 H   0  0  0  0  0  0  0  0  0  0  0  0
  142.8113  140.0307  157.0447 H   0  0  0  0  0  0  0  0  0  0  0  0
  142.4914  141.5825  156.3011 H   0  0  0  0  0  0  0  0  0  0  0  0
  142.9898  140.2553  154.0999 H   0  0  0  0  0  0  0  0  0  0  0  0
  140.2533  138.4241  153.4446 H   0  0  0  0  0  0  0  0  0  0  0  0
  141.7161  139.0972  152.8072 H   0  0  0  0  0  0  0  0  0  0  0  0
  143.4614  137.8763  152.2729 H   0  0  0  0  0  0  0  0  0  0  0  0
  143.3580  133.5921  152.6094 H   0  0  0  0  0  0  0  0  0  0  0  0
  141.2994  133.7560  153.8326 H   0  0  0  0  0  0  0  0  0  0  0  0
  1  2  1  0  0  0  0
  1 21  1  0  0  0  0
  1 22  1  0  0  0  0
  1 23  1  0  0  0  0
  2  3  1  0  0  0  0
  2 24  1  0  0  0  0
  3  4  2  0  0  0  0
  3  5  1  0  0  0  0
  5  6  1  0  0  0  0
  5 25  1  0  0  0  0
  5 26  1  0  0  0  0
  6  7  1  0  0  0  0
  6 27  1  0  0  0  0
  7  8  2  0  0  0  0
  7  9  1  0  0  0  0
  9 10  1  0  0  0  0
  9 28  1  0  0  0  0
  9 29  1  0  0  0  0
 10 19  1  0  0  0  0
 10 11  1  0  0  0  0
 11 12  2  0  0  0  0
 11 30  1  0  0  0  0
 12 13  1  0  0  0  0
 12 17  1  0  0  0  0
 13 14  1  0  0  0  0
 13 15  1  0  0  0  0
 13 16  1  0  0  0  0
 17 18  2  0  0  0  0
 17 31  1  0  0  0  0
 18 19  1  0  0  0  0
 18 32  1  0  0  0  0
 19 20  2  0  0  0  0
M  END
> <s_m_source_file>
AV-unprocessed.smi

> <i_m_source_file_index>
2686

> <i_lp_mmshare_version>
43012

> <i_f3d_flags>
0

> <s_epik_input>
W0NIM11bTkhdQyg9TylbQ0gyXVtOSF1DKD1PKVtDSDJdbjFbY0hdYyhDKEYpKEYpRilbY0hdW2NIXWMxPU8=

> <s_epik_cmdline>
J2VwaWtfcHl0aG9uJywgJy1waCcsICc3LjAnLCAnLXRuJywgJzgnLCAnLW1hJywgJzIwMCcsICctbWV0YWxfYmluZGluZycsICctaW1hZScsICc8aW5maWxlLm1hZT4nLCAnLW9tYWUnLCAnPG91dGZpbGUubWFlPic=

> <r_lp_tautomer_probability>
1

> <r_epik_Ionization_Penalty>
8.267e-08

> <r_epik_Ionization_Penalty_Charging>
1.5129e-08

> <r_epik_Ionization_Penalty_Neutral>
6.7541e-08

> <r_epik_State_Penalty>
-0

> <r_epik_Charging_Adjusted_Penalty>
1.5129e-08

> <i_epik_Tot_Q>
0

> <i_epik_Tot_abs_Q>
0

> <r_epik_Metal_State_Penalty>
-0

> <b_epik_Metal_Only>
0

> <s_lp_Force_Field>
OPLS_2005

> <r_lp_Energy>
10.5627

> <b_lp_Chiralities_Consistent>
1

> <s_lp_Variant>
AV-unprocessed.smi:2686-1

> <Gold.Version>
5.8.1

> <Gold.Id.Protein>
6NUR|6NUR_protein|mol2

> <Gold.PLP.Fitness>
41.8938

> <Gold.PLP.PLP>
-30.8082

> <Gold.PLP.part.hbond>
-3.0000

> <Gold.PLP.part.metal>
0.0000

> <Gold.PLP.part.buried>
-2.2258

> <Gold.PLP.part.nonpolar>
-26.7879

> <Gold.PLP.part.repulsive>
0.1075

> <Gold.PLP.ligand.clash>
0.0000

> <Gold.PLP.ligand.torsion>
1.7010

> <Gold.PLP.Chemscore.Hbond>
2.8858

> <Gold.PLP.Chemscore.CHOScore>
1.9283

> <Gold.PLP.Chemscore.Metal>
0.0000

> <Gold.Chemscore.Hbonds>
donor molecule, donor type, donor heavy atom, donor atom, acceptor molecule, acceptor atom, score
      L1  H     2    24       P1 10175  0.96
      L1  H     6    27       P1 10175  1.00
      P1  H 11000 11005       L1    20  0.99
      L1  C    11    30       P1 10171  0.82
      L1  C    11    30       P1 10175  0.91

> <Gold.PLP.Chemscore.Internal.Correction>
0.0455

> <Gold.Rescore>
     Score         DG    S(hbond)    S(metal)    S(lipo)     H(rot)  DE(clash)    DE(int)     intcor
     11.58     -13.55       2.95        0.00      35.56       2.32       0.97       1.00       ----

> <Gold.Chemscore.Fitness>
11.5824

> <Gold.Chemscore.DG>
-13.5517

> <Gold.Chemscore.ZeroCoef>
-5.4800

> <Gold.Chemscore.Hbond>
2.9481

> <Gold.Chemscore.Metal>
0.0000

> <Gold.Chemscore.Lipo>
35.5568

> <Gold.Chemscore.Internal_Hbond>
0.0000

> <Gold.Chemscore.DEClash>
0.9664

> <Gold.Chemscore.DEInternal>
1.0028

> <Gold.Chemscore.Rot>
2.3184

> <Gold.Chemscore.Internal.Correction>
   9.000000E+99

> <Gold.Chemscore.Hbonds>
donor molecule, donor type, donor heavy atom, donor atom, acceptor molecule, acceptor atom, score
      L1  H     2    24       P1 10175  0.48
      L1  H     6    27       P1 10175  1.00
      P1  H 11000 11005       L1    20  0.72

> <Gold.Chemscore.Hbond.Weighted>
-9.8467

> <Gold.Chemscore.Metal.Weighted>
-0.0000

> <Gold.Chemscore.Lipo.Weighted>
-4.1601

> <Gold.Chemscore.Internal_Hbond.Weighted>
0.0000

> <Gold.Chemscore.DEClash.Weighted>
0.9664

> <Gold.Chemscore.DEInternal.Weighted>
1.0028

> <Gold.Chemscore.Rot.Weighted>
5.9352

> <Gold.Chemscore.Internal.Correction.Weighted>
   9.000000E+99

> <Gold.Protein.RotatedTorsions>
[ 6907 6896 6895 6894 ] final    6.23 input  -60.11 | X-H torsion
[ 7974 7965 7964 7962 ] final  141.38 input  175.53 | X-H torsion
[ 8008 7997 7996 7995 ] final  -87.21 input   59.86 | X-H torsion
[ 10167 10162 10161 10158 ] final -173.73 input  -65.29 | X-H torsion
[ 10718 10713 10712 10709 ] final -175.92 input   66.30 | X-H torsion
[ 10763 10752 10751 10750 ] final   92.38 input  -60.55 | X-H torsion
[ 11005 11000 10999 10996 ] final   61.21 input  -57.11 | X-H torsion

> <Gold.Protein.ActiveResidues>
 VAL166  LYS551  ARG553  GLY616  TRP617  ASP618  TYR619  PRO620  LYS621  CYS622 
 ASP623  PHE694  ASN695  SER759  ASP760  ASP761  ALA762  ILE779  LEU786  VAL792 
 PHE793  MET794  SER795  GLU796  ALA797  LYS798  CYS799  TRP800  GLU811  SER814 

> <Gold.Protein.RotatedAtoms>
  151.6703  135.0977  160.0196 H   0  0  0  0  0  0  0  0  0  0  0  0  # atno 6907 bound_to 6896
  152.3895  133.6654  159.6234 H   0  0  0  0  0  0  0  0  0  0  0  0  # atno 6908 bound_to 6896
  150.7814  133.8895  159.3350 H   0  0  0  0  0  0  0  0  0  0  0  0  # atno 6909 bound_to 6896
  144.9101  139.5304  143.5712 H   0  0  0  0  0  0  0  0  0  0  0  0  # atno 7974 bound_to 7965
  154.6607  140.0568  157.0059 H   0  0  0  0  0  0  0  0  0  0  0  0  # atno 8008 bound_to 7997
  155.1233  140.3249  155.4473 H   0  0  0  0  0  0  0  0  0  0  0  0  # atno 8009 bound_to 7997
  156.2617  140.1993  156.6354 H   0  0  0  0  0  0  0  0  0  0  0  0  # atno 8010 bound_to 7997
  139.5672  144.1726  152.1331 H   0  0  0  0  0  0  0  0  0  0  0  0  # atno 10167 bound_to 10162
  156.8070  130.9572  151.3117 H   0  0  0  0  0  0  0  0  0  0  0  0  # atno 10718 bound_to 10713
  153.2185  135.4363  155.0462 H   0  0  0  0  0  0  0  0  0  0  0  0  # atno 10763 bound_to 10752
  154.8238  135.3350  154.6962 H   0  0  0  0  0  0  0  0  0  0  0  0  # atno 10764 bound_to 10752
  153.7395  135.7005  153.5026 H   0  0  0  0  0  0  0  0  0  0  0  0  # atno 10765 bound_to 10752
  140.0177  134.6200  155.9685 H   0  0  0  0  0  0  0  0  0  0  0  0  # atno 11005 bound_to 11000
  146.3154  139.7900  142.8987 LP  0  0  0  0  0  0  0  0  0  0  0  0  # atno 17320 bound_to 7965
  145.3469  141.0299  143.3361 LP  0  0  0  0  0  0  0  0  0  0  0  0  # atno 17321 bound_to 7965
  140.1252  144.5338  150.6837 LP  0  0  0  0  0  0  0  0  0  0  0  0  # atno 17342 bound_to 10162
  140.6956  143.2402  151.5010 LP  0  0  0  0  0  0  0  0  0  0  0  0  # atno 17343 bound_to 10162
  157.6525  130.8896  149.9662 LP  0  0  0  0  0  0  0  0  0  0  0  0  # atno 17370 bound_to 10713
  156.1067  130.3652  150.0121 LP  0  0  0  0  0  0  0  0  0  0  0  0  # atno 17371 bound_to 10713
  141.1754  133.6540  156.4807 LP  0  0  0  0  0  0  0  0  0  0  0  0  # atno 17394 bound_to 11000
  140.4441  134.6988  157.5007 LP  0  0  0  0  0  0  0  0  0  0  0  0  # atno 17395 bound_to 11000

$$$$
