AV-unprocessed.smi:210|AV-procd|sdf|1614|dock4
  -GOLD-   2262019543D 1   1.00000     0.00000
 Structure written by MMmdl.
 57 61  0  0  0  0  0  0  0  0  1 V2000
  150.8480  141.7135  156.9616 C   0  0  0  0  0  0  0  0  0  0  0  0
  150.8882  140.6007  156.0857 O   0  0  0  0  0  0  0  0  0  0  0  0
  149.6084  140.0236  155.8804 C   0  0  1  0  0  0  0  0  0  0  0  0
  148.6890  140.8241  154.9487 C   0  0  0  0  0  0  0  0  0  0  0  0
  148.2352  139.4890  154.3245 C   0  0  2  0  0  0  0  0  0  0  0  0
  147.0404  138.9524  154.9936 N   0  0  0  0  0  0  0  0  0  0  0  0
  145.8707  139.8248  155.0286 C   0  0  0  0  0  0  0  0  0  0  0  0
  146.6702  137.7139  154.5984 C   0  0  0  0  0  0  0  0  0  0  0  0
  146.6431  136.6911  155.4938 N   0  0  0  0  0  0  0  0  0  0  0  0
  146.2721  135.4699  155.0973 C   0  0  0  0  0  0  0  0  0  0  0  0
  145.8966  135.0641  153.8819 N   0  0  0  0  0  0  0  0  0  0  0  0
  145.9277  136.0904  152.9833 C   0  0  0  0  0  0  0  0  0  0  0  0
  146.3110  137.4328  153.2546 C   0  0  0  0  0  0  0  0  0  0  0  0
  146.2368  138.1959  152.0970 N   0  0  0  0  0  0  0  0  0  0  0  0
  145.8340  137.3494  151.1885 C   0  0  0  0  0  0  0  0  0  0  0  0
  145.5935  136.0705  151.6404 N   0  0  0  0  0  0  0  0  0  0  0  0
  145.1763  134.9448  150.8570 C   0  0  0  0  0  0  0  0  0  0  0  0
  144.1957  133.9069  151.4139 C   0  0  0  0  0  0  0  0  0  0  0  0
  144.9142  132.8077  150.5974 C   0  0  0  0  0  0  0  0  0  0  0  0
  145.0944  131.4419  151.2894 C   0  0  0  0  0  0  0  0  0  0  0  0
  146.2539  130.7601  150.8544 O   0  0  0  0  0  0  0  0  0  0  0  0
  144.2889  132.5394  149.2150 C   0  0  0  0  0  0  0  0  0  0  0  0
  142.9647  132.0583  149.3273 O   0  0  0  0  0  0  0  0  0  0  0  0
  146.1246  133.7696  150.6013 C   0  0  0  0  0  0  0  0  0  0  0  0
  149.5879  138.9077  154.8203 C   0  0  0  0  0  0  0  0  0  0  0  0
  150.7613  138.7683  153.8330 C   0  0  0  0  0  0  0  0  0  0  0  0
  151.2802  137.6148  154.6961 C   0  0  0  0  0  0  0  0  0  0  0  0
  149.8474  137.4386  155.2054 C   0  0  0  0  0  0  0  0  0  0  0  0
  151.8524  142.1174  157.0865 H   0  0  0  0  0  0  0  0  0  0  0  0
  150.4762  141.4256  157.9458 H   0  0  0  0  0  0  0  0  0  0  0  0
  150.2134  142.5073  156.5661 H   0  0  0  0  0  0  0  0  0  0  0  0
  149.1148  139.7138  156.8041 H   0  0  0  0  0  0  0  0  0  0  0  0
  147.9291  141.4102  155.4645 H   0  0  0  0  0  0  0  0  0  0  0  0
  149.2456  141.4428  154.2427 H   0  0  0  0  0  0  0  0  0  0  0  0
  148.1515  139.5375  153.2380 H   0  0  0  0  0  0  0  0  0  0  0  0
  144.9616  139.2804  155.2900 H   0  0  0  0  0  0  0  0  0  0  0  0
  145.7149  140.2992  154.0591 H   0  0  0  0  0  0  0  0  0  0  0  0
  145.9998  140.6078  155.7749 H   0  0  0  0  0  0  0  0  0  0  0  0
  146.2729  134.7094  155.8641 H   0  0  0  0  0  0  0  0  0  0  0  0
  145.6919  137.6416  150.1581 H   0  0  0  0  0  0  0  0  0  0  0  0
  144.8098  135.3548  149.9143 H   0  0  0  0  0  0  0  0  0  0  0  0
  144.2916  133.7860  152.4940 H   0  0  0  0  0  0  0  0  0  0  0  0
  143.1551  134.0777  151.1360 H   0  0  0  0  0  0  0  0  0  0  0  0
  145.1639  131.5617  152.3710 H   0  0  0  0  0  0  0  0  0  0  0  0
  144.2416  130.7896  151.0987 H   0  0  0  0  0  0  0  0  0  0  0  0
  146.9757  131.3699  150.8470 H   0  0  0  0  0  0  0  0  0  0  0  0
  144.2820  133.4437  148.6056 H   0  0  0  0  0  0  0  0  0  0  0  0
  144.8641  131.8008  148.6564 H   0  0  0  0  0  0  0  0  0  0  0  0
  142.3705  132.7865  149.2289 H   0  0  0  0  0  0  0  0  0  0  0  0
  146.6697  133.8311  149.6588 H   0  0  0  0  0  0  0  0  0  0  0  0
  146.8111  133.6060  151.4337 H   0  0  0  0  0  0  0  0  0  0  0  0
  150.4396  138.4382  152.8441 H   0  0  0  0  0  0  0  0  0  0  0  0
  151.4281  139.6284  153.7674 H   0  0  0  0  0  0  0  0  0  0  0  0
  151.6754  136.7664  154.1370 H   0  0  0  0  0  0  0  0  0  0  0  0
  151.9691  137.9454  155.4751 H   0  0  0  0  0  0  0  0  0  0  0  0
  149.7624  137.2193  156.2701 H   0  0  0  0  0  0  0  0  0  0  0  0
  149.2989  136.7170  154.5998 H   0  0  0  0  0  0  0  0  0  0  0  0
  1  2  1  0  0  0  0
  1 29  1  0  0  0  0
  1 30  1  0  0  0  0
  1 31  1  0  0  0  0
  2  3  1  0  0  0  0
  3 25  1  0  0  0  0
  3  4  1  0  0  0  0
  3 32  1  0  0  0  0
  4  5  1  0  0  0  0
  4 33  1  0  0  0  0
  4 34  1  0  0  0  0
  5  6  1  0  0  0  0
  5 25  1  0  0  0  0
  5 35  1  0  0  0  0
  6  7  1  0  0  0  0
  6  8  1  0  0  0  0
  7 36  1  0  0  0  0
  7 37  1  0  0  0  0
  7 38  1  0  0  0  0
  8 13  1  0  0  0  0
  8  9  2  0  0  0  0
  9 10  1  0  0  0  0
 10 11  2  0  0  0  0
 10 39  1  0  0  0  0
 11 12  1  0  0  0  0
 12 16  1  0  0  0  0
 12 13  2  0  0  0  0
 13 14  1  0  0  0  0
 14 15  2  0  0  0  0
 15 16  1  0  0  0  0
 15 40  1  0  0  0  0
 16 17  1  0  0  0  0
 17 24  1  0  0  0  0
 17 18  1  0  0  0  0
 17 41  1  0  0  0  0
 18 19  1  0  0  0  0
 18 42  1  0  0  0  0
 18 43  1  0  0  0  0
 19 20  1  0  0  0  0
 19 22  1  0  0  0  0
 19 24  1  0  0  0  0
 20 21  1  0  0  0  0
 20 44  1  0  0  0  0
 20 45  1  0  0  0  0
 21 46  1  0  0  0  0
 22 23  1  0  0  0  0
 22 47  1  0  0  0  0
 22 48  1  0  0  0  0
 23 49  1  0  0  0  0
 24 50  1  0  0  0  0
 24 51  1  0  0  0  0
 25 28  1  0  0  0  0
 25 26  1  0  0  0  0
 26 27  1  0  0  0  0
 26 52  1  0  0  0  0
 26 53  1  0  0  0  0
 27 28  1  0  0  0  0
 27 54  1  0  0  0  0
 27 55  1  0  0  0  0
 28 56  1  0  0  0  0
 28 57  1  0  0  0  0
M  END
> <s_m_source_file>
AV-unprocessed.smi

> <i_m_source_file_index>
210

> <i_lp_mmshare_version>
43012

> <i_f3d_flags>
0

> <s_epik_input>
W0NIMl0xW0NIMl1bQ0gyXUMxMltDQEhdKE9bQ0gzXSlbQ0gyXVtDQEhdMk4oW0NIM10pYyhuW2NIXW4zKWMoYzM0KW5bY0hdbjRbQ0hdKFtDSDJdNSlbQ0gyXUM1KFtDSDJdW09IXSlbQ0gyXVtPSF0=

> <s_epik_cmdline>
J2VwaWtfcHl0aG9uJywgJy1waCcsICc3LjAnLCAnLXRuJywgJzgnLCAnLW1hJywgJzIwMCcsICctbWV0YWxfYmluZGluZycsICctaW1hZScsICc8aW5maWxlLm1hZT4nLCAnLW9tYWUnLCAnPG91dGZpbGUubWFlPic=

> <r_lp_tautomer_probability>
1

> <r_epik_Ionization_Penalty>
0.00313676

> <r_epik_Ionization_Penalty_Charging>
0

> <r_epik_Ionization_Penalty_Neutral>
0.00313676

> <r_epik_State_Penalty>
0.00199132

> <r_epik_Charging_Adjusted_Penalty>
0.00199132

> <i_epik_Tot_Q>
0

> <i_epik_Tot_abs_Q>
0

> <r_epik_Metal_State_Penalty>
-0

> <b_epik_Metal_Only>
0

> <s_lp_Force_Field>
OPLS_2005

> <r_lp_Energy>
61.1908

> <b_lp_Chiralities_Consistent>
1

> <s_lp_Variant>
AV-unprocessed.smi:210-4

> <Gold.Version>
5.8.1

> <Gold.Id.Protein>
6NUR|6NUR_protein|mol2

> <Gold.PLP.Fitness>
47.5536

> <Gold.PLP.PLP>
-40.4908

> <Gold.PLP.part.hbond>
-3.9945

> <Gold.PLP.part.metal>
0.0000

> <Gold.PLP.part.buried>
-3.8410

> <Gold.PLP.part.nonpolar>
-33.8281

> <Gold.PLP.part.repulsive>
0.4987

> <Gold.PLP.ligand.clash>
0.0000

> <Gold.PLP.ligand.torsion>
1.2112

> <Gold.PLP.Chemscore.Hbond>
2.1199

> <Gold.PLP.Chemscore.CHOScore>
0.6757

> <Gold.PLP.Chemscore.Metal>
0.0000

> <Gold.Chemscore.Hbonds>
donor molecule, donor type, donor heavy atom, donor atom, acceptor molecule, acceptor atom, score
      L1  H    21    46       P1 10747  0.35
      L1  H    23    49       P1 10186  0.71
      P1  H 10785 10796       L1    23  1.00
      L1  C    15    40       P1 10171  0.69

> <Gold.PLP.Chemscore.Internal.Correction>
1.0982

> <Gold.Rescore>
     Score         DG    S(hbond)    S(metal)    S(lipo)     H(rot)  DE(clash)    DE(int)     intcor
     11.95     -14.37       2.09        0.00      94.41       3.57       1.40       1.02       ----

> <Gold.Chemscore.Fitness>
11.9485

> <Gold.Chemscore.DG>
-14.3727

> <Gold.Chemscore.ZeroCoef>
-5.4800

> <Gold.Chemscore.Hbond>
2.0926

> <Gold.Chemscore.Metal>
0.0000

> <Gold.Chemscore.Lipo>
94.4097

> <Gold.Chemscore.Internal_Hbond>
0.0000

> <Gold.Chemscore.DEClash>
1.4017

> <Gold.Chemscore.DEInternal>
1.0226

> <Gold.Chemscore.Rot>
3.5712

> <Gold.Chemscore.Internal.Correction>
   9.000000E+99

> <Gold.Chemscore.Hbonds>
donor molecule, donor type, donor heavy atom, donor atom, acceptor molecule, acceptor atom, score
      L1  H    21    46       P1 10747  0.35
      L1  H    23    49       P1 10186  0.71
      P1  H 10785 10796       L1    23  0.28

> <Gold.Chemscore.Hbond.Weighted>
-6.9892

> <Gold.Chemscore.Metal.Weighted>
-0.0000

> <Gold.Chemscore.Lipo.Weighted>
-11.0459

> <Gold.Chemscore.Internal_Hbond.Weighted>
0.0000

> <Gold.Chemscore.DEClash.Weighted>
1.4017

> <Gold.Chemscore.DEInternal.Weighted>
1.0226

> <Gold.Chemscore.Rot.Weighted>
9.1423

> <Gold.Chemscore.Internal.Correction.Weighted>
   9.000000E+99

> <Gold.Protein.RotatedTorsions>
[ 6907 6896 6895 6894 ] final   64.65 input  -60.11 | X-H torsion
[ 7974 7965 7964 7962 ] final   40.34 input  175.53 | X-H torsion
[ 8008 7997 7996 7995 ] final  123.98 input   59.86 | X-H torsion
[ 10167 10162 10161 10158 ] final -171.29 input  -65.29 | X-H torsion
[ 10718 10713 10712 10709 ] final   15.02 input   66.30 | X-H torsion
[ 10763 10752 10751 10750 ] final  111.69 input  -60.55 | X-H torsion
[ 11005 11000 10999 10996 ] final  168.57 input  -57.11 | X-H torsion

> <Gold.Protein.ActiveResidues>
 VAL166  LYS551  ARG553  GLY616  TRP617  ASP618  TYR619  PRO620  LYS621  CYS622 
 ASP623  PHE694  ASN695  SER759  ASP760  ASP761  ALA762  ILE779  LEU786  VAL792 
 PHE793  MET794  SER795  GLU796  ALA797  LYS798  CYS799  TRP800  GLU811  SER814 

> <Gold.Protein.RotatedAtoms>
  152.4347  134.5709  159.9920 H   0  0  0  0  0  0  0  0  0  0  0  0  # atno 6907 bound_to 6896
  151.5822  133.3370  159.3018 H   0  0  0  0  0  0  0  0  0  0  0  0  # atno 6908 bound_to 6896
  150.8244  134.7503  159.6865 H   0  0  0  0  0  0  0  0  0  0  0  0  # atno 6909 bound_to 6896
  146.0913  139.5545  142.9474 H   0  0  0  0  0  0  0  0  0  0  0  0  # atno 7974 bound_to 7965
  156.2785  140.2750  156.1714 H   0  0  0  0  0  0  0  0  0  0  0  0  # atno 8008 bound_to 7997
  155.0651  140.0387  157.2607 H   0  0  0  0  0  0  0  0  0  0  0  0  # atno 8009 bound_to 7997
  154.7085  140.2664  155.6657 H   0  0  0  0  0  0  0  0  0  0  0  0  # atno 8010 bound_to 7997
  139.5811  144.1422  152.1516 H   0  0  0  0  0  0  0  0  0  0  0  0  # atno 10167 bound_to 10162
  157.0476  130.6256  149.5762 H   0  0  0  0  0  0  0  0  0  0  0  0  # atno 10718 bound_to 10713
  153.4670  135.3709  155.2370 H   0  0  0  0  0  0  0  0  0  0  0  0  # atno 10763 bound_to 10752
  154.8757  135.3922  154.3857 H   0  0  0  0  0  0  0  0  0  0  0  0  # atno 10764 bound_to 10752
  153.4439  135.7084  153.6216 H   0  0  0  0  0  0  0  0  0  0  0  0  # atno 10765 bound_to 10752
  140.2886  134.7691  157.3819 H   0  0  0  0  0  0  0  0  0  0  0  0  # atno 11005 bound_to 11000
  145.6034  141.0351  143.2006 LP  0  0  0  0  0  0  0  0  0  0  0  0  # atno 17320 bound_to 7965
  144.7362  139.7579  143.7328 LP  0  0  0  0  0  0  0  0  0  0  0  0  # atno 17321 bound_to 7965
  140.0975  144.5568  150.7012 LP  0  0  0  0  0  0  0  0  0  0  0  0  # atno 17342 bound_to 10162
  140.7089  143.2489  151.4643 LP  0  0  0  0  0  0  0  0  0  0  0  0  # atno 17343 bound_to 10162
  156.0018  130.5098  150.7690 LP  0  0  0  0  0  0  0  0  0  0  0  0  # atno 17370 bound_to 10713
  157.5056  131.0922  151.0261 LP  0  0  0  0  0  0  0  0  0  0  0  0  # atno 17371 bound_to 10713
  140.1216  134.5212  155.8179 LP  0  0  0  0  0  0  0  0  0  0  0  0  # atno 17394 bound_to 11000
  141.2150  133.6758  156.6876 LP  0  0  0  0  0  0  0  0  0  0  0  0  # atno 17395 bound_to 11000

$$$$
