AV-unprocessed.smi:102|AV-procd|sdf|950|dock9
  -GOLD-   2262017483D 1   1.00000     0.00000
 Structure written by MMmdl.
 44 45  0  0  0  0  0  0  0  0  1 V2000
  146.2366  135.8047  162.0535 C   0  0  0  0  0  0  0  0  0  0  0  0
  147.5899  136.4204  161.7242 C   0  0  0  0  0  0  0  0  0  0  0  0
  148.2813  136.9585  162.5890 O   0  0  0  0  0  0  0  0  0  0  0  0
  147.9019  136.2997  160.4268 O   0  0  0  0  0  0  0  0  0  0  0  0
  149.2185  136.5968  159.9863 C   0  0  0  0  0  0  0  0  0  0  0  0
  149.1816  137.4530  158.7098 C   0  0  1  0  0  0  0  0  0  0  0  0
  149.2293  138.8370  159.0106 O   0  0  0  0  0  0  0  0  0  0  0  0
  149.6170  139.5251  157.8658 C   0  0  1  0  0  0  0  0  0  0  0  0
  150.4730  140.6893  158.3104 N   0  0  0  0  0  0  0  0  0  0  0  0
  151.6153  140.4692  159.0696 C   0  0  0  0  0  0  0  0  0  0  0  0
  152.3770  141.4699  159.5698 C   0  0  0  0  0  0  0  0  0  0  0  0
  153.4689  141.1741  160.2950 F   0  0  0  0  0  0  0  0  0  0  0  0
  152.0088  142.8647  159.3495 C   0  0  0  0  0  0  0  0  0  0  0  0
  152.6409  143.8404  159.7490 O   0  0  0  0  0  0  0  0  0  0  0  0
  150.8235  143.0405  158.6301 N   0  0  0  0  0  0  0  0  0  0  0  0
  150.0228  142.0164  158.1197 C   0  0  0  0  0  0  0  0  0  0  0  0
  148.9814  142.2974  157.5282 O   0  0  0  0  0  0  0  0  0  0  0  0
  150.3738  138.5577  156.9338 C   0  0  2  0  0  0  0  0  0  0  0  0
  149.7400  138.5044  155.6618 O   0  0  0  0  0  0  0  0  0  0  0  0
  149.8646  139.5309  154.8027 C   0  0  0  0  0  0  0  0  0  0  0  0
  148.6520  139.6776  153.8935 C   0  0  0  0  0  0  0  0  0  0  0  0
  150.8289  140.2917  154.7177 O   0  0  0  0  0  0  0  0  0  0  0  0
  150.2741  137.2160  157.6545 C   0  0  1  0  0  0  0  0  0  0  0  0
  151.5542  136.9043  158.1947 O   0  0  0  0  0  0  0  0  0  0  0  0
  152.5947  136.6233  157.3896 C   0  0  0  0  0  0  0  0  0  0  0  0
  153.8802  136.3825  158.1692 C   0  0  0  0  0  0  0  0  0  0  0  0
  152.5639  136.5420  156.1619 O   0  0  0  0  0  0  0  0  0  0  0  0
  150.5144  143.9893  158.4758 H   0  0  0  0  0  0  0  0  0  0  0  0
  145.4572  136.2469  161.4326 H   0  0  0  0  0  0  0  0  0  0  0  0
  145.9827  135.9746  163.1000 H   0  0  0  0  0  0  0  0  0  0  0  0
  146.2564  134.7298  161.8731 H   0  0  0  0  0  0  0  0  0  0  0  0
  149.7693  137.1226  160.7676 H   0  0  0  0  0  0  0  0  0  0  0  0
  149.7452  135.6621  159.7901 H   0  0  0  0  0  0  0  0  0  0  0  0
  148.2219  137.2799  158.2203 H   0  0  0  0  0  0  0  0  0  0  0  0
  148.7263  139.9248  157.3792 H   0  0  0  0  0  0  0  0  0  0  0  0
  151.9144  139.4558  159.2922 H   0  0  0  0  0  0  0  0  0  0  0  0
  151.4095  138.8798  156.8164 H   0  0  0  0  0  0  0  0  0  0  0  0
  147.7891  140.0165  154.4667 H   0  0  0  0  0  0  0  0  0  0  0  0
  148.4071  138.7225  153.4284 H   0  0  0  0  0  0  0  0  0  0  0  0
  148.8504  140.4044  153.1053 H   0  0  0  0  0  0  0  0  0  0  0  0
  149.9568  136.4363  156.9603 H   0  0  0  0  0  0  0  0  0  0  0  0
  153.9147  135.3543  158.5297 H   0  0  0  0  0  0  0  0  0  0  0  0
  153.9399  137.0533  159.0266 H   0  0  0  0  0  0  0  0  0  0  0  0
  154.7491  136.5568  157.5346 H   0  0  0  0  0  0  0  0  0  0  0  0
  1  2  1  0  0  0  0
  1 29  1  0  0  0  0
  1 30  1  0  0  0  0
  1 31  1  0  0  0  0
  2  3  2  0  0  0  0
  2  4  1  0  0  0  0
  4  5  1  0  0  0  0
  5  6  1  0  0  0  0
  5 32  1  0  0  0  0
  5 33  1  0  0  0  0
  6 23  1  0  0  0  0
  6  7  1  0  0  0  0
  6 34  1  0  0  0  0
  7  8  1  0  0  0  0
  8  9  1  0  0  0  0
  8 18  1  0  0  0  0
  8 35  1  0  0  0  0
  9 16  1  0  0  0  0
  9 10  1  0  0  0  0
 10 11  2  0  0  0  0
 10 36  1  0  0  0  0
 11 12  1  0  0  0  0
 11 13  1  0  0  0  0
 13 14  2  0  0  0  0
 13 15  1  0  0  0  0
 15 28  1  0  0  0  0
 15 16  1  0  0  0  0
 16 17  2  0  0  0  0
 18 19  1  0  0  0  0
 18 23  1  0  0  0  0
 18 37  1  0  0  0  0
 19 20  1  0  0  0  0
 20 21  1  0  0  0  0
 20 22  2  0  0  0  0
 21 38  1  0  0  0  0
 21 39  1  0  0  0  0
 21 40  1  0  0  0  0
 23 24  1  0  0  0  0
 23 41  1  0  0  0  0
 24 25  1  0  0  0  0
 25 26  1  0  0  0  0
 25 27  2  0  0  0  0
 26 42  1  0  0  0  0
 26 43  1  0  0  0  0
 26 44  1  0  0  0  0
M  END
> <s_m_source_file>
AV-unprocessed.smi

> <i_m_source_file_index>
102

> <i_lp_mmshare_version>
43012

> <i_f3d_flags>
0

> <s_epik_input>
W0NIM11DKD1PKU9bQ0gyXVtDQEBIXTFPW0NASF0oW0NAQEhdKE9DKD1PKVtDSDNdKVtDQEhdMU9DKD1PKVtDSDNdKW4yW2NIXWMoRiljKD1PKVtuSF1jMj1P

> <s_epik_cmdline>
J2VwaWtfcHl0aG9uJywgJy1waCcsICc3LjAnLCAnLXRuJywgJzgnLCAnLW1hJywgJzIwMCcsICctbWV0YWxfYmluZGluZycsICctaW1hZScsICc8aW5maWxlLm1hZT4nLCAnLW9tYWUnLCAnPG91dGZpbGUubWFlPic=

> <r_lp_tautomer_probability>
0.999537

> <r_epik_Ionization_Penalty>
0.058267

> <r_epik_Ionization_Penalty_Charging>
0.058267

> <r_epik_Ionization_Penalty_Neutral>
6.57791e-16

> <r_epik_State_Penalty>
0.0503774

> <r_epik_Charging_Adjusted_Penalty>
0.108644

> <i_epik_Tot_Q>
0

> <i_epik_Tot_abs_Q>
0

> <r_epik_Metal_State_Penalty>
2.6644

> <b_epik_Metal_Only>
0

> <s_epik_Chemistry_Notes>
This compound has an ester and may undergo hydrolysis at high or low pH. This compound contains an acetal/aminal-like group ( X-CH(R)-Y where X, Y are N, S, or O) that may be acid/base labile, releasing an aldehyde.

> <s_lp_Force_Field>
OPLS_2005

> <r_lp_Energy>
13.4822

> <b_lp_Chiralities_Consistent>
1

> <s_lp_Variant>
AV-unprocessed.smi:102-6

> <Gold.Version>
5.8.1

> <Gold.Id.Protein>
6NUR|6NUR_protein|mol2

> <Gold.PLP.Fitness>
41.7096

> <Gold.PLP.PLP>
-35.3556

> <Gold.PLP.part.hbond>
-5.3360

> <Gold.PLP.part.metal>
0.0000

> <Gold.PLP.part.buried>
-4.0036

> <Gold.PLP.part.nonpolar>
-26.9242

> <Gold.PLP.part.repulsive>
0.6656

> <Gold.PLP.ligand.clash>
0.0000

> <Gold.PLP.ligand.torsion>
1.4066

> <Gold.PLP.Chemscore.Hbond>
2.9920

> <Gold.PLP.Chemscore.CHOScore>
0.0000

> <Gold.PLP.Chemscore.Metal>
0.0000

> <Gold.Chemscore.Hbonds>
donor molecule, donor type, donor heavy atom, donor atom, acceptor molecule, acceptor atom, score
      P1  H  6931  6943       L1     3  1.00
      P1  H  7989  7998       L1    22  1.00
      P1  H 10752 10764       L1    27  0.91

> <Gold.PLP.Chemscore.Internal.Correction>
0.1911

> <Gold.Rescore>
     Score         DG    S(hbond)    S(metal)    S(lipo)     H(rot)  DE(clash)    DE(int)     intcor
      6.89      -9.86       2.84        0.00      45.11       4.05       1.42       1.55       ----

> <Gold.Chemscore.Fitness>
6.8889

> <Gold.Chemscore.DG>
-9.8578

> <Gold.Chemscore.ZeroCoef>
-5.4800

> <Gold.Chemscore.Hbond>
2.8363

> <Gold.Chemscore.Metal>
0.0000

> <Gold.Chemscore.Lipo>
45.1083

> <Gold.Chemscore.Internal_Hbond>
0.0000

> <Gold.Chemscore.DEClash>
1.4200

> <Gold.Chemscore.DEInternal>
1.5489

> <Gold.Chemscore.Rot>
4.0520

> <Gold.Chemscore.Internal.Correction>
   9.000000E+99

> <Gold.Chemscore.Hbonds>
donor molecule, donor type, donor heavy atom, donor atom, acceptor molecule, acceptor atom, score
      P1  H  6931  6943       L1     3  0.70
      P1  H  7989  7998       L1    22  0.96
      P1  H 10752 10764       L1    27  0.89

> <Gold.Chemscore.Hbond.Weighted>
-9.4733

> <Gold.Chemscore.Metal.Weighted>
-0.0000

> <Gold.Chemscore.Lipo.Weighted>
-5.2777

> <Gold.Chemscore.Internal_Hbond.Weighted>
0.0000

> <Gold.Chemscore.DEClash.Weighted>
1.4200

> <Gold.Chemscore.DEInternal.Weighted>
1.5489

> <Gold.Chemscore.Rot.Weighted>
10.3732

> <Gold.Chemscore.Internal.Correction.Weighted>
   9.000000E+99

> <Gold.Protein.RotatedTorsions>
[ 6907 6896 6895 6894 ] final -131.62 input  -60.11 | X-H torsion
[ 7974 7965 7964 7962 ] final  -90.93 input  175.53 | X-H torsion
[ 8008 7997 7996 7995 ] final -129.46 input   59.86 | X-H torsion
[ 10167 10162 10161 10158 ] final -134.90 input  -65.29 | X-H torsion
[ 10718 10713 10712 10709 ] final   50.18 input   66.30 | X-H torsion
[ 10763 10752 10751 10750 ] final  -38.82 input  -60.55 | X-H torsion
[ 11005 11000 10999 10996 ] final  -90.21 input  -57.11 | X-H torsion

> <Gold.Protein.ActiveResidues>
 VAL166  LYS551  ARG553  GLY616  TRP617  ASP618  TYR619  PRO620  LYS621  CYS622 
 ASP623  PHE694  ASN695  SER759  ASP760  ASP761  ALA762  ILE779  LEU786  VAL792 
 PHE793  MET794  SER795  GLU796  ALA797  LYS798  CYS799  TRP800  GLU811  SER814 

> <Gold.Protein.RotatedAtoms>
  150.9530  133.6528  159.2768 H   0  0  0  0  0  0  0  0  0  0  0  0  # atno 6907 bound_to 6896
  151.3877  135.0949  159.9526 H   0  0  0  0  0  0  0  0  0  0  0  0  # atno 6908 bound_to 6896
  152.5118  133.9052  159.7515 H   0  0  0  0  0  0  0  0  0  0  0  0  # atno 6909 bound_to 6896
  145.4199  140.9550  143.2187 H   0  0  0  0  0  0  0  0  0  0  0  0  # atno 7974 bound_to 7965
  155.2795  140.0443  157.3014 H   0  0  0  0  0  0  0  0  0  0  0  0  # atno 8008 bound_to 7997
  154.5605  140.2344  155.8311 H   0  0  0  0  0  0  0  0  0  0  0  0  # atno 8009 bound_to 7997
  156.2043  140.3017  155.9601 H   0  0  0  0  0  0  0  0  0  0  0  0  # atno 8010 bound_to 7997
  139.8834  143.6811  152.2624 H   0  0  0  0  0  0  0  0  0  0  0  0  # atno 10167 bound_to 10162
  157.4860  130.8345  149.8147 H   0  0  0  0  0  0  0  0  0  0  0  0  # atno 10718 bound_to 10713
  153.9192  135.6784  153.4748 H   0  0  0  0  0  0  0  0  0  0  0  0  # atno 10763 bound_to 10752
  153.1037  135.4815  154.8910 H   0  0  0  0  0  0  0  0  0  0  0  0  # atno 10764 bound_to 10752
  154.7487  135.3179  154.8554 H   0  0  0  0  0  0  0  0  0  0  0  0  # atno 10765 bound_to 10752
  141.1570  133.7677  156.9704 H   0  0  0  0  0  0  0  0  0  0  0  0  # atno 11005 bound_to 11000
  144.8252  139.5722  143.6968 LP  0  0  0  0  0  0  0  0  0  0  0  0  # atno 17320 bound_to 7965
  146.2662  139.6525  142.9328 LP  0  0  0  0  0  0  0  0  0  0  0  0  # atno 17321 bound_to 7965
  139.7175  144.7609  151.1009 LP  0  0  0  0  0  0  0  0  0  0  0  0  # atno 17342 bound_to 10162
  140.7740  143.5250  150.9491 LP  0  0  0  0  0  0  0  0  0  0  0  0  # atno 17343 bound_to 10162
  156.0147  130.3818  150.2150 LP  0  0  0  0  0  0  0  0  0  0  0  0  # atno 17370 bound_to 10713
  157.0337  131.0015  151.3304 LP  0  0  0  0  0  0  0  0  0  0  0  0  # atno 17371 bound_to 10713
  140.1133  134.9463  157.2097 LP  0  0  0  0  0  0  0  0  0  0  0  0  # atno 17394 bound_to 11000
  140.3166  134.2964  155.7255 LP  0  0  0  0  0  0  0  0  0  0  0  0  # atno 17395 bound_to 11000

$$$$
