#       Name:                AV-unprocessed.smi:2278
#       Creating user name   scv26
#       Creation time:       Fri Mar 27 12:39:48 2020


#       File generated by GOLD software.
#

@<TRIPOS>MOLECULE
AV-unprocessed.smi:2278
    51    52     1
SMALL
NO_CHARGES


@<TRIPOS>ATOM
      1 ****        -3.4028   4.3611  -0.8494 C.3            1 S1                 0.0000
      2 ****        -3.0979   2.8776  -0.9562 C.2            1 S1                 0.0000
      3 ****        -2.5714   2.4556  -2.1803 N.2            1 S1                 0.0000
      4 ****        -2.2770   1.2099  -2.3603 C.2            1 S1                 0.0000
      5 ****        -2.4682   0.2514  -1.3507 N.am           1 S1                 0.0000
      6 ****        -2.0807  -1.1303  -1.6873 C.3            1 S1                 0.0000
      7 ****        -0.5663  -1.3867  -1.5130 C.3            1 S1                 0.0000
      8 ****        -0.2832  -2.6619  -2.0531 O.3            1 S1                 0.0000
      9 ****        -0.0995  -1.3657  -0.0405 C.3            1 S1                 0.0000
     10 ****         1.3677  -1.5500   0.0986 N.4            1 S1                 1.0000
     11 ****         1.7404  -2.1092   1.4232 C.3            1 S1                 0.0000
     12 ****         3.2460  -2.4228   1.4931 C.3            1 S1                 0.0000
     13 ****         4.1144  -1.1958   1.1597 C.3            1 S1                 0.0000
     14 ****         4.1414  -0.1572   2.2950 C.3            1 S1                 0.0000
     15 ****         3.6586  -0.5975  -0.1835 C.3            1 S1                 0.0000
     16 ****         2.1450  -0.3213  -0.2142 C.3            1 S1                 0.0000
     17 ****        -2.9857   0.5774  -0.1306 C.2            1 S1                 0.0000
     18 ****        -3.1507  -0.2694   0.7495 O.2            1 S1                 0.0000
     19 ****        -3.3133   1.9993   0.0608 C.2            1 S1                 0.0000
     20 ****        -3.8784   2.4015   1.4174 C.3            1 S1                 0.0000
     21 ****        -4.4591   4.5192  -0.6303 H              1 S1                 0.0000
     22 ****        -3.1742   4.8824  -1.7801 H              1 S1                 0.0000
     23 ****        -2.8096   4.8170  -0.0563 H              1 S1                 0.0000
     24 ****        -1.8622   0.8291  -3.2954 H              1 S1                 0.0000
     25 ****        -2.6491  -1.8561  -1.1026 H              1 S1                 0.0000
     26 ****        -2.3676  -1.3366  -2.7208 H              1 S1                 0.0000
     27 ****        -0.0162  -0.6542  -2.1026 H              1 S1                 0.0000
     28 ****        -0.5595  -2.6762  -2.9573 H              1 S1                 0.0000
     29 ****        -0.3750  -0.4308   0.4474 H              1 S1                 0.0000
     30 ****        -0.6267  -2.1552   0.4976 H              1 S1                 0.0000
     31 ****         1.4559  -1.4101   2.2109 H              1 S1                 0.0000
     32 ****         1.1807  -3.0279   1.6032 H              1 S1                 0.0000
     33 ****         3.5028  -2.8117   2.4790 H              1 S1                 0.0000
     34 ****         3.4720  -3.2220   0.7856 H              1 S1                 0.0000
     35 ****         5.1410  -1.5427   1.0350 H              1 S1                 0.0000
     36 ****         3.1529   0.2506   2.5048 H              1 S1                 0.0000
     37 ****         4.7948   0.6786   2.0432 H              1 S1                 0.0000
     38 ****         4.5182  -0.5980   3.2181 H              1 S1                 0.0000
     39 ****         4.2107   0.3187  -0.3963 H              1 S1                 0.0000
     40 ****         3.9070  -1.2925  -0.9868 H              1 S1                 0.0000
     41 ****         1.8798   0.0548  -1.2013 H              1 S1                 0.0000
     42 ****         1.8877   0.4663   0.4954 H              1 S1                 0.0000
     43 ****        -3.1690   2.1541   2.2076 H              1 S1                 0.0000
     44 ****        -4.8052   1.8614   1.6137 H              1 S1                 0.0000
     45 ****        -4.0961   3.4655   1.4946 H              1 S1                 0.0000
     46 ****         1.6275  -2.2490  -0.5831 H              1 S1                 0.0000
     47 ****        -2.4227   3.1165  -2.9159 LP             1 S1                 0.0000
     48 ****        -0.7779  -3.3625  -1.5389 LP             1 S1                 0.0000
     49 ****         0.6993  -2.8399  -1.9986 LP             1 S1                 0.0000
     50 ****        -2.9033  -1.2231   0.5784 LP             1 S1                 0.0000
     51 ****        -3.5319  -0.0028   1.6347 LP             1 S1                 0.0000
@<TRIPOS>BOND
    1    1    2 1     
    2    1   21 1     
    3    1   22 1     
    4    1   23 1     
    5    2   19 2     
    6    2    3 1     
    7    3    4 2     
    8    4    5 1     
    9    4   24 1     
   10    5    6 1     
   11    5   17 am    
   12    6    7 1     
   13    6   25 1     
   14    6   26 1     
   15    7    8 1     
   16    7    9 1     
   17    7   27 1     
   18    8   28 1     
   19    9   10 1     
   20    9   29 1     
   21    9   30 1     
   22   10   16 1     
   23   10   11 1     
   24   10   46 1     
   25   11   12 1     
   26   11   31 1     
   27   11   32 1     
   28   12   13 1     
   29   12   33 1     
   30   12   34 1     
   31   13   14 1     
   32   13   15 1     
   33   13   35 1     
   34   14   36 1     
   35   14   37 1     
   36   14   38 1     
   37   15   16 1     
   38   15   39 1     
   39   15   40 1     
   40   16   41 1     
   41   16   42 1     
   42   17   18 2     
   43   17   19 1     
   44   19   20 1     
   45   20   43 1     
   46   20   44 1     
   47   20   45 1     
   48    3   47 1     
   49    8   48 1     
   50    8   49 1     
   51   18   50 1     
   52   18   51 1     
@<TRIPOS>SUBSTRUCTURE
      1 S1             1
@<TRIPOS>SET
LONE_PAIRS      STATIC     ATOMS    <user>   **** ""
5 47 48 49 50 51
DONOR_HYDROGENS      STATIC     ATOMS    <user>   **** ""
2 28 46
ATOM$BLUE        STATIC     ATOMS    COLORGROUP SYSTEM
5 47 48 49 50 51
ATOM$RED        STATIC     ATOMS    COLORGROUP SYSTEM
2 28 46
