AV-unprocessed.smi:511|AV-procd|sdf|2766|dock2
  -GOLD-   2262023233D 1   1.00000     0.00000
 Structure written by MMmdl.
 45 47  0  0  0  0  0  0  0  0  3 V2000
  152.6039  139.1107  154.8422 C   0  0  0  0  0  0  0  0  0  0  0  0
  151.3900  139.6668  154.3687 O   0  0  0  0  0  0  0  0  0  0  0  0
  150.2621  139.1928  155.0845 C   0  0  0  0  0  0  0  0  0  0  0  0
  149.3431  138.4347  154.1183 C   0  0  0  0  0  0  0  0  0  0  0  0
  148.5909  137.3882  154.8069 N   0  0  0  0  0  0  0  0  0  0  0  0
  147.2435  137.2707  154.9502 C   0  0  0  0  0  0  0  0  0  0  0  0
  146.3534  138.1685  154.3608 N   0  0  0  0  0  0  0  0  0  0  0  0
  145.4362  139.0349  155.0984 C   0  0  0  0  0  0  0  0  0  0  0  0
  145.9694  140.4777  155.1771 C   0  0  0  0  0  0  0  0  0  0  0  0
  146.2339  141.0232  153.8240 N   0  3  0  0  0  0  0  0  0  0  0  0
  146.7412  142.4113  153.8586 C   0  0  0  0  0  0  0  0  0  0  0  0
  147.0947  140.1196  153.0244 C   0  0  0  0  0  0  0  0  0  0  0  0
  146.5162  138.6940  153.0089 C   0  0  0  0  0  0  0  0  0  0  0  0
  146.8490  136.2463  155.7087 N   0  0  0  0  0  0  0  0  0  0  0  0
  148.0465  135.6380  156.0538 C   0  0  0  0  0  0  0  0  0  0  0  0
  149.1072  136.3047  155.5246 C   0  0  0  0  0  0  0  0  0  0  0  0
  150.5167  135.9076  155.7354 C   0  0  0  0  0  0  0  0  0  0  0  0
  151.4384  136.5571  155.2460 O   0  0  0  0  0  0  0  0  0  0  0  0
  150.6260  134.7813  156.5088 N   0  5  0  0  0  0  0  0  0  0  0  0
  149.5806  134.0717  157.0599 C   0  0  0  0  0  0  0  0  0  0  0  0
  149.7670  133.0640  157.7430 O   0  0  0  0  0  0  0  0  0  0  0  0
  148.2913  134.4863  156.8501 N   0  0  0  0  0  0  0  0  0  0  0  0
  147.1600  133.7549  157.4278 C   0  0  0  0  0  0  0  0  0  0  0  0
  153.4377  139.5019  154.2594 H   0  0  0  0  0  0  0  0  0  0  0  0
  152.6057  138.0241  154.7444 H   0  0  0  0  0  0  0  0  0  0  0  0
  152.7735  139.3684  155.8884 H   0  0  0  0  0  0  0  0  0  0  0  0
  150.5826  138.5395  155.8972 H   0  0  0  0  0  0  0  0  0  0  0  0
  149.7252  140.0323  155.5296 H   0  0  0  0  0  0  0  0  0  0  0  0
  148.6673  139.1417  153.6450 H   0  0  0  0  0  0  0  0  0  0  0  0
  149.9148  137.9896  153.3048 H   0  0  0  0  0  0  0  0  0  0  0  0
  144.4553  139.0130  154.6221 H   0  0  0  0  0  0  0  0  0  0  0  0
  145.3038  138.6600  156.1133 H   0  0  0  0  0  0  0  0  0  0  0  0
  145.2473  141.1111  155.6934 H   0  0  0  0  0  0  0  0  0  0  0  0
  146.8901  140.4985  155.7629 H   0  0  0  0  0  0  0  0  0  0  0  0
  147.7081  142.4632  154.3607 H   0  0  0  0  0  0  0  0  0  0  0  0
  146.0446  143.0617  154.3886 H   0  0  0  0  0  0  0  0  0  0  0  0
  146.8592  142.8028  152.8479 H   0  0  0  0  0  0  0  0  0  0  0  0
  147.1754  140.4971  152.0045 H   0  0  0  0  0  0  0  0  0  0  0  0
  148.1025  140.1081  153.4431 H   0  0  0  0  0  0  0  0  0  0  0  0
  147.1708  138.0335  152.4388 H   0  0  0  0  0  0  0  0  0  0  0  0
  145.5505  138.6826  152.5017 H   0  0  0  0  0  0  0  0  0  0  0  0
  147.2587  133.6893  158.5123 H   0  0  0  0  0  0  0  0  0  0  0  0
  147.1180  132.7412  157.0273 H   0  0  0  0  0  0  0  0  0  0  0  0
  146.2012  134.2292  157.2193 H   0  0  0  0  0  0  0  0  0  0  0  0
  145.3413  141.0534  153.3523 H   0  0  0  0  0  0  0  0  0  0  0  0
  1  2  1  0  0  0  0
  1 24  1  0  0  0  0
  1 25  1  0  0  0  0
  1 26  1  0  0  0  0
  2  3  1  0  0  0  0
  3  4  1  0  0  0  0
  3 27  1  0  0  0  0
  3 28  1  0  0  0  0
  4  5  1  0  0  0  0
  4 29  1  0  0  0  0
  4 30  1  0  0  0  0
  5 16  1  0  0  0  0
  5  6  1  0  0  0  0
  6  7  1  0  0  0  0
  6 14  2  0  0  0  0
  7 13  1  0  0  0  0
  7  8  1  0  0  0  0
  8  9  1  0  0  0  0
  8 31  1  0  0  0  0
  8 32  1  0  0  0  0
  9 10  1  0  0  0  0
  9 33  1  0  0  0  0
  9 34  1  0  0  0  0
 10 11  1  0  0  0  0
 10 12  1  0  0  0  0
 10 45  1  0  0  0  0
 11 35  1  0  0  0  0
 11 36  1  0  0  0  0
 11 37  1  0  0  0  0
 12 13  1  0  0  0  0
 12 38  1  0  0  0  0
 12 39  1  0  0  0  0
 13 40  1  0  0  0  0
 13 41  1  0  0  0  0
 14 15  1  0  0  0  0
 15 22  1  0  0  0  0
 15 16  2  0  0  0  0
 16 17  1  0  0  0  0
 17 18  2  0  0  0  0
 17 19  1  0  0  0  0
 19 20  1  0  0  0  0
 20 21  2  0  0  0  0
 20 22  1  0  0  0  0
 22 23  1  0  0  0  0
 23 42  1  0  0  0  0
 23 43  1  0  0  0  0
 23 44  1  0  0  0  0
M  CHG  1  10   1
M  CHG  1  19  -1
M  END
> <s_m_source_file>
AV-unprocessed.smi

> <i_m_source_file_index>
511

> <i_lp_mmshare_version>
43012

> <i_f3d_flags>
0

> <s_epik_input>
W0NIM11uMWMoPU8pW25IXWMoPU8pYyhjMTIpbihbQ0gyXVtDSDJdT1tDSDNdKWMobjIpTjNbQ0gyXVtDSDJdTihbQ0gzXSlbQ0gyXVtDSDJdMw==

> <s_epik_cmdline>
J2VwaWtfcHl0aG9uJywgJy1waCcsICc3LjAnLCAnLXRuJywgJzgnLCAnLW1hJywgJzIwMCcsICctbWV0YWxfYmluZGluZycsICctaW1hZScsICc8aW5maWxlLm1hZT4nLCAnLW9tYWUnLCAnPG91dGZpbGUubWFlPic=

> <r_epik_Ionization_Penalty>
5.9833

> <r_epik_Ionization_Penalty_Charging>
0.125752

> <r_epik_Ionization_Penalty_Neutral>
5.85754

> <r_epik_State_Penalty>
5.9139

> <r_epik_Charging_Adjusted_Penalty>
6.03966

> <i_epik_Tot_Q>
0

> <i_epik_Tot_abs_Q>
2

> <r_epik_Metal_State_Penalty>
1.87741

> <b_epik_Metal_Only>
1

> <s_lp_Force_Field>
OPLS_2005

> <r_lp_Energy>
51.0512

> <b_lp_Chiralities_Consistent>
1

> <s_lp_Variant>
AV-unprocessed.smi:511-3

> <Gold.Version>
5.8.1

> <Gold.Id.Protein>
6NUR|6NUR_protein|mol2

> <Gold.PLP.Fitness>
37.2165

> <Gold.PLP.PLP>
-24.5539

> <Gold.PLP.part.hbond>
-4.0000

> <Gold.PLP.part.metal>
0.0000

> <Gold.PLP.part.buried>
-4.0251

> <Gold.PLP.part.nonpolar>
-17.9319

> <Gold.PLP.part.repulsive>
0.1892

> <Gold.PLP.ligand.clash>
0.0000

> <Gold.PLP.ligand.torsion>
1.4560

> <Gold.PLP.Chemscore.Hbond>
5.0000

> <Gold.PLP.Chemscore.CHOScore>
0.0000

> <Gold.PLP.Chemscore.Metal>
0.0000

> <Gold.Chemscore.Hbonds>
donor molecule, donor type, donor heavy atom, donor atom, acceptor molecule, acceptor atom, score
      L1  H    10    45       P1 10175  2.00
      P1  H  6896  6909       L1    21  1.00
      P1  H  7989  7998       L1     2  0.91
      P1  H 10752 10765       L1    18  1.00

> <Gold.PLP.Chemscore.Internal.Correction>
0.5747

> <Gold.Rescore>
     Score         DG    S(hbond)    S(metal)    S(lipo)     H(rot)  DE(clash)    DE(int)     intcor
     13.07     -18.50       3.39        0.00      47.28       1.49       0.06       5.37       ----

> <Gold.Chemscore.Fitness>
13.0694

> <Gold.Chemscore.DG>
-18.5024

> <Gold.Chemscore.ZeroCoef>
-5.4800

> <Gold.Chemscore.Hbond>
3.3860

> <Gold.Chemscore.Metal>
0.0000

> <Gold.Chemscore.Lipo>
47.2764

> <Gold.Chemscore.Internal_Hbond>
0.0000

> <Gold.Chemscore.DEClash>
0.0601

> <Gold.Chemscore.DEInternal>
5.3729

> <Gold.Chemscore.Rot>
1.4915

> <Gold.Chemscore.Internal.Correction>
   9.000000E+99

> <Gold.Chemscore.Hbonds>
donor molecule, donor type, donor heavy atom, donor atom, acceptor molecule, acceptor atom, score
      L1  H    10    45       P1 10175  0.49
      P1  H  6896  6909       L1    21  0.63
      P1  H  7989  7998       L1     2  0.69
      P1  H 10752 10765       L1    18  0.93

> <Gold.Chemscore.Hbond.Weighted>
-11.3094

> <Gold.Chemscore.Metal.Weighted>
-0.0000

> <Gold.Chemscore.Lipo.Weighted>
-5.5313

> <Gold.Chemscore.Internal_Hbond.Weighted>
0.0000

> <Gold.Chemscore.DEClash.Weighted>
0.0601

> <Gold.Chemscore.DEInternal.Weighted>
5.3729

> <Gold.Chemscore.Rot.Weighted>
3.8183

> <Gold.Chemscore.Internal.Correction.Weighted>
   9.000000E+99

> <Gold.Protein.RotatedTorsions>
[ 6907 6896 6895 6894 ] final  -19.98 input  -60.11 | X-H torsion
[ 7974 7965 7964 7962 ] final  -84.04 input  175.53 | X-H torsion
[ 8008 7997 7996 7995 ] final  159.03 input   59.86 | X-H torsion
[ 10167 10162 10161 10158 ] final   65.93 input  -65.29 | X-H torsion
[ 10718 10713 10712 10709 ] final -173.17 input   66.30 | X-H torsion
[ 10763 10752 10751 10750 ] final -170.93 input  -60.55 | X-H torsion
[ 11005 11000 10999 10996 ] final  177.49 input  -57.11 | X-H torsion

> <Gold.Protein.ActiveResidues>
 VAL166  LYS551  ARG553  GLY616  TRP617  ASP618  TYR619  PRO620  LYS621  CYS622 
 ASP623  PHE694  ASN695  SER759  ASP760  ASP761  ALA762  ILE779  LEU786  VAL792 
 PHE793  MET794  SER795  GLU796  ALA797  LYS798  CYS799  TRP800  GLU811  SER814 

> <Gold.Protein.RotatedAtoms>
  151.2551  135.0635  159.9076 H   0  0  0  0  0  0  0  0  0  0  0  0  # atno 6907 bound_to 6896
  152.5374  134.0291  159.8027 H   0  0  0  0  0  0  0  0  0  0  0  0  # atno 6908 bound_to 6896
  151.0505  133.5579  159.2674 H   0  0  0  0  0  0  0  0  0  0  0  0  # atno 6909 bound_to 6896
  145.5119  140.9539  143.1703 H   0  0  0  0  0  0  0  0  0  0  0  0  # atno 7974 bound_to 7965
  156.2265  140.1842  156.7350 H   0  0  0  0  0  0  0  0  0  0  0  0  # atno 8008 bound_to 7997
  154.5950  140.0645  156.9319 H   0  0  0  0  0  0  0  0  0  0  0  0  # atno 8009 bound_to 7997
  155.2271  140.3312  155.4310 H   0  0  0  0  0  0  0  0  0  0  0  0  # atno 8010 bound_to 7997
  140.1060  144.4861  150.7008 H   0  0  0  0  0  0  0  0  0  0  0  0  # atno 10167 bound_to 10162
  156.7664  130.9432  151.3119 H   0  0  0  0  0  0  0  0  0  0  0  0  # atno 10718 bound_to 10713
  154.6361  135.2892  155.0160 H   0  0  0  0  0  0  0  0  0  0  0  0  # atno 10763 bound_to 10752
  154.1303  135.6534  153.4924 H   0  0  0  0  0  0  0  0  0  0  0  0  # atno 10764 bound_to 10752
  153.0303  135.5308  154.7208 H   0  0  0  0  0  0  0  0  0  0  0  0  # atno 10765 bound_to 10752
  140.3846  134.6916  157.4472 H   0  0  0  0  0  0  0  0  0  0  0  0  # atno 11005 bound_to 11000
  144.7723  139.6708  143.7189 LP  0  0  0  0  0  0  0  0  0  0  0  0  # atno 17320 bound_to 7965
  146.2161  139.5552  142.9649 LP  0  0  0  0  0  0  0  0  0  0  0  0  # atno 17321 bound_to 7965
  140.6952  143.2399  151.5021 LP  0  0  0  0  0  0  0  0  0  0  0  0  # atno 17342 bound_to 10162
  139.5645  144.2075  152.1744 LP  0  0  0  0  0  0  0  0  0  0  0  0  # atno 17343 bound_to 10162
  157.6711  130.9052  150.0043 LP  0  0  0  0  0  0  0  0  0  0  0  0  # atno 17370 bound_to 10713
  156.1306  130.3643  149.9738 LP  0  0  0  0  0  0  0  0  0  0  0  0  # atno 17371 bound_to 10713
  140.0452  134.6210  155.8930 LP  0  0  0  0  0  0  0  0  0  0  0  0  # atno 17394 bound_to 11000
  141.1912  133.6571  156.5444 LP  0  0  0  0  0  0  0  0  0  0  0  0  # atno 17395 bound_to 11000

$$$$
