AV-unprocessed.smi:3341|AV-procd|sdf|12884|dock3
  -GOLD-   2272019293D 1   1.00000     0.00000
 Structure written by MMmdl.
 46 47  0  0  0  0  0  0  0  0  2 V2000
  151.1149  141.6011  157.6879 C   0  0  0  0  0  0  0  0  0  0  0  0
  150.7974  141.4324  156.1975 C   0  0  0  0  0  0  0  0  0  0  0  0
  150.8026  140.0375  155.8025 N   0  0  0  0  0  0  0  0  0  0  0  0
  149.7665  139.2979  155.2675 C   0  0  0  0  0  0  0  0  0  0  0  0
  150.2733  138.0455  155.0639 C   0  0  0  0  0  0  0  0  0  0  0  0
  149.6393  136.8930  154.5346 N   0  0  0  0  0  0  0  0  0  0  0  0
  149.6362  135.6542  155.0531 C   0  0  0  0  0  0  0  0  0  0  0  0
  150.2004  135.3197  156.0950 O   0  0  0  0  0  0  0  0  0  0  0  0
  148.9348  134.8051  154.2885 N   0  0  0  0  0  0  0  0  0  0  0  0
  148.7293  133.3918  154.5846 C   0  0  0  0  0  0  0  0  0  0  0  0
  149.1577  132.4971  153.4050 C   0  0  0  0  0  0  0  0  0  0  0  0
  147.9968  131.8908  152.7060 N   0  3  2  0  0  0  0  0  0  0  0  0
  147.1286  132.9131  152.0672 C   0  0  0  0  0  0  0  0  0  0  0  0
  146.0287  132.2551  151.2195 C   0  0  0  0  0  0  0  0  0  0  0  0
  145.1977  131.2754  152.0594 C   0  0  0  0  0  0  0  0  0  0  0  0
  146.0975  130.2500  152.7734 C   0  0  1  0  0  0  0  0  0  0  0  0
  146.6601  129.1823  151.8189 C   0  0  0  0  0  0  0  0  0  0  0  0
  147.2097  130.9664  153.5673 C   0  0  0  0  0  0  0  0  0  0  0  0
  151.6229  138.0989  155.4992 C   0  0  0  0  0  0  0  0  0  0  0  0
  151.9359  139.3065  155.9436 N   0  0  0  0  0  0  0  0  0  0  0  0
  151.1142  142.6547  157.9674 H   0  0  0  0  0  0  0  0  0  0  0  0
  152.0969  141.1931  157.9294 H   0  0  0  0  0  0  0  0  0  0  0  0
  150.3773  141.0921  158.3090 H   0  0  0  0  0  0  0  0  0  0  0  0
  149.8213  141.8609  155.9660 H   0  0  0  0  0  0  0  0  0  0  0  0
  151.5303  141.9686  155.5936 H   0  0  0  0  0  0  0  0  0  0  0  0
  148.7915  139.7252  155.0865 H   0  0  0  0  0  0  0  0  0  0  0  0
  149.1312  137.0289  153.6728 H   0  0  0  0  0  0  0  0  0  0  0  0
  148.5033  135.1648  153.4493 H   0  0  0  0  0  0  0  0  0  0  0  0
  149.2753  133.1185  155.4893 H   0  0  0  0  0  0  0  0  0  0  0  0
  147.6717  133.2605  154.8095 H   0  0  0  0  0  0  0  0  0  0  0  0
  149.7694  133.0555  152.6944 H   0  0  0  0  0  0  0  0  0  0  0  0
  149.7919  131.6989  153.7939 H   0  0  0  0  0  0  0  0  0  0  0  0
  146.6850  133.5481  152.8357 H   0  0  0  0  0  0  0  0  0  0  0  0
  147.7280  133.5614  151.4268 H   0  0  0  0  0  0  0  0  0  0  0  0
  145.3794  133.0213  150.7950 H   0  0  0  0  0  0  0  0  0  0  0  0
  146.4778  131.7341  150.3734 H   0  0  0  0  0  0  0  0  0  0  0  0
  144.6329  131.8371  152.8047 H   0  0  0  0  0  0  0  0  0  0  0  0
  144.4597  130.7702  151.4353 H   0  0  0  0  0  0  0  0  0  0  0  0
  145.4734  129.7183  153.4929 H   0  0  0  0  0  0  0  0  0  0  0  0
  147.3308  129.6123  151.0751 H   0  0  0  0  0  0  0  0  0  0  0  0
  145.8577  128.6714  151.2859 H   0  0  0  0  0  0  0  0  0  0  0  0
  147.2208  128.4250  152.3674 H   0  0  0  0  0  0  0  0  0  0  0  0
  147.8581  130.2210  154.0263 H   0  0  0  0  0  0  0  0  0  0  0  0
  146.7679  131.5361  154.3864 H   0  0  0  0  0  0  0  0  0  0  0  0
  152.3706  137.3198  155.5070 H   0  0  0  0  0  0  0  0  0  0  0  0
  148.3775  131.3380  151.9511 H   0  0  0  0  0  0  0  0  0  0  0  0
  1  2  1  0  0  0  0
  1 21  1  0  0  0  0
  1 22  1  0  0  0  0
  1 23  1  0  0  0  0
  2  3  1  0  0  0  0
  2 24  1  0  0  0  0
  2 25  1  0  0  0  0
  3 20  1  0  0  0  0
  3  4  1  0  0  0  0
  4  5  2  0  0  0  0
  4 26  1  0  0  0  0
  5  6  1  0  0  0  0
  5 19  1  0  0  0  0
  6  7  1  0  0  0  0
  6 27  1  0  0  0  0
  7  8  2  0  0  0  0
  7  9  1  0  0  0  0
  9 10  1  0  0  0  0
  9 28  1  0  0  0  0
 10 11  1  0  0  0  0
 10 29  1  0  0  0  0
 10 30  1  0  0  0  0
 11 12  1  0  0  0  0
 11 31  1  0  0  0  0
 11 32  1  0  0  0  0
 12 18  1  0  0  0  0
 12 13  1  0  0  0  0
 12 46  1  0  0  0  0
 13 14  1  0  0  0  0
 13 33  1  0  0  0  0
 13 34  1  0  0  0  0
 14 15  1  0  0  0  0
 14 35  1  0  0  0  0
 14 36  1  0  0  0  0
 15 16  1  0  0  0  0
 15 37  1  0  0  0  0
 15 38  1  0  0  0  0
 16 17  1  0  0  0  0
 16 18  1  0  0  0  0
 16 39  1  0  0  0  0
 17 40  1  0  0  0  0
 17 41  1  0  0  0  0
 17 42  1  0  0  0  0
 18 43  1  0  0  0  0
 18 44  1  0  0  0  0
 19 20  2  0  0  0  0
 19 45  1  0  0  0  0
M  CHG  1  12   1
M  END
> <s_m_source_file>
AV-unprocessed.smi

> <i_m_source_file_index>
3341

> <i_lp_mmshare_version>
43012

> <i_f3d_flags>
0

> <s_epik_input>
W0NIM11bQ0gyXW4xW2NIXWMoW2NIXW4xKVtOSF1DKD1PKVtOSF1bQ0gyXVtDSDJdTjJbQ0gyXVtDSDJdW0NIMl1bQ0BASF0oW0NIM10pW0NIMl0y

> <s_epik_cmdline>
J2VwaWtfcHl0aG9uJywgJy1waCcsICc3LjAnLCAnLXRuJywgJzgnLCAnLW1hJywgJzIwMCcsICctbWV0YWxfYmluZGluZycsICctaW1hZScsICc8aW5maWxlLm1hZT4nLCAnLW9tYWUnLCAnPG91dGZpbGUubWFlPic=

> <r_lp_tautomer_probability>
1

> <r_epik_Ionization_Penalty>
0.00203389

> <r_epik_Ionization_Penalty_Charging>
0.00188267

> <r_epik_Ionization_Penalty_Neutral>
0.000151224

> <r_epik_State_Penalty>
0.0012808

> <r_epik_Charging_Adjusted_Penalty>
0.00316346

> <i_epik_Tot_Q>
1

> <i_epik_Tot_abs_Q>
1

> <r_epik_Metal_State_Penalty>
-0

> <b_epik_Metal_Only>
0

> <s_lp_Force_Field>
OPLS_2005

> <r_lp_Energy>
23.1402

> <b_lp_Chiralities_Consistent>
1

> <s_lp_Variant>
AV-unprocessed.smi:3341-2

> <Gold.Version>
5.8.1

> <Gold.Id.Protein>
6NUR|6NUR_protein|mol2

> <Gold.PLP.Fitness>
43.9376

> <Gold.PLP.PLP>
-37.2712

> <Gold.PLP.part.hbond>
-3.0000

> <Gold.PLP.part.metal>
0.0000

> <Gold.PLP.part.buried>
-4.3145

> <Gold.PLP.part.nonpolar>
-29.1841

> <Gold.PLP.part.repulsive>
0.0665

> <Gold.PLP.ligand.clash>
0.0000

> <Gold.PLP.ligand.torsion>
0.7952

> <Gold.PLP.Chemscore.Hbond>
2.7440

> <Gold.PLP.Chemscore.CHOScore>
0.0000

> <Gold.PLP.Chemscore.Metal>
0.0000

> <Gold.Chemscore.Hbonds>
donor molecule, donor type, donor heavy atom, donor atom, acceptor molecule, acceptor atom, score
      L1  H     6    27       P1  7948  0.78
      L1  H     9    28       P1  7948  0.78
      L1  H    12    46       P1 10747  1.00

> <Gold.PLP.Chemscore.Internal.Correction>
0.0248

> <Gold.Rescore>
     Score         DG    S(hbond)    S(metal)    S(lipo)     H(rot)  DE(clash)    DE(int)     intcor
     19.88     -20.68       2.72        0.00      87.25       1.59       0.05       0.76       ----

> <Gold.Chemscore.Fitness>
19.8762

> <Gold.Chemscore.DG>
-20.6840

> <Gold.Chemscore.ZeroCoef>
-5.4800

> <Gold.Chemscore.Hbond>
2.7152

> <Gold.Chemscore.Metal>
0.0000

> <Gold.Chemscore.Lipo>
87.2489

> <Gold.Chemscore.Internal_Hbond>
0.0000

> <Gold.Chemscore.DEClash>
0.0484

> <Gold.Chemscore.DEInternal>
0.7594

> <Gold.Chemscore.Rot>
1.5909

> <Gold.Chemscore.Internal.Correction>
   9.000000E+99

> <Gold.Chemscore.Hbonds>
donor molecule, donor type, donor heavy atom, donor atom, acceptor molecule, acceptor atom, score
      L1  H     6    27       P1  7948  0.76
      L1  H     9    28       P1  7948  0.70
      L1  H    12    46       P1 10747  1.00

> <Gold.Chemscore.Hbond.Weighted>
-9.0687

> <Gold.Chemscore.Metal.Weighted>
-0.0000

> <Gold.Chemscore.Lipo.Weighted>
-10.2081

> <Gold.Chemscore.Internal_Hbond.Weighted>
0.0000

> <Gold.Chemscore.DEClash.Weighted>
0.0484

> <Gold.Chemscore.DEInternal.Weighted>
0.7594

> <Gold.Chemscore.Rot.Weighted>
4.0728

> <Gold.Chemscore.Internal.Correction.Weighted>
   9.000000E+99

> <Gold.Protein.RotatedTorsions>
[ 6907 6896 6895 6894 ] final  135.85 input  -60.11 | X-H torsion
[ 7974 7965 7964 7962 ] final -123.35 input  175.53 | X-H torsion
[ 8008 7997 7996 7995 ] final   35.24 input   59.86 | X-H torsion
[ 10167 10162 10161 10158 ] final -162.40 input  -65.29 | X-H torsion
[ 10718 10713 10712 10709 ] final   22.63 input   66.30 | X-H torsion
[ 10763 10752 10751 10750 ] final   -2.63 input  -60.55 | X-H torsion
[ 11005 11000 10999 10996 ] final -170.61 input  -57.11 | X-H torsion

> <Gold.Protein.ActiveResidues>
 VAL166  LYS551  ARG553  GLY616  TRP617  ASP618  TYR619  PRO620  LYS621  CYS622 
 ASP623  PHE694  ASN695  SER759  ASP760  ASP761  ALA762  ILE779  LEU786  VAL792 
 PHE793  MET794  SER795  GLU796  ALA797  LYS798  CYS799  TRP800  GLU811  SER814 

> <Gold.Protein.RotatedAtoms>
  152.2958  133.5606  159.5586 H   0  0  0  0  0  0  0  0  0  0  0  0  # atno 6907 bound_to 6896
  150.7255  134.0362  159.3759 H   0  0  0  0  0  0  0  0  0  0  0  0  # atno 6908 bound_to 6896
  151.8265  135.0635  160.0482 H   0  0  0  0  0  0  0  0  0  0  0  0  # atno 6909 bound_to 6896
  145.0196  140.7977  143.4389 H   0  0  0  0  0  0  0  0  0  0  0  0  # atno 7974 bound_to 7965
  155.1678  140.3289  155.4398 H   0  0  0  0  0  0  0  0  0  0  0  0  # atno 8008 bound_to 7997
  156.2520  140.1949  156.6733 H   0  0  0  0  0  0  0  0  0  0  0  0  # atno 8009 bound_to 7997
  154.6359  140.0576  156.9774 H   0  0  0  0  0  0  0  0  0  0  0  0  # atno 8010 bound_to 7997
  139.6395  144.0287  152.2080 H   0  0  0  0  0  0  0  0  0  0  0  0  # atno 10167 bound_to 10162
  157.1549  130.6691  149.6024 H   0  0  0  0  0  0  0  0  0  0  0  0  # atno 10718 bound_to 10713
  153.3606  135.6990  153.6715 H   0  0  0  0  0  0  0  0  0  0  0  0  # atno 10763 bound_to 10752
  153.5405  135.3574  155.2717 H   0  0  0  0  0  0  0  0  0  0  0  0  # atno 10764 bound_to 10752
  154.8667  135.4202  154.2862 H   0  0  0  0  0  0  0  0  0  0  0  0  # atno 10765 bound_to 10752
  140.5175  134.5742  157.5038 H   0  0  0  0  0  0  0  0  0  0  0  0  # atno 11005 bound_to 11000
  145.1913  139.2299  143.5241 LP  0  0  0  0  0  0  0  0  0  0  0  0  # atno 17320 bound_to 7965
  146.3483  140.1710  142.8589 LP  0  0  0  0  0  0  0  0  0  0  0  0  # atno 17321 bound_to 7965
  139.9973  144.6319  150.7761 LP  0  0  0  0  0  0  0  0  0  0  0  0  # atno 17342 bound_to 10162
  140.7483  143.2920  151.3305 LP  0  0  0  0  0  0  0  0  0  0  0  0  # atno 17343 bound_to 10162
  155.9764  130.4731  150.6524 LP  0  0  0  0  0  0  0  0  0  0  0  0  # atno 17370 bound_to 10713
  157.4186  131.0833  151.1153 LP  0  0  0  0  0  0  0  0  0  0  0  0  # atno 17371 bound_to 10713
  139.9624  134.7430  156.0209 LP  0  0  0  0  0  0  0  0  0  0  0  0  # atno 17394 bound_to 11000
  141.1352  133.6577  156.3574 LP  0  0  0  0  0  0  0  0  0  0  0  0  # atno 17395 bound_to 11000

$$$$
