AV-unprocessed.smi:287|AV-procd|sdf|2192|dock10
  -GOLD-   2262021593D 1   1.00000     0.00000
 Structure written by MMmdl.
 55 58  0  0  0  0  0  0  0  0  1 V2000
  151.9808  138.5946  154.1601 C   0  0  0  0  0  0  0  0  0  0  0  0
  150.5857  138.9421  154.5524 C   0  0  0  0  0  0  0  0  0  0  0  0
  149.6129  138.2929  155.2549 C   0  0  0  0  0  0  0  0  0  0  0  0
  148.4772  139.1553  155.3074 C   0  0  0  0  0  0  0  0  0  0  0  0
  147.1520  138.8501  155.9928 C   0  0  2  0  0  0  0  0  0  0  0  0
  146.9265  139.8358  157.1509 C   0  0  0  0  0  0  0  0  0  0  0  0
  147.1215  137.5645  156.5818 O   0  0  0  0  0  0  0  0  0  0  0  0
  145.9569  138.8961  155.0133 C   0  0  0  0  0  0  0  0  0  0  0  0
  144.7517  138.2829  155.5621 N   0  0  0  0  0  0  0  0  0  0  0  0
  144.1265  137.2944  154.8901 C   0  0  0  0  0  0  0  0  0  0  0  0
  143.0057  136.7098  155.3876 N   0  0  0  0  0  0  0  0  0  0  0  0
  142.4013  135.7363  154.7001 C   0  0  0  0  0  0  0  0  0  0  0  0
  142.7443  135.2102  153.5228 N   0  0  0  0  0  0  0  0  0  0  0  0
  143.8714  135.7936  153.0199 C   0  0  0  0  0  0  0  0  0  0  0  0
  144.6152  136.8352  153.6402 C   0  0  0  0  0  0  0  0  0  0  0  0
  145.6967  137.1829  152.8414 N   0  0  0  0  0  0  0  0  0  0  0  0
  145.5928  136.3914  151.8077 C   0  0  0  0  0  0  0  0  0  0  0  0
  144.5212  135.5267  151.8307 N   0  0  0  0  0  0  0  0  0  0  0  0
  144.1425  134.5201  150.7904 C   0  0  1  0  0  0  0  0  0  0  0  0
  145.2535  134.2190  150.0119 O   0  0  0  0  0  0  0  0  0  0  0  0
  145.1149  132.9030  149.4867 C   0  0  1  0  0  0  0  0  0  0  0  0
  146.4859  132.2021  149.5054 C   0  0  0  0  0  0  0  0  0  0  0  0
  147.0438  132.1625  150.8027 O   0  0  0  0  0  0  0  0  0  0  0  0
  143.9888  132.2052  150.2801 C   0  0  2  0  0  0  0  0  0  0  0  0
  142.8699  132.0123  149.4350 O   0  0  0  0  0  0  0  0  0  0  0  0
  143.6380  133.1970  151.3835 C   0  0  1  0  0  0  0  0  0  0  0  0
  144.2679  132.8474  152.6022 O   0  0  0  0  0  0  0  0  0  0  0  0
  148.8545  140.2743  154.6043 C   0  0  0  0  0  0  0  0  0  0  0  0
  148.1728  141.5538  154.2469 C   0  0  0  0  0  0  0  0  0  0  0  0
  150.1325  140.1550  154.1479 O   0  0  0  0  0  0  0  0  0  0  0  0
  143.3925  135.0151  150.1717 H   0  0  0  0  0  0  0  0  0  0  0  0
  144.8178  133.0217  148.4432 H   0  0  0  0  0  0  0  0  0  0  0  0
  144.2810  131.2313  150.6750 H   0  0  0  0  0  0  0  0  0  0  0  0
  142.5653  133.2665  151.5699 H   0  0  0  0  0  0  0  0  0  0  0  0
  152.2862  137.6481  154.6063 H   0  0  0  0  0  0  0  0  0  0  0  0
  152.6786  139.3641  154.4904 H   0  0  0  0  0  0  0  0  0  0  0  0
  152.0656  138.5014  153.0774 H   0  0  0  0  0  0  0  0  0  0  0  0
  149.7066  137.3093  155.6909 H   0  0  0  0  0  0  0  0  0  0  0  0
  146.8957  140.8655  156.7930 H   0  0  0  0  0  0  0  0  0  0  0  0
  147.7271  139.7695  157.8890 H   0  0  0  0  0  0  0  0  0  0  0  0
  145.9853  139.6403  157.6659 H   0  0  0  0  0  0  0  0  0  0  0  0
  147.6105  136.9714  156.0321 H   0  0  0  0  0  0  0  0  0  0  0  0
  145.7515  139.9190  154.6939 H   0  0  0  0  0  0  0  0  0  0  0  0
  146.2231  138.3365  154.1152 H   0  0  0  0  0  0  0  0  0  0  0  0
  144.4723  138.5978  156.4804 H   0  0  0  0  0  0  0  0  0  0  0  0
  141.5159  135.3200  155.1574 H   0  0  0  0  0  0  0  0  0  0  0  0
  146.2988  136.4202  150.9907 H   0  0  0  0  0  0  0  0  0  0  0  0
  146.3768  131.1743  149.1587 H   0  0  0  0  0  0  0  0  0  0  0  0
  147.1795  132.6967  148.8251 H   0  0  0  0  0  0  0  0  0  0  0  0
  147.8989  131.7639  150.7514 H   0  0  0  0  0  0  0  0  0  0  0  0
  142.3093  132.7700  149.5002 H   0  0  0  0  0  0  0  0  0  0  0  0
  143.6261  132.4424  153.1654 H   0  0  0  0  0  0  0  0  0  0  0  0
  147.2149  141.3595  153.7641 H   0  0  0  0  0  0  0  0  0  0  0  0
  148.7788  142.1462  153.5608 H   0  0  0  0  0  0  0  0  0  0  0  0
  147.9890  142.1550  155.1374 H   0  0  0  0  0  0  0  0  0  0  0  0
  1  2  1  0  0  0  0
  1 35  1  0  0  0  0
  1 36  1  0  0  0  0
  1 37  1  0  0  0  0
  2 30  1  0  0  0  0
  2  3  2  0  0  0  0
  3  4  1  0  0  0  0
  3 38  1  0  0  0  0
  4  5  1  0  0  0  0
  4 28  2  0  0  0  0
  5  6  1  0  0  0  0
  5  7  1  0  0  0  0
  5  8  1  0  0  0  0
  6 39  1  0  0  0  0
  6 40  1  0  0  0  0
  6 41  1  0  0  0  0
  7 42  1  0  0  0  0
  8  9  1  0  0  0  0
  8 43  1  0  0  0  0
  8 44  1  0  0  0  0
  9 10  1  0  0  0  0
  9 45  1  0  0  0  0
 10 15  1  0  0  0  0
 10 11  2  0  0  0  0
 11 12  1  0  0  0  0
 12 13  2  0  0  0  0
 12 46  1  0  0  0  0
 13 14  1  0  0  0  0
 14 18  1  0  0  0  0
 14 15  2  0  0  0  0
 15 16  1  0  0  0  0
 16 17  2  0  0  0  0
 17 18  1  0  0  0  0
 17 47  1  0  0  0  0
 18 19  1  0  0  0  0
 19 31  1  0  0  0  0
 19 26  1  0  0  0  0
 19 20  1  0  0  0  0
 20 21  1  0  0  0  0
 21 32  1  0  0  0  0
 21 22  1  0  0  0  0
 21 24  1  0  0  0  0
 22 23  1  0  0  0  0
 22 48  1  0  0  0  0
 22 49  1  0  0  0  0
 23 50  1  0  0  0  0
 24 33  1  0  0  0  0
 24 25  1  0  0  0  0
 24 26  1  0  0  0  0
 25 51  1  0  0  0  0
 26 34  1  0  0  0  0
 26 27  1  0  0  0  0
 27 52  1  0  0  0  0
 28 29  1  0  0  0  0
 28 30  1  0  0  0  0
 29 53  1  0  0  0  0
 29 54  1  0  0  0  0
 29 55  1  0  0  0  0
M  END
> <s_m_source_file>
AV-unprocessed.smi

> <i_m_source_file_index>
287

> <i_lp_mmshare_version>
43012

> <i_f3d_flags>
0

> <s_epik_input>
W0NIM11jMVtjSF1jKGMobzEpW0NIM10pW0NAQF0oW0NIM10pKFtPSF0pW0NIMl1bTkhdYyhuW2NIXW4yKWMoYzIzKW5bY0hdbjNbQ0BASF00T1tDQEhdKFtDSDJdW09IXSlbQ0BASF0oW09IXSlbQ0BIXTRbT0hd

> <s_epik_cmdline>
J2VwaWtfcHl0aG9uJywgJy1waCcsICc3LjAnLCAnLXRuJywgJzgnLCAnLW1hJywgJzIwMCcsICctbWV0YWxfYmluZGluZycsICctaW1hZScsICc8aW5maWxlLm1hZT4nLCAnLW9tYWUnLCAnPG91dGZpbGUubWFlPic=

> <r_lp_tautomer_probability>
1

> <r_epik_Ionization_Penalty>
0.000992612

> <r_epik_Ionization_Penalty_Charging>
0

> <r_epik_Ionization_Penalty_Neutral>
0.000992612

> <r_epik_State_Penalty>
-0

> <r_epik_Charging_Adjusted_Penalty>
0

> <i_epik_Tot_Q>
0

> <i_epik_Tot_abs_Q>
0

> <r_epik_Metal_State_Penalty>
-0

> <b_epik_Metal_Only>
0

> <s_epik_Chemistry_Notes>
This compound contains an acetal/aminal-like group ( X-CH(R)-Y where X, Y are N, S, or O) that may be acid/base labile, releasing an aldehyde.

> <s_lp_Force_Field>
OPLS_2005

> <r_lp_Energy>
44.6889

> <b_lp_Chiralities_Consistent>
1

> <s_lp_Variant>
AV-unprocessed.smi:287-16

> <Gold.Version>
5.8.1

> <Gold.Id.Protein>
6NUR|6NUR_protein|mol2

> <Gold.PLP.Fitness>
55.7827

> <Gold.PLP.PLP>
-38.3026

> <Gold.PLP.part.hbond>
-5.8779

> <Gold.PLP.part.metal>
0.0000

> <Gold.PLP.part.buried>
-5.5566

> <Gold.PLP.part.nonpolar>
-31.3993

> <Gold.PLP.part.repulsive>
3.8893

> <Gold.PLP.ligand.clash>
0.0000

> <Gold.PLP.ligand.torsion>
0.7985

> <Gold.PLP.Chemscore.Hbond>
4.9020

> <Gold.PLP.Chemscore.CHOScore>
1.4218

> <Gold.PLP.Chemscore.Metal>
0.0000

> <Gold.Chemscore.Hbonds>
donor molecule, donor type, donor heavy atom, donor atom, acceptor molecule, acceptor atom, score
      L1  H    23    50       P1 10747  0.88
      L1  H    25    51       P1 10186  0.84
      L1  H    27    52       P1 10957  0.75
      P1  H  7989  7998       L1    30  0.96
      P1  H 10785 10796       L1    25  1.00
      L1  C    12    46       P1 11000  1.00
      L1  C    17    47       P1  7948  0.29

> <Gold.PLP.Chemscore.Internal.Correction>
0.1057

> <Gold.Rescore>
     Score         DG    S(hbond)    S(metal)    S(lipo)     H(rot)  DE(clash)    DE(int)     intcor
      9.62     -14.13       3.90        0.00      77.97       5.27       1.47       3.04       ----

> <Gold.Chemscore.Fitness>
9.6171

> <Gold.Chemscore.DG>
-14.1305

> <Gold.Chemscore.ZeroCoef>
-5.4800

> <Gold.Chemscore.Hbond>
3.8957

> <Gold.Chemscore.Metal>
0.0000

> <Gold.Chemscore.Lipo>
77.9729

> <Gold.Chemscore.Internal_Hbond>
0.0000

> <Gold.Chemscore.DEClash>
1.4732

> <Gold.Chemscore.DEInternal>
3.0401

> <Gold.Chemscore.Rot>
5.2672

> <Gold.Chemscore.Internal.Correction>
   9.000000E+99

> <Gold.Chemscore.Hbonds>
donor molecule, donor type, donor heavy atom, donor atom, acceptor molecule, acceptor atom, score
      L1  H    23    50       P1 10747  0.85
      L1  H    25    51       P1 10186  0.82
      L1  H    27    52       P1 10957  0.09
      P1  H  7989  7998       L1    30  0.28
      P1  H 10785 10796       L1    25  0.33

> <Gold.Chemscore.Hbond.Weighted>
-13.0116

> <Gold.Chemscore.Metal.Weighted>
-0.0000

> <Gold.Chemscore.Lipo.Weighted>
-9.1228

> <Gold.Chemscore.Internal_Hbond.Weighted>
0.0000

> <Gold.Chemscore.DEClash.Weighted>
1.4732

> <Gold.Chemscore.DEInternal.Weighted>
3.0401

> <Gold.Chemscore.Rot.Weighted>
13.4839

> <Gold.Chemscore.Internal.Correction.Weighted>
   9.000000E+99

> <Gold.Protein.RotatedTorsions>
[ 6907 6896 6895 6894 ] final   -8.06 input  -60.11 | X-H torsion
[ 7974 7965 7964 7962 ] final   63.03 input  175.53 | X-H torsion
[ 8008 7997 7996 7995 ] final   43.66 input   59.86 | X-H torsion
[ 10167 10162 10161 10158 ] final  139.73 input  -65.29 | X-H torsion
[ 10718 10713 10712 10709 ] final  -50.76 input   66.30 | X-H torsion
[ 10763 10752 10751 10750 ] final  -51.73 input  -60.55 | X-H torsion
[ 11005 11000 10999 10996 ] final -154.47 input  -57.11 | X-H torsion

> <Gold.Protein.ActiveResidues>
 VAL166  LYS551  ARG553  GLY616  TRP617  ASP618  TYR619  PRO620  LYS621  CYS622 
 ASP623  PHE694  ASN695  SER759  ASP760  ASP761  ALA762  ILE779  LEU786  VAL792 
 PHE793  MET794  SER795  GLU796  ALA797  LYS798  CYS799  TRP800  GLU811  SER814 

> <Gold.Protein.RotatedAtoms>
  151.4396  135.1019  159.9666 H   0  0  0  0  0  0  0  0  0  0  0  0  # atno 6907 bound_to 6896
  152.4927  133.8541  159.7227 H   0  0  0  0  0  0  0  0  0  0  0  0  # atno 6908 bound_to 6896
  150.9097  133.6954  159.2885 H   0  0  0  0  0  0  0  0  0  0  0  0  # atno 6909 bound_to 6896
  145.8665  139.3349  143.0788 H   0  0  0  0  0  0  0  0  0  0  0  0  # atno 7974 bound_to 7965
  155.3064  140.3388  155.4245 H   0  0  0  0  0  0  0  0  0  0  0  0  # atno 8008 bound_to 7997
  156.1977  140.1721  156.8003 H   0  0  0  0  0  0  0  0  0  0  0  0  # atno 8009 bound_to 7997
  154.5519  140.0704  156.8665 H   0  0  0  0  0  0  0  0  0  0  0  0  # atno 8010 bound_to 7997
  139.5070  144.6277  151.5896 H   0  0  0  0  0  0  0  0  0  0  0  0  # atno 10167 bound_to 10162
  156.1771  130.4150  149.9561 H   0  0  0  0  0  0  0  0  0  0  0  0  # atno 10718 bound_to 10713
  154.1313  135.6519  153.4922 H   0  0  0  0  0  0  0  0  0  0  0  0  # atno 10763 bound_to 10752
  153.0194  135.5293  154.6998 H   0  0  0  0  0  0  0  0  0  0  0  0  # atno 10764 bound_to 10752
  154.6233  135.2967  155.0271 H   0  0  0  0  0  0  0  0  0  0  0  0  # atno 10765 bound_to 10752
  140.6969  134.3980  157.5214 H   0  0  0  0  0  0  0  0  0  0  0  0  # atno 11005 bound_to 11000
  145.9187  140.9130  143.0416 LP  0  0  0  0  0  0  0  0  0  0  0  0  # atno 17320 bound_to 7965
  144.6726  140.1258  143.7447 LP  0  0  0  0  0  0  0  0  0  0  0  0  # atno 17321 bound_to 7965
  140.5999  143.9628  150.6379 LP  0  0  0  0  0  0  0  0  0  0  0  0  # atno 17342 bound_to 10162
  140.2836  143.3372  152.1128 LP  0  0  0  0  0  0  0  0  0  0  0  0  # atno 17343 bound_to 10162
  156.7343  130.9055  151.3628 LP  0  0  0  0  0  0  0  0  0  0  0  0  # atno 17370 bound_to 10713
  157.6843  130.9170  150.0346 LP  0  0  0  0  0  0  0  0  0  0  0  0  # atno 17371 bound_to 10713
  139.8907  134.8797  156.2354 LP  0  0  0  0  0  0  0  0  0  0  0  0  # atno 17394 bound_to 11000
  141.0195  133.7049  156.1245 LP  0  0  0  0  0  0  0  0  0  0  0  0  # atno 17395 bound_to 11000

$$$$
