AV-unprocessed.smi:1681|AV-procd|sdf|6742|dock10
  -GOLD-   22720 7493D 1   1.00000     0.00000
 Structure written by MMmdl.
 40 41  0  0  0  0  0  0  0  0  1 V2000
  154.6472  141.2234  160.3791 C   0  0  0  0  0  0  0  0  0  0  0  0
  153.7313  140.4524  159.4260 C   0  0  0  0  0  0  0  0  0  0  0  0
  154.1616  139.4134  158.9250 O   0  0  0  0  0  0  0  0  0  0  0  0
  152.4925  140.9340  159.1631 N   0  0  0  0  0  0  0  0  0  0  0  0
  151.9521  142.2061  159.6599 C   0  0  0  0  0  0  0  0  0  0  0  0
  151.8643  143.1962  158.4846 C   0  0  0  0  0  0  0  0  0  0  0  0
  151.0207  142.6130  157.3346 C   0  0  0  0  0  0  0  0  0  0  0  0
  151.4915  141.1925  156.9413 C   0  0  2  0  0  0  0  0  0  0  0  0
  150.5619  140.5689  155.8915 C   0  0  0  0  0  0  0  0  0  0  0  0
  151.0266  140.1669  154.8245 O   0  0  0  0  0  0  0  0  0  0  0  0
  149.2598  140.5068  156.2229 N   0  0  0  0  0  0  0  0  0  0  0  0
  148.1951  139.9800  155.4494 C   0  0  0  0  0  0  0  0  0  0  0  0
  146.8876  139.7266  155.9392 C   0  0  0  0  0  0  0  0  0  0  0  0
  146.1092  139.2280  154.9910 N   0  0  0  0  0  0  0  0  0  0  0  0
  146.8986  139.1524  153.8901 N   0  0  0  0  0  0  0  0  0  0  0  0
  146.3566  138.6244  152.6507 C   0  0  0  0  0  0  0  0  0  0  0  0
  145.4050  137.4549  152.9130 C   0  0  0  0  0  0  0  0  0  0  0  0
  144.1018  137.6690  152.7110 N   0  0  0  0  0  0  0  0  0  0  0  0
  145.8402  136.3722  153.2989 O   0  0  0  0  0  0  0  0  0  0  0  0
  148.1794  139.6083  154.1349 C   0  0  0  0  0  0  0  0  0  0  0  0
  151.5841  140.2997  158.1994 C   0  0  0  0  0  0  0  0  0  0  0  0
  154.8183  142.2375  160.0164 H   0  0  0  0  0  0  0  0  0  0  0  0
  155.6175  140.7322  160.4605 H   0  0  0  0  0  0  0  0  0  0  0  0
  154.2128  141.2712  161.3780 H   0  0  0  0  0  0  0  0  0  0  0  0
  150.9584  142.0343  160.0762 H   0  0  0  0  0  0  0  0  0  0  0  0
  152.5337  142.6418  160.4710 H   0  0  0  0  0  0  0  0  0  0  0  0
  151.4351  144.1408  158.8199 H   0  0  0  0  0  0  0  0  0  0  0  0
  152.8686  143.4224  158.1238 H   0  0  0  0  0  0  0  0  0  0  0  0
  149.9761  142.5852  157.6491 H   0  0  0  0  0  0  0  0  0  0  0  0
  151.0637  143.2789  156.4717 H   0  0  0  0  0  0  0  0  0  0  0  0
  152.4920  141.2744  156.5112 H   0  0  0  0  0  0  0  0  0  0  0  0
  149.0052  140.8763  157.1276 H   0  0  0  0  0  0  0  0  0  0  0  0
  146.4857  139.8822  156.9295 H   0  0  0  0  0  0  0  0  0  0  0  0
  145.8352  139.4207  152.1171 H   0  0  0  0  0  0  0  0  0  0  0  0
  147.1801  138.2985  152.0137 H   0  0  0  0  0  0  0  0  0  0  0  0
  143.4357  136.9285  152.8768 H   0  0  0  0  0  0  0  0  0  0  0  0
  143.7872  138.5759  152.3978 H   0  0  0  0  0  0  0  0  0  0  0  0
  148.9401  139.6176  153.3685 H   0  0  0  0  0  0  0  0  0  0  0  0
  151.9034  139.2926  157.9260 H   0  0  0  0  0  0  0  0  0  0  0  0
  150.6023  140.1814  158.6614 H   0  0  0  0  0  0  0  0  0  0  0  0
  1  2  1  0  0  0  0
  1 22  1  0  0  0  0
  1 23  1  0  0  0  0
  1 24  1  0  0  0  0
  2  3  2  0  0  0  0
  2  4  1  0  0  0  0
  4 21  1  0  0  0  0
  4  5  1  0  0  0  0
  5  6  1  0  0  0  0
  5 25  1  0  0  0  0
  5 26  1  0  0  0  0
  6  7  1  0  0  0  0
  6 27  1  0  0  0  0
  6 28  1  0  0  0  0
  7  8  1  0  0  0  0
  7 29  1  0  0  0  0
  7 30  1  0  0  0  0
  8  9  1  0  0  0  0
  8 21  1  0  0  0  0
  8 31  1  0  0  0  0
  9 10  2  0  0  0  0
  9 11  1  0  0  0  0
 11 12  1  0  0  0  0
 11 32  1  0  0  0  0
 12 20  2  0  0  0  0
 12 13  1  0  0  0  0
 13 14  2  0  0  0  0
 13 33  1  0  0  0  0
 14 15  1  0  0  0  0
 15 16  1  0  0  0  0
 15 20  1  0  0  0  0
 16 17  1  0  0  0  0
 16 34  1  0  0  0  0
 16 35  1  0  0  0  0
 17 18  1  0  0  0  0
 17 19  2  0  0  0  0
 18 36  1  0  0  0  0
 18 37  1  0  0  0  0
 20 38  1  0  0  0  0
 21 39  1  0  0  0  0
 21 40  1  0  0  0  0
M  END
> <s_m_source_file>
AV-unprocessed.smi

> <i_m_source_file_index>
1681

> <i_lp_mmshare_version>
43012

> <i_f3d_flags>
0

> <s_epik_input>
W0NIM11DKD1PKU4xW0NIMl1bQ0gyXVtDSDJdW0NASF0oW0NIMl0xKUMoPU8pW05IXWMyW2NIXW5uKFtjSF0yKVtDSDJdQyg9TylbTkgyXQ==

> <s_epik_cmdline>
J2VwaWtfcHl0aG9uJywgJy1waCcsICc3LjAnLCAnLXRuJywgJzgnLCAnLW1hJywgJzIwMCcsICctbWV0YWxfYmluZGluZycsICctaW1hZScsICc8aW5maWxlLm1hZT4nLCAnLW9tYWUnLCAnPG91dGZpbGUubWFlPic=

> <r_lp_tautomer_probability>
1

> <r_epik_Ionization_Penalty>
6.05275e-06

> <r_epik_Ionization_Penalty_Charging>
0

> <r_epik_Ionization_Penalty_Neutral>
6.05275e-06

> <r_epik_State_Penalty>
-0

> <r_epik_Charging_Adjusted_Penalty>
0

> <i_epik_Tot_Q>
0

> <i_epik_Tot_abs_Q>
0

> <r_epik_Metal_State_Penalty>
-0

> <b_epik_Metal_Only>
0

> <s_lp_Force_Field>
OPLS_2005

> <r_lp_Energy>
29.5866

> <b_lp_Chiralities_Consistent>
1

> <s_lp_Variant>
AV-unprocessed.smi:1681-2

> <Gold.Version>
5.8.1

> <Gold.Id.Protein>
6NUR|6NUR_protein|mol2

> <Gold.PLP.Fitness>
44.2854

> <Gold.PLP.PLP>
-33.3416

> <Gold.PLP.part.hbond>
-3.9231

> <Gold.PLP.part.metal>
0.0000

> <Gold.PLP.part.buried>
-4.8836

> <Gold.PLP.part.nonpolar>
-26.1539

> <Gold.PLP.part.repulsive>
0.3455

> <Gold.PLP.ligand.clash>
0.0000

> <Gold.PLP.ligand.torsion>
0.5272

> <Gold.PLP.Chemscore.Hbond>
2.9913

> <Gold.PLP.Chemscore.CHOScore>
1.0000

> <Gold.PLP.Chemscore.Metal>
0.0000

> <Gold.Chemscore.Hbonds>
donor molecule, donor type, donor heavy atom, donor atom, acceptor molecule, acceptor atom, score
      L1  H    18    37       P1 10175  1.00
      P1  H  7989  7998       L1    10  1.00
      P1  H  7997  8008       L1     3  1.00
      L1  C    20    38       P1  7957  1.00

> <Gold.PLP.Chemscore.Internal.Correction>
0.0244

> <Gold.Rescore>
     Score         DG    S(hbond)    S(metal)    S(lipo)     H(rot)  DE(clash)    DE(int)     intcor
     16.12     -17.92       2.83        0.00      68.49       1.96       0.15       1.66       ----

> <Gold.Chemscore.Fitness>
16.1167

> <Gold.Chemscore.DG>
-17.9242

> <Gold.Chemscore.ZeroCoef>
-5.4800

> <Gold.Chemscore.Hbond>
2.8301

> <Gold.Chemscore.Metal>
0.0000

> <Gold.Chemscore.Lipo>
68.4938

> <Gold.Chemscore.Internal_Hbond>
0.0000

> <Gold.Chemscore.DEClash>
0.1481

> <Gold.Chemscore.DEInternal>
1.6593

> <Gold.Chemscore.Rot>
1.9617

> <Gold.Chemscore.Internal.Correction>
   9.000000E+99

> <Gold.Chemscore.Hbonds>
donor molecule, donor type, donor heavy atom, donor atom, acceptor molecule, acceptor atom, score
      L1  H    18    37       P1 10175  0.98
      P1  H  7989  7998       L1    10  0.99
      P1  H  7997  8008       L1     3  0.44

> <Gold.Chemscore.Hbond.Weighted>
-9.4524

> <Gold.Chemscore.Metal.Weighted>
-0.0000

> <Gold.Chemscore.Lipo.Weighted>
-8.0138

> <Gold.Chemscore.Internal_Hbond.Weighted>
0.0000

> <Gold.Chemscore.DEClash.Weighted>
0.1481

> <Gold.Chemscore.DEInternal.Weighted>
1.6593

> <Gold.Chemscore.Rot.Weighted>
5.0220

> <Gold.Chemscore.Internal.Correction.Weighted>
   9.000000E+99

> <Gold.Protein.RotatedTorsions>
[ 6907 6896 6895 6894 ] final -155.96 input  -60.11 | X-H torsion
[ 7974 7965 7964 7962 ] final  166.77 input  175.53 | X-H torsion
[ 8008 7997 7996 7995 ] final -123.99 input   59.86 | X-H torsion
[ 10167 10162 10161 10158 ] final   41.46 input  -65.29 | X-H torsion
[ 10718 10713 10712 10709 ] final   96.06 input   66.30 | X-H torsion
[ 10763 10752 10751 10750 ] final  132.16 input  -60.55 | X-H torsion
[ 11005 11000 10999 10996 ] final  -30.74 input  -57.11 | X-H torsion

> <Gold.Protein.ActiveResidues>
 VAL166  LYS551  ARG553  GLY616  TRP617  ASP618  TYR619  PRO620  LYS621  CYS622 
 ASP623  PHE694  ASN695  SER759  ASP760  ASP761  ALA762  ILE779  LEU786  VAL792 
 PHE793  MET794  SER795  GLU796  ALA797  LYS798  CYS799  TRP800  GLU811  SER814 

> <Gold.Protein.RotatedAtoms>
  151.2804  133.4212  159.2626 H   0  0  0  0  0  0  0  0  0  0  0  0  # atno 6907 bound_to 6896
  151.0365  134.9577  159.8149 H   0  0  0  0  0  0  0  0  0  0  0  0  # atno 6908 bound_to 6896
  152.5356  134.2764  159.9043 H   0  0  0  0  0  0  0  0  0  0  0  0  # atno 6909 bound_to 6896
  144.7450  139.8663  143.6385 H   0  0  0  0  0  0  0  0  0  0  0  0  # atno 7974 bound_to 7965
  155.1896  140.0413  157.2897 H   0  0  0  0  0  0  0  0  0  0  0  0  # atno 8008 bound_to 7997
  154.6148  140.2486  155.7595 H   0  0  0  0  0  0  0  0  0  0  0  0  # atno 8009 bound_to 7997
  156.2400  140.2907  156.0428 H   0  0  0  0  0  0  0  0  0  0  0  0  # atno 8010 bound_to 7997
  140.3641  144.2191  150.6136 H   0  0  0  0  0  0  0  0  0  0  0  0  # atno 10167 bound_to 10162
  157.6931  131.0566  150.4434 H   0  0  0  0  0  0  0  0  0  0  0  0  # atno 10718 bound_to 10713
  153.7862  135.3161  155.3372 H   0  0  0  0  0  0  0  0  0  0  0  0  # atno 10763 bound_to 10752
  154.8143  135.4647  154.0603 H   0  0  0  0  0  0  0  0  0  0  0  0  # atno 10764 bound_to 10752
  153.1907  135.6908  153.8442 H   0  0  0  0  0  0  0  0  0  0  0  0  # atno 10765 bound_to 10752
  140.9408  133.7280  156.1073 H   0  0  0  0  0  0  0  0  0  0  0  0  # atno 11005 bound_to 11000
  146.1312  139.4348  143.0167 LP  0  0  0  0  0  0  0  0  0  0  0  0  # atno 17320 bound_to 7965
  145.7160  141.0091  143.1428 LP  0  0  0  0  0  0  0  0  0  0  0  0  # atno 17321 bound_to 7965
  140.5098  143.2294  151.8552 LP  0  0  0  0  0  0  0  0  0  0  0  0  # atno 17342 bound_to 10162
  139.4811  144.4963  151.9120 LP  0  0  0  0  0  0  0  0  0  0  0  0  # atno 17343 bound_to 10162
  156.4791  130.4069  149.6472 LP  0  0  0  0  0  0  0  0  0  0  0  0  # atno 17370 bound_to 10713
  156.3525  130.7439  151.2400 LP  0  0  0  0  0  0  0  0  0  0  0  0  # atno 17371 bound_to 10713
  140.7736  134.3805  157.5502 LP  0  0  0  0  0  0  0  0  0  0  0  0  # atno 17394 bound_to 11000
  139.8820  134.9037  156.2862 LP  0  0  0  0  0  0  0  0  0  0  0  0  # atno 17395 bound_to 11000

$$$$
