AV-unprocessed.smi:2855|AV-procd|sdf|10982|dock8
  -GOLD-   2272015433D 1   1.00000     0.00000
 Structure written by MMmdl.
 47 48  0  0  0  0  0  0  0  0  1 V2000
  149.2205  141.0043  156.4590 C   0  0  0  0  0  0  0  0  0  0  0  0
  149.9331  140.5068  155.1889 C   0  0  1  0  0  0  0  0  0  0  0  0
  151.1490  139.6150  155.4984 C   0  0  0  0  0  0  0  0  0  0  0  0
  150.7417  138.2189  155.9971 C   0  0  0  0  0  0  0  0  0  0  0  0
  149.8026  137.4968  155.0017 C   0  0  1  0  0  0  0  0  0  0  0  0
  149.4499  136.0413  155.4348 C   0  0  0  0  0  0  0  0  0  0  0  0
  148.7519  135.9440  156.8040 C   0  0  0  0  0  0  0  0  0  0  0  0
  150.6660  135.1001  155.3784 C   0  0  0  0  0  0  0  0  0  0  0  0
  148.5635  138.3856  154.6980 C   0  0  2  0  0  0  0  0  0  0  0  0
  147.7215  137.7750  153.6704 N   0  0  0  0  0  0  0  0  0  0  0  0
  146.4046  137.5357  153.7686 C   0  0  0  0  0  0  0  0  0  0  0  0
  145.7273  137.8481  154.7487 O   0  0  0  0  0  0  0  0  0  0  0  0
  145.7525  136.8459  152.5630 C   0  0  0  0  0  0  0  0  0  0  0  0
  144.4107  136.3305  152.8691 N   0  0  0  0  0  0  0  0  0  0  0  0
  143.2919  137.1301  152.6833 C   0  0  0  0  0  0  0  0  0  0  0  0
  142.0306  136.7227  152.9606 C   0  0  0  0  0  0  0  0  0  0  0  0
  141.7848  135.3829  153.4833 C   0  0  0  0  0  0  0  0  0  0  0  0
  140.6802  134.9226  153.7636 O   0  0  0  0  0  0  0  0  0  0  0  0
  142.9357  134.6098  153.6579 N   0  0  0  0  0  0  0  0  0  0  0  0
  144.2384  135.0239  153.3764 C   0  0  0  0  0  0  0  0  0  0  0  0
  145.1854  134.2627  153.5724 O   0  0  0  0  0  0  0  0  0  0  0  0
  148.9798  139.7904  154.2142 C   0  0  0  0  0  0  0  0  0  0  0  0
  142.8151  133.6753  154.0204 H   0  0  0  0  0  0  0  0  0  0  0  0
  148.8039  140.1861  157.0459 H   0  0  0  0  0  0  0  0  0  0  0  0
  148.4015  141.6785  156.2075 H   0  0  0  0  0  0  0  0  0  0  0  0
  149.9087  141.5529  157.1026 H   0  0  0  0  0  0  0  0  0  0  0  0
  150.3064  141.3972  154.6811 H   0  0  0  0  0  0  0  0  0  0  0  0
  151.7498  139.5052  154.5949 H   0  0  0  0  0  0  0  0  0  0  0  0
  151.7946  140.0995  156.2317 H   0  0  0  0  0  0  0  0  0  0  0  0
  151.6475  137.6358  156.1588 H   0  0  0  0  0  0  0  0  0  0  0  0
  150.2620  138.3103  156.9712 H   0  0  0  0  0  0  0  0  0  0  0  0
  150.3536  137.4096  154.0634 H   0  0  0  0  0  0  0  0  0  0  0  0
  148.7496  135.6401  154.7022 H   0  0  0  0  0  0  0  0  0  0  0  0
  149.4034  136.2694  157.6148 H   0  0  0  0  0  0  0  0  0  0  0  0
  148.4604  134.9149  157.0158 H   0  0  0  0  0  0  0  0  0  0  0  0
  147.8440  136.5447  156.8408 H   0  0  0  0  0  0  0  0  0  0  0  0
  151.4052  135.3423  156.1416 H   0  0  0  0  0  0  0  0  0  0  0  0
  151.1582  135.1470  154.4067 H   0  0  0  0  0  0  0  0  0  0  0  0
  150.3630  134.0651  155.5393 H   0  0  0  0  0  0  0  0  0  0  0  0
  147.9936  138.5111  155.6187 H   0  0  0  0  0  0  0  0  0  0  0  0
  148.1864  137.4888  152.8211 H   0  0  0  0  0  0  0  0  0  0  0  0
  145.7085  137.5661  151.7450 H   0  0  0  0  0  0  0  0  0  0  0  0
  146.3888  136.0356  152.2006 H   0  0  0  0  0  0  0  0  0  0  0  0
  143.4260  138.1326  152.3025 H   0  0  0  0  0  0  0  0  0  0  0  0
  141.1991  137.3927  152.7958 H   0  0  0  0  0  0  0  0  0  0  0  0
  148.0951  140.4055  154.0434 H   0  0  0  0  0  0  0  0  0  0  0  0
  149.4742  139.7017  153.2454 H   0  0  0  0  0  0  0  0  0  0  0  0
  1  2  1  0  0  0  0
  1 24  1  0  0  0  0
  1 25  1  0  0  0  0
  1 26  1  0  0  0  0
  2 22  1  0  0  0  0
  2  3  1  0  0  0  0
  2 27  1  0  0  0  0
  3  4  1  0  0  0  0
  3 28  1  0  0  0  0
  3 29  1  0  0  0  0
  4  5  1  0  0  0  0
  4 30  1  0  0  0  0
  4 31  1  0  0  0  0
  5  6  1  0  0  0  0
  5  9  1  0  0  0  0
  5 32  1  0  0  0  0
  6  7  1  0  0  0  0
  6  8  1  0  0  0  0
  6 33  1  0  0  0  0
  7 34  1  0  0  0  0
  7 35  1  0  0  0  0
  7 36  1  0  0  0  0
  8 37  1  0  0  0  0
  8 38  1  0  0  0  0
  8 39  1  0  0  0  0
  9 10  1  0  0  0  0
  9 22  1  0  0  0  0
  9 40  1  0  0  0  0
 10 11  1  0  0  0  0
 10 41  1  0  0  0  0
 11 12  2  0  0  0  0
 11 13  1  0  0  0  0
 13 14  1  0  0  0  0
 13 42  1  0  0  0  0
 13 43  1  0  0  0  0
 14 20  1  0  0  0  0
 14 15  1  0  0  0  0
 15 16  2  0  0  0  0
 15 44  1  0  0  0  0
 16 17  1  0  0  0  0
 16 45  1  0  0  0  0
 17 18  2  0  0  0  0
 17 19  1  0  0  0  0
 19 23  1  0  0  0  0
 19 20  1  0  0  0  0
 20 21  2  0  0  0  0
 22 46  1  0  0  0  0
 22 47  1  0  0  0  0
M  END
> <s_m_source_file>
AV-unprocessed.smi

> <i_m_source_file_index>
2855

> <i_lp_mmshare_version>
43012

> <i_f3d_flags>
0

> <s_epik_input>
W0NIM11bQ0BASF0xW0NIMl1bQ0gyXVtDQEBIXShbQ0hdKFtDSDNdKVtDSDNdKVtDQEhdKFtDSDJdMSlbTkhdQyg9TylbQ0gyXW4yW2NIXVtjSF1jKD1PKVtuSF1jMj1P

> <s_epik_cmdline>
J2VwaWtfcHl0aG9uJywgJy1waCcsICc3LjAnLCAnLXRuJywgJzgnLCAnLW1hJywgJzIwMCcsICctbWV0YWxfYmluZGluZycsICctaW1hZScsICc8aW5maWxlLm1hZT4nLCAnLW9tYWUnLCAnPG91dGZpbGUubWFlPic=

> <r_lp_tautomer_probability>
0.999537

> <r_epik_Ionization_Penalty>
0.00306256

> <r_epik_Ionization_Penalty_Charging>
0.00306254

> <r_epik_Ionization_Penalty_Neutral>
2.0223e-08

> <r_epik_State_Penalty>
0.0021533

> <r_epik_Charging_Adjusted_Penalty>
0.00521583

> <i_epik_Tot_Q>
0

> <i_epik_Tot_abs_Q>
0

> <r_epik_Metal_State_Penalty>
0.362116

> <b_epik_Metal_Only>
0

> <s_lp_Force_Field>
OPLS_2005

> <r_lp_Energy>
15.8562

> <b_lp_Chiralities_Consistent>
1

> <s_lp_Variant>
AV-unprocessed.smi:2855-6

> <Gold.Version>
5.8.1

> <Gold.Id.Protein>
6NUR|6NUR_protein|mol2

> <Gold.PLP.Fitness>
41.9331

> <Gold.PLP.PLP>
-28.4773

> <Gold.PLP.part.hbond>
-4.0000

> <Gold.PLP.part.metal>
0.0000

> <Gold.PLP.part.buried>
-3.2490

> <Gold.PLP.part.nonpolar>
-21.4184

> <Gold.PLP.part.repulsive>
0.3885

> <Gold.PLP.ligand.clash>
0.0000

> <Gold.PLP.ligand.torsion>
0.6999

> <Gold.PLP.Chemscore.Hbond>
2.9920

> <Gold.PLP.Chemscore.CHOScore>
1.9389

> <Gold.PLP.Chemscore.Metal>
0.0000

> <Gold.Chemscore.Hbonds>
donor molecule, donor type, donor heavy atom, donor atom, acceptor molecule, acceptor atom, score
      L1  H    10    41       P1  7948  1.00
      L1  H    19    23       P1 10957  0.93
      P1  H 11000 11005       L1    18  0.76
      L1  C    15    44       P1 10171  0.80
      L1  C    15    44       P1 10175  1.00

> <Gold.PLP.Chemscore.Internal.Correction>
0.0628

> <Gold.Rescore>
     Score         DG    S(hbond)    S(metal)    S(lipo)     H(rot)  DE(clash)    DE(int)     intcor
     16.66     -17.47       2.97        0.00      58.22       1.85       0.12       0.69       ----

> <Gold.Chemscore.Fitness>
16.6623

> <Gold.Chemscore.DG>
-17.4728

> <Gold.Chemscore.ZeroCoef>
-5.4800

> <Gold.Chemscore.Hbond>
2.9722

> <Gold.Chemscore.Metal>
0.0000

> <Gold.Chemscore.Lipo>
58.2185

> <Gold.Chemscore.Internal_Hbond>
0.0000

> <Gold.Chemscore.DEClash>
0.1224

> <Gold.Chemscore.DEInternal>
0.6882

> <Gold.Chemscore.Rot>
1.8539

> <Gold.Chemscore.Internal.Correction>
   9.000000E+99

> <Gold.Chemscore.Hbonds>
donor molecule, donor type, donor heavy atom, donor atom, acceptor molecule, acceptor atom, score
      L1  H    10    41       P1  7948  0.95
      L1  H    19    23       P1 10957  0.89
      P1  H 11000 11005       L1    18  0.68

> <Gold.Chemscore.Hbond.Weighted>
-9.9273

> <Gold.Chemscore.Metal.Weighted>
-0.0000

> <Gold.Chemscore.Lipo.Weighted>
-6.8116

> <Gold.Chemscore.Internal_Hbond.Weighted>
0.0000

> <Gold.Chemscore.DEClash.Weighted>
0.1224

> <Gold.Chemscore.DEInternal.Weighted>
0.6882

> <Gold.Chemscore.Rot.Weighted>
4.7460

> <Gold.Chemscore.Internal.Correction.Weighted>
   9.000000E+99

> <Gold.Protein.RotatedTorsions>
[ 6907 6896 6895 6894 ] final   70.21 input  -60.11 | X-H torsion
[ 7974 7965 7964 7962 ] final  -52.16 input  175.53 | X-H torsion
[ 8008 7997 7996 7995 ] final  167.23 input   59.86 | X-H torsion
[ 10167 10162 10161 10158 ] final  -53.08 input  -65.29 | X-H torsion
[ 10718 10713 10712 10709 ] final  133.00 input   66.30 | X-H torsion
[ 10763 10752 10751 10750 ] final   44.92 input  -60.55 | X-H torsion
[ 11005 11000 10999 10996 ] final   11.66 input  -57.11 | X-H torsion

> <Gold.Protein.ActiveResidues>
 VAL166  LYS551  ARG553  GLY616  TRP617  ASP618  TYR619  PRO620  LYS621  CYS622 
 ASP623  PHE694  ASN695  SER759  ASP760  ASP761  ALA762  ILE779  LEU786  VAL792 
 PHE793  MET794  SER795  GLU796  ALA797  LYS798  CYS799  TRP800  GLU811  SER814 

> <Gold.Protein.RotatedAtoms>
  152.4735  134.4901  159.9692 H   0  0  0  0  0  0  0  0  0  0  0  0  # atno 6907 bound_to 6896
  151.4923  133.3516  159.2863 H   0  0  0  0  0  0  0  0  0  0  0  0  # atno 6908 bound_to 6896
  150.8759  134.8169  159.7251 H   0  0  0  0  0  0  0  0  0  0  0  0  # atno 6909 bound_to 6896
  145.9110  140.7915  142.9695 H   0  0  0  0  0  0  0  0  0  0  0  0  # atno 7974 bound_to 7965
  156.1651  140.1622  156.8545 H   0  0  0  0  0  0  0  0  0  0  0  0  # atno 8008 bound_to 7997
  154.5199  140.0780  156.8188 H   0  0  0  0  0  0  0  0  0  0  0  0  # atno 8009 bound_to 7997
  155.3628  140.3396  155.4243 H   0  0  0  0  0  0  0  0  0  0  0  0  # atno 8010 bound_to 7997
  140.6504  143.2562  151.4740 H   0  0  0  0  0  0  0  0  0  0  0  0  # atno 10167 bound_to 10162
  157.4816  131.1086  150.9674 H   0  0  0  0  0  0  0  0  0  0  0  0  # atno 10718 bound_to 10713
  152.9833  135.6055  154.3352 H   0  0  0  0  0  0  0  0  0  0  0  0  # atno 10763 bound_to 10752
  154.3053  135.2772  155.2593 H   0  0  0  0  0  0  0  0  0  0  0  0  # atno 10764 bound_to 10752
  154.4827  135.5913  153.6457 H   0  0  0  0  0  0  0  0  0  0  0  0  # atno 10765 bound_to 10752
  140.5007  134.0748  155.7793 H   0  0  0  0  0  0  0  0  0  0  0  0  # atno 11005 bound_to 11000
  144.6743  140.1825  143.7404 LP  0  0  0  0  0  0  0  0  0  0  0  0  # atno 17320 bound_to 7965
  145.8672  139.2253  143.1682 LP  0  0  0  0  0  0  0  0  0  0  0  0  # atno 17321 bound_to 7965
  139.5718  144.1910  152.1847 LP  0  0  0  0  0  0  0  0  0  0  0  0  # atno 17342 bound_to 10162
  140.1209  144.5374  150.6864 LP  0  0  0  0  0  0  0  0  0  0  0  0  # atno 17343 bound_to 10162
  157.0405  130.5747  149.5355 LP  0  0  0  0  0  0  0  0  0  0  0  0  # atno 17370 bound_to 10713
  156.0125  130.5217  150.8032 LP  0  0  0  0  0  0  0  0  0  0  0  0  # atno 17371 bound_to 10713
  141.1437  133.9094  157.2267 LP  0  0  0  0  0  0  0  0  0  0  0  0  # atno 17394 bound_to 11000
  139.9715  135.0127  156.9523 LP  0  0  0  0  0  0  0  0  0  0  0  0  # atno 17395 bound_to 11000

$$$$
