AV-unprocessed.smi:199|AV-procd|sdf|1566|dock9
  -GOLD-   2262019443D 1   1.00000     0.00000
 Structure written by MMmdl.
 51 55  0  0  0  0  0  0  0  0  1 V2000
  148.6332  141.0623  154.7001 C   0  0  0  0  0  0  0  0  0  0  0  0
  149.1106  140.3650  155.9845 C   0  0  2  0  0  0  0  0  0  0  0  0
  149.5448  141.3244  156.9481 O   0  0  0  0  0  0  0  0  0  0  0  0
  150.8908  141.0673  157.3218 C   0  0  0  0  0  0  0  0  0  0  0  0
  151.0645  139.5716  157.0955 C   0  0  0  0  0  0  0  0  0  0  0  0
  150.2527  139.3330  155.8295 C   0  0  2  0  0  0  0  0  0  0  0  0
  151.0702  139.6446  154.7122 O   0  0  0  0  0  0  0  0  0  0  0  0
  149.7417  137.8810  155.6731 C   0  0  0  0  0  0  0  0  0  0  0  0
  149.3981  137.2519  156.9390 N   0  0  0  0  0  0  0  0  0  0  0  0
  150.0803  136.2345  157.5643 C   0  0  0  0  0  0  0  0  0  0  0  0
  149.5625  135.8318  158.6913 N   0  0  0  0  0  0  0  0  0  0  0  0
  148.4447  136.6398  158.8716 C   0  0  0  0  0  0  0  0  0  0  0  0
  147.4338  136.7501  159.8738 C   0  0  0  0  0  0  0  0  0  0  0  0
  147.3479  135.9785  160.9935 N   0  0  0  0  0  0  0  0  0  0  0  0
  147.4352  136.5404  162.3333 C   0  0  2  0  0  0  0  0  0  0  0  0
  147.4775  135.2805  163.2157 C   0  0  0  0  0  0  0  0  0  0  0  0
  146.5673  134.3285  162.4269 C   0  0  0  0  0  0  0  0  0  0  0  0
  146.1257  135.2311  161.2601 C   0  0  1  0  0  0  0  0  0  0  0  0
  145.1369  136.3335  161.7263 C   0  0  1  0  0  0  0  0  0  0  0  0
  143.8737  135.8794  162.4816 C   0  0  0  0  0  0  0  0  0  0  0  0
  143.0076  136.9740  162.6912 O   0  0  0  0  0  0  0  0  0  0  0  0
  146.0777  137.2443  162.5370 C   0  0  0  0  0  0  0  0  0  0  0  0
  146.4673  137.6854  159.6774 N   0  0  0  0  0  0  0  0  0  0  0  0
  146.4861  138.4696  158.5969 C   0  0  0  0  0  0  0  0  0  0  0  0
  147.3637  138.4834  157.5935 N   0  0  0  0  0  0  0  0  0  0  0  0
  148.3324  137.5415  157.7728 C   0  0  0  0  0  0  0  0  0  0  0  0
  148.3091  140.3340  153.9562 H   0  0  0  0  0  0  0  0  0  0  0  0
  149.4206  141.6723  154.2562 H   0  0  0  0  0  0  0  0  0  0  0  0
  147.7898  141.7203  154.9093 H   0  0  0  0  0  0  0  0  0  0  0  0
  148.2503  139.8715  156.4384 H   0  0  0  0  0  0  0  0  0  0  0  0
  151.5568  141.6358  156.6714 H   0  0  0  0  0  0  0  0  0  0  0  0
  151.0849  141.3634  158.3529 H   0  0  0  0  0  0  0  0  0  0  0  0
  152.1097  139.2697  157.0133 H   0  0  0  0  0  0  0  0  0  0  0  0
  150.6237  139.0301  157.9339 H   0  0  0  0  0  0  0  0  0  0  0  0
  151.2346  138.8492  154.2289 H   0  0  0  0  0  0  0  0  0  0  0  0
  148.8543  137.8597  155.0389 H   0  0  0  0  0  0  0  0  0  0  0  0
  150.4907  137.2679  155.1697 H   0  0  0  0  0  0  0  0  0  0  0  0
  150.9750  135.7913  157.1519 H   0  0  0  0  0  0  0  0  0  0  0  0
  148.2938  137.1828  162.5210 H   0  0  0  0  0  0  0  0  0  0  0  0
  148.4897  134.8787  163.2773 H   0  0  0  0  0  0  0  0  0  0  0  0
  147.1232  135.4640  164.2306 H   0  0  0  0  0  0  0  0  0  0  0  0
  147.1450  133.4831  162.0508 H   0  0  0  0  0  0  0  0  0  0  0  0
  145.7450  133.9239  163.0147 H   0  0  0  0  0  0  0  0  0  0  0  0
  145.7519  134.6528  160.4144 H   0  0  0  0  0  0  0  0  0  0  0  0
  144.8086  136.8883  160.8453 H   0  0  0  0  0  0  0  0  0  0  0  0
  143.3433  135.0860  161.9563 H   0  0  0  0  0  0  0  0  0  0  0  0
  144.1524  135.4731  163.4542 H   0  0  0  0  0  0  0  0  0  0  0  0
  142.1391  136.7274  162.4115 H   0  0  0  0  0  0  0  0  0  0  0  0
  145.8058  137.3218  163.5903 H   0  0  0  0  0  0  0  0  0  0  0  0
  146.0881  138.2522  162.1201 H   0  0  0  0  0  0  0  0  0  0  0  0
  145.6816  139.1866  158.5254 H   0  0  0  0  0  0  0  0  0  0  0  0
  1  2  1  0  0  0  0
  1 27  1  0  0  0  0
  1 28  1  0  0  0  0
  1 29  1  0  0  0  0
  2  6  1  0  0  0  0
  2  3  1  0  0  0  0
  2 30  1  0  0  0  0
  3  4  1  0  0  0  0
  4  5  1  0  0  0  0
  4 31  1  0  0  0  0
  4 32  1  0  0  0  0
  5  6  1  0  0  0  0
  5 33  1  0  0  0  0
  5 34  1  0  0  0  0
  6  7  1  0  0  0  0
  6  8  1  0  0  0  0
  7 35  1  0  0  0  0
  8  9  1  0  0  0  0
  8 36  1  0  0  0  0
  8 37  1  0  0  0  0
  9 26  1  0  0  0  0
  9 10  1  0  0  0  0
 10 11  2  0  0  0  0
 10 38  1  0  0  0  0
 11 12  1  0  0  0  0
 12 26  2  0  0  0  0
 12 13  1  0  0  0  0
 13 14  1  0  0  0  0
 13 23  2  0  0  0  0
 14 18  1  0  0  0  0
 14 15  1  0  0  0  0
 15 22  1  0  0  0  0
 15 16  1  0  0  0  0
 15 39  1  0  0  0  0
 16 17  1  0  0  0  0
 16 40  1  0  0  0  0
 16 41  1  0  0  0  0
 17 18  1  0  0  0  0
 17 42  1  0  0  0  0
 17 43  1  0  0  0  0
 18 19  1  0  0  0  0
 18 44  1  0  0  0  0
 19 20  1  0  0  0  0
 19 22  1  0  0  0  0
 19 45  1  0  0  0  0
 20 21  1  0  0  0  0
 20 46  1  0  0  0  0
 20 47  1  0  0  0  0
 21 48  1  0  0  0  0
 22 49  1  0  0  0  0
 22 50  1  0  0  0  0
 23 24  1  0  0  0  0
 24 25  2  0  0  0  0
 24 51  1  0  0  0  0
 25 26  1  0  0  0  0
M  END
> <s_m_source_file>
AV-unprocessed.smi

> <i_m_source_file_index>
199

> <i_lp_mmshare_version>
43012

> <i_f3d_flags>
0

> <s_epik_input>
W0NIMl0xW0NIMl1PW0NAQEhdKFtDSDNdKVtDQEBdMShbT0hdKVtDSDJdbihbY0hdbjIpYyhjMjMpbltjSF1uYzNOKFtDQEBIXTQ1KVtDQEhdKFtDSDJdW0NIMl00KVtDQEhdKFtDSDJdNSlbQ0gyXVtPSF0=

> <s_epik_cmdline>
J2VwaWtfcHl0aG9uJywgJy1waCcsICc3LjAnLCAnLXRuJywgJzgnLCAnLW1hJywgJzIwMCcsICctbWV0YWxfYmluZGluZycsICctaW1hZScsICc8aW5maWxlLm1hZT4nLCAnLW9tYWUnLCAnPG91dGZpbGUubWFlPic=

> <r_lp_tautomer_probability>
1

> <r_epik_Ionization_Penalty>
0.00583903

> <r_epik_Ionization_Penalty_Charging>
0

> <r_epik_Ionization_Penalty_Neutral>
0.00583903

> <r_epik_State_Penalty>
-0

> <r_epik_Charging_Adjusted_Penalty>
0

> <i_epik_Tot_Q>
0

> <i_epik_Tot_abs_Q>
0

> <r_epik_Metal_State_Penalty>
-0

> <b_epik_Metal_Only>
0

> <s_lp_Force_Field>
OPLS_2005

> <r_lp_Energy>
84.6661

> <b_lp_Chiralities_Consistent>
1

> <s_lp_Variant>
AV-unprocessed.smi:199-7

> <Gold.Version>
5.8.1

> <Gold.Id.Protein>
6NUR|6NUR_protein|mol2

> <Gold.PLP.Fitness>
41.9526

> <Gold.PLP.PLP>
-34.3270

> <Gold.PLP.part.hbond>
-4.0000

> <Gold.PLP.part.metal>
0.0000

> <Gold.PLP.part.buried>
-4.3378

> <Gold.PLP.part.nonpolar>
-26.5811

> <Gold.PLP.part.repulsive>
0.0633

> <Gold.PLP.ligand.clash>
0.0000

> <Gold.PLP.ligand.torsion>
0.5435

> <Gold.PLP.Chemscore.Hbond>
2.8960

> <Gold.PLP.Chemscore.CHOScore>
0.0000

> <Gold.PLP.Chemscore.Metal>
0.0000

> <Gold.Chemscore.Hbonds>
donor molecule, donor type, donor heavy atom, donor atom, acceptor molecule, acceptor atom, score
      P1  H  6896  6908       L1    11  1.00
      P1  H  6934  6947       L1    23  0.65
      P1  H  7989  7998       L1     7  0.95

> <Gold.PLP.Chemscore.Internal.Correction>
0.0245

> <Gold.Rescore>
     Score         DG    S(hbond)    S(metal)    S(lipo)     H(rot)  DE(clash)    DE(int)     intcor
     11.06     -14.21       1.98        0.00      85.24       3.07       0.12       3.03       ----

> <Gold.Chemscore.Fitness>
11.0587

> <Gold.Chemscore.DG>
-14.2086

> <Gold.Chemscore.ZeroCoef>
-5.4800

> <Gold.Chemscore.Hbond>
1.9828

> <Gold.Chemscore.Metal>
0.0000

> <Gold.Chemscore.Lipo>
85.2373

> <Gold.Chemscore.Internal_Hbond>
0.0000

> <Gold.Chemscore.DEClash>
0.1199

> <Gold.Chemscore.DEInternal>
3.0300

> <Gold.Chemscore.Rot>
3.0729

> <Gold.Chemscore.Internal.Correction>
   9.000000E+99

> <Gold.Chemscore.Hbonds>
donor molecule, donor type, donor heavy atom, donor atom, acceptor molecule, acceptor atom, score
      P1  H  6896  6908       L1    11  0.74
      P1  H  6934  6947       L1    23  0.02
      P1  H  7989  7998       L1     7  0.22

> <Gold.Chemscore.Hbond.Weighted>
-6.6225

> <Gold.Chemscore.Metal.Weighted>
-0.0000

> <Gold.Chemscore.Lipo.Weighted>
-9.9728

> <Gold.Chemscore.Internal_Hbond.Weighted>
0.0000

> <Gold.Chemscore.DEClash.Weighted>
0.1199

> <Gold.Chemscore.DEInternal.Weighted>
3.0300

> <Gold.Chemscore.Rot.Weighted>
7.8667

> <Gold.Chemscore.Internal.Correction.Weighted>
   9.000000E+99

> <Gold.Protein.RotatedTorsions>
[ 6907 6896 6895 6894 ] final -169.93 input  -60.11 | X-H torsion
[ 7974 7965 7964 7962 ] final  -74.47 input  175.53 | X-H torsion
[ 8008 7997 7996 7995 ] final  148.42 input   59.86 | X-H torsion
[ 10167 10162 10161 10158 ] final -178.30 input  -65.29 | X-H torsion
[ 10718 10713 10712 10709 ] final   -0.18 input   66.30 | X-H torsion
[ 10763 10752 10751 10750 ] final   47.41 input  -60.55 | X-H torsion
[ 11005 11000 10999 10996 ] final  114.44 input  -57.11 | X-H torsion

> <Gold.Protein.ActiveResidues>
 VAL166  LYS551  ARG553  GLY616  TRP617  ASP618  TYR619  PRO620  LYS621  CYS622 
 ASP623  PHE694  ASN695  SER759  ASP760  ASP761  ALA762  ILE779  LEU786  VAL792 
 PHE793  MET794  SER795  GLU796  ALA797  LYS798  CYS799  TRP800  GLU811  SER814 

> <Gold.Protein.RotatedAtoms>
  151.4995  133.3507  159.2866 H   0  0  0  0  0  0  0  0  0  0  0  0  # atno 6907 bound_to 6896
  150.8782  134.8171  159.7216 H   0  0  0  0  0  0  0  0  0  0  0  0  # atno 6908 bound_to 6896
  152.4745  134.4889  159.9741 H   0  0  0  0  0  0  0  0  0  0  0  0  # atno 6909 bound_to 6896
  145.6387  140.9317  143.1047 H   0  0  0  0  0  0  0  0  0  0  0  0  # atno 7974 bound_to 7965
  156.2792  140.2129  156.5695 H   0  0  0  0  0  0  0  0  0  0  0  0  # atno 8008 bound_to 7997
  154.7147  140.0509  157.0606 H   0  0  0  0  0  0  0  0  0  0  0  0  # atno 8009 bound_to 7997
  155.0558  140.3161  155.4679 H   0  0  0  0  0  0  0  0  0  0  0  0  # atno 8010 bound_to 7997
  139.5439  144.2289  152.0949 H   0  0  0  0  0  0  0  0  0  0  0  0  # atno 10167 bound_to 10162
  156.8243  130.5467  149.5694 H   0  0  0  0  0  0  0  0  0  0  0  0  # atno 10718 bound_to 10713
  152.9800  135.5977  154.3759 H   0  0  0  0  0  0  0  0  0  0  0  0  # atno 10763 bound_to 10752
  154.3428  135.2767  155.2415 H   0  0  0  0  0  0  0  0  0  0  0  0  # atno 10764 bound_to 10752
  154.4489  135.5994  153.6234 H   0  0  0  0  0  0  0  0  0  0  0  0  # atno 10765 bound_to 10752
  139.8980  134.9568  156.6892 H   0  0  0  0  0  0  0  0  0  0  0  0  # atno 11005 bound_to 11000
  144.7166  139.8177  143.7396 LP  0  0  0  0  0  0  0  0  0  0  0  0  # atno 17320 bound_to 7965
  146.1298  139.4331  143.0176 LP  0  0  0  0  0  0  0  0  0  0  0  0  # atno 17321 bound_to 7965
  140.1772  144.4879  150.6547 LP  0  0  0  0  0  0  0  0  0  0  0  0  # atno 17342 bound_to 10162
  140.6679  143.2275  151.5697 LP  0  0  0  0  0  0  0  0  0  0  0  0  # atno 17343 bound_to 10162
  156.0971  130.5940  150.9831 LP  0  0  0  0  0  0  0  0  0  0  0  0  # atno 17370 bound_to 10713
  157.6440  131.0906  150.8191 LP  0  0  0  0  0  0  0  0  0  0  0  0  # atno 17371 bound_to 10713
  140.7238  133.9117  155.8165 LP  0  0  0  0  0  0  0  0  0  0  0  0  # atno 17394 bound_to 11000
  141.0206  134.0894  157.4124 LP  0  0  0  0  0  0  0  0  0  0  0  0  # atno 17395 bound_to 11000

$$$$
