#       Name:                AV-unprocessed.smi:1150
#       Creating user name   scv26
#       Creation time:       Fri Mar 27 03:46:57 2020


#       File generated by GOLD software.
#

@<TRIPOS>MOLECULE
AV-unprocessed.smi:1150
    53    54     1
SMALL
NO_CHARGES


@<TRIPOS>ATOM
      1 ****        -1.5855   0.6138   2.0064 C.3            1 S1                 0.0000
      2 ****        -1.9325  -0.3324   0.8450 C.3            1 S1                 0.0000
      3 ****        -1.3118   0.0708  -0.5143 C.3            1 S1                 0.0000
      4 ****         0.1356   0.2048  -0.3420 N.am           1 S1                 0.0000
      5 ****         0.8627   1.3130  -0.5605 C.2            1 S1                 0.0000
      6 ****         0.4009   2.3552  -1.0240 O.2            1 S1                 0.0000
      7 ****         2.3404   1.2348  -0.1792 C.3            1 S1                 0.0000
      8 ****         2.4650   1.1756   1.3232 C.2            1 S1                 0.0000
      9 ****         2.4534   2.2722   2.2348 C.2            1 S1                 0.0000
     10 ****         2.3201   3.7360   1.9258 C.3            1 S1                 0.0000
     11 ****         2.5615   1.8832   3.4941 N.2            1 S1                 0.0000
     12 ****         2.6417   0.5392   3.4336 N.pl3          1 S1                 0.0000
     13 ****         2.7692  -0.2194   4.6626 C.3            1 S1                 0.0000
     14 ****         2.5879   0.0775   2.1328 C.2            1 S1                 0.0000
     15 ****         2.6494  -1.3794   1.8036 C.3            1 S1                 0.0000
     16 ****        -1.6277  -0.9288  -1.6644 C.3            1 S1                 0.0000
     17 ****        -0.9176  -0.5444  -2.9881 C.3            1 S1                 0.0000
     18 ****        -1.2320  -1.5238  -4.1300 C.3            1 S1                 0.0000
     19 ****        -2.7432  -1.6397  -4.3629 C.3            1 S1                 0.0000
     20 ****        -3.4596  -2.0476  -3.0698 C.3            1 S1                 0.0000
     21 ****        -3.1480  -1.0714  -1.9235 C.3            1 S1                 0.0000
     22 ****        -2.1237   0.3279   2.9102 H              1 S1                 0.0000
     23 ****        -1.8574   1.6427   1.7698 H              1 S1                 0.0000
     24 ****        -0.5214   0.5939   2.2433 H              1 S1                 0.0000
     25 ****        -1.6218  -1.3448   1.1061 H              1 S1                 0.0000
     26 ****        -3.0182  -0.3570   0.7641 H              1 S1                 0.0000
     27 ****        -1.7369   1.0377  -0.7895 H              1 S1                 0.0000
     28 ****         0.6168  -0.5980   0.0366 H              1 S1                 0.0000
     29 ****         2.7869   0.3641  -0.6600 H              1 S1                 0.0000
     30 ****         2.8620   2.1016  -0.5863 H              1 S1                 0.0000
     31 ****         1.2804   3.9962   1.7271 H              1 S1                 0.0000
     32 ****         2.9034   4.0068   1.0459 H              1 S1                 0.0000
     33 ****         2.6669   4.3562   2.7530 H              1 S1                 0.0000
     34 ****         2.0706  -1.0562   4.6554 H              1 S1                 0.0000
     35 ****         2.5512   0.4094   5.5271 H              1 S1                 0.0000
     36 ****         3.7855  -0.6035   4.7501 H              1 S1                 0.0000
     37 ****         2.5855  -1.5484   0.7292 H              1 S1                 0.0000
     38 ****         1.8251  -1.9169   2.2723 H              1 S1                 0.0000
     39 ****         3.5840  -1.8164   2.1557 H              1 S1                 0.0000
     40 ****        -1.2511  -1.9084  -1.3649 H              1 S1                 0.0000
     41 ****        -1.2139   0.4635  -3.2822 H              1 S1                 0.0000
     42 ****         0.1638  -0.5179  -2.8547 H              1 S1                 0.0000
     43 ****        -0.7403  -1.1956  -5.0463 H              1 S1                 0.0000
     44 ****        -0.8212  -2.5061  -3.8932 H              1 S1                 0.0000
     45 ****        -3.1351  -0.6846  -4.7153 H              1 S1                 0.0000
     46 ****        -2.9457  -2.3682  -5.1485 H              1 S1                 0.0000
     47 ****        -4.5360  -2.0880  -3.2395 H              1 S1                 0.0000
     48 ****        -3.1541  -3.0552  -2.7847 H              1 S1                 0.0000
     49 ****        -3.6602  -1.4313  -1.0325 H              1 S1                 0.0000
     50 ****        -3.5749  -0.0940  -2.1527 H              1 S1                 0.0000
     51 ****        -0.5689   2.4103  -1.2614 LP             1 S1                 0.0000
     52 ****         0.9955   3.1471  -1.1632 LP             1 S1                 0.0000
     53 ****         2.5797   2.4594   4.3113 LP             1 S1                 0.0000
@<TRIPOS>BOND
    1    1    2 1     
    2    1   22 1     
    3    1   23 1     
    4    1   24 1     
    5    2    3 1     
    6    2   25 1     
    7    2   26 1     
    8    3    4 1     
    9    3   16 1     
   10    3   27 1     
   11    4    5 am    
   12    4   28 1     
   13    5    6 2     
   14    5    7 1     
   15    7    8 1     
   16    7   29 1     
   17    7   30 1     
   18    8   14 2     
   19    8    9 1     
   20    9   10 1     
   21    9   11 2     
   22   10   31 1     
   23   10   32 1     
   24   10   33 1     
   25   11   12 1     
   26   12   13 1     
   27   12   14 1     
   28   13   34 1     
   29   13   35 1     
   30   13   36 1     
   31   14   15 1     
   32   15   37 1     
   33   15   38 1     
   34   15   39 1     
   35   16   21 1     
   36   16   17 1     
   37   16   40 1     
   38   17   18 1     
   39   17   41 1     
   40   17   42 1     
   41   18   19 1     
   42   18   43 1     
   43   18   44 1     
   44   19   20 1     
   45   19   45 1     
   46   19   46 1     
   47   20   21 1     
   48   20   47 1     
   49   20   48 1     
   50   21   49 1     
   51   21   50 1     
   52    6   51 1     
   53    6   52 1     
   54   11   53 1     
@<TRIPOS>SUBSTRUCTURE
      1 S1             1
@<TRIPOS>SET
LONE_PAIRS      STATIC     ATOMS    <user>   **** ""
3 51 52 53
DONOR_HYDROGENS      STATIC     ATOMS    <user>   **** ""
1 28
ATOM$BLUE        STATIC     ATOMS    COLORGROUP SYSTEM
3 51 52 53
ATOM$RED        STATIC     ATOMS    COLORGROUP SYSTEM
1 28
