#       Name:                AV-unprocessed.smi:115
#       Creating user name   scv26
#       Creation time:       Thu Mar 26 18:24:44 2020


#       File generated by GOLD software.
#

@<TRIPOS>MOLECULE
AV-unprocessed.smi:115
    65    67     1
SMALL
NO_CHARGES


@<TRIPOS>ATOM
      1 ****        -7.2704   2.7237  -0.9574 C.3            1 S1                 0.0000
      2 ****        -6.9298   1.3692  -0.7050 O.3            1 S1                 0.0000
      3 ****        -5.5872   1.1730  -0.2801 C.3            1 S1                 0.0000
      4 ****        -4.5978   1.1518  -1.4660 C.3            1 S1                 0.0000
      5 ****        -4.8778   0.0348  -2.4897 C.3            1 S1                 0.0000
      6 ****        -3.1994   1.1972  -1.0066 N.pl3          1 S1                 0.0000
      7 ****        -2.4355   2.3633  -0.9723 C.2            1 S1                 0.0000
      8 ****        -2.9512   3.7033  -1.3945 C.3            1 S1                 0.0000
      9 ****        -1.1960   2.0409  -0.5091 C.2            1 S1                 0.0000
     10 ****        -1.1678   0.6512  -0.2193 C.2            1 S1                 0.0000
     11 ****        -0.0190  -0.1508   0.2761 C.2            1 S1                 0.0000
     12 ****        -0.0133  -1.3824   0.3002 O.2            1 S1                 0.0000
     13 ****         1.2025   0.6562   0.7551 C.3            1 S1                 0.0000
     14 ****         2.2552  -0.1820   1.3174 N.am           1 S1                 0.0000
     15 ****         2.1993  -0.4697   2.7036 C.2            1 S1                 0.0000
     16 ****         1.2904  -0.0528   3.4238 O.2            1 S1                 0.0000
     17 ****         3.2983  -1.2926   3.1940 C.2            1 S1                 0.0000
     18 ****         3.3826  -1.5758   4.5050 F              1 S1                 0.0000
     19 ****         4.2464  -1.7627   2.3550 C.2            1 S1                 0.0000
     20 ****         4.2372  -1.5297   0.9888 N.am           1 S1                 0.0000
     21 ****         5.3662  -2.0001   0.0942 C.3            1 S1                 0.0000
     22 ****         6.0269  -3.3130   0.5498 C.3            1 S1                 0.0000
     23 ****         7.3423  -2.8305   1.1297 C.3            1 S1                 0.0000
     24 ****         7.6214  -1.5992   0.2770 C.3            1 S1                 0.0000
     25 ****         6.3437  -1.0028   0.0943 O.3            1 S1                 0.0000
     26 ****         3.2522  -0.6758   0.4408 C.2            1 S1                 0.0000
     27 ****         3.2588  -0.3867  -0.7582 O.2            1 S1                 0.0000
     28 ****        -2.4209   0.1480  -0.4921 C.2            1 S1                 0.0000
     29 ****        -2.9547  -1.2466  -0.3129 C.3            1 S1                 0.0000
     30 ****        -8.3230   2.7853  -1.2333 H              1 S1                 0.0000
     31 ****        -6.6902   3.1471  -1.7766 H              1 S1                 0.0000
     32 ****        -7.1233   3.3399  -0.0698 H              1 S1                 0.0000
     33 ****        -5.3070   1.9383   0.4458 H              1 S1                 0.0000
     34 ****        -5.5578   0.2279   0.2577 H              1 S1                 0.0000
     35 ****        -4.7645   2.0624  -2.0350 H              1 S1                 0.0000
     36 ****        -5.8212   0.2210  -3.0037 H              1 S1                 0.0000
     37 ****        -4.9634  -0.9510  -2.0381 H              1 S1                 0.0000
     38 ****        -4.0979  -0.0066  -3.2506 H              1 S1                 0.0000
     39 ****        -2.2229   4.4848  -1.1764 H              1 S1                 0.0000
     40 ****        -3.8717   3.9551  -0.8670 H              1 S1                 0.0000
     41 ****        -3.1493   3.7260  -2.4665 H              1 S1                 0.0000
     42 ****        -0.3833   2.7431  -0.3948 H              1 S1                 0.0000
     43 ****         1.6305   1.2397  -0.0612 H              1 S1                 0.0000
     44 ****         0.9147   1.3882   1.5114 H              1 S1                 0.0000
     45 ****         5.0433  -2.3422   2.7924 H              1 S1                 0.0000
     46 ****         4.9361  -2.1230  -0.9008 H              1 S1                 0.0000
     47 ****         5.4094  -3.8983   1.2308 H              1 S1                 0.0000
     48 ****         6.2162  -3.9208  -0.3360 H              1 S1                 0.0000
     49 ****         7.2234  -2.5438   2.1747 H              1 S1                 0.0000
     50 ****         8.1341  -3.5775   1.0699 H              1 S1                 0.0000
     51 ****         8.3228  -0.9096   0.7467 H              1 S1                 0.0000
     52 ****         8.0232  -1.8884  -0.6952 H              1 S1                 0.0000
     53 ****        -2.4665  -1.7602   0.5136 H              1 S1                 0.0000
     54 ****        -2.8011  -1.8394  -1.2146 H              1 S1                 0.0000
     55 ****        -4.0124  -1.2591  -0.0675 H              1 S1                 0.0000
     56 ****        -7.0711   0.8486  -1.5470 LP             1 S1                 0.0000
     57 ****        -7.5381   1.0210   0.0083 LP             1 S1                 0.0000
     58 ****        -0.8098  -1.8925  -0.0244 LP             1 S1                 0.0000
     59 ****         0.7878  -1.8720   0.6445 LP             1 S1                 0.0000
     60 ****         0.5604   0.5083   3.0334 LP             1 S1                 0.0000
     61 ****         1.2828  -0.2755   4.3987 LP             1 S1                 0.0000
     62 ****         6.1653  -0.3599   0.8392 LP             1 S1                 0.0000
     63 ****         6.3240  -0.5153  -0.7786 LP             1 S1                 0.0000
     64 ****         2.5488   0.2097  -1.1326 LP             1 S1                 0.0000
     65 ****         3.9742  -0.7486  -1.3558 LP             1 S1                 0.0000
@<TRIPOS>BOND
    1    1    2 1     
    2    1   30 1     
    3    1   31 1     
    4    1   32 1     
    5    2    3 1     
    6    3    4 1     
    7    3   33 1     
    8    3   34 1     
    9    4    5 1     
   10    4    6 1     
   11    4   35 1     
   12    5   36 1     
   13    5   37 1     
   14    5   38 1     
   15    6   28 1     
   16    6    7 1     
   17    7    8 1     
   18    7    9 2     
   19    8   39 1     
   20    8   40 1     
   21    8   41 1     
   22    9   10 1     
   23    9   42 1     
   24   10   11 1     
   25   10   28 2     
   26   11   12 2     
   27   11   13 1     
   28   13   14 1     
   29   13   43 1     
   30   13   44 1     
   31   14   26 am    
   32   14   15 am    
   33   15   16 2     
   34   15   17 1     
   35   17   18 1     
   36   17   19 2     
   37   19   20 1     
   38   19   45 1     
   39   20   21 1     
   40   20   26 am    
   41   21   25 1     
   42   21   22 1     
   43   21   46 1     
   44   22   23 1     
   45   22   47 1     
   46   22   48 1     
   47   23   24 1     
   48   23   49 1     
   49   23   50 1     
   50   24   25 1     
   51   24   51 1     
   52   24   52 1     
   53   26   27 2     
   54   28   29 1     
   55   29   53 1     
   56   29   54 1     
   57   29   55 1     
   58    2   56 1     
   59    2   57 1     
   60   12   58 1     
   61   12   59 1     
   62   16   60 1     
   63   16   61 1     
   64   25   62 1     
   65   25   63 1     
   66   27   64 1     
   67   27   65 1     
@<TRIPOS>SUBSTRUCTURE
      1 S1             1
@<TRIPOS>SET
LONE_PAIRS      STATIC     ATOMS    <user>   **** ""
10 56 57 58 59 60 61 62 63 64 65
ATOM$BLUE        STATIC     ATOMS    COLORGROUP SYSTEM
10 56 57 58 59 60 61 62 63 64 65
