AV-unprocessed.smi:1884|AV-procd|sdf|7647|dock8
  -GOLD-   22720 9373D 1   1.00000     0.00000
 Structure written by MMmdl.
 40 42  0  0  0  0  0  0  0  0  1 V2000
  152.0401  138.1409  156.2795 C   0  0  0  0  0  0  0  0  0  0  0  0
  151.9079  139.4297  157.0269 C   0  0  0  0  0  0  0  0  0  0  0  0
  152.8962  139.9248  157.7721 N   0  0  0  0  0  0  0  0  0  0  0  0
  152.3504  141.0970  158.2591 C   0  0  0  0  0  0  0  0  0  0  0  0
  152.8986  142.0804  159.1133 C   0  0  0  0  0  0  0  0  0  0  0  0
  152.1386  143.2099  159.4818 C   0  0  0  0  0  0  0  0  0  0  0  0
  150.8224  143.3718  159.0031 C   0  0  0  0  0  0  0  0  0  0  0  0
  150.2570  142.4041  158.1507 C   0  0  0  0  0  0  0  0  0  0  0  0
  151.0201  141.2792  157.7850 C   0  0  0  0  0  0  0  0  0  0  0  0
  150.7718  140.1681  156.9846 N   0  0  0  0  0  0  0  0  0  0  0  0
  149.5422  139.8807  156.2591 C   0  0  0  0  0  0  0  0  0  0  0  0
  149.4558  140.6328  154.9152 C   0  0  1  0  0  0  0  0  0  0  0  0
  150.3866  140.1311  153.9766 O   0  0  0  0  0  0  0  0  0  0  0  0
  148.0512  140.6176  154.2899 C   0  0  0  0  0  0  0  0  0  0  0  0
  147.0984  141.1121  155.2235 O   0  0  0  0  0  0  0  0  0  0  0  0
  146.3297  142.1975  154.8629 C   0  0  0  0  0  0  0  0  0  0  0  0
  145.4239  142.6870  155.8262 C   0  0  0  0  0  0  0  0  0  0  0  0
  144.5982  143.7925  155.5450 C   0  0  0  0  0  0  0  0  0  0  0  0
  144.6706  144.4247  154.2882 C   0  0  0  0  0  0  0  0  0  0  0  0
  143.8200  145.5660  153.9946 C   0  0  0  0  0  0  0  0  0  0  0  0
  143.1429  146.4745  153.7606 N   0  0  0  0  0  0  0  0  0  0  0  0
  145.5719  143.9454  153.3171 C   0  0  0  0  0  0  0  0  0  0  0  0
  146.3973  142.8394  153.6005 C   0  0  0  0  0  0  0  0  0  0  0  0
  153.0046  137.6760  156.4871 H   0  0  0  0  0  0  0  0  0  0  0  0
  151.9693  138.3183  155.2063 H   0  0  0  0  0  0  0  0  0  0  0  0
  151.2549  137.4462  156.5771 H   0  0  0  0  0  0  0  0  0  0  0  0
  153.9058  141.9651  159.4858 H   0  0  0  0  0  0  0  0  0  0  0  0
  152.5675  143.9556  160.1349 H   0  0  0  0  0  0  0  0  0  0  0  0
  150.2465  144.2391  159.2911 H   0  0  0  0  0  0  0  0  0  0  0  0
  149.2479  142.5236  157.7847 H   0  0  0  0  0  0  0  0  0  0  0  0
  149.4842  138.8035  156.0991 H   0  0  0  0  0  0  0  0  0  0  0  0
  148.6911  140.1368  156.8902 H   0  0  0  0  0  0  0  0  0  0  0  0
  149.7307  141.6749  155.0798 H   0  0  0  0  0  0  0  0  0  0  0  0
  149.9364  139.9802  153.1593 H   0  0  0  0  0  0  0  0  0  0  0  0
  148.0527  141.2631  153.4101 H   0  0  0  0  0  0  0  0  0  0  0  0
  147.7939  139.6091  153.9613 H   0  0  0  0  0  0  0  0  0  0  0  0
  145.3607  142.2084  156.7925 H   0  0  0  0  0  0  0  0  0  0  0  0
  143.9114  144.1501  156.2991 H   0  0  0  0  0  0  0  0  0  0  0  0
  145.6362  144.4223  152.3496 H   0  0  0  0  0  0  0  0  0  0  0  0
  147.0746  142.5029  152.8307 H   0  0  0  0  0  0  0  0  0  0  0  0
  1  2  1  0  0  0  0
  1 24  1  0  0  0  0
  1 25  1  0  0  0  0
  1 26  1  0  0  0  0
  2 10  1  0  0  0  0
  2  3  2  0  0  0  0
  3  4  1  0  0  0  0
  4  9  2  0  0  0  0
  4  5  1  0  0  0  0
  5  6  2  0  0  0  0
  5 27  1  0  0  0  0
  6  7  1  0  0  0  0
  6 28  1  0  0  0  0
  7  8  2  0  0  0  0
  7 29  1  0  0  0  0
  8  9  1  0  0  0  0
  8 30  1  0  0  0  0
  9 10  1  0  0  0  0
 10 11  1  0  0  0  0
 11 12  1  0  0  0  0
 11 31  1  0  0  0  0
 11 32  1  0  0  0  0
 12 13  1  0  0  0  0
 12 14  1  0  0  0  0
 12 33  1  0  0  0  0
 13 34  1  0  0  0  0
 14 15  1  0  0  0  0
 14 35  1  0  0  0  0
 14 36  1  0  0  0  0
 15 16  1  0  0  0  0
 16 23  1  0  0  0  0
 16 17  2  0  0  0  0
 17 18  1  0  0  0  0
 17 37  1  0  0  0  0
 18 19  2  0  0  0  0
 18 38  1  0  0  0  0
 19 20  1  0  0  0  0
 19 22  1  0  0  0  0
 20 21  3  0  0  0  0
 22 23  2  0  0  0  0
 22 39  1  0  0  0  0
 23 40  1  0  0  0  0
M  END
> <s_m_source_file>
AV-unprocessed.smi

> <i_m_source_file_index>
1884

> <i_lp_mmshare_version>
43012

> <i_f3d_flags>
0

> <s_epik_input>
W2NIXTFbY0hdW2NIXVtjSF1jKGMxMiluKGMobjIpW0NIM10pW0NIMl1bQ0BIXShbT0hdKVtDSDJdT2MzW2NIXVtjSF1jKEMjTilbY0hdW2NIXTM=

> <s_epik_cmdline>
J2VwaWtfcHl0aG9uJywgJy1waCcsICc3LjAnLCAnLXRuJywgJzgnLCAnLW1hJywgJzIwMCcsICctbWV0YWxfYmluZGluZycsICctaW1hZScsICc8aW5maWxlLm1hZT4nLCAnLW9tYWUnLCAnPG91dGZpbGUubWFlPic=

> <r_epik_Ionization_Penalty>
0.110799

> <r_epik_Ionization_Penalty_Charging>
0

> <r_epik_Ionization_Penalty_Neutral>
0.110799

> <r_epik_State_Penalty>
0.100537

> <r_epik_Charging_Adjusted_Penalty>
0.100537

> <i_epik_Tot_Q>
0

> <i_epik_Tot_abs_Q>
0

> <r_epik_Metal_State_Penalty>
0.000109561

> <b_epik_Metal_Only>
0

> <s_lp_Force_Field>
OPLS_2005

> <r_lp_Energy>
15.8786

> <b_lp_Chiralities_Consistent>
1

> <s_lp_Variant>
AV-unprocessed.smi:1884-2

> <Gold.Version>
5.8.1

> <Gold.Id.Protein>
6NUR|6NUR_protein|mol2

> <Gold.PLP.Fitness>
51.7393

> <Gold.PLP.PLP>
-44.2245

> <Gold.PLP.part.hbond>
-4.7813

> <Gold.PLP.part.metal>
0.0000

> <Gold.PLP.part.buried>
-7.0043

> <Gold.PLP.part.nonpolar>
-32.1835

> <Gold.PLP.part.repulsive>
0.1512

> <Gold.PLP.ligand.clash>
0.0000

> <Gold.PLP.ligand.torsion>
0.7659

> <Gold.PLP.Chemscore.Hbond>
3.0000

> <Gold.PLP.Chemscore.CHOScore>
0.0000

> <Gold.PLP.Chemscore.Metal>
0.0000

> <Gold.Chemscore.Hbonds>
donor molecule, donor type, donor heavy atom, donor atom, acceptor molecule, acceptor atom, score
      L1  H    13    34       P1  7957  1.00
      P1  H  7989  7998       L1    13  0.95
      P1  H  7997  8008       L1     3  1.00

> <Gold.PLP.Chemscore.Internal.Correction>
0.0466

> <Gold.Rescore>
     Score         DG    S(hbond)    S(metal)    S(lipo)     H(rot)  DE(clash)    DE(int)     intcor
     18.67     -19.48       2.32        0.00     103.98       2.31       0.06       0.75       ----

> <Gold.Chemscore.Fitness>
18.6709

> <Gold.Chemscore.DG>
-19.4823

> <Gold.Chemscore.ZeroCoef>
-5.4800

> <Gold.Chemscore.Hbond>
2.3206

> <Gold.Chemscore.Metal>
0.0000

> <Gold.Chemscore.Lipo>
103.9800

> <Gold.Chemscore.Internal_Hbond>
0.0000

> <Gold.Chemscore.DEClash>
0.0606

> <Gold.Chemscore.DEInternal>
0.7508

> <Gold.Chemscore.Rot>
2.3102

> <Gold.Chemscore.Internal.Correction>
   9.000000E+99

> <Gold.Chemscore.Hbonds>
donor molecule, donor type, donor heavy atom, donor atom, acceptor molecule, acceptor atom, score
      L1  H    13    34       P1  7957  0.93
      P1  H  7989  7998       L1    13  0.22
      P1  H  7997  8008       L1     3  0.77

> <Gold.Chemscore.Hbond.Weighted>
-7.7508

> <Gold.Chemscore.Metal.Weighted>
-0.0000

> <Gold.Chemscore.Lipo.Weighted>
-12.1657

> <Gold.Chemscore.Internal_Hbond.Weighted>
0.0000

> <Gold.Chemscore.DEClash.Weighted>
0.0606

> <Gold.Chemscore.DEInternal.Weighted>
0.7508

> <Gold.Chemscore.Rot.Weighted>
5.9141

> <Gold.Chemscore.Internal.Correction.Weighted>
   9.000000E+99

> <Gold.Protein.RotatedTorsions>
[ 6907 6896 6895 6894 ] final   34.11 input  -60.11 | X-H torsion
[ 7974 7965 7964 7962 ] final  145.54 input  175.53 | X-H torsion
[ 8008 7997 7996 7995 ] final  -72.32 input   59.86 | X-H torsion
[ 10167 10162 10161 10158 ] final  -25.13 input  -65.29 | X-H torsion
[ 10718 10713 10712 10709 ] final   54.36 input   66.30 | X-H torsion
[ 10763 10752 10751 10750 ] final  147.78 input  -60.55 | X-H torsion
[ 11005 11000 10999 10996 ] final  123.03 input  -57.11 | X-H torsion

> <Gold.Protein.ActiveResidues>
 VAL166  LYS551  ARG553  GLY616  TRP617  ASP618  TYR619  PRO620  LYS621  CYS622 
 ASP623  PHE694  ASN695  SER759  ASP760  ASP761  ALA762  ILE779  LEU786  VAL792 
 PHE793  MET794  SER795  GLU796  ALA797  LYS798  CYS799  TRP800  GLU811  SER814 

> <Gold.Protein.RotatedAtoms>
  152.0979  134.9362  160.0570 H   0  0  0  0  0  0  0  0  0  0  0  0  # atno 6907 bound_to 6896
  152.0588  133.4047  159.4417 H   0  0  0  0  0  0  0  0  0  0  0  0  # atno 6908 bound_to 6896
  150.6838  134.3145  159.4804 H   0  0  0  0  0  0  0  0  0  0  0  0  # atno 6909 bound_to 6896
  144.8744  139.5796  143.5872 H   0  0  0  0  0  0  0  0  0  0  0  0  # atno 7974 bound_to 7965
  154.5157  140.0799  156.8077 H   0  0  0  0  0  0  0  0  0  0  0  0  # atno 8008 bound_to 7997
  155.3685  140.3421  155.4224 H   0  0  0  0  0  0  0  0  0  0  0  0  # atno 8009 bound_to 7997
  156.1625  140.1593  156.8575 H   0  0  0  0  0  0  0  0  0  0  0  0  # atno 8010 bound_to 7997
  140.7287  143.4292  151.0828 H   0  0  0  0  0  0  0  0  0  0  0  0  # atno 10167 bound_to 10162
  157.5250  130.8591  149.8609 H   0  0  0  0  0  0  0  0  0  0  0  0  # atno 10718 bound_to 10713
  154.0440  135.2887  155.3351 H   0  0  0  0  0  0  0  0  0  0  0  0  # atno 10763 bound_to 10752
  154.6911  135.5226  153.8397 H   0  0  0  0  0  0  0  0  0  0  0  0  # atno 10764 bound_to 10752
  153.0588  135.6606  154.0642 H   0  0  0  0  0  0  0  0  0  0  0  0  # atno 10765 bound_to 10752
  139.9294  134.9641  156.8198 H   0  0  0  0  0  0  0  0  0  0  0  0  # atno 11005 bound_to 11000
  146.2952  139.7257  142.9132 LP  0  0  0  0  0  0  0  0  0  0  0  0  # atno 17320 bound_to 7965
  145.4070  141.0392  143.3038 LP  0  0  0  0  0  0  0  0  0  0  0  0  # atno 17321 bound_to 7965
  139.7947  143.8168  152.3156 LP  0  0  0  0  0  0  0  0  0  0  0  0  # atno 17342 bound_to 10162
  139.8164  144.7314  150.9629 LP  0  0  0  0  0  0  0  0  0  0  0  0  # atno 17343 bound_to 10162
  156.0380  130.3746  150.1508 LP  0  0  0  0  0  0  0  0  0  0  0  0  # atno 17370 bound_to 10713
  156.9695  130.9830  151.3462 LP  0  0  0  0  0  0  0  0  0  0  0  0  # atno 17371 bound_to 10713
  140.6243  133.9964  155.7633 LP  0  0  0  0  0  0  0  0  0  0  0  0  # atno 17394 bound_to 11000
  141.0874  133.9970  157.3292 LP  0  0  0  0  0  0  0  0  0  0  0  0  # atno 17395 bound_to 11000

$$$$
