#       Name:                AV-unprocessed.smi:265
#       Creating user name   scv26
#       Creation time:       Thu Mar 26 21:23:18 2020


#       File generated by GOLD software.
#

@<TRIPOS>MOLECULE
AV-unprocessed.smi:265
    64    68     1
SMALL
NO_CHARGES


@<TRIPOS>ATOM
      1 ****        -2.8155  -1.9544   5.7171 C.3            1 S1                 0.0000
      2 ****        -3.4732  -2.1568   4.3438 C.3            1 S1                 0.0000
      3 ****        -3.3590  -3.5131   3.9218 O.3            1 S1                 0.0000
      4 ****        -3.2263  -3.5774   2.5041 C.3            1 S1                 0.0000
      5 ****        -3.4172  -2.1481   2.0041 C.3            1 S1                 0.0000
      6 ****        -2.9176  -1.3156   3.1791 C.3            1 S1                 0.0000
      7 ****        -3.5456  -0.0474   3.1460 O.3            1 S1                 0.0000
      8 ****        -1.3758  -1.1312   3.2091 C.3            1 S1                 0.0000
      9 ****        -0.8344  -0.5140   2.0087 N.pl3          1 S1                 0.0000
     10 ****        -0.7977   0.8308   1.7176 C.2            1 S1                 0.0000
     11 ****        -0.2584   1.1372   0.5695 N.2            1 S1                 0.0000
     12 ****         0.1168  -0.0885   0.0317 C.ar           1 S1                 0.0000
     13 ****         0.7456  -0.4885  -1.1813 C.ar           1 S1                 0.0000
     14 ****         1.1526   0.3988  -2.1243 N.3            1 S1                 0.0000
     15 ****         1.2910  -0.0873  -3.5017 C.3            1 S1                 0.0000
     16 ****         1.4157   1.0804  -4.4990 C.3            1 S1                 0.0000
     17 ****         2.5505   2.0182  -4.0677 C.3            1 S1                 0.0000
     18 ****         2.6388   3.1659  -4.8986 O.3            1 S1                 0.0000
     19 ****         3.7840   3.9800  -4.6223 C.3            1 S1                 0.0000
     20 ****         3.9802   4.2457  -3.1142 C.2            1 S1                 0.0000
     21 ****         4.7696   5.1111  -2.7432 O.2            1 S1                 0.0000
     22 ****         3.3019   3.4823  -2.2416 N.am           1 S1                 0.0000
     23 ****         2.2787   2.5264  -2.6434 C.3            1 S1                 0.0000
     24 ****         2.1819   1.3388  -1.6735 C.3            1 S1                 0.0000
     25 ****         0.9368  -1.8212  -1.3755 N.ar           1 S1                 0.0000
     26 ****         0.5532  -2.7016  -0.4462 C.ar           1 S1                 0.0000
     27 ****        -0.0340  -2.4713   0.7293 N.ar           1 S1                 0.0000
     28 ****        -0.2394  -1.1376   0.9259 C.ar           1 S1                 0.0000
     29 ****         3.4940   1.4693  -4.1079 H              1 S1                 0.0000
     30 ****         1.3276   3.0620  -2.6308 H              1 S1                 0.0000
     31 ****        -2.8717  -0.9112   6.0286 H              1 S1                 0.0000
     32 ****        -1.7666  -2.2505   5.7119 H              1 S1                 0.0000
     33 ****        -3.3188  -2.5534   6.4762 H              1 S1                 0.0000
     34 ****        -4.5429  -1.9600   4.4407 H              1 S1                 0.0000
     35 ****        -2.2264  -3.9393   2.2628 H              1 S1                 0.0000
     36 ****        -3.9493  -4.2674   2.0687 H              1 S1                 0.0000
     37 ****        -2.9153  -1.9534   1.0571 H              1 S1                 0.0000
     38 ****        -4.4826  -1.9723   1.8441 H              1 S1                 0.0000
     39 ****        -3.3360   0.4118   3.9447 H              1 S1                 0.0000
     40 ****        -1.0828  -0.5149   4.0599 H              1 S1                 0.0000
     41 ****        -0.8811  -2.0931   3.3487 H              1 S1                 0.0000
     42 ****        -1.1911   1.5825   2.3865 H              1 S1                 0.0000
     43 ****         2.1731  -0.7257  -3.5686 H              1 S1                 0.0000
     44 ****         0.4289  -0.6997  -3.7695 H              1 S1                 0.0000
     45 ****         1.6014   0.6995  -5.5035 H              1 S1                 0.0000
     46 ****         0.4752   1.6312  -4.5410 H              1 S1                 0.0000
     47 ****         4.6768   3.4866  -5.0086 H              1 S1                 0.0000
     48 ****         3.6833   4.9267  -5.1535 H              1 S1                 0.0000
     49 ****         3.4468   3.6285  -1.2531 H              1 S1                 0.0000
     50 ****         1.9736   1.7077  -0.6699 H              1 S1                 0.0000
     51 ****         3.1376   0.8150  -1.6225 H              1 S1                 0.0000
     52 ****         0.7456  -3.7391  -0.6768 H              1 S1                 0.0000
     53 ****        -4.1775  -4.0158   4.2002 LP             1 S1                 0.0000
     54 ****        -2.5537  -3.9251   4.3481 LP             1 S1                 0.0000
     55 ****        -4.5363  -0.1633   3.0735 LP             1 S1                 0.0000
     56 ****        -3.2126   0.4735   2.3601 LP             1 S1                 0.0000
     57 ****        -0.1418   2.0457   0.1684 LP             1 S1                 0.0000
     58 ****         0.3344   0.9641  -2.2291 LP             1 S1                 0.0000
     59 ****         1.8165   3.7189  -4.7640 LP             1 S1                 0.0000
     60 ****         2.6858   2.8650  -5.8511 LP             1 S1                 0.0000
     61 ****         5.2833   5.6415  -3.4176 LP             1 S1                 0.0000
     62 ****         4.8983   5.2850  -1.7669 LP             1 S1                 0.0000
     63 ****         1.3669  -2.1441  -2.2186 LP             1 S1                 0.0000
     64 ****        -0.2904  -3.1844   1.3818 LP             1 S1                 0.0000
@<TRIPOS>BOND
    1    1    2 1     
    2    1   31 1     
    3    1   32 1     
    4    1   33 1     
    5    2    6 1     
    6    2    3 1     
    7    2   34 1     
    8    3    4 1     
    9    4    5 1     
   10    4   35 1     
   11    4   36 1     
   12    5    6 1     
   13    5   37 1     
   14    5   38 1     
   15    6    7 1     
   16    6    8 1     
   17    7   39 1     
   18    8    9 1     
   19    8   40 1     
   20    8   41 1     
   21    9   28 1     
   22    9   10 1     
   23   10   11 2     
   24   10   42 1     
   25   11   12 1     
   26   12   28 ar    
   27   12   13 ar    
   28   13   14 1     
   29   13   25 ar    
   30   14   24 1     
   31   14   15 1     
   32   15   16 1     
   33   15   43 1     
   34   15   44 1     
   35   16   17 1     
   36   16   45 1     
   37   16   46 1     
   38   17   29 1     
   39   17   23 1     
   40   17   18 1     
   41   18   19 1     
   42   19   20 1     
   43   19   47 1     
   44   19   48 1     
   45   20   21 2     
   46   20   22 am    
   47   22   23 1     
   48   22   49 1     
   49   23   30 1     
   50   23   24 1     
   51   24   50 1     
   52   24   51 1     
   53   25   26 ar    
   54   26   27 ar    
   55   26   52 1     
   56   27   28 ar    
   57    3   53 1     
   58    3   54 1     
   59    7   55 1     
   60    7   56 1     
   61   11   57 1     
   62   14   58 1     
   63   18   59 1     
   64   18   60 1     
   65   21   61 1     
   66   21   62 1     
   67   25   63 1     
   68   27   64 1     
@<TRIPOS>SUBSTRUCTURE
      1 S1             1
@<TRIPOS>SET
LONE_PAIRS      STATIC     ATOMS    <user>   **** ""
12 53 54 55 56 57 58 59 60 61 62 63 64
DONOR_HYDROGENS      STATIC     ATOMS    <user>   **** ""
2 39 49
ATOM$BLUE        STATIC     ATOMS    COLORGROUP SYSTEM
12 53 54 55 56 57 58 59 60 61 62 63 64
ATOM$RED        STATIC     ATOMS    COLORGROUP SYSTEM
2 39 49
