AV-unprocessed.smi:3281|AV-procd|sdf|12557|dock3
  -GOLD-   2272018473D 1   1.00000     0.00000
 Structure written by MMmdl.
 37 38  0  0  0  0  0  0  0  0  2 V2000
  143.8893  132.2272  150.1428 C   0  0  0  0  0  0  0  0  0  0  0  0
  143.4767  133.0576  151.3634 C   0  0  0  0  0  0  0  0  0  0  0  0
  144.2569  134.3232  151.5062 C   0  0  0  0  0  0  0  0  0  0  0  0
  145.2370  134.8016  150.6716 C   0  0  0  0  0  0  0  0  0  0  0  0
  145.7799  136.0223  151.0791 N   0  0  0  0  0  0  0  0  0  0  0  0
  145.2399  136.4654  152.2165 C   0  0  0  0  0  0  0  0  0  0  0  0
  145.6199  137.7568  152.8589 C   0  0  0  0  0  0  0  0  0  0  0  0
  146.4999  138.6260  151.9518 C   0  0  0  0  0  0  0  0  0  0  0  0
  147.9026  138.6197  152.4123 N   0  3  0  0  0  0  0  0  0  0  0  0
  148.1389  139.3143  153.6965 C   0  0  1  0  0  0  0  0  0  0  0  0
  149.6161  139.1598  154.1071 C   0  0  0  0  0  0  0  0  0  0  0  0
  149.9310  139.8154  155.4623 C   0  0  0  0  0  0  0  0  0  0  0  0
  149.6558  141.3256  155.4622 C   0  0  0  0  0  0  0  0  0  0  0  0
  147.9040  141.6699  155.1472 S   0  0  0  0  0  0  0  0  0  0  0  0
  147.7361  140.7940  153.5683 C   0  0  0  0  0  0  0  0  0  0  0  0
  143.9835  135.4071  152.8465 S   0  0  0  0  0  0  0  0  0  0  0  0
  143.2896  131.3197  150.0704 H   0  0  0  0  0  0  0  0  0  0  0  0
  144.9364  131.9290  150.2020 H   0  0  0  0  0  0  0  0  0  0  0  0
  143.7532  132.7915  149.2198 H   0  0  0  0  0  0  0  0  0  0  0  0
  142.4136  133.2912  151.2946 H   0  0  0  0  0  0  0  0  0  0  0  0
  143.5951  132.4568  152.2655 H   0  0  0  0  0  0  0  0  0  0  0  0
  145.6079  134.3407  149.7678 H   0  0  0  0  0  0  0  0  0  0  0  0
  144.7077  138.2923  153.1245 H   0  0  0  0  0  0  0  0  0  0  0  0
  146.1396  137.5424  153.7937 H   0  0  0  0  0  0  0  0  0  0  0  0
  146.4581  138.2568  150.9259 H   0  0  0  0  0  0  0  0  0  0  0  0
  146.1292  139.6521  151.9442 H   0  0  0  0  0  0  0  0  0  0  0  0
  148.2021  137.6601  152.5112 H   0  0  0  0  0  0  0  0  0  0  0  0
  147.5184  138.8577  154.4701 H   0  0  0  0  0  0  0  0  0  0  0  0
  149.8675  138.1000  154.1634 H   0  0  0  0  0  0  0  0  0  0  0  0
  150.2624  139.5855  153.3383 H   0  0  0  0  0  0  0  0  0  0  0  0
  149.3486  139.3355  156.2498 H   0  0  0  0  0  0  0  0  0  0  0  0
  150.9789  139.6423  155.7099 H   0  0  0  0  0  0  0  0  0  0  0  0
  149.9300  141.7598  156.4239 H   0  0  0  0  0  0  0  0  0  0  0  0
  150.2597  141.8238  154.7029 H   0  0  0  0  0  0  0  0  0  0  0  0
  148.3495  141.2968  152.8196 H   0  0  0  0  0  0  0  0  0  0  0  0
  146.6992  140.8795  153.2414 H   0  0  0  0  0  0  0  0  0  0  0  0
  148.4722  139.0602  151.7039 H   0  0  0  0  0  0  0  0  0  0  0  0
  1  2  1  0  0  0  0
  1 17  1  0  0  0  0
  1 18  1  0  0  0  0
  1 19  1  0  0  0  0
  2  3  1  0  0  0  0
  2 20  1  0  0  0  0
  2 21  1  0  0  0  0
  3 16  1  0  0  0  0
  3  4  2  0  0  0  0
  4  5  1  0  0  0  0
  4 22  1  0  0  0  0
  5  6  2  0  0  0  0
  6  7  1  0  0  0  0
  6 16  1  0  0  0  0
  7  8  1  0  0  0  0
  7 23  1  0  0  0  0
  7 24  1  0  0  0  0
  8  9  1  0  0  0  0
  8 25  1  0  0  0  0
  8 26  1  0  0  0  0
  9 10  1  0  0  0  0
  9 27  1  0  0  0  0
  9 37  1  0  0  0  0
 10 15  1  0  0  0  0
 10 11  1  0  0  0  0
 10 28  1  0  0  0  0
 11 12  1  0  0  0  0
 11 29  1  0  0  0  0
 11 30  1  0  0  0  0
 12 13  1  0  0  0  0
 12 31  1  0  0  0  0
 12 32  1  0  0  0  0
 13 14  1  0  0  0  0
 13 33  1  0  0  0  0
 13 34  1  0  0  0  0
 14 15  1  0  0  0  0
 15 35  1  0  0  0  0
 15 36  1  0  0  0  0
M  CHG  1   9   1
M  END
> <s_m_source_file>
AV-unprocessed.smi

> <i_m_source_file_index>
3281

> <i_lp_mmshare_version>
43012

> <i_f3d_flags>
0

> <s_epik_input>
W0NIM11bQ0gyXWMxW2NIXW5jKHMxKVtDSDJdW0NIMl1bTkhdW0NAQEhdMltDSDJdW0NIMl1bQ0gyXVNbQ0gyXTI=

> <s_epik_cmdline>
J2VwaWtfcHl0aG9uJywgJy1waCcsICc3LjAnLCAnLXRuJywgJzgnLCAnLW1hJywgJzIwMCcsICctbWV0YWxfYmluZGluZycsICctaW1hZScsICc8aW5maWxlLm1hZT4nLCAnLW9tYWUnLCAnPG91dGZpbGUubWFlPic=

> <r_epik_Ionization_Penalty>
0.00827702

> <r_epik_Ionization_Penalty_Charging>
0.00826679

> <r_epik_Ionization_Penalty_Neutral>
1.02314e-05

> <r_epik_State_Penalty>
0.00622064

> <r_epik_Charging_Adjusted_Penalty>
0.0144874

> <i_epik_Tot_Q>
1

> <i_epik_Tot_abs_Q>
1

> <r_epik_Metal_State_Penalty>
0.0062521

> <b_epik_Metal_Only>
0

> <s_lp_Force_Field>
OPLS_2005

> <r_lp_Energy>
0.380523

> <b_lp_Chiralities_Consistent>
1

> <s_lp_Variant>
AV-unprocessed.smi:3281-2

> <Gold.Version>
5.8.1

> <Gold.Id.Protein>
6NUR|6NUR_protein|mol2

> <Gold.PLP.Fitness>
45.1660

> <Gold.PLP.PLP>
-34.1291

> <Gold.PLP.part.hbond>
-1.8969

> <Gold.PLP.part.metal>
0.0000

> <Gold.PLP.part.buried>
-0.4397

> <Gold.PLP.part.nonpolar>
-31.8950

> <Gold.PLP.part.repulsive>
0.3293

> <Gold.PLP.ligand.clash>
0.0000

> <Gold.PLP.ligand.torsion>
0.4754

> <Gold.PLP.Chemscore.Hbond>
2.9840

> <Gold.PLP.Chemscore.CHOScore>
1.0000

> <Gold.PLP.Chemscore.Metal>
0.0000

> <Gold.Chemscore.Hbonds>
donor molecule, donor type, donor heavy atom, donor atom, acceptor molecule, acceptor atom, score
      L1  H     9    27       P1  7948  1.95
      L1  H     9    37       P1  7957  1.00
      L1  C     4    22       P1  7921  1.00

> <Gold.PLP.Chemscore.Internal.Correction>
0.0356

> <Gold.Rescore>
     Score         DG    S(hbond)    S(metal)    S(lipo)     H(rot)  DE(clash)    DE(int)     intcor
     18.20     -18.80       1.91        0.00      89.38       1.38       0.18       0.42       ----

> <Gold.Chemscore.Fitness>
18.1960

> <Gold.Chemscore.DG>
-18.7998

> <Gold.Chemscore.ZeroCoef>
-5.4800

> <Gold.Chemscore.Hbond>
1.9123

> <Gold.Chemscore.Metal>
0.0000

> <Gold.Chemscore.Lipo>
89.3758

> <Gold.Chemscore.Internal_Hbond>
0.0000

> <Gold.Chemscore.DEClash>
0.1796

> <Gold.Chemscore.DEInternal>
0.4242

> <Gold.Chemscore.Rot>
1.3767

> <Gold.Chemscore.Internal.Correction>
   9.000000E+99

> <Gold.Chemscore.Hbonds>
donor molecule, donor type, donor heavy atom, donor atom, acceptor molecule, acceptor atom, score
      L1  H     9    27       P1  7948  0.93
      L1  H     9    37       P1  7957  0.84

> <Gold.Chemscore.Hbond.Weighted>
-6.3872

> <Gold.Chemscore.Metal.Weighted>
-0.0000

> <Gold.Chemscore.Lipo.Weighted>
-10.4570

> <Gold.Chemscore.Internal_Hbond.Weighted>
0.0000

> <Gold.Chemscore.DEClash.Weighted>
0.1796

> <Gold.Chemscore.DEInternal.Weighted>
0.4242

> <Gold.Chemscore.Rot.Weighted>
3.5243

> <Gold.Chemscore.Internal.Correction.Weighted>
   9.000000E+99

> <Gold.Protein.RotatedTorsions>
[ 6907 6896 6895 6894 ] final   92.34 input  -60.11 | X-H torsion
[ 7974 7965 7964 7962 ] final  -66.82 input  175.53 | X-H torsion
[ 8008 7997 7996 7995 ] final   27.65 input   59.86 | X-H torsion
[ 10167 10162 10161 10158 ] final -100.69 input  -65.29 | X-H torsion
[ 10718 10713 10712 10709 ] final  117.86 input   66.30 | X-H torsion
[ 10763 10752 10751 10750 ] final  -28.56 input  -60.55 | X-H torsion
[ 11005 11000 10999 10996 ] final   39.00 input  -57.11 | X-H torsion

> <Gold.Protein.ActiveResidues>
 VAL166  LYS551  ARG553  GLY616  TRP617  ASP618  TYR619  PRO620  LYS621  CYS622 
 ASP623  PHE694  ASN695  SER759  ASP760  ASP761  ALA762  ILE779  LEU786  VAL792 
 PHE793  MET794  SER795  GLU796  ALA797  LYS798  CYS799  TRP800  GLU811  SER814 

> <Gold.Protein.RotatedAtoms>
  152.5452  134.1518  159.8521 H   0  0  0  0  0  0  0  0  0  0  0  0  # atno 6907 bound_to 6896
  151.1544  133.4879  159.2602 H   0  0  0  0  0  0  0  0  0  0  0  0  # atno 6908 bound_to 6896
  151.1438  135.0204  159.8692 H   0  0  0  0  0  0  0  0  0  0  0  0  # atno 6909 bound_to 6896
  145.7370  140.8971  143.0550 H   0  0  0  0  0  0  0  0  0  0  0  0  # atno 7974 bound_to 7965
  155.0462  140.3175  155.4707 H   0  0  0  0  0  0  0  0  0  0  0  0  # atno 8008 bound_to 7997
  156.2844  140.2154  156.5531 H   0  0  0  0  0  0  0  0  0  0  0  0  # atno 8009 bound_to 7997
  154.7248  140.0486  157.0660 H   0  0  0  0  0  0  0  0  0  0  0  0  # atno 8010 bound_to 7997
  140.2492  143.3484  152.0730 H   0  0  0  0  0  0  0  0  0  0  0  0  # atno 10167 bound_to 10162
  157.6069  131.1042  150.7674 H   0  0  0  0  0  0  0  0  0  0  0  0  # atno 10718 bound_to 10713
  153.7504  135.6926  153.4947 H   0  0  0  0  0  0  0  0  0  0  0  0  # atno 10763 bound_to 10752
  153.2007  135.4437  155.0262 H   0  0  0  0  0  0  0  0  0  0  0  0  # atno 10764 bound_to 10752
  154.8189  135.3412  154.7025 H   0  0  0  0  0  0  0  0  0  0  0  0  # atno 10765 bound_to 10752
  140.2071  134.3800  155.8067 H   0  0  0  0  0  0  0  0  0  0  0  0  # atno 11005 bound_to 11000
  144.6879  139.9409  143.7475 LP  0  0  0  0  0  0  0  0  0  0  0  0  # atno 17320 bound_to 7965
  146.0484  139.3487  143.0655 LP  0  0  0  0  0  0  0  0  0  0  0  0  # atno 17321 bound_to 7965
  139.5052  144.6789  151.6058 LP  0  0  0  0  0  0  0  0  0  0  0  0  # atno 17342 bound_to 10162
  140.6053  143.9535  150.6415 LP  0  0  0  0  0  0  0  0  0  0  0  0  # atno 17343 bound_to 10162
  156.8060  130.4937  149.5362 LP  0  0  0  0  0  0  0  0  0  0  0  0  # atno 17370 bound_to 10713
  156.1158  130.6074  151.0118 LP  0  0  0  0  0  0  0  0  0  0  0  0  # atno 17371 bound_to 10713
  141.2227  133.7123  156.8355 LP  0  0  0  0  0  0  0  0  0  0  0  0  # atno 17394 bound_to 11000
  140.1991  134.8910  157.3149 LP  0  0  0  0  0  0  0  0  0  0  0  0  # atno 17395 bound_to 11000

$$$$
