#       Name:                AV-unprocessed.smi:2473
#       Creating user name   scv26
#       Creation time:       Fri Mar 27 13:38:44 2020


#       File generated by GOLD software.
#

@<TRIPOS>MOLECULE
AV-unprocessed.smi:2473
    50    51     1
SMALL
NO_CHARGES


@<TRIPOS>ATOM
      1 ****        -2.5849  -2.7661  -3.1650 C.3            1 S1                 0.0000
      2 ****        -2.1635  -1.6661  -2.1799 C.3            1 S1                 0.0000
      3 ****        -0.6334  -1.5029  -2.1474 C.3            1 S1                 0.0000
      4 ****        -0.2074  -0.3959  -1.1633 C.3            1 S1                 0.0000
      5 ****         1.3180  -0.2386  -1.1197 C.2            1 S1                 0.0000
      6 ****         2.0425  -1.2161  -0.9308 O.2            1 S1                 0.0000
      7 ****         1.7919   1.0075  -1.2672 N.am           1 S1                 0.0000
      8 ****         3.1969   1.3901  -1.1657 C.3            1 S1                 0.0000
      9 ****         3.7284   1.3394   0.2815 C.3            1 S1                 0.0000
     10 ****         2.8456   2.0306   1.2805 C.2            1 S1                 0.0000
     11 ****         2.5760   3.3416   1.2901 N.pl3          1 S1                 1.0000
     12 ****         1.7296   3.6489   2.3199 C.2            1 S1                 0.0000
     13 ****         1.4725   2.4724   2.9729 C.2            1 S1                 0.0000
     14 ****         2.1735   1.4945   2.3146 N.pl3          1 S1                 0.0000
     15 ****         2.2090   0.0724   2.6628 C.3            1 S1                 0.0000
     16 ****        -0.7548  -0.6954   0.2495 C.3            1 S1                 0.0000
     17 ****        -2.2904  -0.8877   0.2895 C.3            1 S1                 0.0000
     18 ****        -2.6890  -1.3945   1.6893 C.3            1 S1                 0.0000
     19 ****        -3.0213   0.4516   0.0487 C.3            1 S1                 0.0000
     20 ****        -2.7065  -1.9464  -0.7625 C.3            1 S1                 0.0000
     21 ****        -2.1789  -3.7357  -2.8750 H              1 S1                 0.0000
     22 ****        -2.2331  -2.5463  -4.1733 H              1 S1                 0.0000
     23 ****        -3.6703  -2.8596  -3.2088 H              1 S1                 0.0000
     24 ****        -2.5968  -0.7331  -2.5401 H              1 S1                 0.0000
     25 ****        -0.1760  -2.4533  -1.8662 H              1 S1                 0.0000
     26 ****        -0.2678  -1.2693  -3.1485 H              1 S1                 0.0000
     27 ****        -0.6276   0.5476  -1.5140 H              1 S1                 0.0000
     28 ****         1.1263   1.7491  -1.4314 H              1 S1                 0.0000
     29 ****         3.8086   0.7672  -1.8199 H              1 S1                 0.0000
     30 ****         3.2799   2.4090  -1.5450 H              1 S1                 0.0000
     31 ****         3.8608   0.3066   0.6022 H              1 S1                 0.0000
     32 ****         4.7077   1.8144   0.3442 H              1 S1                 0.0000
     33 ****         1.3841   4.6554   2.5064 H              1 S1                 0.0000
     34 ****         0.8591   2.2648   3.8380 H              1 S1                 0.0000
     35 ****         1.5365  -0.1159   3.5001 H              1 S1                 0.0000
     36 ****         3.2249  -0.2045   2.9456 H              1 S1                 0.0000
     37 ****         1.8888  -0.5219   1.8077 H              1 S1                 0.0000
     38 ****        -0.2746  -1.5992   0.6291 H              1 S1                 0.0000
     39 ****        -0.4681   0.1038   0.9352 H              1 S1                 0.0000
     40 ****        -3.7656  -1.5517   1.7634 H              1 S1                 0.0000
     41 ****        -2.4066  -0.6822   2.4654 H              1 S1                 0.0000
     42 ****        -2.2046  -2.3428   1.9251 H              1 S1                 0.0000
     43 ****        -4.1031   0.3246   0.1010 H              1 S1                 0.0000
     44 ****        -2.7974   0.8849  -0.9248 H              1 S1                 0.0000
     45 ****        -2.7447   1.1913   0.8007 H              1 S1                 0.0000
     46 ****        -3.7940  -2.0261  -0.7950 H              1 S1                 0.0000
     47 ****        -2.3467  -2.9263  -0.4441 H              1 S1                 0.0000
     48 ****         2.9470   4.0097   0.6262 H              1 S1                 0.0000
     49 ****         1.6375  -2.1216  -0.8043 LP             1 S1                 0.0000
     50 ****         3.0359  -1.1044  -0.9039 LP             1 S1                 0.0000
@<TRIPOS>BOND
    1    1    2 1     
    2    1   21 1     
    3    1   22 1     
    4    1   23 1     
    5    2   20 1     
    6    2    3 1     
    7    2   24 1     
    8    3    4 1     
    9    3   25 1     
   10    3   26 1     
   11    4    5 1     
   12    4   16 1     
   13    4   27 1     
   14    5    6 2     
   15    5    7 am    
   16    7    8 1     
   17    7   28 1     
   18    8    9 1     
   19    8   29 1     
   20    8   30 1     
   21    9   10 1     
   22    9   31 1     
   23    9   32 1     
   24   10   14 1     
   25   10   11 2     
   26   11   12 1     
   27   11   48 1     
   28   12   13 2     
   29   12   33 1     
   30   13   14 1     
   31   13   34 1     
   32   14   15 1     
   33   15   35 1     
   34   15   36 1     
   35   15   37 1     
   36   16   17 1     
   37   16   38 1     
   38   16   39 1     
   39   17   18 1     
   40   17   19 1     
   41   17   20 1     
   42   18   40 1     
   43   18   41 1     
   44   18   42 1     
   45   19   43 1     
   46   19   44 1     
   47   19   45 1     
   48   20   46 1     
   49   20   47 1     
   50    6   49 1     
   51    6   50 1     
@<TRIPOS>SUBSTRUCTURE
      1 S1             1
@<TRIPOS>SET
LONE_PAIRS      STATIC     ATOMS    <user>   **** ""
2 49 50
DONOR_HYDROGENS      STATIC     ATOMS    <user>   **** ""
2 28 48
ATOM$BLUE        STATIC     ATOMS    COLORGROUP SYSTEM
2 49 50
ATOM$RED        STATIC     ATOMS    COLORGROUP SYSTEM
2 28 48
