AV-unprocessed.smi:213|AV-procd|sdf|1643|dock9
  -GOLD-   2262020 13D 1   1.00000     0.00000
 Structure written by MMmdl.
 58 61  0  0  0  0  0  0  0  0  1 V2000
  152.4648  139.2107  155.7201 C   0  0  0  0  0  0  0  0  0  0  0  0
  151.3220  138.8180  156.6740 C   0  0  2  0  0  0  0  0  0  0  0  0
  151.6399  139.1684  158.1456 C   0  0  0  0  0  0  0  0  0  0  0  0
  152.0905  140.5402  158.3864 N   0  0  0  0  0  0  0  0  0  0  0  0
  152.4661  140.7273  159.7838 C   0  0  0  0  0  0  0  0  0  0  0  0
  152.9490  142.1607  160.0641 C   0  0  0  0  0  0  0  0  0  0  0  0
  151.9332  143.0855  159.6902 O   0  0  0  0  0  0  0  0  0  0  0  0
  151.5655  142.9705  158.3197 C   0  0  0  0  0  0  0  0  0  0  0  0
  151.0836  141.5383  158.0289 C   0  0  0  0  0  0  0  0  0  0  0  0
  150.9869  137.3977  156.5347 N   0  0  0  0  0  0  0  0  0  0  0  0
  151.9490  136.3597  156.9007 C   0  0  0  0  0  0  0  0  0  0  0  0
  149.7871  137.0052  156.0256 C   0  0  0  0  0  0  0  0  0  0  0  0
  148.7576  137.8931  156.0686 N   0  0  0  0  0  0  0  0  0  0  0  0
  147.5569  137.5704  155.5807 C   0  0  0  0  0  0  0  0  0  0  0  0
  147.1668  136.4274  155.0161 N   0  0  0  0  0  0  0  0  0  0  0  0
  148.1862  135.5237  154.9796 C   0  0  0  0  0  0  0  0  0  0  0  0
  149.5147  135.7239  155.4562 C   0  0  0  0  0  0  0  0  0  0  0  0
  150.2549  134.5618  155.2588 N   0  0  0  0  0  0  0  0  0  0  0  0
  149.4219  133.7349  154.6901 C   0  0  0  0  0  0  0  0  0  0  0  0
  148.1543  134.2299  154.4918 N   0  0  0  0  0  0  0  0  0  0  0  0
  147.0290  133.5298  153.8998 C   0  0  0  0  0  0  0  0  0  0  0  0
  147.1652  133.3439  152.3733 C   0  0  1  0  0  0  0  0  0  0  0  0
  148.3227  132.5646  152.1476 O   0  0  0  0  0  0  0  0  0  0  0  0
  145.9546  132.6564  151.7037 C   0  0  2  0  0  0  0  0  0  0  0  0
  146.0089  132.6227  150.1756 C   0  0  0  0  0  0  0  0  0  0  0  0
  144.5540  132.4445  149.7762 C   0  0  0  0  0  0  0  0  0  0  0  0
  143.7754  132.9174  151.0064 C   0  0  0  0  0  0  0  0  0  0  0  0
  144.7598  133.3948  151.9131 O   0  0  0  0  0  0  0  0  0  0  0  0
  152.6451  140.2855  155.7453 H   0  0  0  0  0  0  0  0  0  0  0  0
  152.2269  138.9456  154.6898 H   0  0  0  0  0  0  0  0  0  0  0  0
  153.3995  138.7150  155.9824 H   0  0  0  0  0  0  0  0  0  0  0  0
  150.4422  139.3949  156.4026 H   0  0  0  0  0  0  0  0  0  0  0  0
  150.7597  138.9690  158.7590 H   0  0  0  0  0  0  0  0  0  0  0  0
  152.4090  138.4816  158.5011 H   0  0  0  0  0  0  0  0  0  0  0  0
  151.6154  140.5021  160.4291 H   0  0  0  0  0  0  0  0  0  0  0  0
  153.2554  140.0244  160.0526 H   0  0  0  0  0  0  0  0  0  0  0  0
  153.1731  142.2858  161.1235 H   0  0  0  0  0  0  0  0  0  0  0  0
  153.8669  142.3741  159.5140 H   0  0  0  0  0  0  0  0  0  0  0  0
  150.7748  143.6883  158.1012 H   0  0  0  0  0  0  0  0  0  0  0  0
  152.4154  143.2273  157.6854 H   0  0  0  0  0  0  0  0  0  0  0  0
  150.8361  141.4692  156.9706 H   0  0  0  0  0  0  0  0  0  0  0  0
  150.1616  141.3482  158.5803 H   0  0  0  0  0  0  0  0  0  0  0  0
  151.9779  135.5738  156.1452 H   0  0  0  0  0  0  0  0  0  0  0  0
  151.6783  135.9106  157.8566 H   0  0  0  0  0  0  0  0  0  0  0  0
  152.9566  136.7633  156.9934 H   0  0  0  0  0  0  0  0  0  0  0  0
  146.8004  138.3376  155.6543 H   0  0  0  0  0  0  0  0  0  0  0  0
  149.7081  132.7314  154.4110 H   0  0  0  0  0  0  0  0  0  0  0  0
  146.9380  132.5605  154.3918 H   0  0  0  0  0  0  0  0  0  0  0  0
  146.1186  134.0842  154.1329 H   0  0  0  0  0  0  0  0  0  0  0  0
  147.3301  134.3142  151.9034 H   0  0  0  0  0  0  0  0  0  0  0  0
  148.2354  132.1321  151.3120 H   0  0  0  0  0  0  0  0  0  0  0  0
  145.8245  131.6446  152.0933 H   0  0  0  0  0  0  0  0  0  0  0  0
  146.3790  133.5752  149.7931 H   0  0  0  0  0  0  0  0  0  0  0  0
  146.6527  131.8316  149.7901 H   0  0  0  0  0  0  0  0  0  0  0  0
  144.3113  133.0249  148.8857 H   0  0  0  0  0  0  0  0  0  0  0  0
  144.3313  131.3975  149.5681 H   0  0  0  0  0  0  0  0  0  0  0  0
  143.0579  133.7034  150.7702 H   0  0  0  0  0  0  0  0  0  0  0  0
  143.2343  132.0876  151.4629 H   0  0  0  0  0  0  0  0  0  0  0  0
  1  2  1  0  0  0  0
  1 29  1  0  0  0  0
  1 30  1  0  0  0  0
  1 31  1  0  0  0  0
  2  3  1  0  0  0  0
  2 10  1  0  0  0  0
  2 32  1  0  0  0  0
  3  4  1  0  0  0  0
  3 33  1  0  0  0  0
  3 34  1  0  0  0  0
  4  9  1  0  0  0  0
  4  5  1  0  0  0  0
  5  6  1  0  0  0  0
  5 35  1  0  0  0  0
  5 36  1  0  0  0  0
  6  7  1  0  0  0  0
  6 37  1  0  0  0  0
  6 38  1  0  0  0  0
  7  8  1  0  0  0  0
  8  9  1  0  0  0  0
  8 39  1  0  0  0  0
  8 40  1  0  0  0  0
  9 41  1  0  0  0  0
  9 42  1  0  0  0  0
 10 11  1  0  0  0  0
 10 12  1  0  0  0  0
 11 43  1  0  0  0  0
 11 44  1  0  0  0  0
 11 45  1  0  0  0  0
 12 17  1  0  0  0  0
 12 13  2  0  0  0  0
 13 14  1  0  0  0  0
 14 15  2  0  0  0  0
 14 46  1  0  0  0  0
 15 16  1  0  0  0  0
 16 20  1  0  0  0  0
 16 17  2  0  0  0  0
 17 18  1  0  0  0  0
 18 19  2  0  0  0  0
 19 20  1  0  0  0  0
 19 47  1  0  0  0  0
 20 21  1  0  0  0  0
 21 22  1  0  0  0  0
 21 48  1  0  0  0  0
 21 49  1  0  0  0  0
 22 23  1  0  0  0  0
 22 24  1  0  0  0  0
 22 50  1  0  0  0  0
 23 51  1  0  0  0  0
 24 28  1  0  0  0  0
 24 25  1  0  0  0  0
 24 52  1  0  0  0  0
 25 26  1  0  0  0  0
 25 53  1  0  0  0  0
 25 54  1  0  0  0  0
 26 27  1  0  0  0  0
 26 55  1  0  0  0  0
 26 56  1  0  0  0  0
 27 28  1  0  0  0  0
 27 57  1  0  0  0  0
 27 58  1  0  0  0  0
M  END
> <s_m_source_file>
AV-unprocessed.smi

> <i_m_source_file_index>
213

> <i_lp_mmshare_version>
43012

> <i_f3d_flags>
0

> <s_epik_input>
W0NIMl0xW0NIMl1PW0NIMl1bQ0gyXU4xW0NIMl1bQ0BASF0oW0NIM10pTihbQ0gzXSljKG5bY0hdbjIpYyhjMjMpbltjSF1uM1tDSDJdW0NASF0oW09IXSlbQ0BASF00W0NIMl1bQ0gyXVtDSDJdTzQ=

> <s_epik_cmdline>
J2VwaWtfcHl0aG9uJywgJy1waCcsICc3LjAnLCAnLXRuJywgJzgnLCAnLW1hJywgJzIwMCcsICctbWV0YWxfYmluZGluZycsICctaW1hZScsICc8aW5maWxlLm1hZT4nLCAnLW9tYWUnLCAnPG91dGZpbGUubWFlPic=

> <r_lp_tautomer_probability>
1

> <r_epik_Ionization_Penalty>
0.423322

> <r_epik_Ionization_Penalty_Charging>
0

> <r_epik_Ionization_Penalty_Neutral>
0.423322

> <r_epik_State_Penalty>
0.569486

> <r_epik_Charging_Adjusted_Penalty>
0.569486

> <i_epik_Tot_Q>
0

> <i_epik_Tot_abs_Q>
0

> <r_epik_Metal_State_Penalty>
0.568671

> <b_epik_Metal_Only>
0

> <s_lp_Force_Field>
OPLS_2005

> <r_lp_Energy>
51.7694

> <b_lp_Chiralities_Consistent>
1

> <s_lp_Variant>
AV-unprocessed.smi:213-11

> <Gold.Version>
5.8.1

> <Gold.Id.Protein>
6NUR|6NUR_protein|mol2

> <Gold.PLP.Fitness>
43.0355

> <Gold.PLP.PLP>
-40.7548

> <Gold.PLP.part.hbond>
-1.0000

> <Gold.PLP.part.metal>
0.0000

> <Gold.PLP.part.buried>
-6.9303

> <Gold.PLP.part.nonpolar>
-34.3082

> <Gold.PLP.part.repulsive>
0.3411

> <Gold.PLP.ligand.clash>
0.0000

> <Gold.PLP.ligand.torsion>
0.4276

> <Gold.PLP.Chemscore.Hbond>
0.9280

> <Gold.PLP.Chemscore.CHOScore>
0.0000

> <Gold.PLP.Chemscore.Metal>
0.0000

> <Gold.Chemscore.Hbonds>
donor molecule, donor type, donor heavy atom, donor atom, acceptor molecule, acceptor atom, score
      L1  H    23    51       P1 10747  0.85

> <Gold.PLP.Chemscore.Internal.Correction>
0.3520

> <Gold.Rescore>
     Score         DG    S(hbond)    S(metal)    S(lipo)     H(rot)  DE(clash)    DE(int)     intcor
     11.89     -13.78       0.88        0.00     105.67       2.74       0.00       1.89       ----

> <Gold.Chemscore.Fitness>
11.8895

> <Gold.Chemscore.DG>
-13.7764

> <Gold.Chemscore.ZeroCoef>
-5.4800

> <Gold.Chemscore.Hbond>
0.8807

> <Gold.Chemscore.Metal>
0.0000

> <Gold.Chemscore.Lipo>
105.6724

> <Gold.Chemscore.Internal_Hbond>
0.0000

> <Gold.Chemscore.DEClash>
0.0000

> <Gold.Chemscore.DEInternal>
1.8870

> <Gold.Chemscore.Rot>
2.7378

> <Gold.Chemscore.Internal.Correction>
   9.000000E+99

> <Gold.Chemscore.Hbonds>
donor molecule, donor type, donor heavy atom, donor atom, acceptor molecule, acceptor atom, score
      L1  H    23    51       P1 10747  0.83

> <Gold.Chemscore.Hbond.Weighted>
-2.9414

> <Gold.Chemscore.Metal.Weighted>
-0.0000

> <Gold.Chemscore.Lipo.Weighted>
-12.3637

> <Gold.Chemscore.Internal_Hbond.Weighted>
0.0000

> <Gold.Chemscore.DEClash.Weighted>
0.0000

> <Gold.Chemscore.DEInternal.Weighted>
1.8870

> <Gold.Chemscore.Rot.Weighted>
7.0087

> <Gold.Chemscore.Internal.Correction.Weighted>
   9.000000E+99

> <Gold.Protein.RotatedTorsions>
[ 6907 6896 6895 6894 ] final   -0.06 input  -60.11 | X-H torsion
[ 7974 7965 7964 7962 ] final -168.62 input  175.53 | X-H torsion
[ 8008 7997 7996 7995 ] final -169.76 input   59.86 | X-H torsion
[ 10167 10162 10161 10158 ] final   70.01 input  -65.29 | X-H torsion
[ 10718 10713 10712 10709 ] final  114.98 input   66.30 | X-H torsion
[ 10763 10752 10751 10750 ] final   51.99 input  -60.55 | X-H torsion
[ 11005 11000 10999 10996 ] final -179.68 input  -57.11 | X-H torsion

> <Gold.Protein.ActiveResidues>
 VAL166  LYS551  ARG553  GLY616  TRP617  ASP618  TYR619  PRO620  LYS621  CYS622 
 ASP623  PHE694  ASN695  SER759  ASP760  ASP761  ALA762  ILE779  LEU786  VAL792 
 PHE793  MET794  SER795  GLU796  ALA797  LYS798  CYS799  TRP800  GLU811  SER814 

> <Gold.Protein.RotatedAtoms>
  151.5683  135.1063  159.9988 H   0  0  0  0  0  0  0  0  0  0  0  0  # atno 6907 bound_to 6896
  152.4413  133.7449  159.6672 H   0  0  0  0  0  0  0  0  0  0  0  0  # atno 6908 bound_to 6896
  150.8319  133.8008  159.3118 H   0  0  0  0  0  0  0  0  0  0  0  0  # atno 6909 bound_to 6896
  144.7200  140.2343  143.6300 H   0  0  0  0  0  0  0  0  0  0  0  0  # atno 7974 bound_to 7965
  155.9093  140.1054  157.1291 H   0  0  0  0  0  0  0  0  0  0  0  0  # atno 8008 bound_to 7997
  154.4037  140.1277  156.4601 H   0  0  0  0  0  0  0  0  0  0  0  0  # atno 8009 bound_to 7997
  155.7329  140.3468  155.5070 H   0  0  0  0  0  0  0  0  0  0  0  0  # atno 8010 bound_to 7997
  140.0616  144.5228  150.7290 H   0  0  0  0  0  0  0  0  0  0  0  0  # atno 10167 bound_to 10162
  157.6249  131.1006  150.7264 H   0  0  0  0  0  0  0  0  0  0  0  0  # atno 10718 bound_to 10713
  152.9787  135.5827  154.4506 H   0  0  0  0  0  0  0  0  0  0  0  0  # atno 10763 bound_to 10752
  154.4095  135.2770  155.2047 H   0  0  0  0  0  0  0  0  0  0  0  0  # atno 10764 bound_to 10752
  154.3843  135.6139  153.5862 H   0  0  0  0  0  0  0  0  0  0  0  0  # atno 10765 bound_to 10752
  140.4159  134.6649  157.4639 H   0  0  0  0  0  0  0  0  0  0  0  0  # atno 11005 bound_to 11000
  145.8381  139.2117  143.1844 LP  0  0  0  0  0  0  0  0  0  0  0  0  # atno 17320 bound_to 7965
  146.0371  140.8201  142.9847 LP  0  0  0  0  0  0  0  0  0  0  0  0  # atno 17321 bound_to 7965
  140.7169  143.2552  151.4405 LP  0  0  0  0  0  0  0  0  0  0  0  0  # atno 17342 bound_to 10162
  139.5890  144.1541  152.2065 LP  0  0  0  0  0  0  0  0  0  0  0  0  # atno 17343 bound_to 10162
  156.7614  130.4800  149.5436 LP  0  0  0  0  0  0  0  0  0  0  0  0  # atno 17370 bound_to 10713
  156.1415  130.6248  151.0474 LP  0  0  0  0  0  0  0  0  0  0  0  0  # atno 17371 bound_to 10713
  140.0234  134.6513  155.9207 LP  0  0  0  0  0  0  0  0  0  0  0  0  # atno 17394 bound_to 11000
  141.1803  133.6545  156.4992 LP  0  0  0  0  0  0  0  0  0  0  0  0  # atno 17395 bound_to 11000

$$$$
