AV-unprocessed.smi:99|AV-procd|sdf|886|dock6
  -GOLD-   2262017363D 1   1.00000     0.00000
 Structure written by MMmdl.
 52 55  0  0  0  0  0  0  0  0  2 V2000
  149.8920  142.8416  159.0290 O   0  0  0  0  0  0  0  0  0  0  0  0
  150.8029  142.0692  158.7240 C   0  0  0  0  0  0  0  0  0  0  0  0
  150.8487  141.3918  157.5608 O   0  0  0  0  0  0  0  0  0  0  0  0
  149.6474  141.0605  156.8860 C   0  0  0  0  0  0  0  0  0  0  0  0
  149.7992  141.3850  155.3866 C   0  0  1  0  0  0  0  0  0  0  0  0
  150.4218  140.3062  154.6939 O   0  0  0  0  0  0  0  0  0  0  0  0
  149.4785  139.3602  154.2714 C   0  0  1  0  0  0  0  0  0  0  0  0
  149.5308  138.1499  155.1943 N   0  0  0  0  0  0  0  0  0  0  0  0
  148.5254  137.9112  156.1201 C   0  0  0  0  0  0  0  0  0  0  0  0
  148.5743  136.8619  156.9655 C   0  0  0  0  0  0  0  0  0  0  0  0
  149.7252  135.9665  156.9276 C   0  0  0  0  0  0  0  0  0  0  0  0
  149.7422  134.9854  157.6682 O   0  0  0  0  0  0  0  0  0  0  0  0
  150.7422  136.2677  156.0707 N   0  5  0  0  0  0  0  0  0  0  0  0
  150.7033  137.3424  155.2302 C   0  0  0  0  0  0  0  0  0  0  0  0
  151.6468  137.6548  154.5040 O   0  0  0  0  0  0  0  0  0  0  0  0
  148.1073  140.0796  154.3024 C   0  0  2  0  0  0  0  0  0  0  0  0
  147.4646  140.0442  153.0452 O   0  0  0  0  0  0  0  0  0  0  0  0
  148.4706  141.5192  154.6383 C   0  0  1  0  0  0  0  0  0  0  0  0
  147.4474  142.1150  155.4276 O   0  0  0  0  0  0  0  0  0  0  0  0
  146.2701  142.4749  154.8748 C   0  0  0  0  0  0  0  0  0  0  0  0
  145.9692  142.2510  153.7008 O   0  0  0  0  0  0  0  0  0  0  0  0
  145.3746  143.1827  155.8342 C   0  0  0  0  0  0  0  0  0  0  0  0
  144.2638  143.9067  155.3414 C   0  0  0  0  0  0  0  0  0  0  0  0
  143.4006  144.5842  156.2244 C   0  0  0  0  0  0  0  0  0  0  0  0
  143.6383  144.5471  157.6107 C   0  0  0  0  0  0  0  0  0  0  0  0
  144.7408  143.8318  158.1131 C   0  0  0  0  0  0  0  0  0  0  0  0
  145.6049  143.1532  157.2320 C   0  0  0  0  0  0  0  0  0  0  0  0
  151.9682  141.7801  159.6078 C   0  0  0  0  0  0  0  0  0  0  0  0
  152.7965  140.6702  159.3213 C   0  0  0  0  0  0  0  0  0  0  0  0
  153.9074  140.3754  160.1351 C   0  0  0  0  0  0  0  0  0  0  0  0
  154.2043  141.1877  161.2449 C   0  0  0  0  0  0  0  0  0  0  0  0
  153.3888  142.2954  161.5399 C   0  0  0  0  0  0  0  0  0  0  0  0
  152.2771  142.5916  160.7274 C   0  0  0  0  0  0  0  0  0  0  0  0
  149.3929  140.0105  157.0338 H   0  0  0  0  0  0  0  0  0  0  0  0
  148.8394  141.6501  157.3203 H   0  0  0  0  0  0  0  0  0  0  0  0
  150.3934  142.2921  155.2726 H   0  0  0  0  0  0  0  0  0  0  0  0
  149.7584  138.9665  153.2929 H   0  0  0  0  0  0  0  0  0  0  0  0
  147.6759  138.5723  156.1902 H   0  0  0  0  0  0  0  0  0  0  0  0
  147.7777  136.6952  157.6757 H   0  0  0  0  0  0  0  0  0  0  0  0
  147.4704  139.6552  155.0800 H   0  0  0  0  0  0  0  0  0  0  0  0
  148.0248  140.4789  152.4189 H   0  0  0  0  0  0  0  0  0  0  0  0
  148.6345  142.0748  153.7129 H   0  0  0  0  0  0  0  0  0  0  0  0
  144.0614  143.9503  154.2808 H   0  0  0  0  0  0  0  0  0  0  0  0
  142.5550  145.1332  155.8369 H   0  0  0  0  0  0  0  0  0  0  0  0
  142.9759  145.0664  158.2873 H   0  0  0  0  0  0  0  0  0  0  0  0
  144.9250  143.8026  159.1771 H   0  0  0  0  0  0  0  0  0  0  0  0
  146.4417  142.6140  157.6517 H   0  0  0  0  0  0  0  0  0  0  0  0
  152.5889  140.0328  158.4738 H   0  0  0  0  0  0  0  0  0  0  0  0
  154.5323  139.5247  159.9071 H   0  0  0  0  0  0  0  0  0  0  0  0
  155.0566  140.9616  161.8686 H   0  0  0  0  0  0  0  0  0  0  0  0
  153.6159  142.9202  162.3911 H   0  0  0  0  0  0  0  0  0  0  0  0
  151.6735  143.4508  160.9808 H   0  0  0  0  0  0  0  0  0  0  0  0
  1  2  2  0  0  0  0
  2  3  1  0  0  0  0
  2 28  1  0  0  0  0
  3  4  1  0  0  0  0
  4  5  1  0  0  0  0
  4 34  1  0  0  0  0
  4 35  1  0  0  0  0
  5 18  1  0  0  0  0
  5  6  1  0  0  0  0
  5 36  1  0  0  0  0
  6  7  1  0  0  0  0
  7  8  1  0  0  0  0
  7 16  1  0  0  0  0
  7 37  1  0  0  0  0
  8 14  1  0  0  0  0
  8  9  1  0  0  0  0
  9 10  2  0  0  0  0
  9 38  1  0  0  0  0
 10 11  1  0  0  0  0
 10 39  1  0  0  0  0
 11 12  2  0  0  0  0
 11 13  1  0  0  0  0
 13 14  1  0  0  0  0
 14 15  2  0  0  0  0
 16 17  1  0  0  0  0
 16 18  1  0  0  0  0
 16 40  1  0  0  0  0
 17 41  1  0  0  0  0
 18 19  1  0  0  0  0
 18 42  1  0  0  0  0
 19 20  1  0  0  0  0
 20 21  2  0  0  0  0
 20 22  1  0  0  0  0
 22 27  1  0  0  0  0
 22 23  2  0  0  0  0
 23 24  1  0  0  0  0
 23 43  1  0  0  0  0
 24 25  2  0  0  0  0
 24 44  1  0  0  0  0
 25 26  1  0  0  0  0
 25 45  1  0  0  0  0
 26 27  2  0  0  0  0
 26 46  1  0  0  0  0
 27 47  1  0  0  0  0
 28 33  1  0  0  0  0
 28 29  2  0  0  0  0
 29 30  1  0  0  0  0
 29 48  1  0  0  0  0
 30 31  2  0  0  0  0
 30 49  1  0  0  0  0
 31 32  1  0  0  0  0
 31 50  1  0  0  0  0
 32 33  2  0  0  0  0
 32 51  1  0  0  0  0
 33 52  1  0  0  0  0
M  CHG  1  13  -1
M  END
> <s_m_source_file>
AV-unprocessed.smi

> <i_m_source_file_index>
99

> <i_lp_mmshare_version>
43012

> <i_f3d_flags>
0

> <s_epik_input>
W2NIXTFbY0hdW2NIXVtjSF1bY0hdYzFDKD1PKU9bQ0gyXVtDQEBIXTJPW0NAQEhdKG4zW2NIXVtjSF1jKD1PKVtuSF1jMz1PKVtDQEBIXShbT0hdKVtDQEhdMk9DKD1PKWM0W2NIXVtjSF1bY0hdW2NIXVtjSF00

> <s_epik_cmdline>
J2VwaWtfcHl0aG9uJywgJy1waCcsICc3LjAnLCAnLXRuJywgJzgnLCAnLW1hJywgJzIwMCcsICctbWV0YWxfYmluZGluZycsICctaW1hZScsICc8aW5maWxlLm1hZT4nLCAnLW9tYWUnLCAnPG91dGZpbGUubWFlPic=

> <r_lp_tautomer_probability>
1

> <r_epik_Ionization_Penalty>
2.89159

> <r_epik_Ionization_Penalty_Charging>
2.1077e-08

> <r_epik_Ionization_Penalty_Neutral>
2.89159

> <r_epik_State_Penalty>
2.88671

> <r_epik_Charging_Adjusted_Penalty>
2.88671

> <i_epik_Tot_Q>
-1

> <i_epik_Tot_abs_Q>
1

> <r_epik_Metal_State_Penalty>
0.0727308

> <b_epik_Metal_Only>
1

> <s_epik_Chemistry_Notes>
This compound has an ester and may undergo hydrolysis at high or low pH. This compound contains an acetal/aminal-like group ( X-CH(R)-Y where X, Y are N, S, or O) that may be acid/base labile, releasing an aldehyde.

> <s_lp_Force_Field>
OPLS_2005

> <r_lp_Energy>
40.5539

> <b_lp_Chiralities_Consistent>
1

> <s_lp_Variant>
AV-unprocessed.smi:99-22

> <Gold.Version>
5.8.1

> <Gold.Id.Protein>
6NUR|6NUR_protein|mol2

> <Gold.PLP.Fitness>
60.1984

> <Gold.PLP.PLP>
-51.4487

> <Gold.PLP.part.hbond>
-3.8406

> <Gold.PLP.part.metal>
0.0000

> <Gold.PLP.part.buried>
-7.8131

> <Gold.PLP.part.nonpolar>
-40.3590

> <Gold.PLP.part.repulsive>
1.5451

> <Gold.PLP.ligand.clash>
0.0000

> <Gold.PLP.ligand.torsion>
1.3581

> <Gold.PLP.Chemscore.Hbond>
3.7120

> <Gold.PLP.Chemscore.CHOScore>
0.0000

> <Gold.PLP.Chemscore.Metal>
0.0000

> <Gold.Chemscore.Hbonds>
donor molecule, donor type, donor heavy atom, donor atom, acceptor molecule, acceptor atom, score
      L1  H    17    41       P1  7957  0.75
      P1  H  6896  6907       L1    12  0.84
      P1  H  7989  7998       L1     6  1.00
      P1  H 10752 10765       L1    15  0.03

> <Gold.PLP.Chemscore.Internal.Correction>
0.3298

> <Gold.Rescore>
     Score         DG    S(hbond)    S(metal)    S(lipo)     H(rot)  DE(clash)    DE(int)     intcor
     15.21     -20.04       2.99        0.00     107.76       3.13       0.92       3.92       ----

> <Gold.Chemscore.Fitness>
15.2089

> <Gold.Chemscore.DG>
-20.0406

> <Gold.Chemscore.ZeroCoef>
-5.4800

> <Gold.Chemscore.Hbond>
2.9872

> <Gold.Chemscore.Metal>
0.0000

> <Gold.Chemscore.Lipo>
107.7597

> <Gold.Chemscore.Internal_Hbond>
0.0000

> <Gold.Chemscore.DEClash>
0.9154

> <Gold.Chemscore.DEInternal>
3.9163

> <Gold.Chemscore.Rot>
3.1346

> <Gold.Chemscore.Internal.Correction>
   9.000000E+99

> <Gold.Chemscore.Hbonds>
donor molecule, donor type, donor heavy atom, donor atom, acceptor molecule, acceptor atom, score
      L1  H    17    41       P1  7957  0.72
      P1  H  6896  6907       L1    12  0.79
      P1  H  7989  7998       L1     6  0.77
      P1  H 10752 10765       L1    15  0.02

> <Gold.Chemscore.Hbond.Weighted>
-9.9772

> <Gold.Chemscore.Metal.Weighted>
-0.0000

> <Gold.Chemscore.Lipo.Weighted>
-12.6079

> <Gold.Chemscore.Internal_Hbond.Weighted>
0.0000

> <Gold.Chemscore.DEClash.Weighted>
0.9154

> <Gold.Chemscore.DEInternal.Weighted>
3.9163

> <Gold.Chemscore.Rot.Weighted>
8.0246

> <Gold.Chemscore.Internal.Correction.Weighted>
   9.000000E+99

> <Gold.Protein.RotatedTorsions>
[ 6907 6896 6895 6894 ] final  -91.95 input  -60.11 | X-H torsion
[ 7974 7965 7964 7962 ] final   -8.22 input  175.53 | X-H torsion
[ 8008 7997 7996 7995 ] final -176.27 input   59.86 | X-H torsion
[ 10167 10162 10161 10158 ] final  113.65 input  -65.29 | X-H torsion
[ 10718 10713 10712 10709 ] final  161.91 input   66.30 | X-H torsion
[ 10763 10752 10751 10750 ] final  179.46 input  -60.55 | X-H torsion
[ 11005 11000 10999 10996 ] final  -12.04 input  -57.11 | X-H torsion

> <Gold.Protein.ActiveResidues>
 VAL166  LYS551  ARG553  GLY616  TRP617  ASP618  TYR619  PRO620  LYS621  CYS622 
 ASP623  PHE694  ASN695  SER759  ASP760  ASP761  ALA762  ILE779  LEU786  VAL792 
 PHE793  MET794  SER795  GLU796  ALA797  LYS798  CYS799  TRP800  GLU811  SER814 

> <Gold.Protein.RotatedAtoms>
  150.6899  134.2197  159.4391 H   0  0  0  0  0  0  0  0  0  0  0  0  # atno 6907 bound_to 6896
  152.0154  134.9850  160.0578 H   0  0  0  0  0  0  0  0  0  0  0  0  # atno 6908 bound_to 6896
  152.1448  133.4451  159.4821 H   0  0  0  0  0  0  0  0  0  0  0  0  # atno 6909 bound_to 6896
  146.2286  140.2436  142.8344 H   0  0  0  0  0  0  0  0  0  0  0  0  # atno 7974 bound_to 7965
  155.9927  140.1204  157.0622 H   0  0  0  0  0  0  0  0  0  0  0  0  # atno 8008 bound_to 7997
  154.4217  140.1122  156.5657 H   0  0  0  0  0  0  0  0  0  0  0  0  # atno 8009 bound_to 7997
  155.6320  140.3473  155.4688 H   0  0  0  0  0  0  0  0  0  0  0  0  # atno 8010 bound_to 7997
  139.6446  144.7126  151.2169 H   0  0  0  0  0  0  0  0  0  0  0  0  # atno 10167 bound_to 10162
  157.1300  131.0514  151.2376 H   0  0  0  0  0  0  0  0  0  0  0  0  # atno 10718 bound_to 10713
  154.5209  135.2794  155.1263 H   0  0  0  0  0  0  0  0  0  0  0  0  # atno 10763 bound_to 10752
  154.2821  135.6283  153.5355 H   0  0  0  0  0  0  0  0  0  0  0  0  # atno 10764 bound_to 10752
  152.9936  135.5653  154.5698 H   0  0  0  0  0  0  0  0  0  0  0  0  # atno 10765 bound_to 10752
  140.7616  133.8510  155.9129 H   0  0  0  0  0  0  0  0  0  0  0  0  # atno 11005 bound_to 11000
  144.9465  140.8134  143.5598 LP  0  0  0  0  0  0  0  0  0  0  0  0  # atno 17320 bound_to 7965
  145.2393  139.2080  143.5001 LP  0  0  0  0  0  0  0  0  0  0  0  0  # atno 17321 bound_to 7965
  140.7508  143.6254  150.8474 LP  0  0  0  0  0  0  0  0  0  0  0  0  # atno 17342 bound_to 10162
  139.9895  143.5862  152.2915 LP  0  0  0  0  0  0  0  0  0  0  0  0  # atno 17343 bound_to 10162
  157.4401  130.7539  149.7062 LP  0  0  0  0  0  0  0  0  0  0  0  0  # atno 17370 bound_to 10713
  155.9810  130.4024  150.3497 LP  0  0  0  0  0  0  0  0  0  0  0  0  # atno 17371 bound_to 10713
  140.9658  134.1596  157.4617 LP  0  0  0  0  0  0  0  0  0  0  0  0  # atno 17394 bound_to 11000
  139.8770  134.9961  156.5777 LP  0  0  0  0  0  0  0  0  0  0  0  0  # atno 17395 bound_to 11000

$$$$
