AV-unprocessed.smi:1243|AV-procd|sdf|5220|dock3
  -GOLD-   22720 4313D 1   1.00000     0.00000
 Structure written by MMmdl.
 50 51  0  0  0  0  0  0  0  0  1 V2000
  146.6847  132.6737  151.4647 C   0  0  0  0  0  0  0  0  0  0  0  0
  147.5831  133.3165  152.3623 O   0  0  0  0  0  0  0  0  0  0  0  0
  148.4189  132.5327  153.1351 C   0  0  0  0  0  0  0  0  0  0  0  0
  148.3143  131.1838  153.0340 N   0  0  0  0  0  0  0  0  0  0  0  0
  149.1269  130.4178  153.7906 C   0  0  0  0  0  0  0  0  0  0  0  0
  150.0731  130.9492  154.6857 C   0  0  0  0  0  0  0  0  0  0  0  0
  150.1835  132.3479  154.7925 C   0  0  0  0  0  0  0  0  0  0  0  0
  149.3487  133.1661  153.9928 C   0  0  0  0  0  0  0  0  0  0  0  0
  149.3658  134.5883  154.0242 N   0  0  0  0  0  0  0  0  0  0  0  0
  149.5814  135.4079  155.0670 C   0  0  0  0  0  0  0  0  0  0  0  0
  149.7763  135.0497  156.2282 O   0  0  0  0  0  0  0  0  0  0  0  0
  149.5692  136.6894  154.6763 N   0  0  0  0  0  0  0  0  0  0  0  0
  149.7524  137.8535  155.5424 C   0  0  0  0  0  0  0  0  0  0  0  0
  151.2281  138.3466  155.5640 C   0  0  0  0  0  0  0  0  0  0  0  0
  152.0377  137.2626  156.3205 C   0  0  0  0  0  0  0  0  0  0  0  0
  151.7289  138.3549  154.0998 C   0  0  0  0  0  0  0  0  0  0  0  0
  151.3561  139.6723  156.2321 N   0  0  0  0  0  0  0  0  0  0  0  0
  150.6621  140.7775  155.5516 C   0  0  0  0  0  0  0  0  0  0  0  0
  150.9579  142.1340  156.2172 C   0  0  0  0  0  0  0  0  0  0  0  0
  150.5630  142.1382  157.6224 N   0  0  0  0  0  0  0  0  0  0  0  0
  150.8307  143.4233  158.2491 C   0  0  0  0  0  0  0  0  0  0  0  0
  151.2575  141.0523  158.3070 C   0  0  0  0  0  0  0  0  0  0  0  0
  150.9606  139.6918  157.6504 C   0  0  0  0  0  0  0  0  0  0  0  0
  146.1037  133.4286  150.9352 H   0  0  0  0  0  0  0  0  0  0  0  0
  145.9833  132.0286  151.9956 H   0  0  0  0  0  0  0  0  0  0  0  0
  147.2195  132.0855  150.7177 H   0  0  0  0  0  0  0  0  0  0  0  0
  149.0162  129.3489  153.6834 H   0  0  0  0  0  0  0  0  0  0  0  0
  150.6981  130.2987  155.2797 H   0  0  0  0  0  0  0  0  0  0  0  0
  150.8946  132.7590  155.4915 H   0  0  0  0  0  0  0  0  0  0  0  0
  149.2817  135.0360  153.1232 H   0  0  0  0  0  0  0  0  0  0  0  0
  149.3971  136.8830  153.7007 H   0  0  0  0  0  0  0  0  0  0  0  0
  149.0942  138.6699  155.2399 H   0  0  0  0  0  0  0  0  0  0  0  0
  149.4103  137.5864  156.5420 H   0  0  0  0  0  0  0  0  0  0  0  0
  151.8115  136.2619  155.9501 H   0  0  0  0  0  0  0  0  0  0  0  0
  151.8191  137.2694  157.3890 H   0  0  0  0  0  0  0  0  0  0  0  0
  153.1135  137.3924  156.2037 H   0  0  0  0  0  0  0  0  0  0  0  0
  151.6227  137.3692  153.6449 H   0  0  0  0  0  0  0  0  0  0  0  0
  152.7829  138.6214  154.0259 H   0  0  0  0  0  0  0  0  0  0  0  0
  151.1664  139.0496  153.4764 H   0  0  0  0  0  0  0  0  0  0  0  0
  150.9725  140.8485  154.5109 H   0  0  0  0  0  0  0  0  0  0  0  0
  149.5852  140.6082  155.5498 H   0  0  0  0  0  0  0  0  0  0  0  0
  152.0212  142.3624  156.1261 H   0  0  0  0  0  0  0  0  0  0  0  0
  150.4234  142.9203  155.6832 H   0  0  0  0  0  0  0  0  0  0  0  0
  150.5142  143.4174  159.2926 H   0  0  0  0  0  0  0  0  0  0  0  0
  150.2862  144.2202  157.7418 H   0  0  0  0  0  0  0  0  0  0  0  0
  151.8943  143.6641  158.2177 H   0  0  0  0  0  0  0  0  0  0  0  0
  152.3337  141.2334  158.3023 H   0  0  0  0  0  0  0  0  0  0  0  0
  150.9509  141.0221  159.3532 H   0  0  0  0  0  0  0  0  0  0  0  0
  149.8983  139.4697  157.7534 H   0  0  0  0  0  0  0  0  0  0  0  0
  151.4984  138.9322  158.2145 H   0  0  0  0  0  0  0  0  0  0  0  0
  1  2  1  0  0  0  0
  1 24  1  0  0  0  0
  1 25  1  0  0  0  0
  1 26  1  0  0  0  0
  2  3  1  0  0  0  0
  3  8  1  0  0  0  0
  3  4  2  0  0  0  0
  4  5  1  0  0  0  0
  5  6  2  0  0  0  0
  5 27  1  0  0  0  0
  6  7  1  0  0  0  0
  6 28  1  0  0  0  0
  7  8  2  0  0  0  0
  7 29  1  0  0  0  0
  8  9  1  0  0  0  0
  9 10  1  0  0  0  0
  9 30  1  0  0  0  0
 10 11  2  0  0  0  0
 10 12  1  0  0  0  0
 12 13  1  0  0  0  0
 12 31  1  0  0  0  0
 13 14  1  0  0  0  0
 13 32  1  0  0  0  0
 13 33  1  0  0  0  0
 14 15  1  0  0  0  0
 14 16  1  0  0  0  0
 14 17  1  0  0  0  0
 15 34  1  0  0  0  0
 15 35  1  0  0  0  0
 15 36  1  0  0  0  0
 16 37  1  0  0  0  0
 16 38  1  0  0  0  0
 16 39  1  0  0  0  0
 17 23  1  0  0  0  0
 17 18  1  0  0  0  0
 18 19  1  0  0  0  0
 18 40  1  0  0  0  0
 18 41  1  0  0  0  0
 19 20  1  0  0  0  0
 19 42  1  0  0  0  0
 19 43  1  0  0  0  0
 20 21  1  0  0  0  0
 20 22  1  0  0  0  0
 21 44  1  0  0  0  0
 21 45  1  0  0  0  0
 21 46  1  0  0  0  0
 22 23  1  0  0  0  0
 22 47  1  0  0  0  0
 22 48  1  0  0  0  0
 23 49  1  0  0  0  0
 23 50  1  0  0  0  0
M  END
> <s_m_source_file>
AV-unprocessed.smi

> <i_m_source_file_index>
1243

> <i_lp_mmshare_version>
43012

> <i_f3d_flags>
0

> <s_epik_input>
W0NIM11PYzFuW2NIXVtjSF1bY0hdYzFbTkhdQyg9TylbTkhdW0NIMl1DKFtDSDNdKShbQ0gzXSlOMltDSDJdW0NIMl1OKFtDSDNdKVtDSDJdW0NIMl0y

> <s_epik_cmdline>
J2VwaWtfcHl0aG9uJywgJy1waCcsICc3LjAnLCAnLXRuJywgJzgnLCAnLW1hJywgJzIwMCcsICctbWV0YWxfYmluZGluZycsICctaW1hZScsICc8aW5maWxlLm1hZT4nLCAnLW9tYWUnLCAnPG91dGZpbGUubWFlPic=

> <r_lp_tautomer_probability>
1

> <r_epik_Ionization_Penalty>
3.08543

> <r_epik_Ionization_Penalty_Charging>
0

> <r_epik_Ionization_Penalty_Neutral>
3.08543

> <r_epik_State_Penalty>
2.1584

> <r_epik_Charging_Adjusted_Penalty>
2.1584

> <i_epik_Tot_Q>
0

> <i_epik_Tot_abs_Q>
0

> <r_epik_Metal_State_Penalty>
2.1584

> <b_epik_Metal_Only>
0

> <s_lp_Force_Field>
OPLS_2005

> <r_lp_Energy>
53.3534

> <b_lp_Chiralities_Consistent>
1

> <s_lp_Variant>
AV-unprocessed.smi:1243-3

> <Gold.Version>
5.8.1

> <Gold.Id.Protein>
6NUR|6NUR_protein|mol2

> <Gold.PLP.Fitness>
39.7282

> <Gold.PLP.PLP>
-35.0972

> <Gold.PLP.part.hbond>
-2.0000

> <Gold.PLP.part.metal>
0.0000

> <Gold.PLP.part.buried>
-6.5342

> <Gold.PLP.part.nonpolar>
-26.9536

> <Gold.PLP.part.repulsive>
0.9659

> <Gold.PLP.ligand.clash>
0.0000

> <Gold.PLP.ligand.torsion>
0.5545

> <Gold.PLP.Chemscore.Hbond>
1.8913

> <Gold.PLP.Chemscore.CHOScore>
0.0000

> <Gold.PLP.Chemscore.Metal>
0.0000

> <Gold.Chemscore.Hbonds>
donor molecule, donor type, donor heavy atom, donor atom, acceptor molecule, acceptor atom, score
      L1  H     9    30       P1  7948  0.55
      L1  H    12    31       P1  7948  0.99

> <Gold.PLP.Chemscore.Internal.Correction>
0.0662

> <Gold.Rescore>
     Score         DG    S(hbond)    S(metal)    S(lipo)     H(rot)  DE(clash)    DE(int)     intcor
     14.90     -16.22       1.60        0.00      82.67       1.67       0.25       1.08       ----

> <Gold.Chemscore.Fitness>
14.8997

> <Gold.Chemscore.DG>
-16.2238

> <Gold.Chemscore.ZeroCoef>
-5.4800

> <Gold.Chemscore.Hbond>
1.6037

> <Gold.Chemscore.Metal>
0.0000

> <Gold.Chemscore.Lipo>
82.6695

> <Gold.Chemscore.Internal_Hbond>
0.0000

> <Gold.Chemscore.DEClash>
0.2468

> <Gold.Chemscore.DEInternal>
1.0773

> <Gold.Chemscore.Rot>
1.6737

> <Gold.Chemscore.Internal.Correction>
   9.000000E+99

> <Gold.Chemscore.Hbonds>
donor molecule, donor type, donor heavy atom, donor atom, acceptor molecule, acceptor atom, score
      L1  H     9    30       P1  7948  0.03
      L1  H    12    31       P1  7948  0.87

> <Gold.Chemscore.Hbond.Weighted>
-5.3563

> <Gold.Chemscore.Metal.Weighted>
-0.0000

> <Gold.Chemscore.Lipo.Weighted>
-9.6723

> <Gold.Chemscore.Internal_Hbond.Weighted>
0.0000

> <Gold.Chemscore.DEClash.Weighted>
0.2468

> <Gold.Chemscore.DEInternal.Weighted>
1.0773

> <Gold.Chemscore.Rot.Weighted>
4.2848

> <Gold.Chemscore.Internal.Correction.Weighted>
   9.000000E+99

> <Gold.Protein.RotatedTorsions>
[ 6907 6896 6895 6894 ] final  -27.89 input  -60.11 | X-H torsion
[ 7974 7965 7964 7962 ] final    8.68 input  175.53 | X-H torsion
[ 8008 7997 7996 7995 ] final -138.11 input   59.86 | X-H torsion
[ 10167 10162 10161 10158 ] final   59.79 input  -65.29 | X-H torsion
[ 10718 10713 10712 10709 ] final  117.87 input   66.30 | X-H torsion
[ 10763 10752 10751 10750 ] final   12.14 input  -60.55 | X-H torsion
[ 11005 11000 10999 10996 ] final -111.38 input  -57.11 | X-H torsion

> <Gold.Protein.ActiveResidues>
 VAL166  LYS551  ARG553  GLY616  TRP617  ASP618  TYR619  PRO620  LYS621  CYS622 
 ASP623  PHE694  ASN695  SER759  ASP760  ASP761  ALA762  ILE779  LEU786  VAL792 
 PHE793  MET794  SER795  GLU796  ALA797  LYS798  CYS799  TRP800  GLU811  SER814 

> <Gold.Protein.RotatedAtoms>
  151.1406  135.0177  159.8623 H   0  0  0  0  0  0  0  0  0  0  0  0  # atno 6907 bound_to 6896
  152.5452  134.1503  159.8526 H   0  0  0  0  0  0  0  0  0  0  0  0  # atno 6908 bound_to 6896
  151.1579  133.4819  159.2627 H   0  0  0  0  0  0  0  0  0  0  0  0  # atno 6909 bound_to 6896
  146.2413  139.9897  142.8427 H   0  0  0  0  0  0  0  0  0  0  0  0  # atno 7974 bound_to 7965
  155.4229  140.0520  157.3024 H   0  0  0  0  0  0  0  0  0  0  0  0  # atno 8008 bound_to 7997
  154.4894  140.2114  155.9541 H   0  0  0  0  0  0  0  0  0  0  0  0  # atno 8009 bound_to 7997
  156.1321  140.3170  155.8370 H   0  0  0  0  0  0  0  0  0  0  0  0  # atno 8010 bound_to 7997
  140.1726  144.4262  150.6654 H   0  0  0  0  0  0  0  0  0  0  0  0  # atno 10167 bound_to 10162
  157.6068  131.1042  150.7675 H   0  0  0  0  0  0  0  0  0  0  0  0  # atno 10718 bound_to 10713
  153.1853  135.6834  153.8423 H   0  0  0  0  0  0  0  0  0  0  0  0  # atno 10763 bound_to 10752
  153.7741  135.3192  155.3357 H   0  0  0  0  0  0  0  0  0  0  0  0  # atno 10764 bound_to 10752
  154.8085  135.4733  154.0550 H   0  0  0  0  0  0  0  0  0  0  0  0  # atno 10765 bound_to 10752
  141.0738  133.9336  157.2432 H   0  0  0  0  0  0  0  0  0  0  0  0  # atno 11005 bound_to 11000
  145.1514  140.9625  143.4430 LP  0  0  0  0  0  0  0  0  0  0  0  0  # atno 17320 bound_to 7965
  145.0201  139.3431  143.6076 LP  0  0  0  0  0  0  0  0  0  0  0  0  # atno 17321 bound_to 7965
  140.6572  143.2241  151.5941 LP  0  0  0  0  0  0  0  0  0  0  0  0  # atno 17342 bound_to 10162
  139.5331  144.2858  152.1192 LP  0  0  0  0  0  0  0  0  0  0  0  0  # atno 17343 bound_to 10162
  156.8062  130.4937  149.5362 LP  0  0  0  0  0  0  0  0  0  0  0  0  # atno 17370 bound_to 10713
  156.1157  130.6073  151.0117 LP  0  0  0  0  0  0  0  0  0  0  0  0  # atno 17371 bound_to 10713
  139.9550  135.0167  156.9102 LP  0  0  0  0  0  0  0  0  0  0  0  0  # atno 17394 bound_to 11000
  140.5618  134.0528  155.7401 LP  0  0  0  0  0  0  0  0  0  0  0  0  # atno 17395 bound_to 11000

$$$$
