#       Name:                AV-unprocessed.smi:1163
#       Creating user name   scv26
#       Creation time:       Fri Mar 27 03:50:16 2020


#       File generated by GOLD software.
#

@<TRIPOS>MOLECULE
AV-unprocessed.smi:1163
    45    46     1
SMALL
NO_CHARGES


@<TRIPOS>ATOM
      1 ****        -7.6130   0.7993   0.3995 C.3            1 S1                 0.0000
      2 ****        -6.9192  -0.4370   0.5283 O.3            1 S1                 0.0000
      3 ****        -5.5393  -0.4163   0.5309 C.ar           1 S1                 0.0000
      4 ****        -4.8467  -1.6361   0.6628 C.ar           1 S1                 0.0000
      5 ****        -3.4392  -1.6199   0.6621 C.ar           1 S1                 0.0000
      6 ****        -2.7648  -0.3904   0.5217 C.ar           1 S1                 0.0000
      7 ****        -1.3440  -0.4054   0.5401 N.am           1 S1                 0.0000
      8 ****        -0.4892   0.5300   0.0919 C.2            1 S1                 0.0000
      9 ****        -0.8108   1.5869  -0.4504 O.2            1 S1                 0.0000
     10 ****         0.7816   0.1545   0.2928 N.am           1 S1                 0.0000
     11 ****         1.9679   0.9159  -0.0882 C.3            1 S1                 0.0000
     12 ****         2.8267   1.2926   1.1163 C.3            1 S1                 0.0000
     13 ****         4.2482   1.0694   0.6135 C.3            1 S1                 0.0000
     14 ****         4.1114  -0.1259  -0.2040 N.3            1 S1                 0.0000
     15 ****         5.3009  -0.3589  -1.0205 C.3            1 S1                 0.0000
     16 ****         5.2909  -1.7298  -1.7249 C.3            1 S1                 0.0000
     17 ****         6.4727  -1.9150  -2.3116 F              1 S1                 0.0000
     18 ****         5.0999  -2.7081  -0.8391 F              1 S1                 0.0000
     19 ****         4.3466  -1.7932  -2.6637 F              1 S1                 0.0000
     20 ****         2.8934   0.0787  -0.9843 C.3            1 S1                 0.0000
     21 ****        -3.5507   0.7825   0.4089 C.ar           1 S1                 0.0000
     22 ****        -4.9007   0.7737   0.4104 N.ar           1 S1                 0.0000
     23 ****        -8.6868   0.6128   0.4031 H              1 S1                 0.0000
     24 ****        -7.3682   1.2997  -0.5387 H              1 S1                 0.0000
     25 ****        -7.3906   1.4687   1.2318 H              1 S1                 0.0000
     26 ****        -5.3857  -2.5666   0.7630 H              1 S1                 0.0000
     27 ****        -2.8869  -2.5429   0.7639 H              1 S1                 0.0000
     28 ****        -0.9261  -1.2551   0.8898 H              1 S1                 0.0000
     29 ****         0.9454  -0.7344   0.7423 H              1 S1                 0.0000
     30 ****         1.6979   1.8230  -0.6319 H              1 S1                 0.0000
     31 ****         2.6570   2.3170   1.4490 H              1 S1                 0.0000
     32 ****         2.6302   0.6300   1.9610 H              1 S1                 0.0000
     33 ****         4.5701   1.9132   0.0005 H              1 S1                 0.0000
     34 ****         4.9654   0.9333   1.4235 H              1 S1                 0.0000
     35 ****         5.4253   0.4447  -1.7481 H              1 S1                 0.0000
     36 ****         6.1705  -0.3198  -0.3629 H              1 S1                 0.0000
     37 ****         2.4520  -0.8737  -1.2802 H              1 S1                 0.0000
     38 ****         3.1188   0.6402  -1.8926 H              1 S1                 0.0000
     39 ****        -3.1096   1.7640   0.3350 H              1 S1                 0.0000
     40 ****        -7.2051  -1.0177  -0.2341 LP             1 S1                 0.0000
     41 ****        -7.2106  -0.8515   1.3904 LP             1 S1                 0.0000
     42 ****        -1.7771   1.8048  -0.5873 LP             1 S1                 0.0000
     43 ****        -0.1058   2.2277  -0.7542 LP             1 S1                 0.0000
     44 ****         4.0344  -0.9575   0.3461 LP             1 S1                 0.0000
     45 ****        -5.4179   1.6253   0.3246 LP             1 S1                 0.0000
@<TRIPOS>BOND
    1    1    2 1     
    2    1   23 1     
    3    1   24 1     
    4    1   25 1     
    5    2    3 1     
    6    3   22 ar    
    7    3    4 ar    
    8    4    5 ar    
    9    4   26 1     
   10    5    6 ar    
   11    5   27 1     
   12    6    7 1     
   13    6   21 ar    
   14    7    8 am    
   15    7   28 1     
   16    8    9 2     
   17    8   10 am    
   18   10   11 1     
   19   10   29 1     
   20   11   20 1     
   21   11   12 1     
   22   11   30 1     
   23   12   13 1     
   24   12   31 1     
   25   12   32 1     
   26   13   14 1     
   27   13   33 1     
   28   13   34 1     
   29   14   15 1     
   30   14   20 1     
   31   15   16 1     
   32   15   35 1     
   33   15   36 1     
   34   16   17 1     
   35   16   18 1     
   36   16   19 1     
   37   20   37 1     
   38   20   38 1     
   39   21   22 ar    
   40   21   39 1     
   41    2   40 1     
   42    2   41 1     
   43    9   42 1     
   44    9   43 1     
   45   14   44 1     
   46   22   45 1     
@<TRIPOS>SUBSTRUCTURE
      1 S1             1
@<TRIPOS>SET
LONE_PAIRS      STATIC     ATOMS    <user>   **** ""
6 40 41 42 43 44 45
DONOR_HYDROGENS      STATIC     ATOMS    <user>   **** ""
2 28 29
ATOM$BLUE        STATIC     ATOMS    COLORGROUP SYSTEM
6 40 41 42 43 44 45
ATOM$RED        STATIC     ATOMS    COLORGROUP SYSTEM
2 28 29
