AV-unprocessed.smi:712|AV-procd|sdf|3472|dock5
  -GOLD-   22720 0463D 1   1.00000     0.00000
 Structure written by MMmdl.
 50 51  0  0  0  0  0  0  0  0  1 V2000
  145.3998  142.7871  155.4582 C   0  0  0  0  0  0  0  0  0  0  0  0
  146.4836  141.7342  155.3535 C   0  0  0  0  0  0  0  0  0  0  0  0
  147.5378  141.8588  154.3696 C   0  0  0  0  0  0  0  0  0  0  0  0
  148.4692  140.8972  154.2842 C   0  0  0  0  0  0  0  0  0  0  0  0
  148.4590  139.7734  155.1305 N   0  0  0  0  0  0  0  0  0  0  0  0
  149.5142  138.7682  154.9059 C   0  0  0  0  0  0  0  0  0  0  0  0
  150.8586  139.1075  155.5733 C   0  0  0  0  0  0  0  0  0  0  0  0
  151.5610  139.9960  155.0931 O   0  0  0  0  0  0  0  0  0  0  0  0
  151.2278  138.3837  156.6427 N   0  0  0  0  0  0  0  0  0  0  0  0
  152.5199  138.4461  157.3141 C   0  0  0  0  0  0  0  0  0  0  0  0
  152.5080  139.5036  158.4313 C   0  0  2  0  0  0  0  0  0  0  0  0
  151.6067  140.7147  158.1014 C   0  0  0  0  0  0  0  0  0  0  0  0
  151.6617  141.7404  159.1389 N   0  0  0  0  0  0  0  0  0  0  0  0
  150.8247  142.9025  158.8340 C   0  0  0  0  0  0  0  0  0  0  0  0
  151.0488  144.1473  159.7202 C   0  0  0  0  0  0  0  0  0  0  0  0
  149.7132  144.8404  160.0239 C   0  0  0  0  0  0  0  0  0  0  0  0
  152.0372  145.1373  159.0824 C   0  0  0  0  0  0  0  0  0  0  0  0
  153.0513  142.1350  159.3397 C   0  0  0  0  0  0  0  0  0  0  0  0
  153.9496  140.9302  159.6666 C   0  0  0  0  0  0  0  0  0  0  0  0
  153.8430  139.9605  158.6294 O   0  0  0  0  0  0  0  0  0  0  0  0
  147.5029  139.6049  156.0933 C   0  0  0  0  0  0  0  0  0  0  0  0
  147.4861  138.6226  156.8350 O   0  0  0  0  0  0  0  0  0  0  0  0
  146.4837  140.6582  156.1715 C   0  0  0  0  0  0  0  0  0  0  0  0
  145.3407  143.3782  154.5439 H   0  0  0  0  0  0  0  0  0  0  0  0
  145.6069  143.4606  156.2897 H   0  0  0  0  0  0  0  0  0  0  0  0
  144.4266  142.3236  155.6228 H   0  0  0  0  0  0  0  0  0  0  0  0
  147.5721  142.7095  153.7051 H   0  0  0  0  0  0  0  0  0  0  0  0
  149.2743  140.9225  153.5638 H   0  0  0  0  0  0  0  0  0  0  0  0
  149.1797  137.7982  155.2773 H   0  0  0  0  0  0  0  0  0  0  0  0
  149.6895  138.6150  153.8401 H   0  0  0  0  0  0  0  0  0  0  0  0
  150.5814  137.6848  156.9791 H   0  0  0  0  0  0  0  0  0  0  0  0
  152.7981  137.4703  157.7153 H   0  0  0  0  0  0  0  0  0  0  0  0
  153.2754  138.7005  156.5703 H   0  0  0  0  0  0  0  0  0  0  0  0
  152.1602  139.0352  159.3543 H   0  0  0  0  0  0  0  0  0  0  0  0
  151.9057  141.1414  157.1429 H   0  0  0  0  0  0  0  0  0  0  0  0
  150.5824  140.3646  157.9827 H   0  0  0  0  0  0  0  0  0  0  0  0
  150.9974  143.1968  157.7977 H   0  0  0  0  0  0  0  0  0  0  0  0
  149.7747  142.6110  158.8865 H   0  0  0  0  0  0  0  0  0  0  0  0
  151.4554  143.8324  160.6800 H   0  0  0  0  0  0  0  0  0  0  0  0
  149.2309  145.1902  159.1106 H   0  0  0  0  0  0  0  0  0  0  0  0
  149.8570  145.7028  160.6755 H   0  0  0  0  0  0  0  0  0  0  0  0
  149.0236  144.1616  160.5266 H   0  0  0  0  0  0  0  0  0  0  0  0
  151.6879  145.4716  158.1051 H   0  0  0  0  0  0  0  0  0  0  0  0
  153.0205  144.6856  158.9488 H   0  0  0  0  0  0  0  0  0  0  0  0
  152.1690  146.0201  159.7085 H   0  0  0  0  0  0  0  0  0  0  0  0
  153.4278  142.6316  158.4439 H   0  0  0  0  0  0  0  0  0  0  0  0
  153.1165  142.8622  160.1499 H   0  0  0  0  0  0  0  0  0  0  0  0
  154.9894  141.2454  159.7542 H   0  0  0  0  0  0  0  0  0  0  0  0
  153.6677  140.4851  160.6222 H   0  0  0  0  0  0  0  0  0  0  0  0
  145.6997  140.5588  156.9085 H   0  0  0  0  0  0  0  0  0  0  0  0
  1  2  1  0  0  0  0
  1 24  1  0  0  0  0
  1 25  1  0  0  0  0
  1 26  1  0  0  0  0
  2 23  2  0  0  0  0
  2  3  1  0  0  0  0
  3  4  2  0  0  0  0
  3 27  1  0  0  0  0
  4  5  1  0  0  0  0
  4 28  1  0  0  0  0
  5  6  1  0  0  0  0
  5 21  1  0  0  0  0
  6  7  1  0  0  0  0
  6 29  1  0  0  0  0
  6 30  1  0  0  0  0
  7  8  2  0  0  0  0
  7  9  1  0  0  0  0
  9 10  1  0  0  0  0
  9 31  1  0  0  0  0
 10 11  1  0  0  0  0
 10 32  1  0  0  0  0
 10 33  1  0  0  0  0
 11 20  1  0  0  0  0
 11 12  1  0  0  0  0
 11 34  1  0  0  0  0
 12 13  1  0  0  0  0
 12 35  1  0  0  0  0
 12 36  1  0  0  0  0
 13 14  1  0  0  0  0
 13 18  1  0  0  0  0
 14 15  1  0  0  0  0
 14 37  1  0  0  0  0
 14 38  1  0  0  0  0
 15 16  1  0  0  0  0
 15 17  1  0  0  0  0
 15 39  1  0  0  0  0
 16 40  1  0  0  0  0
 16 41  1  0  0  0  0
 16 42  1  0  0  0  0
 17 43  1  0  0  0  0
 17 44  1  0  0  0  0
 17 45  1  0  0  0  0
 18 19  1  0  0  0  0
 18 46  1  0  0  0  0
 18 47  1  0  0  0  0
 19 20  1  0  0  0  0
 19 48  1  0  0  0  0
 19 49  1  0  0  0  0
 21 22  2  0  0  0  0
 21 23  1  0  0  0  0
 23 50  1  0  0  0  0
M  END
> <s_m_source_file>
AV-unprocessed.smi

> <i_m_source_file_index>
712

> <i_lp_mmshare_version>
43012

> <i_f3d_flags>
0

> <s_epik_input>
W0NIM11jMVtjSF1bY0hdbihjKD1PKVtjSF0xKVtDSDJdQyg9TylbTkhdW0NIMl1bQ0BASF0yW0NIMl1OKFtDSDJdW0NIMl1PMilbQ0gyXVtDSF0oW0NIM10pW0NIM10=

> <s_epik_cmdline>
J2VwaWtfcHl0aG9uJywgJy1waCcsICc3LjAnLCAnLXRuJywgJzgnLCAnLW1hJywgJzIwMCcsICctbWV0YWxfYmluZGluZycsICctaW1hZScsICc8aW5maWxlLm1hZT4nLCAnLW9tYWUnLCAnPG91dGZpbGUubWFlPic=

> <r_lp_tautomer_probability>
1

> <r_epik_Ionization_Penalty>
1.11669

> <r_epik_Ionization_Penalty_Charging>
4.93496e-07

> <r_epik_Ionization_Penalty_Neutral>
1.11669

> <r_epik_State_Penalty>
1.17516

> <r_epik_Charging_Adjusted_Penalty>
1.17516

> <i_epik_Tot_Q>
0

> <i_epik_Tot_abs_Q>
0

> <r_epik_Metal_State_Penalty>
1.17513

> <b_epik_Metal_Only>
0

> <s_lp_Force_Field>
OPLS_2005

> <r_lp_Energy>
32.9939

> <b_lp_Chiralities_Consistent>
1

> <s_lp_Variant>
AV-unprocessed.smi:712-5

> <Gold.Version>
5.8.1

> <Gold.Id.Protein>
6NUR|6NUR_protein|mol2

> <Gold.PLP.Fitness>
47.7678

> <Gold.PLP.PLP>
-41.8726

> <Gold.PLP.part.hbond>
-2.0000

> <Gold.PLP.part.metal>
0.0000

> <Gold.PLP.part.buried>
-6.0405

> <Gold.PLP.part.nonpolar>
-34.4169

> <Gold.PLP.part.repulsive>
0.0707

> <Gold.PLP.ligand.clash>
0.0000

> <Gold.PLP.ligand.torsion>
1.5355

> <Gold.PLP.Chemscore.Hbond>
2.0000

> <Gold.PLP.Chemscore.CHOScore>
0.9567

> <Gold.PLP.Chemscore.Metal>
0.0000

> <Gold.Chemscore.Hbonds>
donor molecule, donor type, donor heavy atom, donor atom, acceptor molecule, acceptor atom, score
      P1  H  7989  7998       L1     8  1.00
      P1  H  7997  8008       L1    20  1.00
      L1  C     4    28       P1  7957  0.88

> <Gold.PLP.Chemscore.Internal.Correction>
0.0960

> <Gold.Rescore>
     Score         DG    S(hbond)    S(metal)    S(lipo)     H(rot)  DE(clash)    DE(int)     intcor
     18.48     -19.83       1.86        0.00     109.43       1.82       0.04       1.31       ----

> <Gold.Chemscore.Fitness>
18.4802

> <Gold.Chemscore.DG>
-19.8300

> <Gold.Chemscore.ZeroCoef>
-5.4800

> <Gold.Chemscore.Hbond>
1.8615

> <Gold.Chemscore.Metal>
0.0000

> <Gold.Chemscore.Lipo>
109.4260

> <Gold.Chemscore.Internal_Hbond>
0.0000

> <Gold.Chemscore.DEClash>
0.0386

> <Gold.Chemscore.DEInternal>
1.3112

> <Gold.Chemscore.Rot>
1.8243

> <Gold.Chemscore.Internal.Correction>
   9.000000E+99

> <Gold.Chemscore.Hbonds>
donor molecule, donor type, donor heavy atom, donor atom, acceptor molecule, acceptor atom, score
      P1  H  7989  7998       L1     8  0.97
      P1  H  7997  8008       L1    20  0.89

> <Gold.Chemscore.Hbond.Weighted>
-6.2174

> <Gold.Chemscore.Metal.Weighted>
-0.0000

> <Gold.Chemscore.Lipo.Weighted>
-12.8028

> <Gold.Chemscore.Internal_Hbond.Weighted>
0.0000

> <Gold.Chemscore.DEClash.Weighted>
0.0386

> <Gold.Chemscore.DEInternal.Weighted>
1.3112

> <Gold.Chemscore.Rot.Weighted>
4.6703

> <Gold.Chemscore.Internal.Correction.Weighted>
   9.000000E+99

> <Gold.Protein.RotatedTorsions>
[ 6907 6896 6895 6894 ] final  -38.70 input  -60.11 | X-H torsion
[ 7974 7965 7964 7962 ] final   57.51 input  175.53 | X-H torsion
[ 8008 7997 7996 7995 ] final -103.55 input   59.86 | X-H torsion
[ 10167 10162 10161 10158 ] final  -46.97 input  -65.29 | X-H torsion
[ 10718 10713 10712 10709 ] final -111.37 input   66.30 | X-H torsion
[ 10763 10752 10751 10750 ] final  107.17 input  -60.55 | X-H torsion
[ 11005 11000 10999 10996 ] final -143.08 input  -57.11 | X-H torsion

> <Gold.Protein.ActiveResidues>
 VAL166  LYS551  ARG553  GLY616  TRP617  ASP618  TYR619  PRO620  LYS621  CYS622 
 ASP623  PHE694  ASN695  SER759  ASP760  ASP761  ALA762  ILE779  LEU786  VAL792 
 PHE793  MET794  SER795  GLU796  ALA797  LYS798  CYS799  TRP800  GLU811  SER814 

> <Gold.Protein.RotatedAtoms>
  150.9993  134.9309  159.7944 H   0  0  0  0  0  0  0  0  0  0  0  0  # atno 6907 bound_to 6896
  152.5273  134.3176  159.9146 H   0  0  0  0  0  0  0  0  0  0  0  0  # atno 6908 bound_to 6896
  151.3181  133.4010  159.2686 H   0  0  0  0  0  0  0  0  0  0  0  0  # atno 6909 bound_to 6896
  145.9283  139.3786  143.0436 H   0  0  0  0  0  0  0  0  0  0  0  0  # atno 7974 bound_to 7965
  154.8726  140.0422  157.1733 H   0  0  0  0  0  0  0  0  0  0  0  0  # atno 8008 bound_to 7997
  154.8723  140.2960  155.5453 H   0  0  0  0  0  0  0  0  0  0  0  0  # atno 8009 bound_to 7997
  156.2999  140.2427  156.3714 H   0  0  0  0  0  0  0  0  0  0  0  0  # atno 8010 bound_to 7997
  140.6795  143.2806  151.3860 H   0  0  0  0  0  0  0  0  0  0  0  0  # atno 10167 bound_to 10162
  156.0643  130.5864  150.8364 H   0  0  0  0  0  0  0  0  0  0  0  0  # atno 10718 bound_to 10713
  153.4030  135.3853  155.2000 H   0  0  0  0  0  0  0  0  0  0  0  0  # atno 10763 bound_to 10752
  154.8731  135.3776  154.4594 H   0  0  0  0  0  0  0  0  0  0  0  0  # atno 10764 bound_to 10752
  153.5094  135.7087  153.5851 H   0  0  0  0  0  0  0  0  0  0  0  0  # atno 10765 bound_to 10752
  140.8161  134.2687  157.4920 H   0  0  0  0  0  0  0  0  0  0  0  0  # atno 11005 bound_to 11000
  145.8460  140.9555  143.0774 LP  0  0  0  0  0  0  0  0  0  0  0  0  # atno 17320 bound_to 7965
  144.6761  140.0345  143.7482 LP  0  0  0  0  0  0  0  0  0  0  0  0  # atno 17321 bound_to 7965
  139.6108  144.1103  152.2296 LP  0  0  0  0  0  0  0  0  0  0  0  0  # atno 17342 bound_to 10162
  140.0516  144.5928  150.7331 LP  0  0  0  0  0  0  0  0  0  0  0  0  # atno 17343 bound_to 10162
  157.5674  131.0946  150.9469 LP  0  0  0  0  0  0  0  0  0  0  0  0  # atno 17370 bound_to 10713
  156.9693  130.5485  149.5289 LP  0  0  0  0  0  0  0  0  0  0  0  0  # atno 17371 bound_to 10713
  139.8711  134.9510  156.4071 LP  0  0  0  0  0  0  0  0  0  0  0  0  # atno 17394 bound_to 11000
  140.9148  133.7686  155.9835 LP  0  0  0  0  0  0  0  0  0  0  0  0  # atno 17395 bound_to 11000

$$$$
