AV-unprocessed.smi:2965|AV-procd|sdf|11322|dock5
  -GOLD-   2272016223D 1   1.00000     0.00000
 Structure written by MMmdl.
 36 37  0  0  0  0  0  0  0  0  1 V2000
  148.6296  140.1054  157.9732 O   0  0  0  0  0  0  0  0  0  0  0  0
  149.1172  141.0362  157.3300 C   0  0  0  0  0  0  0  0  0  0  0  0
  150.6010  141.0316  156.9349 C   0  0  0  0  0  0  0  0  0  0  0  0
  151.4984  141.4592  158.0214 N   0  0  0  0  0  0  0  0  0  0  0  0
  151.1540  142.6386  158.7108 C   0  0  0  0  0  0  0  0  0  0  0  0
  151.8951  143.1429  159.7162 C   0  0  0  0  0  0  0  0  0  0  0  0
  151.4681  144.3845  160.4839 C   0  0  0  0  0  0  0  0  0  0  0  0
  152.1060  144.4669  161.6516 F   0  0  0  0  0  0  0  0  0  0  0  0
  151.7570  145.4756  159.7761 F   0  0  0  0  0  0  0  0  0  0  0  0
  150.1559  144.3795  160.7228 F   0  0  0  0  0  0  0  0  0  0  0  0
  153.0734  142.3863  160.0912 C   0  0  0  0  0  0  0  0  0  0  0  0
  153.4099  141.2495  159.4509 C   0  0  0  0  0  0  0  0  0  0  0  0
  152.6038  140.7242  158.3468 C   0  0  0  0  0  0  0  0  0  0  0  0
  152.9027  139.6883  157.7522 O   0  0  0  0  0  0  0  0  0  0  0  0
  148.4130  142.1122  156.9487 N   0  0  0  0  0  0  0  0  0  0  0  0
  146.9988  142.3324  157.2283 C   0  0  0  0  0  0  0  0  0  0  0  0
  146.1430  142.2091  155.9569 C   0  0  2  0  0  0  0  0  0  0  0  0
  146.8931  142.5650  154.6751 C   0  0  0  0  0  0  0  0  0  0  0  0
  145.7554  142.9423  153.7545 C   0  0  0  0  0  0  0  0  0  0  0  0
  144.8121  143.6732  154.7059 C   0  0  0  0  0  0  0  0  0  0  0  0
  145.0450  143.1176  155.9982 O   0  0  0  0  0  0  0  0  0  0  0  0
  150.8790  140.0337  156.5899 H   0  0  0  0  0  0  0  0  0  0  0  0
  150.7218  141.6770  156.0637 H   0  0  0  0  0  0  0  0  0  0  0  0
  150.2387  143.1037  158.3744 H   0  0  0  0  0  0  0  0  0  0  0  0
  153.6995  142.7386  160.8977 H   0  0  0  0  0  0  0  0  0  0  0  0
  154.2961  140.7124  159.7564 H   0  0  0  0  0  0  0  0  0  0  0  0
  148.8924  142.8359  156.4328 H   0  0  0  0  0  0  0  0  0  0  0  0
  146.6774  141.5994  157.9687 H   0  0  0  0  0  0  0  0  0  0  0  0
  146.8602  143.3144  157.6837 H   0  0  0  0  0  0  0  0  0  0  0  0
  145.7414  141.1990  155.8604 H   0  0  0  0  0  0  0  0  0  0  0  0
  147.5445  143.4255  154.8343 H   0  0  0  0  0  0  0  0  0  0  0  0
  147.4982  141.7419  154.2937 H   0  0  0  0  0  0  0  0  0  0  0  0
  146.0699  143.5558  152.9098 H   0  0  0  0  0  0  0  0  0  0  0  0
  145.2755  142.0431  153.3657 H   0  0  0  0  0  0  0  0  0  0  0  0
  145.0527  144.7364  154.7401 H   0  0  0  0  0  0  0  0  0  0  0  0
  143.7674  143.5722  154.4115 H   0  0  0  0  0  0  0  0  0  0  0  0
  1  2  2  0  0  0  0
  2  3  1  0  0  0  0
  2 15  1  0  0  0  0
  3  4  1  0  0  0  0
  3 22  1  0  0  0  0
  3 23  1  0  0  0  0
  4 13  1  0  0  0  0
  4  5  1  0  0  0  0
  5  6  2  0  0  0  0
  5 24  1  0  0  0  0
  6  7  1  0  0  0  0
  6 11  1  0  0  0  0
  7  8  1  0  0  0  0
  7  9  1  0  0  0  0
  7 10  1  0  0  0  0
 11 12  2  0  0  0  0
 11 25  1  0  0  0  0
 12 13  1  0  0  0  0
 12 26  1  0  0  0  0
 13 14  2  0  0  0  0
 15 16  1  0  0  0  0
 15 27  1  0  0  0  0
 16 17  1  0  0  0  0
 16 28  1  0  0  0  0
 16 29  1  0  0  0  0
 17 21  1  0  0  0  0
 17 18  1  0  0  0  0
 17 30  1  0  0  0  0
 18 19  1  0  0  0  0
 18 31  1  0  0  0  0
 18 32  1  0  0  0  0
 19 20  1  0  0  0  0
 19 33  1  0  0  0  0
 19 34  1  0  0  0  0
 20 21  1  0  0  0  0
 20 35  1  0  0  0  0
 20 36  1  0  0  0  0
M  END
> <s_m_source_file>
AV-unprocessed.smi

> <i_m_source_file_index>
2965

> <i_lp_mmshare_version>
43012

> <i_f3d_flags>
0

> <s_epik_input>
TzFbQ0gyXVtDSDJdW0NIMl1bQ0BIXTFbQ0gyXVtOSF1DKD1PKVtDSDJdbjJbY0hdYyhDKEYpKEYpRilbY0hdW2NIXWMyPU8=

> <s_epik_cmdline>
J2VwaWtfcHl0aG9uJywgJy1waCcsICc3LjAnLCAnLXRuJywgJzgnLCAnLW1hJywgJzIwMCcsICctbWV0YWxfYmluZGluZycsICctaW1hZScsICc8aW5maWxlLm1hZT4nLCAnLW9tYWUnLCAnPG91dGZpbGUubWFlPic=

> <r_lp_tautomer_probability>
1

> <r_epik_Ionization_Penalty>
4.53327e-08

> <r_epik_Ionization_Penalty_Charging>
1.84737e-08

> <r_epik_Ionization_Penalty_Neutral>
2.6859e-08

> <r_epik_State_Penalty>
-0

> <r_epik_Charging_Adjusted_Penalty>
1.84737e-08

> <i_epik_Tot_Q>
0

> <i_epik_Tot_abs_Q>
0

> <r_epik_Metal_State_Penalty>
-0

> <b_epik_Metal_Only>
0

> <s_lp_Force_Field>
OPLS_2005

> <r_lp_Energy>
28.8202

> <b_lp_Chiralities_Consistent>
1

> <s_lp_Variant>
AV-unprocessed.smi:2965-1

> <Gold.Version>
5.8.1

> <Gold.Id.Protein>
6NUR|6NUR_protein|mol2

> <Gold.PLP.Fitness>
46.3403

> <Gold.PLP.PLP>
-44.0845

> <Gold.PLP.part.hbond>
-2.4427

> <Gold.PLP.part.metal>
0.0000

> <Gold.PLP.part.buried>
-2.6989

> <Gold.PLP.part.nonpolar>
-37.0843

> <Gold.PLP.part.repulsive>
0.1638

> <Gold.PLP.ligand.clash>
0.0000

> <Gold.PLP.ligand.torsion>
1.5768

> <Gold.PLP.Chemscore.Hbond>
1.7840

> <Gold.PLP.Chemscore.CHOScore>
0.0000

> <Gold.PLP.Chemscore.Metal>
0.0000

> <Gold.Chemscore.Hbonds>
donor molecule, donor type, donor heavy atom, donor atom, acceptor molecule, acceptor atom, score
      L1  H    15    27       P1  8028  0.95
      P1  H  7997  8008       L1    14  1.00

> <Gold.PLP.Chemscore.Internal.Correction>
0.0574

> <Gold.Rescore>
     Score         DG    S(hbond)    S(metal)    S(lipo)     H(rot)  DE(clash)    DE(int)     intcor
     13.99     -16.24       1.79        0.00      81.69       1.87       0.99       1.26       ----

> <Gold.Chemscore.Fitness>
13.9933

> <Gold.Chemscore.DG>
-16.2388

> <Gold.Chemscore.ZeroCoef>
-5.4800

> <Gold.Chemscore.Hbond>
1.7914

> <Gold.Chemscore.Metal>
0.0000

> <Gold.Chemscore.Lipo>
81.6899

> <Gold.Chemscore.Internal_Hbond>
0.0000

> <Gold.Chemscore.DEClash>
0.9867

> <Gold.Chemscore.DEInternal>
1.2588

> <Gold.Chemscore.Rot>
1.8681

> <Gold.Chemscore.Internal.Correction>
   9.000000E+99

> <Gold.Chemscore.Hbonds>
donor molecule, donor type, donor heavy atom, donor atom, acceptor molecule, acceptor atom, score
      L1  H    15    27       P1  8028  0.85
      P1  H  7997  8008       L1    14  0.50

> <Gold.Chemscore.Hbond.Weighted>
-5.9833

> <Gold.Chemscore.Metal.Weighted>
-0.0000

> <Gold.Chemscore.Lipo.Weighted>
-9.5577

> <Gold.Chemscore.Internal_Hbond.Weighted>
0.0000

> <Gold.Chemscore.DEClash.Weighted>
0.9867

> <Gold.Chemscore.DEInternal.Weighted>
1.2588

> <Gold.Chemscore.Rot.Weighted>
4.7822

> <Gold.Chemscore.Internal.Correction.Weighted>
   9.000000E+99

> <Gold.Protein.RotatedTorsions>
[ 6907 6896 6895 6894 ] final -114.79 input  -60.11 | X-H torsion
[ 7974 7965 7964 7962 ] final  -33.51 input  175.53 | X-H torsion
[ 8008 7997 7996 7995 ] final  -83.22 input   59.86 | X-H torsion
[ 10167 10162 10161 10158 ] final  138.21 input  -65.29 | X-H torsion
[ 10718 10713 10712 10709 ] final   67.95 input   66.30 | X-H torsion
[ 10763 10752 10751 10750 ] final  103.93 input  -60.55 | X-H torsion
[ 11005 11000 10999 10996 ] final  -46.76 input  -57.11 | X-H torsion

> <Gold.Protein.ActiveResidues>
 VAL166  LYS551  ARG553  GLY616  TRP617  ASP618  TYR619  PRO620  LYS621  CYS622 
 ASP623  PHE694  ASN695  SER759  ASP760  ASP761  ALA762  ILE779  LEU786  VAL792 
 PHE793  MET794  SER795  GLU796  ALA797  LYS798  CYS799  TRP800  GLU811  SER814 

> <Gold.Protein.RotatedAtoms>
  150.7928  133.8751  159.3269 H   0  0  0  0  0  0  0  0  0  0  0  0  # atno 6907 bound_to 6896
  151.6584  135.0990  160.0184 H   0  0  0  0  0  0  0  0  0  0  0  0  # atno 6908 bound_to 6896
  152.4005  133.6772  159.6348 H   0  0  0  0  0  0  0  0  0  0  0  0  # atno 6909 bound_to 6896
  146.0905  140.5924  142.8866 H   0  0  0  0  0  0  0  0  0  0  0  0  # atno 7974 bound_to 7965
  154.6168  140.0622  156.9565 H   0  0  0  0  0  0  0  0  0  0  0  0  # atno 8008 bound_to 7997
  155.1882  140.3305  155.4345 H   0  0  0  0  0  0  0  0  0  0  0  0  # atno 8009 bound_to 7997
  156.2409  140.1885  156.6974 H   0  0  0  0  0  0  0  0  0  0  0  0  # atno 8010 bound_to 7997
  139.5118  144.6366  151.5679 H   0  0  0  0  0  0  0  0  0  0  0  0  # atno 10167 bound_to 10162
  157.6261  130.9348  150.0312 H   0  0  0  0  0  0  0  0  0  0  0  0  # atno 10718 bound_to 10713
  153.3592  135.3960  155.1705 H   0  0  0  0  0  0  0  0  0  0  0  0  # atno 10763 bound_to 10752
  154.8676  135.3675  154.5121 H   0  0  0  0  0  0  0  0  0  0  0  0  # atno 10764 bound_to 10752
  153.5579  135.7081  153.5621 H   0  0  0  0  0  0  0  0  0  0  0  0  # atno 10765 bound_to 10752
  141.0599  133.6713  156.3201 H   0  0  0  0  0  0  0  0  0  0  0  0  # atno 11005 bound_to 11000
  144.7357  140.4800  143.6906 LP  0  0  0  0  0  0  0  0  0  0  0  0  # atno 17320 bound_to 7965
  145.6048  139.1507  143.3109 LP  0  0  0  0  0  0  0  0  0  0  0  0  # atno 17321 bound_to 7965
  140.6118  143.9422  150.6458 LP  0  0  0  0  0  0  0  0  0  0  0  0  # atno 17342 bound_to 10162
  140.2667  143.3485  152.1274 LP  0  0  0  0  0  0  0  0  0  0  0  0  # atno 17343 bound_to 10162
  156.1434  130.3642  149.9548 LP  0  0  0  0  0  0  0  0  0  0  0  0  # atno 17370 bound_to 10713
  156.7584  130.9141  151.3640 LP  0  0  0  0  0  0  0  0  0  0  0  0  # atno 17371 bound_to 10713
  140.5890  134.5670  157.5495 LP  0  0  0  0  0  0  0  0  0  0  0  0  # atno 17394 bound_to 11000
  139.9423  134.7765  156.0648 LP  0  0  0  0  0  0  0  0  0  0  0  0  # atno 17395 bound_to 11000

$$$$
