#       Name:                AV-unprocessed.smi:2245
#       Creating user name   scv26
#       Creation time:       Fri Mar 27 12:28:23 2020


#       File generated by GOLD software.
#

@<TRIPOS>MOLECULE
AV-unprocessed.smi:2245
    48    49     1
SMALL
NO_CHARGES


@<TRIPOS>ATOM
      1 ****        -6.3651   1.2809  -1.2801 C.3            1 S1                 0.0000
      2 ****        -4.9369   1.7718  -1.1701 C.ar           1 S1                 0.0000
      3 ****        -4.6585   3.1110  -0.8363 C.ar           1 S1                 0.0000
      4 ****        -3.3097   3.5069  -0.7450 C.ar           1 S1                 0.0000
      5 ****        -2.9375   4.9312  -0.3902 C.3            1 S1                 0.0000
      6 ****        -2.2782   2.6629  -0.9609 N.ar           1 S1                 0.0000
      7 ****        -2.5343   1.3707  -1.2834 C.ar           1 S1                 0.0000
      8 ****        -1.5222   0.4047  -1.5278 N.am           1 S1                 0.0000
      9 ****        -0.1885   0.5678  -1.4741 C.2            1 S1                 0.0000
     10 ****         0.3923   1.6229  -1.2176 O.2            1 S1                 0.0000
     11 ****         0.4526  -0.5818  -1.7307 N.am           1 S1                 0.0000
     12 ****         1.9024  -0.7497  -1.7422 C.3            1 S1                 0.0000
     13 ****         2.5058  -0.7398  -0.3233 C.3            1 S1                 0.0000
     14 ****         4.0114  -0.9955  -0.2841 C.3            1 S1                 0.0000
     15 ****         4.2766  -1.5264   1.1315 C.3            1 S1                 0.0000
     16 ****         2.9618  -1.9084   1.7013 N.4            1 S1                 1.0000
     17 ****         2.9359  -3.1888   2.4488 C.3            1 S1                 0.0000
     18 ****         3.6243  -3.0860   3.8211 C.3            1 S1                 0.0000
     19 ****         3.4633  -4.2352   4.4752 F              1 S1                 0.0000
     20 ****         4.9299  -2.8528   3.6906 F              1 S1                 0.0000
     21 ****         3.0723  -2.1058   4.5361 F              1 S1                 0.0000
     22 ****         1.9703  -1.8247   0.6109 C.3            1 S1                 0.0000
     23 ****        -3.8589   0.8919  -1.3957 C.ar           1 S1                 0.0000
     24 ****        -7.0601   2.1144  -1.3869 H              1 S1                 0.0000
     25 ****        -6.6387   0.7177  -0.3876 H              1 S1                 0.0000
     26 ****        -6.4805   0.6301  -2.1472 H              1 S1                 0.0000
     27 ****        -5.4573   3.8154  -0.6544 H              1 S1                 0.0000
     28 ****        -3.8242   5.5538  -0.2680 H              1 S1                 0.0000
     29 ****        -2.3201   5.3691  -1.1752 H              1 S1                 0.0000
     30 ****        -2.3743   4.9540   0.5433 H              1 S1                 0.0000
     31 ****        -1.8539  -0.5197  -1.7595 H              1 S1                 0.0000
     32 ****        -0.1024  -1.3988  -1.9404 H              1 S1                 0.0000
     33 ****         2.1254  -1.6947  -2.2386 H              1 S1                 0.0000
     34 ****         2.3573   0.0330  -2.3517 H              1 S1                 0.0000
     35 ****         2.3205   0.2304   0.1409 H              1 S1                 0.0000
     36 ****         4.2807  -1.7606  -1.0138 H              1 S1                 0.0000
     37 ****         4.5932  -0.1018  -0.5120 H              1 S1                 0.0000
     38 ****         4.9710  -2.3669   1.0951 H              1 S1                 0.0000
     39 ****         4.7212  -0.7566   1.7630 H              1 S1                 0.0000
     40 ****         1.8935  -3.4679   2.6100 H              1 S1                 0.0000
     41 ****         3.3795  -3.9846   1.8485 H              1 S1                 0.0000
     42 ****         0.9755  -1.5954   0.9944 H              1 S1                 0.0000
     43 ****         1.9196  -2.7795   0.0841 H              1 S1                 0.0000
     44 ****        -4.0499  -0.1405  -1.6517 H              1 S1                 0.0000
     45 ****         2.7134  -1.1783   2.3539 H              1 S1                 0.0000
     46 ****        -1.3353   2.9871  -0.8838 LP             1 S1                 0.0000
     47 ****        -0.1354   2.4507  -1.0275 LP             1 S1                 0.0000
     48 ****         1.3917   1.6519  -1.1994 LP             1 S1                 0.0000
@<TRIPOS>BOND
    1    1    2 1     
    2    1   24 1     
    3    1   25 1     
    4    1   26 1     
    5    2   23 ar    
    6    2    3 ar    
    7    3    4 ar    
    8    3   27 1     
    9    4    5 1     
   10    4    6 ar    
   11    5   28 1     
   12    5   29 1     
   13    5   30 1     
   14    6    7 ar    
   15    7    8 1     
   16    7   23 ar    
   17    8    9 am    
   18    8   31 1     
   19    9   10 2     
   20    9   11 am    
   21   11   12 1     
   22   11   32 1     
   23   12   13 1     
   24   12   33 1     
   25   12   34 1     
   26   13   22 1     
   27   13   14 1     
   28   13   35 1     
   29   14   15 1     
   30   14   36 1     
   31   14   37 1     
   32   15   16 1     
   33   15   38 1     
   34   15   39 1     
   35   16   17 1     
   36   16   22 1     
   37   16   45 1     
   38   17   18 1     
   39   17   40 1     
   40   17   41 1     
   41   18   19 1     
   42   18   20 1     
   43   18   21 1     
   44   22   42 1     
   45   22   43 1     
   46   23   44 1     
   47    6   46 1     
   48   10   47 1     
   49   10   48 1     
@<TRIPOS>SUBSTRUCTURE
      1 S1             1
@<TRIPOS>SET
LONE_PAIRS      STATIC     ATOMS    <user>   **** ""
3 46 47 48
DONOR_HYDROGENS      STATIC     ATOMS    <user>   **** ""
3 31 32 45
ATOM$BLUE        STATIC     ATOMS    COLORGROUP SYSTEM
3 46 47 48
ATOM$RED        STATIC     ATOMS    COLORGROUP SYSTEM
3 31 32 45
