AV-unprocessed.smi:2013|AV-procd|sdf|8160|dock6
  -GOLD-   2272010403D 1   1.00000     0.00000
 Structure written by MMmdl.
 50 51  0  0  0  0  0  0  0  0  1 V2000
  150.0717  141.6431  155.4618 C   0  0  0  0  0  0  0  0  0  0  0  0
  151.2664  140.9068  156.1014 C   0  0  0  0  0  0  0  0  0  0  0  0
  151.5389  139.5689  155.3928 C   0  0  0  0  0  0  0  0  0  0  0  0
  151.2569  140.7679  157.6580 C   0  0  1  0  0  0  0  0  0  0  0  0
  151.5075  139.3167  158.1609 C   0  0  0  0  0  0  0  0  0  0  0  0
  150.3712  138.4338  157.9200 N   0  0  0  0  0  0  0  0  0  0  0  0
  150.0117  137.4114  158.7102 C   0  0  0  0  0  0  0  0  0  0  0  0
  150.6514  137.0684  159.7052 O   0  0  0  0  0  0  0  0  0  0  0  0
  148.7375  136.6589  158.3084 C   0  0  0  0  0  0  0  0  0  0  0  0
  148.3947  135.5970  159.2624 N   0  0  0  0  0  0  0  0  0  0  0  0
  148.4865  134.2716  158.8785 C   0  0  0  0  0  0  0  0  0  0  0  0
  148.2122  133.2370  159.7030 C   0  0  0  0  0  0  0  0  0  0  0  0
  147.7913  133.4669  161.0799 C   0  0  0  0  0  0  0  0  0  0  0  0
  147.5473  132.5516  161.8668 O   0  0  0  0  0  0  0  0  0  0  0  0
  147.6942  134.8320  161.4426 N   0  0  0  0  0  0  0  0  0  0  0  0
  147.2997  135.1736  162.7936 C   0  0  0  0  0  0  0  0  0  0  0  0
  147.9918  135.9088  160.5790 C   0  0  0  0  0  0  0  0  0  0  0  0
  147.9124  137.0822  160.9520 O   0  0  0  0  0  0  0  0  0  0  0  0
  152.0072  141.8118  158.3839 N   0  0  0  0  0  0  0  0  0  0  0  0
  151.5259  143.1628  158.1014 C   0  0  0  0  0  0  0  0  0  0  0  0
  152.4115  144.2329  158.7610 C   0  0  0  0  0  0  0  0  0  0  0  0
  152.4712  144.0003  160.1642 O   0  0  0  0  0  0  0  0  0  0  0  0
  152.9815  142.7101  160.4842 C   0  0  0  0  0  0  0  0  0  0  0  0
  152.1074  141.6256  159.8303 C   0  0  0  0  0  0  0  0  0  0  0  0
  149.1580  141.0537  155.4709 H   0  0  0  0  0  0  0  0  0  0  0  0
  150.2847  141.8622  154.4152 H   0  0  0  0  0  0  0  0  0  0  0  0
  149.8662  142.5976  155.9444 H   0  0  0  0  0  0  0  0  0  0  0  0
  152.1319  141.5286  155.8695 H   0  0  0  0  0  0  0  0  0  0  0  0
  150.7038  138.8772  155.5081 H   0  0  0  0  0  0  0  0  0  0  0  0
  152.4309  139.0864  155.7936 H   0  0  0  0  0  0  0  0  0  0  0  0
  151.6982  139.7165  154.3243 H   0  0  0  0  0  0  0  0  0  0  0  0
  150.2113  140.9646  157.9003 H   0  0  0  0  0  0  0  0  0  0  0  0
  152.3744  138.8809  157.6653 H   0  0  0  0  0  0  0  0  0  0  0  0
  151.7346  139.3013  159.2269 H   0  0  0  0  0  0  0  0  0  0  0  0
  149.7935  138.6417  157.1183 H   0  0  0  0  0  0  0  0  0  0  0  0
  147.9018  137.3544  158.2101 H   0  0  0  0  0  0  0  0  0  0  0  0
  148.8908  136.2369  157.3146 H   0  0  0  0  0  0  0  0  0  0  0  0
  148.8002  134.0480  157.8690 H   0  0  0  0  0  0  0  0  0  0  0  0
  148.3095  132.2245  159.3398 H   0  0  0  0  0  0  0  0  0  0  0  0
  146.5213  135.9367  162.7332 H   0  0  0  0  0  0  0  0  0  0  0  0
  148.1903  135.5511  163.2986 H   0  0  0  0  0  0  0  0  0  0  0  0
  146.8986  134.3059  163.3166 H   0  0  0  0  0  0  0  0  0  0  0  0
  151.5018  143.3328  157.0246 H   0  0  0  0  0  0  0  0  0  0  0  0
  150.5048  143.2854  158.4618 H   0  0  0  0  0  0  0  0  0  0  0  0
  153.4171  144.2172  158.3383 H   0  0  0  0  0  0  0  0  0  0  0  0
  152.0032  145.2274  158.5807 H   0  0  0  0  0  0  0  0  0  0  0  0
  154.0153  142.6270  160.1453 H   0  0  0  0  0  0  0  0  0  0  0  0
  152.9892  142.5884  161.5673 H   0  0  0  0  0  0  0  0  0  0  0  0
  151.1157  141.6508  160.2826 H   0  0  0  0  0  0  0  0  0  0  0  0
  152.5386  140.6582  160.0656 H   0  0  0  0  0  0  0  0  0  0  0  0
  1  2  1  0  0  0  0
  1 25  1  0  0  0  0
  1 26  1  0  0  0  0
  1 27  1  0  0  0  0
  2  3  1  0  0  0  0
  2  4  1  0  0  0  0
  2 28  1  0  0  0  0
  3 29  1  0  0  0  0
  3 30  1  0  0  0  0
  3 31  1  0  0  0  0
  4  5  1  0  0  0  0
  4 19  1  0  0  0  0
  4 32  1  0  0  0  0
  5  6  1  0  0  0  0
  5 33  1  0  0  0  0
  5 34  1  0  0  0  0
  6  7  1  0  0  0  0
  6 35  1  0  0  0  0
  7  8  2  0  0  0  0
  7  9  1  0  0  0  0
  9 10  1  0  0  0  0
  9 36  1  0  0  0  0
  9 37  1  0  0  0  0
 10 17  1  0  0  0  0
 10 11  1  0  0  0  0
 11 12  2  0  0  0  0
 11 38  1  0  0  0  0
 12 13  1  0  0  0  0
 12 39  1  0  0  0  0
 13 14  2  0  0  0  0
 13 15  1  0  0  0  0
 15 16  1  0  0  0  0
 15 17  1  0  0  0  0
 16 40  1  0  0  0  0
 16 41  1  0  0  0  0
 16 42  1  0  0  0  0
 17 18  2  0  0  0  0
 19 24  1  0  0  0  0
 19 20  1  0  0  0  0
 20 21  1  0  0  0  0
 20 43  1  0  0  0  0
 20 44  1  0  0  0  0
 21 22  1  0  0  0  0
 21 45  1  0  0  0  0
 21 46  1  0  0  0  0
 22 23  1  0  0  0  0
 23 24  1  0  0  0  0
 23 47  1  0  0  0  0
 23 48  1  0  0  0  0
 24 49  1  0  0  0  0
 24 50  1  0  0  0  0
M  END
> <s_m_source_file>
AV-unprocessed.smi

> <i_m_source_file_index>
2013

> <i_lp_mmshare_version>
43012

> <i_f3d_flags>
0

> <s_epik_input>
W0NIMl0xW0NIMl1PW0NIMl1bQ0gyXU4xW0NASF0oW0NIXShbQ0gzXSlbQ0gzXSlbQ0gyXVtOSF1DKD1PKVtDSDJdbjJbY0hdW2NIXWMoPU8pbihbQ0gzXSljMj1P

> <s_epik_cmdline>
J2VwaWtfcHl0aG9uJywgJy1waCcsICc3LjAnLCAnLXRuJywgJzgnLCAnLW1hJywgJzIwMCcsICctbWV0YWxfYmluZGluZycsICctaW1hZScsICc8aW5maWxlLm1hZT4nLCAnLW9tYWUnLCAnPG91dGZpbGUubWFlPic=

> <r_lp_tautomer_probability>
1

> <r_epik_Ionization_Penalty>
0.45351

> <r_epik_Ionization_Penalty_Charging>
1.24653e-08

> <r_epik_Ionization_Penalty_Neutral>
0.45351

> <r_epik_State_Penalty>
0.456487

> <r_epik_Charging_Adjusted_Penalty>
0.456487

> <i_epik_Tot_Q>
0

> <i_epik_Tot_abs_Q>
0

> <r_epik_Metal_State_Penalty>
0.456449

> <b_epik_Metal_Only>
0

> <s_lp_Force_Field>
OPLS_2005

> <r_lp_Energy>
45.5307

> <b_lp_Chiralities_Consistent>
1

> <s_lp_Variant>
AV-unprocessed.smi:2013-4

> <Gold.Version>
5.8.1

> <Gold.Id.Protein>
6NUR|6NUR_protein|mol2

> <Gold.PLP.Fitness>
52.3587

> <Gold.PLP.PLP>
-47.2786

> <Gold.PLP.part.hbond>
-2.9726

> <Gold.PLP.part.metal>
0.0000

> <Gold.PLP.part.buried>
-5.7487

> <Gold.PLP.part.nonpolar>
-38.9227

> <Gold.PLP.part.repulsive>
0.0848

> <Gold.PLP.ligand.clash>
0.0000

> <Gold.PLP.ligand.torsion>
1.8707

> <Gold.PLP.Chemscore.Hbond>
2.7513

> <Gold.PLP.Chemscore.CHOScore>
0.0000

> <Gold.PLP.Chemscore.Metal>
0.0000

> <Gold.Chemscore.Hbonds>
donor molecule, donor type, donor heavy atom, donor atom, acceptor molecule, acceptor atom, score
      P1  H  6896  6907       L1     8  0.96
      P1  H  6931  6943       L1    18  0.96
      P1  H  6934  6947       L1    18  0.73

> <Gold.PLP.Chemscore.Internal.Correction>
0.5677

> <Gold.Rescore>
     Score         DG    S(hbond)    S(metal)    S(lipo)     H(rot)  DE(clash)    DE(int)     intcor
     18.11     -20.16       2.75        0.00      95.08       2.20       0.01       2.04       ----

> <Gold.Chemscore.Fitness>
18.1127

> <Gold.Chemscore.DG>
-20.1581

> <Gold.Chemscore.ZeroCoef>
-5.4800

> <Gold.Chemscore.Hbond>
2.7533

> <Gold.Chemscore.Metal>
0.0000

> <Gold.Chemscore.Lipo>
95.0777

> <Gold.Chemscore.Internal_Hbond>
0.0000

> <Gold.Chemscore.DEClash>
0.0088

> <Gold.Chemscore.DEInternal>
2.0365

> <Gold.Chemscore.Rot>
2.2039

> <Gold.Chemscore.Internal.Correction>
   9.000000E+99

> <Gold.Chemscore.Hbonds>
donor molecule, donor type, donor heavy atom, donor atom, acceptor molecule, acceptor atom, score
      P1  H  6896  6907       L1     8  0.86
      P1  H  6931  6943       L1    18  0.92
      P1  H  6934  6947       L1    18  0.69

> <Gold.Chemscore.Hbond.Weighted>
-9.1960

> <Gold.Chemscore.Metal.Weighted>
-0.0000

> <Gold.Chemscore.Lipo.Weighted>
-11.1241

> <Gold.Chemscore.Internal_Hbond.Weighted>
0.0000

> <Gold.Chemscore.DEClash.Weighted>
0.0088

> <Gold.Chemscore.DEInternal.Weighted>
2.0365

> <Gold.Chemscore.Rot.Weighted>
5.6420

> <Gold.Chemscore.Internal.Correction.Weighted>
   9.000000E+99

> <Gold.Protein.RotatedTorsions>
[ 6907 6896 6895 6894 ] final  -28.47 input  -60.11 | X-H torsion
[ 7974 7965 7964 7962 ] final  130.25 input  175.53 | X-H torsion
[ 8008 7997 7996 7995 ] final  141.83 input   59.86 | X-H torsion
[ 10167 10162 10161 10158 ] final  -58.89 input  -65.29 | X-H torsion
[ 10718 10713 10712 10709 ] final  -26.05 input   66.30 | X-H torsion
[ 10763 10752 10751 10750 ] final  119.47 input  -60.55 | X-H torsion
[ 11005 11000 10999 10996 ] final -177.35 input  -57.11 | X-H torsion

> <Gold.Protein.ActiveResidues>
 VAL166  LYS551  ARG553  GLY616  TRP617  ASP618  TYR619  PRO620  LYS621  CYS622 
 ASP623  PHE694  ASN695  SER759  ASP760  ASP761  ALA762  ILE779  LEU786  VAL792 
 PHE793  MET794  SER795  GLU796  ALA797  LYS798  CYS799  TRP800  GLU811  SER814 

> <Gold.Protein.RotatedAtoms>
  151.1326  135.0138  159.8588 H   0  0  0  0  0  0  0  0  0  0  0  0  # atno 6907 bound_to 6896
  152.5451  134.1593  159.8561 H   0  0  0  0  0  0  0  0  0  0  0  0  # atno 6908 bound_to 6896
  151.1661  133.4769  159.2627 H   0  0  0  0  0  0  0  0  0  0  0  0  # atno 6909 bound_to 6896
  145.0199  139.4141  143.5202 H   0  0  0  0  0  0  0  0  0  0  0  0  # atno 7974 bound_to 7965
  156.2959  140.2305  156.4629 H   0  0  0  0  0  0  0  0  0  0  0  0  # atno 8008 bound_to 7997
  154.8003  140.0449  157.1288 H   0  0  0  0  0  0  0  0  0  0  0  0  # atno 8009 bound_to 7997
  154.9541  140.3046  155.5064 H   0  0  0  0  0  0  0  0  0  0  0  0  # atno 8010 bound_to 7997
  140.6169  143.2405  151.5575 H   0  0  0  0  0  0  0  0  0  0  0  0  # atno 10167 bound_to 10162
  156.4563  130.4494  149.6957 H   0  0  0  0  0  0  0  0  0  0  0  0  # atno 10718 bound_to 10713
  153.5836  135.3479  155.2884 H   0  0  0  0  0  0  0  0  0  0  0  0  # atno 10763 bound_to 10752
  154.8664  135.4188  154.2593 H   0  0  0  0  0  0  0  0  0  0  0  0  # atno 10764 bound_to 10752
  153.3385  135.7048  153.6957 H   0  0  0  0  0  0  0  0  0  0  0  0  # atno 10765 bound_to 10752
  140.4419  134.6423  157.4761 H   0  0  0  0  0  0  0  0  0  0  0  0  # atno 11005 bound_to 11000
  146.3484  139.9691  142.8708 LP  0  0  0  0  0  0  0  0  0  0  0  0  # atno 17320 bound_to 7965
  145.1910  140.9811  143.4211 LP  0  0  0  0  0  0  0  0  0  0  0  0  # atno 17321 bound_to 7965
  139.5406  144.2658  152.1343 LP  0  0  0  0  0  0  0  0  0  0  0  0  # atno 17342 bound_to 10162
  140.1869  144.4789  150.6499 LP  0  0  0  0  0  0  0  0  0  0  0  0  # atno 17343 bound_to 10162
  156.3763  130.7556  151.2544 LP  0  0  0  0  0  0  0  0  0  0  0  0  # atno 17370 bound_to 10713
  157.7500  131.0308  150.4155 LP  0  0  0  0  0  0  0  0  0  0  0  0  # atno 17371 bound_to 10713
  140.0064  134.6757  155.9448 LP  0  0  0  0  0  0  0  0  0  0  0  0  # atno 17394 bound_to 11000
  141.1702  133.6537  156.4623 LP  0  0  0  0  0  0  0  0  0  0  0  0  # atno 17395 bound_to 11000

$$$$
