AV-unprocessed.smi:3349|AV-procd|sdf|12938|dock1
  -GOLD-   2272019373D 1   1.00000     0.00000
 Structure written by MMmdl.
 41 42  0  0  0  0  0  0  0  0  2 V2000
  146.8196  138.9315  151.5734 C   0  0  0  0  0  0  0  0  0  0  0  0
  146.4880  139.0752  153.0798 C   0  0  1  0  0  0  0  0  0  0  0  0
  145.8315  137.7771  153.6220 C   0  0  0  0  0  0  0  0  0  0  0  0
  146.3531  136.5672  152.9906 N   0  0  0  0  0  0  0  0  0  0  0  0
  145.8932  135.3208  153.1869 C   0  0  0  0  0  0  0  0  0  0  0  0
  144.9657  135.0581  153.9531 O   0  0  0  0  0  0  0  0  0  0  0  0
  146.5979  134.2068  152.3965 C   0  0  1  0  0  0  0  0  0  0  0  0
  147.3428  133.2110  153.3040 C   0  0  0  0  0  0  0  0  0  0  0  0
  145.6524  133.5137  151.5324 N   0  0  0  0  0  0  0  0  0  0  0  0
  145.8340  132.5492  150.6253 C   0  0  0  0  0  0  0  0  0  0  0  0
  144.7218  132.1757  150.0085 N   0  0  0  0  0  0  0  0  0  0  0  0
  143.8317  133.0153  150.6155 C   0  0  0  0  0  0  0  0  0  0  0  0
  144.3379  133.8402  151.5321 N   0  0  0  0  0  0  0  0  0  0  0  0
  147.6808  139.4456  153.9129 N   0  3  0  0  0  0  0  0  0  0  0  0
  148.8731  138.5671  153.7478 C   0  0  0  0  0  0  0  0  0  0  0  0
  150.0298  139.0158  154.6579 C   0  0  0  0  0  0  0  0  0  0  0  0
  150.3580  140.3706  154.3917 O   0  0  0  0  0  0  0  0  0  0  0  0
  149.2616  141.2306  154.6606 C   0  0  0  0  0  0  0  0  0  0  0  0
  148.0870  140.8680  153.7376 C   0  0  0  0  0  0  0  0  0  0  0  0
  145.9443  138.6510  150.9888 H   0  0  0  0  0  0  0  0  0  0  0  0
  147.5827  138.1707  151.4045 H   0  0  0  0  0  0  0  0  0  0  0  0
  147.1648  139.8681  151.1359 H   0  0  0  0  0  0  0  0  0  0  0  0
  145.7635  139.8872  153.1635 H   0  0  0  0  0  0  0  0  0  0  0  0
  145.9384  137.7320  154.7072 H   0  0  0  0  0  0  0  0  0  0  0  0
  144.7607  137.7647  153.4287 H   0  0  0  0  0  0  0  0  0  0  0  0
  147.1180  136.6874  152.3416 H   0  0  0  0  0  0  0  0  0  0  0  0
  147.3437  134.6884  151.7607 H   0  0  0  0  0  0  0  0  0  0  0  0
  148.0542  133.7224  153.9537 H   0  0  0  0  0  0  0  0  0  0  0  0
  147.9044  132.4902  152.7091 H   0  0  0  0  0  0  0  0  0  0  0  0
  146.6555  132.6489  153.9378 H   0  0  0  0  0  0  0  0  0  0  0  0
  146.7987  132.1121  150.4124 H   0  0  0  0  0  0  0  0  0  0  0  0
  142.7789  133.0199  150.3736 H   0  0  0  0  0  0  0  0  0  0  0  0
  148.6381  137.5367  154.0119 H   0  0  0  0  0  0  0  0  0  0  0  0
  149.1925  138.5756  152.7045 H   0  0  0  0  0  0  0  0  0  0  0  0
  149.7687  138.8909  155.7102 H   0  0  0  0  0  0  0  0  0  0  0  0
  150.9100  138.3990  154.4752 H   0  0  0  0  0  0  0  0  0  0  0  0
  148.9718  141.1604  155.7104 H   0  0  0  0  0  0  0  0  0  0  0  0
  149.5723  142.2607  154.4848 H   0  0  0  0  0  0  0  0  0  0  0  0
  148.3694  141.0407  152.6979 H   0  0  0  0  0  0  0  0  0  0  0  0
  147.2650  141.5456  153.9579 H   0  0  0  0  0  0  0  0  0  0  0  0
  147.3947  139.3394  154.8760 H   0  0  0  0  0  0  0  0  0  0  0  0
  1  2  1  0  0  0  0
  1 20  1  0  0  0  0
  1 21  1  0  0  0  0
  1 22  1  0  0  0  0
  2  3  1  0  0  0  0
  2 14  1  0  0  0  0
  2 23  1  0  0  0  0
  3  4  1  0  0  0  0
  3 24  1  0  0  0  0
  3 25  1  0  0  0  0
  4  5  1  0  0  0  0
  4 26  1  0  0  0  0
  5  6  2  0  0  0  0
  5  7  1  0  0  0  0
  7  8  1  0  0  0  0
  7  9  1  0  0  0  0
  7 27  1  0  0  0  0
  8 28  1  0  0  0  0
  8 29  1  0  0  0  0
  8 30  1  0  0  0  0
  9 13  1  0  0  0  0
  9 10  1  0  0  0  0
 10 11  2  0  0  0  0
 10 31  1  0  0  0  0
 11 12  1  0  0  0  0
 12 13  2  0  0  0  0
 12 32  1  0  0  0  0
 14 19  1  0  0  0  0
 14 15  1  0  0  0  0
 14 41  1  0  0  0  0
 15 16  1  0  0  0  0
 15 33  1  0  0  0  0
 15 34  1  0  0  0  0
 16 17  1  0  0  0  0
 16 35  1  0  0  0  0
 16 36  1  0  0  0  0
 17 18  1  0  0  0  0
 18 19  1  0  0  0  0
 18 37  1  0  0  0  0
 18 38  1  0  0  0  0
 19 39  1  0  0  0  0
 19 40  1  0  0  0  0
M  CHG  1  14   1
M  END
> <s_m_source_file>
AV-unprocessed.smi

> <i_m_source_file_index>
3349

> <i_lp_mmshare_version>
43012

> <i_f3d_flags>
0

> <s_epik_input>
W0NIMl0xW0NIMl1PW0NIMl1bQ0gyXU4xW0NASF0oW0NIM10pW0NIMl1bTkhdQyg9TylbQ0BIXShbQ0gzXSluMltjSF1uW2NIXW4y

> <s_epik_cmdline>
J2VwaWtfcHl0aG9uJywgJy1waCcsICc3LjAnLCAnLXRuJywgJzgnLCAnLW1hJywgJzIwMCcsICctbWV0YWxfYmluZGluZycsICctaW1hZScsICc8aW5maWxlLm1hZT4nLCAnLW9tYWUnLCAnPG91dGZpbGUubWFlPic=

> <r_lp_tautomer_probability>
1

> <r_epik_Ionization_Penalty>
0.71326

> <r_epik_Ionization_Penalty_Charging>
0.713252

> <r_epik_Ionization_Penalty_Neutral>
8.10337e-06

> <r_epik_State_Penalty>
0.737017

> <r_epik_Charging_Adjusted_Penalty>
1.45027

> <i_epik_Tot_Q>
1

> <i_epik_Tot_abs_Q>
1

> <r_epik_Metal_State_Penalty>
0.73702

> <b_epik_Metal_Only>
0

> <s_lp_Force_Field>
OPLS_2005

> <r_lp_Energy>
26.9228

> <b_lp_Chiralities_Consistent>
1

> <s_lp_Variant>
AV-unprocessed.smi:3349-8

> <Gold.Version>
5.8.1

> <Gold.Id.Protein>
6NUR|6NUR_protein|mol2

> <Gold.PLP.Fitness>
38.9830

> <Gold.PLP.PLP>
-28.0508

> <Gold.PLP.part.hbond>
-2.0000

> <Gold.PLP.part.metal>
0.0000

> <Gold.PLP.part.buried>
1.0116

> <Gold.PLP.part.nonpolar>
-27.4798

> <Gold.PLP.part.repulsive>
0.4464

> <Gold.PLP.ligand.clash>
0.0000

> <Gold.PLP.ligand.torsion>
0.5835

> <Gold.PLP.Chemscore.Hbond>
1.9920

> <Gold.PLP.Chemscore.CHOScore>
2.0000

> <Gold.PLP.Chemscore.Metal>
0.0000

> <Gold.Chemscore.Hbonds>
donor molecule, donor type, donor heavy atom, donor atom, acceptor molecule, acceptor atom, score
      L1  H     4    26       P1  7948  0.96
      P1  H  7989  7998       L1    17  1.00
      L1  C    10    31       P1 10747  1.00
      L1  C    12    32       P1 10186  1.00

> <Gold.PLP.Chemscore.Internal.Correction>
0.1233

> <Gold.Rescore>
     Score         DG    S(hbond)    S(metal)    S(lipo)     H(rot)  DE(clash)    DE(int)     intcor
      9.59     -11.44       1.90        0.00      54.38       2.63       0.08       1.77       ----

> <Gold.Chemscore.Fitness>
9.5874

> <Gold.Chemscore.DG>
-11.4380

> <Gold.Chemscore.ZeroCoef>
-5.4800

> <Gold.Chemscore.Hbond>
1.8970

> <Gold.Chemscore.Metal>
0.0000

> <Gold.Chemscore.Lipo>
54.3794

> <Gold.Chemscore.Internal_Hbond>
0.0000

> <Gold.Chemscore.DEClash>
0.0844

> <Gold.Chemscore.DEInternal>
1.7662

> <Gold.Chemscore.Rot>
2.6329

> <Gold.Chemscore.Internal.Correction>
   9.000000E+99

> <Gold.Chemscore.Hbonds>
donor molecule, donor type, donor heavy atom, donor atom, acceptor molecule, acceptor atom, score
      L1  H     4    26       P1  7948  0.91
      P1  H  7989  7998       L1    17  0.93

> <Gold.Chemscore.Hbond.Weighted>
-6.3360

> <Gold.Chemscore.Metal.Weighted>
-0.0000

> <Gold.Chemscore.Lipo.Weighted>
-6.3624

> <Gold.Chemscore.Internal_Hbond.Weighted>
0.0000

> <Gold.Chemscore.DEClash.Weighted>
0.0844

> <Gold.Chemscore.DEInternal.Weighted>
1.7662

> <Gold.Chemscore.Rot.Weighted>
6.7403

> <Gold.Chemscore.Internal.Correction.Weighted>
   9.000000E+99

> <Gold.Protein.RotatedTorsions>
[ 6907 6896 6895 6894 ] final -170.08 input  -60.11 | X-H torsion
[ 7974 7965 7964 7962 ] final  -70.98 input  175.53 | X-H torsion
[ 8008 7997 7996 7995 ] final  165.64 input   59.86 | X-H torsion
[ 10167 10162 10161 10158 ] final  -73.08 input  -65.29 | X-H torsion
[ 10718 10713 10712 10709 ] final   52.99 input   66.30 | X-H torsion
[ 10763 10752 10751 10750 ] final  -23.17 input  -60.55 | X-H torsion
[ 11005 11000 10999 10996 ] final    9.27 input  -57.11 | X-H torsion

> <Gold.Protein.ActiveResidues>
 VAL166  LYS551  ARG553  GLY616  TRP617  ASP618  TYR619  PRO620  LYS621  CYS622 
 ASP623  PHE694  ASN695  SER759  ASP760  ASP761  ALA762  ILE779  LEU786  VAL792 
 PHE793  MET794  SER795  GLU796  ALA797  LYS798  CYS799  TRP800  GLU811  SER814 

> <Gold.Protein.RotatedAtoms>
  151.5020  133.3502  159.2870 H   0  0  0  0  0  0  0  0  0  0  0  0  # atno 6907 bound_to 6896
  150.8767  134.8153  159.7206 H   0  0  0  0  0  0  0  0  0  0  0  0  # atno 6908 bound_to 6896
  152.4735  134.4912  159.9747 H   0  0  0  0  0  0  0  0  0  0  0  0  # atno 6909 bound_to 6896
  145.6839  140.9178  143.0817 H   0  0  0  0  0  0  0  0  0  0  0  0  # atno 7974 bound_to 7965
  156.1783  140.1664  156.8321 H   0  0  0  0  0  0  0  0  0  0  0  0  # atno 8008 bound_to 7997
  154.5332  140.0752  156.8415 H   0  0  0  0  0  0  0  0  0  0  0  0  # atno 8009 bound_to 7997
  155.3364  140.3382  155.4241 H   0  0  0  0  0  0  0  0  0  0  0  0  # atno 8010 bound_to 7997
  140.5140  143.2341  151.7545 H   0  0  0  0  0  0  0  0  0  0  0  0  # atno 10167 bound_to 10162
  157.5126  130.8511  149.8454 H   0  0  0  0  0  0  0  0  0  0  0  0  # atno 10718 bound_to 10713
  153.6636  135.6975  153.5169 H   0  0  0  0  0  0  0  0  0  0  0  0  # atno 10763 bound_to 10752
  153.2612  135.4244  155.0895 H   0  0  0  0  0  0  0  0  0  0  0  0  # atno 10764 bound_to 10752
  154.8445  135.3555  154.6180 H   0  0  0  0  0  0  0  0  0  0  0  0  # atno 10765 bound_to 10752
  140.5277  134.0497  155.7863 H   0  0  0  0  0  0  0  0  0  0  0  0  # atno 11005 bound_to 11000
  144.7017  139.8733  143.7442 LP  0  0  0  0  0  0  0  0  0  0  0  0  # atno 17320 bound_to 7965
  146.0940  139.3931  143.0388 LP  0  0  0  0  0  0  0  0  0  0  0  0  # atno 17321 bound_to 7965
  139.4904  144.4351  151.9829 LP  0  0  0  0  0  0  0  0  0  0  0  0  # atno 17342 bound_to 10162
  140.3444  144.3164  150.5961 LP  0  0  0  0  0  0  0  0  0  0  0  0  # atno 17343 bound_to 10162
  156.0299  130.3768  150.1717 LP  0  0  0  0  0  0  0  0  0  0  0  0  # atno 17370 bound_to 10713
  156.9907  130.9892  151.3415 LP  0  0  0  0  0  0  0  0  0  0  0  0  # atno 17371 bound_to 10713
  141.1299  133.9320  157.2557 LP  0  0  0  0  0  0  0  0  0  0  0  0  # atno 17394 bound_to 11000
  139.9571  135.0163  156.9159 LP  0  0  0  0  0  0  0  0  0  0  0  0  # atno 17395 bound_to 11000

$$$$
