AV-unprocessed.smi:1550|AV-procd|sdf|6228|dock5
  -GOLD-   22720 6403D 1   1.00000     0.00000
 Structure written by MMmdl.
 42 43  0  0  0  0  0  0  0  0  2 V2000
  149.7945  137.8528  156.9622 C   0  0  0  0  0  0  0  0  0  0  0  0
  149.2480  138.3547  158.3070 C   0  0  2  0  0  0  0  0  0  0  0  0
  150.0711  139.4388  158.7288 O   0  0  0  0  0  0  0  0  0  0  0  0
  150.2698  140.4647  157.7624 C   0  0  0  0  0  0  0  0  0  0  0  0
  150.6471  141.7613  158.4903 C   0  0  2  0  0  0  0  0  0  0  0  0
  150.9146  142.9164  157.5054 C   0  0  0  0  0  0  0  0  0  0  0  0
  151.3740  144.1705  158.2579 C   0  0  0  0  0  0  0  0  0  0  0  0
  152.5651  143.8255  159.1579 C   0  0  0  0  0  0  0  0  0  0  0  0
  152.2248  142.6242  160.0537 C   0  0  0  0  0  0  0  0  0  0  0  0
  151.8315  141.5180  159.2474 O   0  0  0  0  0  0  0  0  0  0  0  0
  149.2537  137.2404  159.3661 C   0  0  0  0  0  0  0  0  0  0  0  0
  150.3149  136.9255  159.9037 O   0  0  0  0  0  0  0  0  0  0  0  0
  148.0477  136.7079  159.6457 N   0  0  0  0  0  0  0  0  0  0  0  0
  147.6957  135.6936  160.5533 C   0  0  0  0  0  0  0  0  0  0  0  0
  147.9164  134.3625  160.3661 C   0  0  0  0  0  0  0  0  0  0  0  0
  147.5217  133.3601  161.3478 C   0  0  0  0  0  0  0  0  0  0  0  0
  147.6873  131.8651  161.1393 C   0  0  0  0  0  0  0  0  0  0  0  0
  148.4646  131.3315  162.0820 F   0  0  0  0  0  0  0  0  0  0  0  0
  146.5073  131.2452  161.1666 F   0  0  0  0  0  0  0  0  0  0  0  0
  148.2517  131.6323  159.9551 F   0  0  0  0  0  0  0  0  0  0  0  0
  146.8855  133.9175  162.4397 C   0  0  0  0  0  0  0  0  0  0  0  0
  146.6345  135.2181  162.7055 N   0  5  0  0  0  0  0  0  0  0  0  0
  147.0196  136.1480  161.7864 C   0  0  0  0  0  0  0  0  0  0  0  0
  146.8171  137.3499  161.9635 O   0  0  0  0  0  0  0  0  0  0  0  0
  149.2171  137.0046  156.5924 H   0  0  0  0  0  0  0  0  0  0  0  0
  150.8369  137.5419  157.0418 H   0  0  0  0  0  0  0  0  0  0  0  0
  149.7438  138.6385  156.2082 H   0  0  0  0  0  0  0  0  0  0  0  0
  148.2287  138.7129  158.1470 H   0  0  0  0  0  0  0  0  0  0  0  0
  151.0504  140.1827  157.0543 H   0  0  0  0  0  0  0  0  0  0  0  0
  149.3541  140.6259  157.1926 H   0  0  0  0  0  0  0  0  0  0  0  0
  149.8323  142.0406  159.1607 H   0  0  0  0  0  0  0  0  0  0  0  0
  151.6807  142.6195  156.7880 H   0  0  0  0  0  0  0  0  0  0  0  0
  150.0162  143.1384  156.9283 H   0  0  0  0  0  0  0  0  0  0  0  0
  151.6425  144.9606  157.5560 H   0  0  0  0  0  0  0  0  0  0  0  0
  150.5536  144.5540  158.8658 H   0  0  0  0  0  0  0  0  0  0  0  0
  153.4333  143.5855  158.5427 H   0  0  0  0  0  0  0  0  0  0  0  0
  152.8404  144.6865  159.7674 H   0  0  0  0  0  0  0  0  0  0  0  0
  153.0952  142.3381  160.6443 H   0  0  0  0  0  0  0  0  0  0  0  0
  151.4307  142.8755  160.7585 H   0  0  0  0  0  0  0  0  0  0  0  0
  147.2620  137.1123  159.1570 H   0  0  0  0  0  0  0  0  0  0  0  0
  148.3880  133.9966  159.4698 H   0  0  0  0  0  0  0  0  0  0  0  0
  146.5227  133.2117  163.2171 H   0  0  0  0  0  0  0  0  0  0  0  0
  1  2  1  0  0  0  0
  1 25  1  0  0  0  0
  1 26  1  0  0  0  0
  1 27  1  0  0  0  0
  2  3  1  0  0  0  0
  2 11  1  0  0  0  0
  2 28  1  0  0  0  0
  3  4  1  0  0  0  0
  4  5  1  0  0  0  0
  4 29  1  0  0  0  0
  4 30  1  0  0  0  0
  5 10  1  0  0  0  0
  5  6  1  0  0  0  0
  5 31  1  0  0  0  0
  6  7  1  0  0  0  0
  6 32  1  0  0  0  0
  6 33  1  0  0  0  0
  7  8  1  0  0  0  0
  7 34  1  0  0  0  0
  7 35  1  0  0  0  0
  8  9  1  0  0  0  0
  8 36  1  0  0  0  0
  8 37  1  0  0  0  0
  9 10  1  0  0  0  0
  9 38  1  0  0  0  0
  9 39  1  0  0  0  0
 11 12  2  0  0  0  0
 11 13  1  0  0  0  0
 13 14  1  0  0  0  0
 13 40  1  0  0  0  0
 14 23  1  0  0  0  0
 14 15  2  0  0  0  0
 15 16  1  0  0  0  0
 15 41  1  0  0  0  0
 16 17  1  0  0  0  0
 16 21  2  0  0  0  0
 17 18  1  0  0  0  0
 17 19  1  0  0  0  0
 17 20  1  0  0  0  0
 21 22  1  0  0  0  0
 21 42  1  0  0  0  0
 22 23  1  0  0  0  0
 23 24  2  0  0  0  0
M  CHG  1  22  -1
M  END
> <s_m_source_file>
AV-unprocessed.smi

> <i_m_source_file_index>
1550

> <i_lp_mmshare_version>
43012

> <i_f3d_flags>
0

> <s_epik_input>
TzFbQ0gyXVtDSDJdW0NIMl1bQ0gyXVtDQEhdMVtDSDJdT1tDQEBIXShbQ0gzXSlDKD1PKVtOSF1jMltjSF1jKEMoRikoRilGKVtjSF1bbkhdYzI9Tw==

> <s_epik_cmdline>
J2VwaWtfcHl0aG9uJywgJy1waCcsICc3LjAnLCAnLXRuJywgJzgnLCAnLW1hJywgJzIwMCcsICctbWV0YWxfYmluZGluZycsICctaW1hZScsICc8aW5maWxlLm1hZT4nLCAnLW9tYWUnLCAnPG91dGZpbGUubWFlPic=

> <r_epik_Ionization_Penalty>
2.54933

> <r_epik_Ionization_Penalty_Charging>
0.0583423

> <r_epik_Ionization_Penalty_Neutral>
2.49099

> <r_epik_State_Penalty>
2.65532

> <r_epik_Charging_Adjusted_Penalty>
2.71366

> <i_epik_Tot_Q>
-1

> <i_epik_Tot_abs_Q>
1

> <r_epik_Metal_State_Penalty>
0.516364

> <b_epik_Metal_Only>
0

> <s_lp_Force_Field>
OPLS_2005

> <r_lp_Energy>
27.7019

> <b_lp_Chiralities_Consistent>
1

> <s_lp_Variant>
AV-unprocessed.smi:1550-5

> <Gold.Version>
5.8.1

> <Gold.Id.Protein>
6NUR|6NUR_protein|mol2

> <Gold.PLP.Fitness>
49.7583

> <Gold.PLP.PLP>
-45.0575

> <Gold.PLP.part.hbond>
-3.0000

> <Gold.PLP.part.metal>
0.0000

> <Gold.PLP.part.buried>
-5.9623

> <Gold.PLP.part.nonpolar>
-36.3802

> <Gold.PLP.part.repulsive>
0.1957

> <Gold.PLP.ligand.clash>
0.0000

> <Gold.PLP.ligand.torsion>
1.3076

> <Gold.PLP.Chemscore.Hbond>
2.3760

> <Gold.PLP.Chemscore.CHOScore>
0.0000

> <Gold.PLP.Chemscore.Metal>
0.0000

> <Gold.Chemscore.Hbonds>
donor molecule, donor type, donor heavy atom, donor atom, acceptor molecule, acceptor atom, score
      P1  H  6896  6908       L1    12  1.00
      P1  H  6931  6943       L1    24  0.09
      P1  H  6934  6947       L1    24  0.83

> <Gold.PLP.Chemscore.Internal.Correction>
0.1881

> <Gold.Rescore>
     Score         DG    S(hbond)    S(metal)    S(lipo)     H(rot)  DE(clash)    DE(int)     intcor
     18.76     -20.10       2.52        0.00      92.82       1.82       0.05       1.28       ----

> <Gold.Chemscore.Fitness>
18.7625

> <Gold.Chemscore.DG>
-20.0977

> <Gold.Chemscore.ZeroCoef>
-5.4800

> <Gold.Chemscore.Hbond>
2.5228

> <Gold.Chemscore.Metal>
0.0000

> <Gold.Chemscore.Lipo>
92.8212

> <Gold.Chemscore.Internal_Hbond>
0.0000

> <Gold.Chemscore.DEClash>
0.0512

> <Gold.Chemscore.DEInternal>
1.2840

> <Gold.Chemscore.Rot>
1.8236

> <Gold.Chemscore.Internal.Correction>
   9.000000E+99

> <Gold.Chemscore.Hbonds>
donor molecule, donor type, donor heavy atom, donor atom, acceptor molecule, acceptor atom, score
      P1  H  6896  6908       L1    12  0.93
      P1  H  6931  6943       L1    24  0.04
      P1  H  6934  6947       L1    24  0.81

> <Gold.Chemscore.Hbond.Weighted>
-8.4260

> <Gold.Chemscore.Metal.Weighted>
-0.0000

> <Gold.Chemscore.Lipo.Weighted>
-10.8601

> <Gold.Chemscore.Internal_Hbond.Weighted>
0.0000

> <Gold.Chemscore.DEClash.Weighted>
0.0512

> <Gold.Chemscore.DEInternal.Weighted>
1.2840

> <Gold.Chemscore.Rot.Weighted>
4.6684

> <Gold.Chemscore.Internal.Correction.Weighted>
   9.000000E+99

> <Gold.Protein.RotatedTorsions>
[ 6907 6896 6895 6894 ] final -153.47 input  -60.11 | X-H torsion
[ 7974 7965 7964 7962 ] final -153.49 input  175.53 | X-H torsion
[ 8008 7997 7996 7995 ] final   12.95 input   59.86 | X-H torsion
[ 10167 10162 10161 10158 ] final -173.17 input  -65.29 | X-H torsion
[ 10718 10713 10712 10709 ] final   60.36 input   66.30 | X-H torsion
[ 10763 10752 10751 10750 ] final  117.30 input  -60.55 | X-H torsion
[ 11005 11000 10999 10996 ] final   75.03 input  -57.11 | X-H torsion

> <Gold.Protein.ActiveResidues>
 VAL166  LYS551  ARG553  GLY616  TRP617  ASP618  TYR619  PRO620  LYS621  CYS622 
 ASP623  PHE694  ASN695  SER759  ASP760  ASP761  ALA762  ILE779  LEU786  VAL792 
 PHE793  MET794  SER795  GLU796  ALA797  LYS798  CYS799  TRP800  GLU811  SER814 

> <Gold.Protein.RotatedAtoms>
  151.2431  133.4389  159.2607 H   0  0  0  0  0  0  0  0  0  0  0  0  # atno 6907 bound_to 6896
  151.0687  134.9784  159.8307 H   0  0  0  0  0  0  0  0  0  0  0  0  # atno 6908 bound_to 6896
  152.5409  134.2378  159.8903 H   0  0  0  0  0  0  0  0  0  0  0  0  # atno 6909 bound_to 6896
  144.7738  140.4519  143.5888 H   0  0  0  0  0  0  0  0  0  0  0  0  # atno 7974 bound_to 7965
  154.8277  140.2894  155.5743 H   0  0  0  0  0  0  0  0  0  0  0  0  # atno 8008 bound_to 7997
  156.3003  140.2538  156.3127 H   0  0  0  0  0  0  0  0  0  0  0  0  # atno 8009 bound_to 7997
  154.9266  140.0384  157.2015 H   0  0  0  0  0  0  0  0  0  0  0  0  # atno 8010 bound_to 7997
  139.5703  144.1657  152.1374 H   0  0  0  0  0  0  0  0  0  0  0  0  # atno 10167 bound_to 10162
  157.5747  130.8934  149.9326 H   0  0  0  0  0  0  0  0  0  0  0  0  # atno 10718 bound_to 10713
  153.5503  135.3541  155.2756 H   0  0  0  0  0  0  0  0  0  0  0  0  # atno 10763 bound_to 10752
  154.8707  135.4112  154.2944 H   0  0  0  0  0  0  0  0  0  0  0  0  # atno 10764 bound_to 10752
  153.3669  135.7062  153.6736 H   0  0  0  0  0  0  0  0  0  0  0  0  # atno 10765 bound_to 10752
  139.9363  134.7483  156.1220 H   0  0  0  0  0  0  0  0  0  0  0  0  # atno 11005 bound_to 11000
  145.6246  139.1528  143.3003 LP  0  0  0  0  0  0  0  0  0  0  0  0  # atno 17320 bound_to 7965
  146.1903  140.6353  142.9148 LP  0  0  0  0  0  0  0  0  0  0  0  0  # atno 17321 bound_to 7965
  140.1188  144.5392  150.6876 LP  0  0  0  0  0  0  0  0  0  0  0  0  # atno 17342 bound_to 10162
  140.6988  143.2421  151.4925 LP  0  0  0  0  0  0  0  0  0  0  0  0  # atno 17343 bound_to 10162
  156.0791  130.3675  150.0616 LP  0  0  0  0  0  0  0  0  0  0  0  0  # atno 17370 bound_to 10713
  156.8764  130.9542  151.3604 LP  0  0  0  0  0  0  0  0  0  0  0  0  # atno 17371 bound_to 10713
  141.0978  133.6689  156.2684 LP  0  0  0  0  0  0  0  0  0  0  0  0  # atno 17394 bound_to 11000
  140.6068  134.5499  157.5527 LP  0  0  0  0  0  0  0  0  0  0  0  0  # atno 17395 bound_to 11000

$$$$
