AV-unprocessed.smi:2991|AV-procd|sdf|11399|dock2
  -GOLD-   2272016323D 1   1.00000     0.00000
 Structure written by MMmdl.
 38 39  0  0  0  0  0  0  0  0  2 V2000
  150.3140  141.5408  155.6802 C   0  0  0  0  0  0  0  0  0  0  0  0
  149.0331  141.0879  155.0060 C   0  0  0  0  0  0  0  0  0  0  0  0
  147.9904  141.9473  154.9957 N   0  3  0  0  0  0  0  0  0  0  0  0
  146.8003  141.6527  154.4323 C   0  0  0  0  0  0  0  0  0  0  0  0
  146.6063  140.4027  153.8134 C   0  0  0  0  0  0  0  0  0  0  0  0
  147.6727  139.4685  153.7795 C   0  0  0  0  0  0  0  0  0  0  0  0
  147.5537  138.1785  153.1909 N   0  0  0  0  0  0  0  0  0  0  0  0
  146.4660  137.3936  153.1118 C   0  0  0  0  0  0  0  0  0  0  0  0
  145.3532  137.6758  153.5560 O   0  0  0  0  0  0  0  0  0  0  0  0
  146.7384  136.2524  152.4633 N   0  0  0  0  0  0  0  0  0  0  0  0
  145.7783  135.1911  152.1604 C   0  0  2  0  0  0  0  0  0  0  0  0
  146.4859  133.8126  152.1010 C   0  0  0  0  0  0  0  0  0  0  0  0
  145.7893  132.7287  151.2520 C   0  0  0  0  0  0  0  0  0  0  0  0
  144.3093  132.4645  151.5957 C   0  0  0  0  0  0  0  0  0  0  0  0
  143.3587  133.6854  151.5630 C   0  0  0  0  0  0  0  0  0  0  0  0
  143.8155  134.7851  150.7141 N   0  0  0  0  0  0  0  0  0  0  0  0
  144.9058  135.5386  150.9387 C   0  0  0  0  0  0  0  0  0  0  0  0
  145.2144  136.4625  150.1869 O   0  0  0  0  0  0  0  0  0  0  0  0
  148.8986  139.8163  154.3998 C   0  0  0  0  0  0  0  0  0  0  0  0
  150.2260  138.7039  154.4115 Cl  0  0  0  0  0  0  0  0  0  0  0  0
  150.5707  140.8681  156.4993 H   0  0  0  0  0  0  0  0  0  0  0  0
  150.2161  142.5481  156.0869 H   0  0  0  0  0  0  0  0  0  0  0  0
  151.1376  141.5431  154.9657 H   0  0  0  0  0  0  0  0  0  0  0  0
  146.0415  142.4189  154.4986 H   0  0  0  0  0  0  0  0  0  0  0  0
  145.6401  140.1793  153.3874 H   0  0  0  0  0  0  0  0  0  0  0  0
  148.3726  137.8506  152.6994 H   0  0  0  0  0  0  0  0  0  0  0  0
  147.6792  136.1090  152.1252 H   0  0  0  0  0  0  0  0  0  0  0  0
  145.0858  135.1649  153.0029 H   0  0  0  0  0  0  0  0  0  0  0  0
  147.4935  133.9408  151.7027 H   0  0  0  0  0  0  0  0  0  0  0  0
  146.6184  133.4407  153.1178 H   0  0  0  0  0  0  0  0  0  0  0  0
  145.8725  132.9872  150.1954 H   0  0  0  0  0  0  0  0  0  0  0  0
  146.3435  131.7954  151.3569 H   0  0  0  0  0  0  0  0  0  0  0  0
  143.9369  131.7217  150.8894 H   0  0  0  0  0  0  0  0  0  0  0  0
  144.2417  131.9916  152.5761 H   0  0  0  0  0  0  0  0  0  0  0  0
  142.3745  133.3700  151.2155 H   0  0  0  0  0  0  0  0  0  0  0  0
  143.1975  134.0602  152.5743 H   0  0  0  0  0  0  0  0  0  0  0  0
  143.2512  135.0023  149.9052 H   0  0  0  0  0  0  0  0  0  0  0  0
  148.1066  142.8591  155.4384 H   0  0  0  0  0  0  0  0  0  0  0  0
  1  2  1  0  0  0  0
  1 21  1  0  0  0  0
  1 22  1  0  0  0  0
  1 23  1  0  0  0  0
  2 19  1  0  0  0  0
  2  3  2  0  0  0  0
  3  4  1  0  0  0  0
  3 38  1  0  0  0  0
  4  5  2  0  0  0  0
  4 24  1  0  0  0  0
  5  6  1  0  0  0  0
  5 25  1  0  0  0  0
  6  7  1  0  0  0  0
  6 19  2  0  0  0  0
  7  8  1  0  0  0  0
  7 26  1  0  0  0  0
  8  9  2  0  0  0  0
  8 10  1  0  0  0  0
 10 11  1  0  0  0  0
 10 27  1  0  0  0  0
 11 17  1  0  0  0  0
 11 12  1  0  0  0  0
 11 28  1  0  0  0  0
 12 13  1  0  0  0  0
 12 29  1  0  0  0  0
 12 30  1  0  0  0  0
 13 14  1  0  0  0  0
 13 31  1  0  0  0  0
 13 32  1  0  0  0  0
 14 15  1  0  0  0  0
 14 33  1  0  0  0  0
 14 34  1  0  0  0  0
 15 16  1  0  0  0  0
 15 35  1  0  0  0  0
 15 36  1  0  0  0  0
 16 17  1  0  0  0  0
 16 37  1  0  0  0  0
 17 18  2  0  0  0  0
 19 20  1  0  0  0  0
M  CHG  1   3   1
M  END
> <s_m_source_file>
AV-unprocessed.smi

> <i_m_source_file_index>
2991

> <i_lp_mmshare_version>
43012

> <i_f3d_flags>
0

> <s_epik_input>
W0NIM11jMW5bY0hdW2NIXWMoYzFDbClbTkhdQyg9TylbTkhdW0NAQEhdMltDSDJdW0NIMl1bQ0gyXVtDSDJdW05IXUMyPU8=

> <s_epik_cmdline>
J2VwaWtfcHl0aG9uJywgJy1waCcsICc3LjAnLCAnLXRuJywgJzgnLCAnLW1hJywgJzIwMCcsICctbWV0YWxfYmluZGluZycsICctaW1hZScsICc8aW5maWxlLm1hZT4nLCAnLW9tYWUnLCAnPG91dGZpbGUubWFlPic=

> <r_epik_Ionization_Penalty>
2.55031

> <r_epik_Ionization_Penalty_Charging>
2.55029

> <r_epik_Ionization_Penalty_Neutral>
1.86001e-05

> <r_epik_State_Penalty>
2.71882

> <r_epik_Charging_Adjusted_Penalty>
5.26911

> <i_epik_Tot_Q>
1

> <i_epik_Tot_abs_Q>
1

> <r_epik_Metal_State_Penalty>
2.7268

> <b_epik_Metal_Only>
0

> <s_lp_Force_Field>
OPLS_2005

> <r_lp_Energy>
25.1386

> <b_lp_Chiralities_Consistent>
1

> <s_lp_Variant>
AV-unprocessed.smi:2991-3

> <Gold.Version>
5.8.1

> <Gold.Id.Protein>
6NUR|6NUR_protein|mol2

> <Gold.PLP.Fitness>
38.9120

> <Gold.PLP.PLP>
-29.6555

> <Gold.PLP.part.hbond>
-3.1167

> <Gold.PLP.part.metal>
0.0000

> <Gold.PLP.part.buried>
-4.7808

> <Gold.PLP.part.nonpolar>
-26.6984

> <Gold.PLP.part.repulsive>
4.3288

> <Gold.PLP.ligand.clash>
0.0000

> <Gold.PLP.ligand.torsion>
0.5363

> <Gold.PLP.Chemscore.Hbond>
3.4256

> <Gold.PLP.Chemscore.CHOScore>
0.0000

> <Gold.PLP.Chemscore.Metal>
0.0000

> <Gold.Chemscore.Hbonds>
donor molecule, donor type, donor heavy atom, donor atom, acceptor molecule, acceptor atom, score
      L1  H     3    38       P1  8028  2.00
      L1  H     7    26       P1  7948  0.77
      L1  H    10    27       P1  7948  0.39
      L1  H    16    37       P1 10186  0.15

> <Gold.PLP.Chemscore.Internal.Correction>
0.0525

> <Gold.Rescore>
     Score         DG    S(hbond)    S(metal)    S(lipo)     H(rot)  DE(clash)    DE(int)     intcor
     17.89     -21.61       3.10        0.00      71.14       1.00       2.14       1.57       ----

> <Gold.Chemscore.Fitness>
17.8932

> <Gold.Chemscore.DG>
-21.6087

> <Gold.Chemscore.ZeroCoef>
-5.4800

> <Gold.Chemscore.Hbond>
3.1035

> <Gold.Chemscore.Metal>
0.0000

> <Gold.Chemscore.Lipo>
71.1366

> <Gold.Chemscore.Internal_Hbond>
0.0000

> <Gold.Chemscore.DEClash>
2.1408

> <Gold.Chemscore.DEInternal>
1.5747

> <Gold.Chemscore.Rot>
1.0000

> <Gold.Chemscore.Internal.Correction>
   9.000000E+99

> <Gold.Chemscore.Hbonds>
donor molecule, donor type, donor heavy atom, donor atom, acceptor molecule, acceptor atom, score
      L1  H     3    38       P1  8028  0.87
      L1  H     7    26       P1  7948  0.76
      L1  H    10    27       P1  7948  0.39
      L1  H    16    37       P1 10186  0.08

> <Gold.Chemscore.Hbond.Weighted>
-10.3657

> <Gold.Chemscore.Metal.Weighted>
-0.0000

> <Gold.Chemscore.Lipo.Weighted>
-8.3230

> <Gold.Chemscore.Internal_Hbond.Weighted>
0.0000

> <Gold.Chemscore.DEClash.Weighted>
2.1408

> <Gold.Chemscore.DEInternal.Weighted>
1.5747

> <Gold.Chemscore.Rot.Weighted>
2.5600

> <Gold.Chemscore.Internal.Correction.Weighted>
   9.000000E+99

> <Gold.Protein.RotatedTorsions>
[ 6907 6896 6895 6894 ] final -176.34 input  -60.11 | X-H torsion
[ 7974 7965 7964 7962 ] final   77.80 input  175.53 | X-H torsion
[ 8008 7997 7996 7995 ] final   87.74 input   59.86 | X-H torsion
[ 10167 10162 10161 10158 ] final -159.88 input  -65.29 | X-H torsion
[ 10718 10713 10712 10709 ] final   37.85 input   66.30 | X-H torsion
[ 10763 10752 10751 10750 ] final  166.35 input  -60.55 | X-H torsion
[ 11005 11000 10999 10996 ] final   66.93 input  -57.11 | X-H torsion

> <Gold.Protein.ActiveResidues>
 VAL166  LYS551  ARG553  GLY616  TRP617  ASP618  TYR619  PRO620  LYS621  CYS622 
 ASP623  PHE694  ASN695  SER759  ASP760  ASP761  ALA762  ILE779  LEU786  VAL792 
 PHE793  MET794  SER795  GLU796  ALA797  LYS798  CYS799  TRP800  GLU811  SER814 

> <Gold.Protein.RotatedAtoms>
  151.6032  133.3354  159.3051 H   0  0  0  0  0  0  0  0  0  0  0  0  # atno 6907 bound_to 6896
  150.8197  134.7401  159.6772 H   0  0  0  0  0  0  0  0  0  0  0  0  # atno 6908 bound_to 6896
  152.4291  134.5818  160.0001 H   0  0  0  0  0  0  0  0  0  0  0  0  # atno 6909 bound_to 6896
  145.6854  139.2536  143.1790 H   0  0  0  0  0  0  0  0  0  0  0  0  # atno 7974 bound_to 7965
  155.9792  140.3379  155.6647 H   0  0  0  0  0  0  0  0  0  0  0  0  # atno 8008 bound_to 7997
  155.6572  140.0712  157.2585 H   0  0  0  0  0  0  0  0  0  0  0  0  # atno 8009 bound_to 7997
  154.4187  140.1715  156.1725 H   0  0  0  0  0  0  0  0  0  0  0  0  # atno 8010 bound_to 7997
  139.6582  143.9961  152.2208 H   0  0  0  0  0  0  0  0  0  0  0  0  # atno 10167 bound_to 10162
  157.3519  130.7603  149.6984 H   0  0  0  0  0  0  0  0  0  0  0  0  # atno 10718 bound_to 10713
  154.3377  135.2754  155.2439 H   0  0  0  0  0  0  0  0  0  0  0  0  # atno 10763 bound_to 10752
  154.4723  135.5880  153.6333 H   0  0  0  0  0  0  0  0  0  0  0  0  # atno 10764 bound_to 10752
  152.9860  135.6091  154.3576 H   0  0  0  0  0  0  0  0  0  0  0  0  # atno 10765 bound_to 10752
  139.9802  134.6757  156.0277 H   0  0  0  0  0  0  0  0  0  0  0  0  # atno 11005 bound_to 11000
  146.0928  140.7635  142.9587 LP  0  0  0  0  0  0  0  0  0  0  0  0  # atno 17320 bound_to 7965
  144.7013  140.3664  143.7154 LP  0  0  0  0  0  0  0  0  0  0  0  0  # atno 17321 bound_to 7965
  139.9693  144.6505  150.8005 LP  0  0  0  0  0  0  0  0  0  0  0  0  # atno 17342 bound_to 10162
  140.7568  143.3074  151.2929 LP  0  0  0  0  0  0  0  0  0  0  0  0  # atno 17343 bound_to 10162
  155.9723  130.4138  150.4101 LP  0  0  0  0  0  0  0  0  0  0  0  0  # atno 17370 bound_to 10713
  157.2165  131.0472  151.2570 LP  0  0  0  0  0  0  0  0  0  0  0  0  # atno 17371 bound_to 10713
  141.1475  133.6553  156.3911 LP  0  0  0  0  0  0  0  0  0  0  0  0  # atno 17394 bound_to 11000
  140.5112  134.6393  157.5285 LP  0  0  0  0  0  0  0  0  0  0  0  0  # atno 17395 bound_to 11000

$$$$
