#       Name:                AV-unprocessed.smi:2512
#       Creating user name   scv26
#       Creation time:       Fri Mar 27 13:52:50 2020


#       File generated by GOLD software.
#

@<TRIPOS>MOLECULE
AV-unprocessed.smi:2512
    31    32     1
SMALL
NO_CHARGES


@<TRIPOS>ATOM
      1 ****        -1.9073  -1.9439   0.3938 C.3            1 S1                 0.0000
      2 ****        -1.2827  -1.3463  -0.8811 C.3            1 S1                 0.0000
      3 ****        -1.7429  -2.1272  -2.1230 C.3            1 S1                 0.0000
      4 ****        -1.7882  -0.0312  -1.0102 O.3            1 S1                 0.0000
      5 ****         0.2649  -1.2870  -0.8264 C.3            1 S1                 0.0000
      6 ****         0.7969  -0.5908   0.3361 N.pl3          1 S1                 0.0000
      7 ****         1.1286  -1.3028   1.4512 N.2            1 S1                 0.0000
      8 ****         1.5795  -0.4821   2.3519 N.2            1 S1                 0.0000
      9 ****         1.5558   0.7950   1.8174 C.ar           1 S1                 0.0000
     10 ****         1.9337   2.0466   2.3523 C.ar           1 S1                 0.0000
     11 ****         1.8099   3.2210   1.5779 C.ar           1 S1                 0.0000
     12 ****         2.2841   4.7327   2.2673 Cl             1 S1                 0.0000
     13 ****         1.3057   3.1555   0.2565 C.ar           1 S1                 0.0000
     14 ****         1.1498   4.5816  -0.7062 Cl             1 S1                 0.0000
     15 ****         0.9238   1.9138  -0.2892 C.ar           1 S1                 0.0000
     16 ****         1.0534   0.7573   0.4986 C.ar           1 S1                 0.0000
     17 ****        -1.5284  -2.9487   0.5835 H              1 S1                 0.0000
     18 ****        -2.9922  -2.0128   0.3079 H              1 S1                 0.0000
     19 ****        -1.6943  -1.3373   1.2746 H              1 S1                 0.0000
     20 ****        -1.3994  -3.1616  -2.0862 H              1 S1                 0.0000
     21 ****        -1.3529  -1.6836  -3.0398 H              1 S1                 0.0000
     22 ****        -2.8306  -2.1452  -2.2031 H              1 S1                 0.0000
     23 ****        -1.4553   0.3429  -1.8116 H              1 S1                 0.0000
     24 ****         0.6731  -2.2991  -0.8350 H              1 S1                 0.0000
     25 ****         0.6566  -0.7994  -1.7201 H              1 S1                 0.0000
     26 ****         2.3210   2.1026   3.3590 H              1 S1                 0.0000
     27 ****         0.5364   1.8505  -1.2953 H              1 S1                 0.0000
     28 ****        -1.4912   0.5217  -0.2317 LP             1 S1                 0.0000
     29 ****        -2.7874  -0.0559  -1.0397 LP             1 S1                 0.0000
     30 ****         1.0395  -2.2931   1.5579 LP             1 S1                 0.0000
     31 ****         1.8893  -0.7294   3.2700 LP             1 S1                 0.0000
@<TRIPOS>BOND
    1    1    2 1     
    2    1   17 1     
    3    1   18 1     
    4    1   19 1     
    5    2    3 1     
    6    2    4 1     
    7    2    5 1     
    8    3   20 1     
    9    3   21 1     
   10    3   22 1     
   11    4   23 1     
   12    5    6 1     
   13    5   24 1     
   14    5   25 1     
   15    6   16 1     
   16    6    7 1     
   17    7    8 2     
   18    8    9 1     
   19    9   16 ar    
   20    9   10 ar    
   21   10   11 ar    
   22   10   26 1     
   23   11   12 1     
   24   11   13 ar    
   25   13   14 1     
   26   13   15 ar    
   27   15   16 ar    
   28   15   27 1     
   29    4   28 1     
   30    4   29 1     
   31    7   30 1     
   32    8   31 1     
@<TRIPOS>SUBSTRUCTURE
      1 S1             1
@<TRIPOS>SET
LONE_PAIRS      STATIC     ATOMS    <user>   **** ""
4 28 29 30 31
DONOR_HYDROGENS      STATIC     ATOMS    <user>   **** ""
1 23
ATOM$BLUE        STATIC     ATOMS    COLORGROUP SYSTEM
4 28 29 30 31
ATOM$RED        STATIC     ATOMS    COLORGROUP SYSTEM
1 23
