AV-unprocessed.smi:809|AV-procd|sdf|3806|dock4
  -GOLD-   22720 1243D 1   1.00000     0.00000
 Structure written by MMmdl.
 40 41  0  0  0  0  0  0  0  0  2 V2000
  153.3694  141.4644  160.6998 C   0  0  0  0  0  0  0  0  0  0  0  0
  152.6707  142.4826  159.8548 C   0  0  0  0  0  0  0  0  0  0  0  0
  152.8560  143.8435  159.8771 C   0  0  0  0  0  0  0  0  0  0  0  0
  151.8352  144.6612  158.7241 S   0  0  0  0  0  0  0  0  0  0  0  0
  151.1852  143.0994  158.2510 C   0  0  0  0  0  0  0  0  0  0  0  0
  150.1939  142.9713  157.2429 N   0  0  0  0  0  0  0  0  0  0  0  0
  149.5540  141.8575  156.8466 C   0  0  0  0  0  0  0  0  0  0  0  0
  149.7198  140.7345  157.3240 O   0  0  0  0  0  0  0  0  0  0  0  0
  148.7025  142.1172  155.8437 N   0  0  0  0  0  0  0  0  0  0  0  0
  147.8560  141.1368  155.1658 C   0  0  0  0  0  0  0  0  0  0  0  0
  148.6116  140.3327  154.0741 C   0  0  1  0  0  0  0  0  0  0  0  0
  149.2131  141.2865  153.2190 O   0  0  0  0  0  0  0  0  0  0  0  0
  149.7147  139.3843  154.5996 C   0  0  0  0  0  0  0  0  0  0  0  0
  149.1253  138.1579  155.3185 C   0  0  0  0  0  0  0  0  0  0  0  0
  148.2002  137.4143  154.4285 N   0  3  1  0  0  0  0  0  0  0  0  0
  147.7083  136.1644  155.0469 C   0  0  0  0  0  0  0  0  0  0  0  0
  147.0950  138.2697  153.9296 C   0  0  0  0  0  0  0  0  0  0  0  0
  147.6380  139.5132  153.1991 C   0  0  0  0  0  0  0  0  0  0  0  0
  151.7145  142.0702  158.9224 N   0  0  0  0  0  0  0  0  0  0  0  0
  154.1846  141.9107  161.2696 H   0  0  0  0  0  0  0  0  0  0  0  0
  153.7935  140.6678  160.0880 H   0  0  0  0  0  0  0  0  0  0  0  0
  152.6820  141.0058  161.4109 H   0  0  0  0  0  0  0  0  0  0  0  0
  153.5300  144.4129  160.4998 H   0  0  0  0  0  0  0  0  0  0  0  0
  149.9507  143.8254  156.7629 H   0  0  0  0  0  0  0  0  0  0  0  0
  148.6338  143.0698  155.5158 H   0  0  0  0  0  0  0  0  0  0  0  0
  147.4140  140.4629  155.8996 H   0  0  0  0  0  0  0  0  0  0  0  0
  147.0133  141.6689  154.7222 H   0  0  0  0  0  0  0  0  0  0  0  0
  149.2912  140.9140  152.3542 H   0  0  0  0  0  0  0  0  0  0  0  0
  150.3174  139.0316  153.7610 H   0  0  0  0  0  0  0  0  0  0  0  0
  150.4097  139.9075  155.2564 H   0  0  0  0  0  0  0  0  0  0  0  0
  149.9366  137.4991  155.6306 H   0  0  0  0  0  0  0  0  0  0  0  0
  148.5978  138.4570  156.2240 H   0  0  0  0  0  0  0  0  0  0  0  0
  147.1059  136.3755  155.9316 H   0  0  0  0  0  0  0  0  0  0  0  0
  148.5418  135.5272  155.3446 H   0  0  0  0  0  0  0  0  0  0  0  0
  147.0956  135.6016  154.3419 H   0  0  0  0  0  0  0  0  0  0  0  0
  146.4741  137.6923  153.2436 H   0  0  0  0  0  0  0  0  0  0  0  0
  146.4511  138.5592  154.7606 H   0  0  0  0  0  0  0  0  0  0  0  0
  146.8087  140.1382  152.8648 H   0  0  0  0  0  0  0  0  0  0  0  0
  148.1492  139.1816  152.2937 H   0  0  0  0  0  0  0  0  0  0  0  0
  148.7395  137.1398  153.6199 H   0  0  0  0  0  0  0  0  0  0  0  0
  1  2  1  0  0  0  0
  1 20  1  0  0  0  0
  1 21  1  0  0  0  0
  1 22  1  0  0  0  0
  2 19  1  0  0  0  0
  2  3  2  0  0  0  0
  3  4  1  0  0  0  0
  3 23  1  0  0  0  0
  4  5  1  0  0  0  0
  5  6  1  0  0  0  0
  5 19  2  0  0  0  0
  6  7  1  0  0  0  0
  6 24  1  0  0  0  0
  7  8  2  0  0  0  0
  7  9  1  0  0  0  0
  9 10  1  0  0  0  0
  9 25  1  0  0  0  0
 10 11  1  0  0  0  0
 10 26  1  0  0  0  0
 10 27  1  0  0  0  0
 11 18  1  0  0  0  0
 11 12  1  0  0  0  0
 11 13  1  0  0  0  0
 12 28  1  0  0  0  0
 13 14  1  0  0  0  0
 13 29  1  0  0  0  0
 13 30  1  0  0  0  0
 14 15  1  0  0  0  0
 14 31  1  0  0  0  0
 14 32  1  0  0  0  0
 15 16  1  0  0  0  0
 15 17  1  0  0  0  0
 15 40  1  0  0  0  0
 16 33  1  0  0  0  0
 16 34  1  0  0  0  0
 16 35  1  0  0  0  0
 17 18  1  0  0  0  0
 17 36  1  0  0  0  0
 17 37  1  0  0  0  0
 18 38  1  0  0  0  0
 18 39  1  0  0  0  0
M  CHG  1  15   1
M  END
> <s_m_source_file>
AV-unprocessed.smi

> <i_m_source_file_index>
809

> <i_lp_mmshare_version>
43012

> <i_f3d_flags>
0

> <s_epik_input>
W0NIM11jMVtjSF1zYyhuMSlbTkhdQyg9TylbTkhdW0NIMl1DMihbT0hdKVtDSDJdW0NIMl1OKFtDSDNdKVtDSDJdW0NIMl0y

> <s_epik_cmdline>
J2VwaWtfcHl0aG9uJywgJy1waCcsICc3LjAnLCAnLXRuJywgJzgnLCAnLW1hJywgJzIwMCcsICctbWV0YWxfYmluZGluZycsICctaW1hZScsICc8aW5maWxlLm1hZT4nLCAnLW9tYWUnLCAnPG91dGZpbGUubWFlPic=

> <r_lp_tautomer_probability>
0.999

> <r_epik_Ionization_Penalty>
0.00116503

> <r_epik_Ionization_Penalty_Charging>
0.000767707

> <r_epik_Ionization_Penalty_Neutral>
0.00039732

> <r_epik_State_Penalty>
0.000177984

> <r_epik_Charging_Adjusted_Penalty>
0.00094569

> <i_epik_Tot_Q>
1

> <i_epik_Tot_abs_Q>
1

> <r_epik_Metal_State_Penalty>
0.00775393

> <b_epik_Metal_Only>
0

> <s_lp_Force_Field>
OPLS_2005

> <r_lp_Energy>
16.2661

> <b_lp_Chiralities_Consistent>
1

> <s_lp_Variant>
AV-unprocessed.smi:809-2

> <Gold.Version>
5.8.1

> <Gold.Id.Protein>
6NUR|6NUR_protein|mol2

> <Gold.PLP.Fitness>
49.7227

> <Gold.PLP.PLP>
-35.1391

> <Gold.PLP.part.hbond>
-5.8212

> <Gold.PLP.part.metal>
0.0000

> <Gold.PLP.part.buried>
-2.5690

> <Gold.PLP.part.nonpolar>
-26.7037

> <Gold.PLP.part.repulsive>
0.1083

> <Gold.PLP.ligand.clash>
0.0000

> <Gold.PLP.ligand.torsion>
0.2116

> <Gold.PLP.Chemscore.Hbond>
5.0000

> <Gold.PLP.Chemscore.CHOScore>
0.0000

> <Gold.PLP.Chemscore.Metal>
0.0000

> <Gold.Chemscore.Hbonds>
donor molecule, donor type, donor heavy atom, donor atom, acceptor molecule, acceptor atom, score
      L1  H     6    24       P1  8028  1.00
      L1  H     9    25       P1  8028  1.00
      L1  H    12    28       P1  7957  0.93
      L1  H    15    40       P1  7948  2.00

> <Gold.PLP.Chemscore.Internal.Correction>
0.0068

> <Gold.Rescore>
     Score         DG    S(hbond)    S(metal)    S(lipo)     H(rot)  DE(clash)    DE(int)     intcor
     21.50     -23.02       3.91        0.00      78.69       1.85       0.01       1.52       ----

> <Gold.Chemscore.Fitness>
21.4972

> <Gold.Chemscore.DG>
-23.0222

> <Gold.Chemscore.ZeroCoef>
-5.4800

> <Gold.Chemscore.Hbond>
3.9115

> <Gold.Chemscore.Metal>
0.0000

> <Gold.Chemscore.Lipo>
78.6865

> <Gold.Chemscore.Internal_Hbond>
0.0000

> <Gold.Chemscore.DEClash>
0.0064

> <Gold.Chemscore.DEInternal>
1.5186

> <Gold.Chemscore.Rot>
1.8471

> <Gold.Chemscore.Internal.Correction>
   9.000000E+99

> <Gold.Chemscore.Hbonds>
donor molecule, donor type, donor heavy atom, donor atom, acceptor molecule, acceptor atom, score
      L1  H     6    24       P1  8028  0.95
      L1  H     9    25       P1  8028  0.97
      L1  H    12    28       P1  7957  0.89
      L1  H    15    40       P1  7948  0.95

> <Gold.Chemscore.Hbond.Weighted>
-13.0645

> <Gold.Chemscore.Metal.Weighted>
-0.0000

> <Gold.Chemscore.Lipo.Weighted>
-9.2063

> <Gold.Chemscore.Internal_Hbond.Weighted>
0.0000

> <Gold.Chemscore.DEClash.Weighted>
0.0064

> <Gold.Chemscore.DEInternal.Weighted>
1.5186

> <Gold.Chemscore.Rot.Weighted>
4.7286

> <Gold.Chemscore.Internal.Correction.Weighted>
   9.000000E+99

> <Gold.Protein.RotatedTorsions>
[ 6907 6896 6895 6894 ] final   69.00 input  -60.11 | X-H torsion
[ 7974 7965 7964 7962 ] final  -38.31 input  175.53 | X-H torsion
[ 8008 7997 7996 7995 ] final   70.58 input   59.86 | X-H torsion
[ 10167 10162 10161 10158 ] final  -35.81 input  -65.29 | X-H torsion
[ 10718 10713 10712 10709 ] final  -33.48 input   66.30 | X-H torsion
[ 10763 10752 10751 10750 ] final -115.21 input  -60.55 | X-H torsion
[ 11005 11000 10999 10996 ] final -120.80 input  -57.11 | X-H torsion

> <Gold.Protein.ActiveResidues>
 VAL166  LYS551  ARG553  GLY616  TRP617  ASP618  TYR619  PRO620  LYS621  CYS622 
 ASP623  PHE694  ASN695  SER759  ASP760  ASP761  ALA762  ILE779  LEU786  VAL792 
 PHE793  MET794  SER795  GLU796  ALA797  LYS798  CYS799  TRP800  GLU811  SER814 

> <Gold.Protein.RotatedAtoms>
  152.4657  134.5080  159.9744 H   0  0  0  0  0  0  0  0  0  0  0  0  # atno 6907 bound_to 6896
  151.5119  133.3477  159.2894 H   0  0  0  0  0  0  0  0  0  0  0  0  # atno 6908 bound_to 6896
  150.8641  134.8028  159.7167 H   0  0  0  0  0  0  0  0  0  0  0  0  # atno 6909 bound_to 6896
  146.0498  140.6497  142.9047 H   0  0  0  0  0  0  0  0  0  0  0  0  # atno 7974 bound_to 7965
  155.7410  140.3490  155.5104 H   0  0  0  0  0  0  0  0  0  0  0  0  # atno 8008 bound_to 7997
  155.9094  140.1048  157.1312 H   0  0  0  0  0  0  0  0  0  0  0  0  # atno 8009 bound_to 7997
  154.4054  140.1270  156.4525 H   0  0  0  0  0  0  0  0  0  0  0  0  # atno 8010 bound_to 7997
  140.7157  143.3451  151.2273 H   0  0  0  0  0  0  0  0  0  0  0  0  # atno 10167 bound_to 10162
  156.3621  130.4325  149.7615 H   0  0  0  0  0  0  0  0  0  0  0  0  # atno 10718 bound_to 10713
  154.8472  135.4390  154.1628 H   0  0  0  0  0  0  0  0  0  0  0  0  # atno 10763 bound_to 10752
  153.2760  135.6949  153.7438 H   0  0  0  0  0  0  0  0  0  0  0  0  # atno 10764 bound_to 10752
  153.6661  135.3427  155.3115 H   0  0  0  0  0  0  0  0  0  0  0  0  # atno 10765 bound_to 10752
  141.0117  134.0255  157.3405 H   0  0  0  0  0  0  0  0  0  0  0  0  # atno 11005 bound_to 11000
  144.7116  140.4061  143.7076 LP  0  0  0  0  0  0  0  0  0  0  0  0  # atno 17320 bound_to 7965
  145.6744  139.1605  143.2736 LP  0  0  0  0  0  0  0  0  0  0  0  0  # atno 17321 bound_to 7965
  139.6969  143.9598  152.2887 LP  0  0  0  0  0  0  0  0  0  0  0  0  # atno 17342 bound_to 10162
  139.9278  144.6760  150.8394 LP  0  0  0  0  0  0  0  0  0  0  0  0  # atno 17343 bound_to 10162
  156.4775  130.8025  151.3041 LP  0  0  0  0  0  0  0  0  0  0  0  0  # atno 17370 bound_to 10713
  157.7474  131.0016  150.2970 LP  0  0  0  0  0  0  0  0  0  0  0  0  # atno 17371 bound_to 10713
  139.9093  135.0187  156.7625 LP  0  0  0  0  0  0  0  0  0  0  0  0  # atno 17394 bound_to 11000
  140.6722  133.9549  155.7863 LP  0  0  0  0  0  0  0  0  0  0  0  0  # atno 17395 bound_to 11000

$$$$
