#       Name:                AV-unprocessed.smi:505
#       Creating user name   scv26
#       Creation time:       Thu Mar 26 23:21:31 2020


#       File generated by GOLD software.
#

@<TRIPOS>MOLECULE
AV-unprocessed.smi:505
    46    47     1
SMALL
NO_CHARGES


@<TRIPOS>ATOM
      1 ****        -4.5073   1.8435   0.6020 C.3            1 S1                 0.0000
      2 ****        -3.8795   0.5736   0.5939 O.3            1 S1                 0.0000
      3 ****        -2.4651   0.6685   0.5890 C.3            1 S1                 0.0000
      4 ****        -1.8720  -0.7455   0.5980 C.3            1 S1                 0.0000
      5 ****        -0.4145  -0.7167   0.5363 N.pl3          1 S1                 0.0000
      6 ****         0.3640  -0.7929  -0.5710 C.2            1 S1                 0.0000
      7 ****        -0.2118  -0.8981  -1.8315 N.pl3          1 S1                 0.0000
      8 ****        -1.5948  -0.9495  -2.2683 C.3            1 S1                 0.0000
      9 ****        -2.2580  -2.2922  -1.9304 C.3            1 S1                 0.0000
     10 ****        -1.9318  -3.2526  -2.9125 O.3            1 S1                 0.0000
     11 ****         1.6774  -0.7464  -0.3418 N.2            1 S1                 0.0000
     12 ****         1.7395  -0.6168   1.0392 C.2            1 S1                 0.0000
     13 ****         0.4949  -0.5855   1.5886 C.2            1 S1                 0.0000
     14 ****         0.2348  -0.4292   3.0353 C.2            1 S1                 0.0000
     15 ****        -0.9138  -0.3895   3.4719 O.2            1 S1                 0.0000
     16 ****         1.3944  -0.3341   3.7603 N.pl3          1 S1                -1.0000
     17 ****         2.6744  -0.3656   3.2491 C.2            1 S1                 0.0000
     18 ****         3.6661  -0.2692   3.9733 O.2            1 S1                 0.0000
     19 ****         2.8662  -0.5067   1.8993 N.am           1 S1                 0.0000
     20 ****         4.2155  -0.5452   1.3283 C.3            1 S1                 0.0000
     21 ****        -5.5898   1.7169   0.6010 H              1 S1                 0.0000
     22 ****        -4.2355   2.4244  -0.2803 H              1 S1                 0.0000
     23 ****        -4.2358   2.4115   1.4927 H              1 S1                 0.0000
     24 ****        -2.1326   1.2086  -0.2991 H              1 S1                 0.0000
     25 ****        -2.1225   1.2267   1.4616 H              1 S1                 0.0000
     26 ****        -2.1856  -1.2924   1.4863 H              1 S1                 0.0000
     27 ****        -2.2575  -1.3175  -0.2461 H              1 S1                 0.0000
     28 ****         0.4519  -0.9961  -2.5861 H              1 S1                 0.0000
     29 ****        -2.1266  -0.1463  -1.7575 H              1 S1                 0.0000
     30 ****        -1.6573  -0.7369  -3.3360 H              1 S1                 0.0000
     31 ****        -1.9778  -2.6478  -0.9382 H              1 S1                 0.0000
     32 ****        -3.3418  -2.1750  -1.9332 H              1 S1                 0.0000
     33 ****        -2.3558  -4.0667  -2.6881 H              1 S1                 0.0000
     34 ****         4.7978  -1.3526   1.7748 H              1 S1                 0.0000
     35 ****         4.7353   0.3950   1.5160 H              1 S1                 0.0000
     36 ****         4.2116  -0.7078   0.2506 H              1 S1                 0.0000
     37 ****        -4.1706   0.0769  -0.2237 LP             1 S1                 0.0000
     38 ****        -4.1644   0.0696   1.4092 LP             1 S1                 0.0000
     39 ****        -0.9409  -3.3845  -2.9394 LP             1 S1                 0.0000
     40 ****        -2.2511  -2.9416  -3.8077 LP             1 S1                 0.0000
     41 ****         2.4290  -0.7931  -0.9998 LP             1 S1                 0.0000
     42 ****        -1.6896  -0.4634   2.8454 LP             1 S1                 0.0000
     43 ****        -1.0721  -0.2833   4.4536 LP             1 S1                 0.0000
     44 ****         1.3035  -0.2325   4.7510 LP             1 S1                 0.0000
     45 ****         3.5553  -0.1646   4.9616 LP             1 S1                 0.0000
     46 ****         4.5821  -0.2954   3.5729 LP             1 S1                 0.0000
@<TRIPOS>BOND
    1    1    2 1     
    2    1   21 1     
    3    1   22 1     
    4    1   23 1     
    5    2    3 1     
    6    3    4 1     
    7    3   24 1     
    8    3   25 1     
    9    4    5 1     
   10    4   26 1     
   11    4   27 1     
   12    5   13 1     
   13    5    6 1     
   14    6    7 1     
   15    6   11 2     
   16    7    8 1     
   17    7   28 1     
   18    8    9 1     
   19    8   29 1     
   20    8   30 1     
   21    9   10 1     
   22    9   31 1     
   23    9   32 1     
   24   10   33 1     
   25   11   12 1     
   26   12   19 1     
   27   12   13 2     
   28   13   14 1     
   29   14   15 2     
   30   14   16 1     
   31   16   17 1     
   32   17   18 2     
   33   17   19 am    
   34   19   20 1     
   35   20   34 1     
   36   20   35 1     
   37   20   36 1     
   38    2   37 1     
   39    2   38 1     
   40   10   39 1     
   41   10   40 1     
   42   11   41 1     
   43   15   42 1     
   44   15   43 1     
   45   16   44 1     
   46   18   45 1     
   47   18   46 1     
@<TRIPOS>SUBSTRUCTURE
      1 S1             1
@<TRIPOS>SET
LONE_PAIRS      STATIC     ATOMS    <user>   **** ""
10 37 38 39 40 41 42 43 44 45 46
DONOR_HYDROGENS      STATIC     ATOMS    <user>   **** ""
2 28 33
ATOM$BLUE        STATIC     ATOMS    COLORGROUP SYSTEM
10 37 38 39 40 41 42 43 44 45 46
ATOM$RED        STATIC     ATOMS    COLORGROUP SYSTEM
2 28 33
