AV-unprocessed.smi:791|AV-procd|sdf|3749|dock3
  -GOLD-   22720 1183D 1   1.00000     0.00000
 Structure written by MMmdl.
 30 32  0  0  0  0  0  0  0  0  2 V2000
  148.2124  140.8785  154.1623 C   0  0  0  0  0  0  0  0  0  0  0  0
  147.9620  139.4294  153.7116 C   0  0  0  0  0  0  0  0  0  0  0  0
  149.2391  138.7464  153.4091 N   0  3  0  0  0  0  0  0  0  0  0  0
  150.1701  138.7245  154.5589 C   0  0  0  0  0  0  0  0  0  0  0  0
  150.4620  140.1539  155.0574 C   0  0  2  0  0  0  0  0  0  0  0  0
  151.4159  140.1610  156.2118 C   0  0  0  0  0  0  0  0  0  0  0  0
  152.5701  139.5072  156.1540 N   0  0  0  0  0  0  0  0  0  0  0  0
  153.1421  139.7457  157.4117 O   0  0  0  0  0  0  0  0  0  0  0  0
  152.2625  140.5336  158.0741 C   0  0  0  0  0  0  0  0  0  0  0  0
  152.5749  140.9423  159.4732 C   0  0  0  0  0  0  0  0  0  0  0  0
  152.5937  142.4011  159.8698 C   0  0  0  0  0  0  0  0  0  0  0  0
  153.8831  141.6224  159.8049 C   0  0  0  0  0  0  0  0  0  0  0  0
  151.1560  140.8020  157.3856 N   0  0  0  0  0  0  0  0  0  0  0  0
  149.1636  140.9232  155.3682 C   0  0  0  0  0  0  0  0  0  0  0  0
  147.2671  141.3594  154.4158 H   0  0  0  0  0  0  0  0  0  0  0  0
  148.6390  141.4505  153.3372 H   0  0  0  0  0  0  0  0  0  0  0  0
  147.4334  138.8754  154.4884 H   0  0  0  0  0  0  0  0  0  0  0  0
  147.3304  139.4133  152.8232 H   0  0  0  0  0  0  0  0  0  0  0  0
  149.0451  137.7963  153.1266 H   0  0  0  0  0  0  0  0  0  0  0  0
  149.7330  138.1217  155.3563 H   0  0  0  0  0  0  0  0  0  0  0  0
  151.0939  138.2309  154.2557 H   0  0  0  0  0  0  0  0  0  0  0  0
  150.9494  140.6813  154.2347 H   0  0  0  0  0  0  0  0  0  0  0  0
  152.1786  140.2216  160.1856 H   0  0  0  0  0  0  0  0  0  0  0  0
  152.4165  143.1414  159.0920 H   0  0  0  0  0  0  0  0  0  0  0  0
  152.2107  142.6583  160.8552 H   0  0  0  0  0  0  0  0  0  0  0  0
  154.3604  141.3618  160.7473 H   0  0  0  0  0  0  0  0  0  0  0  0
  154.5615  141.8416  158.9827 H   0  0  0  0  0  0  0  0  0  0  0  0
  149.3884  141.9582  155.6286 H   0  0  0  0  0  0  0  0  0  0  0  0
  148.6673  140.4844  156.2350 H   0  0  0  0  0  0  0  0  0  0  0  0
  149.6867  139.2287  152.6427 H   0  0  0  0  0  0  0  0  0  0  0  0
  1 14  1  0  0  0  0
  1  2  1  0  0  0  0
  1 15  1  0  0  0  0
  1 16  1  0  0  0  0
  2  3  1  0  0  0  0
  2 17  1  0  0  0  0
  2 18  1  0  0  0  0
  3  4  1  0  0  0  0
  3 19  1  0  0  0  0
  3 30  1  0  0  0  0
  4  5  1  0  0  0  0
  4 20  1  0  0  0  0
  4 21  1  0  0  0  0
  5  6  1  0  0  0  0
  5 14  1  0  0  0  0
  5 22  1  0  0  0  0
  6 13  1  0  0  0  0
  6  7  2  0  0  0  0
  7  8  1  0  0  0  0
  8  9  1  0  0  0  0
  9 10  1  0  0  0  0
  9 13  2  0  0  0  0
 10 12  1  0  0  0  0
 10 11  1  0  0  0  0
 10 23  1  0  0  0  0
 11 12  1  0  0  0  0
 11 24  1  0  0  0  0
 11 25  1  0  0  0  0
 12 26  1  0  0  0  0
 12 27  1  0  0  0  0
 14 28  1  0  0  0  0
 14 29  1  0  0  0  0
M  CHG  1   3   1
M  END
> <s_m_source_file>
AV-unprocessed.smi

> <i_m_source_file_index>
791

> <i_lp_mmshare_version>
43012

> <i_f3d_flags>
0

> <s_epik_input>
W0NIMl0xW0NIMl1bQ0gyXVtOSF1bQ0gyXVtDQEhdMWMybm9jKG4yKVtDSF0zW0NIMl1bQ0gyXTM=

> <s_epik_cmdline>
J2VwaWtfcHl0aG9uJywgJy1waCcsICc3LjAnLCAnLXRuJywgJzgnLCAnLW1hJywgJzIwMCcsICctbWV0YWxfYmluZGluZycsICctaW1hZScsICc8aW5maWxlLm1hZT4nLCAnLW9tYWUnLCAnPG91dGZpbGUubWFlPic=

> <r_lp_tautomer_probability>
1

> <r_epik_Ionization_Penalty>
0.000532935

> <r_epik_Ionization_Penalty_Charging>
0.000532935

> <r_epik_Ionization_Penalty_Neutral>
2.72852e-13

> <r_epik_State_Penalty>
0.000332992

> <r_epik_Charging_Adjusted_Penalty>
0.000865928

> <i_epik_Tot_Q>
1

> <i_epik_Tot_abs_Q>
1

> <r_epik_Metal_State_Penalty>
-0

> <b_epik_Metal_Only>
0

> <s_lp_Force_Field>
OPLS_2005

> <r_lp_Energy>
11.8714

> <b_lp_Chiralities_Consistent>
1

> <s_lp_Variant>
AV-unprocessed.smi:791-2

> <Gold.Version>
5.8.1

> <Gold.Id.Protein>
6NUR|6NUR_protein|mol2

> <Gold.PLP.Fitness>
41.0205

> <Gold.PLP.PLP>
-29.1359

> <Gold.PLP.part.hbond>
-4.0000

> <Gold.PLP.part.metal>
0.0000

> <Gold.PLP.part.buried>
-1.4939

> <Gold.PLP.part.nonpolar>
-23.7907

> <Gold.PLP.part.repulsive>
0.0867

> <Gold.PLP.ligand.clash>
0.0000

> <Gold.PLP.ligand.torsion>
0.1461

> <Gold.PLP.Chemscore.Hbond>
4.0000

> <Gold.PLP.Chemscore.CHOScore>
0.0000

> <Gold.PLP.Chemscore.Metal>
0.0000

> <Gold.Chemscore.Hbonds>
donor molecule, donor type, donor heavy atom, donor atom, acceptor molecule, acceptor atom, score
      L1  H     3    19       P1  7948  2.00
      L1  H     3    30       P1  7957  1.00
      P1  H  7997  8009       L1     8  1.00

> <Gold.PLP.Chemscore.Internal.Correction>
0.1768

> <Gold.Rescore>
     Score         DG    S(hbond)    S(metal)    S(lipo)     H(rot)  DE(clash)    DE(int)     intcor
     18.21     -18.37       2.69        0.00      60.15       1.23       0.00       0.15       ----

> <Gold.Chemscore.Fitness>
18.2120

> <Gold.Chemscore.DG>
-18.3653

> <Gold.Chemscore.ZeroCoef>
-5.4800

> <Gold.Chemscore.Hbond>
2.6945

> <Gold.Chemscore.Metal>
0.0000

> <Gold.Chemscore.Lipo>
60.1503

> <Gold.Chemscore.Internal_Hbond>
0.0000

> <Gold.Chemscore.DEClash>
0.0043

> <Gold.Chemscore.DEInternal>
0.1490

> <Gold.Chemscore.Rot>
1.2312

> <Gold.Chemscore.Internal.Correction>
   9.000000E+99

> <Gold.Chemscore.Hbonds>
donor molecule, donor type, donor heavy atom, donor atom, acceptor molecule, acceptor atom, score
      L1  H     3    19       P1  7948  0.95
      L1  H     3    30       P1  7957  0.92
      P1  H  7997  8009       L1     8  0.26

> <Gold.Chemscore.Hbond.Weighted>
-8.9995

> <Gold.Chemscore.Metal.Weighted>
-0.0000

> <Gold.Chemscore.Lipo.Weighted>
-7.0376

> <Gold.Chemscore.Internal_Hbond.Weighted>
0.0000

> <Gold.Chemscore.DEClash.Weighted>
0.0043

> <Gold.Chemscore.DEInternal.Weighted>
0.1490

> <Gold.Chemscore.Rot.Weighted>
3.1518

> <Gold.Chemscore.Internal.Correction.Weighted>
   9.000000E+99

> <Gold.Protein.RotatedTorsions>
[ 6907 6896 6895 6894 ] final  -39.39 input  -60.11 | X-H torsion
[ 7974 7965 7964 7962 ] final  104.58 input  175.53 | X-H torsion
[ 8008 7997 7996 7995 ] final  153.06 input   59.86 | X-H torsion
[ 10167 10162 10161 10158 ] final  125.94 input  -65.29 | X-H torsion
[ 10718 10713 10712 10709 ] final   86.75 input   66.30 | X-H torsion
[ 10763 10752 10751 10750 ] final -161.72 input  -60.55 | X-H torsion
[ 11005 11000 10999 10996 ] final   -2.71 input  -57.11 | X-H torsion

> <Gold.Protein.ActiveResidues>
 VAL166  LYS551  ARG553  GLY616  TRP617  ASP618  TYR619  PRO620  LYS621  CYS622 
 ASP623  PHE694  ASN695  SER759  ASP760  ASP761  ALA762  ILE779  LEU786  VAL792 
 PHE793  MET794  SER795  GLU796  ALA797  LYS798  CYS799  TRP800  GLU811  SER814 

> <Gold.Protein.RotatedAtoms>
  150.9909  134.9244  159.7898 H   0  0  0  0  0  0  0  0  0  0  0  0  # atno 6907 bound_to 6896
  152.5251  134.3282  159.9183 H   0  0  0  0  0  0  0  0  0  0  0  0  # atno 6908 bound_to 6896
  151.3288  133.3968  159.2695 H   0  0  0  0  0  0  0  0  0  0  0  0  # atno 6909 bound_to 6896
  145.3309  139.2487  143.3661 H   0  0  0  0  0  0  0  0  0  0  0  0  # atno 7974 bound_to 7965
  156.2600  140.2004  156.6431 H   0  0  0  0  0  0  0  0  0  0  0  0  # atno 8008 bound_to 7997
  154.6594  140.0562  157.0070 H   0  0  0  0  0  0  0  0  0  0  0  0  # atno 8009 bound_to 7997
  155.1299  140.3232  155.4479 H   0  0  0  0  0  0  0  0  0  0  0  0  # atno 8010 bound_to 7997
  139.5658  144.6910  151.3914 H   0  0  0  0  0  0  0  0  0  0  0  0  # atno 10167 bound_to 10162
  157.6932  131.0228  150.3020 H   0  0  0  0  0  0  0  0  0  0  0  0  # atno 10718 bound_to 10713
  154.7278  135.3040  154.8941 H   0  0  0  0  0  0  0  0  0  0  0  0  # atno 10763 bound_to 10752
  153.9793  135.6732  153.4753 H   0  0  0  0  0  0  0  0  0  0  0  0  # atno 10764 bound_to 10752
  153.0891  135.4968  154.8575 H   0  0  0  0  0  0  0  0  0  0  0  0  # atno 10765 bound_to 10752
  140.6614  133.9317  155.8438 H   0  0  0  0  0  0  0  0  0  0  0  0  # atno 11005 bound_to 11000
  146.3046  140.3887  142.8692 LP  0  0  0  0  0  0  0  0  0  0  0  0  # atno 17320 bound_to 7965
  144.8865  140.7468  143.5954 LP  0  0  0  0  0  0  0  0  0  0  0  0  # atno 17321 bound_to 7965
  140.6941  143.7790  150.7300 LP  0  0  0  0  0  0  0  0  0  0  0  0  # atno 17342 bound_to 10162
  140.1281  143.4550  152.2271 LP  0  0  0  0  0  0  0  0  0  0  0  0  # atno 17343 bound_to 10162
  156.3535  130.3835  149.7310 LP  0  0  0  0  0  0  0  0  0  0  0  0  # atno 17370 bound_to 10713
  156.4780  130.8027  151.3043 LP  0  0  0  0  0  0  0  0  0  0  0  0  # atno 17371 bound_to 10713
  141.0462  134.0550  157.3841 LP  0  0  0  0  0  0  0  0  0  0  0  0  # atno 17394 bound_to 11000
  139.9012  135.0165  156.7275 LP  0  0  0  0  0  0  0  0  0  0  0  0  # atno 17395 bound_to 11000

$$$$
