AV-unprocessed.smi:1831|AV-procd|sdf|7460|dock10
  -GOLD-   22720 9153D 1   1.00000     0.00000
 Structure written by MMmdl.
 40 41  0  0  0  0  0  0  0  0  3 V2000
  151.5088  141.8979  157.9834 C   0  0  0  0  0  0  0  0  0  0  0  0
  151.0843  141.0311  156.8481 C   0  0  0  0  0  0  0  0  0  0  0  0
  150.7232  141.5235  155.6609 N   0  0  0  0  0  0  0  0  0  0  0  0
  150.3724  140.5239  154.7648 N   0  0  0  0  0  0  0  0  0  0  0  0
  150.4800  139.2927  155.2829 C   0  0  0  0  0  0  0  0  0  0  0  0
  150.1886  138.1860  154.5798 N   0  5  0  0  0  0  0  0  0  0  0  0
  150.6729  136.9893  154.9778 C   0  0  0  0  0  0  0  0  0  0  0  0
  151.5246  136.7991  155.8485 O   0  0  0  0  0  0  0  0  0  0  0  0
  150.1018  135.9466  154.3580 N   0  0  0  0  0  0  0  0  0  0  0  0
  150.3164  134.5314  154.6600 C   0  0  0  0  0  0  0  0  0  0  0  0
  148.9990  133.7263  154.7957 C   0  0  2  0  0  0  0  0  0  0  0  0
  148.8765  132.5694  153.7928 C   0  0  0  0  0  0  0  0  0  0  0  0
  147.8712  133.0350  152.7280 C   0  0  0  0  0  0  0  0  0  0  0  0
  147.4637  134.4115  153.0901 N   0  3  1  0  0  0  0  0  0  0  0  0
  146.1053  134.8221  152.6401 C   0  0  0  0  0  0  0  0  0  0  0  0
  145.9109  134.5515  151.1364 C   0  0  0  0  0  0  0  0  0  0  0  0
  145.8428  136.3106  152.9352 C   0  0  0  0  0  0  0  0  0  0  0  0
  147.7343  134.5525  154.5360 C   0  0  0  0  0  0  0  0  0  0  0  0
  151.0174  139.2805  156.9622 S   0  0  0  0  0  0  0  0  0  0  0  0
  152.4461  142.3987  157.7404 H   0  0  0  0  0  0  0  0  0  0  0  0
  151.6545  141.3007  158.8837 H   0  0  0  0  0  0  0  0  0  0  0  0
  150.7480  142.6522  158.1847 H   0  0  0  0  0  0  0  0  0  0  0  0
  149.4250  136.1566  153.6389 H   0  0  0  0  0  0  0  0  0  0  0  0
  150.9076  134.1139  153.8446 H   0  0  0  0  0  0  0  0  0  0  0  0
  150.9263  134.4144  155.5571 H   0  0  0  0  0  0  0  0  0  0  0  0
  148.9647  133.3348  155.8133 H   0  0  0  0  0  0  0  0  0  0  0  0
  149.8376  132.2979  153.3544 H   0  0  0  0  0  0  0  0  0  0  0  0
  148.4931  131.6791  154.2930 H   0  0  0  0  0  0  0  0  0  0  0  0
  148.3088  133.0232  151.7292 H   0  0  0  0  0  0  0  0  0  0  0  0
  147.0074  132.3687  152.7252 H   0  0  0  0  0  0  0  0  0  0  0  0
  145.3709  134.2316  153.1900 H   0  0  0  0  0  0  0  0  0  0  0  0
  144.9305  134.8912  150.8010 H   0  0  0  0  0  0  0  0  0  0  0  0
  145.9748  133.4894  150.9003 H   0  0  0  0  0  0  0  0  0  0  0  0
  146.6615  135.0708  150.5400 H   0  0  0  0  0  0  0  0  0  0  0  0
  144.8734  136.6217  152.5448 H   0  0  0  0  0  0  0  0  0  0  0  0
  146.6024  136.9454  152.4774 H   0  0  0  0  0  0  0  0  0  0  0  0
  145.8327  136.5186  154.0050 H   0  0  0  0  0  0  0  0  0  0  0  0
  146.8997  134.1299  155.0979 H   0  0  0  0  0  0  0  0  0  0  0  0
  147.8464  135.5923  154.8427 H   0  0  0  0  0  0  0  0  0  0  0  0
  148.1252  135.0235  152.6313 H   0  0  0  0  0  0  0  0  0  0  0  0
  1  2  1  0  0  0  0
  1 20  1  0  0  0  0
  1 21  1  0  0  0  0
  1 22  1  0  0  0  0
  2 19  1  0  0  0  0
  2  3  2  0  0  0  0
  3  4  1  0  0  0  0
  4  5  2  0  0  0  0
  5  6  1  0  0  0  0
  5 19  1  0  0  0  0
  6  7  1  0  0  0  0
  7  8  2  0  0  0  0
  7  9  1  0  0  0  0
  9 10  1  0  0  0  0
  9 23  1  0  0  0  0
 10 11  1  0  0  0  0
 10 24  1  0  0  0  0
 10 25  1  0  0  0  0
 11 18  1  0  0  0  0
 11 12  1  0  0  0  0
 11 26  1  0  0  0  0
 12 13  1  0  0  0  0
 12 27  1  0  0  0  0
 12 28  1  0  0  0  0
 13 14  1  0  0  0  0
 13 29  1  0  0  0  0
 13 30  1  0  0  0  0
 14 15  1  0  0  0  0
 14 18  1  0  0  0  0
 14 40  1  0  0  0  0
 15 16  1  0  0  0  0
 15 17  1  0  0  0  0
 15 31  1  0  0  0  0
 16 32  1  0  0  0  0
 16 33  1  0  0  0  0
 16 34  1  0  0  0  0
 17 35  1  0  0  0  0
 17 36  1  0  0  0  0
 17 37  1  0  0  0  0
 18 38  1  0  0  0  0
 18 39  1  0  0  0  0
M  CHG  1   6  -1
M  CHG  1  14   1
M  END
> <s_m_source_file>
AV-unprocessed.smi

> <i_m_source_file_index>
1831

> <i_lp_mmshare_version>
43012

> <i_f3d_flags>
0

> <s_epik_input>
W0NIM11jMW5uYyhzMSlbTkhdQyg9TylbTkhdW0NIMl1bQ0BASF0yW0NIMl1bQ0gyXU4oW0NIMl0yKVtDSF0oW0NIM10pW0NIM10=

> <s_epik_cmdline>
J2VwaWtfcHl0aG9uJywgJy1waCcsICc3LjAnLCAnLXRuJywgJzgnLCAnLW1hJywgJzIwMCcsICctbWV0YWxfYmluZGluZycsICctaW1hZScsICc8aW5maWxlLm1hZT4nLCAnLW9tYWUnLCAnPG91dGZpbGUubWFlPic=

> <r_lp_tautomer_probability>
1

> <r_epik_Ionization_Penalty>
4.24531

> <r_epik_Ionization_Penalty_Charging>
4.11954

> <r_epik_Ionization_Penalty_Neutral>
0.125766

> <r_epik_State_Penalty>
4.11879

> <r_epik_Charging_Adjusted_Penalty>
8.23833

> <i_epik_Tot_Q>
0

> <i_epik_Tot_abs_Q>
2

> <r_epik_Metal_State_Penalty>
0.659341

> <b_epik_Metal_Only>
1

> <s_lp_Force_Field>
OPLS_2005

> <r_lp_Energy>
22.0545

> <b_lp_Chiralities_Consistent>
1

> <s_lp_Variant>
AV-unprocessed.smi:1831-5

> <Gold.Version>
5.8.1

> <Gold.Id.Protein>
6NUR|6NUR_protein|mol2

> <Gold.PLP.Fitness>
40.9624

> <Gold.PLP.PLP>
-27.9003

> <Gold.PLP.part.hbond>
-5.5440

> <Gold.PLP.part.metal>
0.0000

> <Gold.PLP.part.buried>
-2.9402

> <Gold.PLP.part.nonpolar>
-19.6748

> <Gold.PLP.part.repulsive>
0.4214

> <Gold.PLP.ligand.clash>
0.0000

> <Gold.PLP.ligand.torsion>
0.9568

> <Gold.PLP.Chemscore.Hbond>
4.9760

> <Gold.PLP.Chemscore.CHOScore>
0.0000

> <Gold.PLP.Chemscore.Metal>
0.0000

> <Gold.Chemscore.Hbonds>
donor molecule, donor type, donor heavy atom, donor atom, acceptor molecule, acceptor atom, score
      L1  H     9    23       P1  7948  0.98
      L1  H    14    40       P1  7948  2.00
      P1  H  7989  7998       L1     4  0.88
      P1  H 10752 10765       L1     8  0.55

> <Gold.PLP.Chemscore.Internal.Correction>
0.0477

> <Gold.Rescore>
     Score         DG    S(hbond)    S(metal)    S(lipo)     H(rot)  DE(clash)    DE(int)     intcor
     17.03     -18.51       3.28        0.00      50.99       1.51       0.20       1.29       ----

> <Gold.Chemscore.Fitness>
17.0300

> <Gold.Chemscore.DG>
-18.5135

> <Gold.Chemscore.ZeroCoef>
-5.4800

> <Gold.Chemscore.Hbond>
3.2758

> <Gold.Chemscore.Metal>
0.0000

> <Gold.Chemscore.Lipo>
50.9885

> <Gold.Chemscore.Internal_Hbond>
0.0000

> <Gold.Chemscore.DEClash>
0.1964

> <Gold.Chemscore.DEInternal>
1.2871

> <Gold.Chemscore.Rot>
1.5131

> <Gold.Chemscore.Internal.Correction>
   9.000000E+99

> <Gold.Chemscore.Hbonds>
donor molecule, donor type, donor heavy atom, donor atom, acceptor molecule, acceptor atom, score
      L1  H     9    23       P1  7948  0.60
      L1  H    14    40       P1  7948  0.85
      P1  H  7989  7998       L1     4  0.15
      P1  H 10752 10765       L1     8  0.14

> <Gold.Chemscore.Hbond.Weighted>
-10.9413

> <Gold.Chemscore.Metal.Weighted>
-0.0000

> <Gold.Chemscore.Lipo.Weighted>
-5.9656

> <Gold.Chemscore.Internal_Hbond.Weighted>
0.0000

> <Gold.Chemscore.DEClash.Weighted>
0.1964

> <Gold.Chemscore.DEInternal.Weighted>
1.2871

> <Gold.Chemscore.Rot.Weighted>
3.8735

> <Gold.Chemscore.Internal.Correction.Weighted>
   9.000000E+99

> <Gold.Protein.RotatedTorsions>
[ 6907 6896 6895 6894 ] final  140.47 input  -60.11 | X-H torsion
[ 7974 7965 7964 7962 ] final  -16.47 input  175.53 | X-H torsion
[ 8008 7997 7996 7995 ] final  -40.12 input   59.86 | X-H torsion
[ 10167 10162 10161 10158 ] final   -4.72 input  -65.29 | X-H torsion
[ 10718 10713 10712 10709 ] final  -14.34 input   66.30 | X-H torsion
[ 10763 10752 10751 10750 ] final -173.80 input  -60.55 | X-H torsion
[ 11005 11000 10999 10996 ] final  -10.85 input  -57.11 | X-H torsion

> <Gold.Protein.ActiveResidues>
 VAL166  LYS551  ARG553  GLY616  TRP617  ASP618  TYR619  PRO620  LYS621  CYS622 
 ASP623  PHE694  ASN695  SER759  ASP760  ASP761  ALA762  ILE779  LEU786  VAL792 
 PHE793  MET794  SER795  GLU796  ALA797  LYS798  CYS799  TRP800  GLU811  SER814 

> <Gold.Protein.RotatedAtoms>
  152.2426  133.5148  159.5278 H   0  0  0  0  0  0  0  0  0  0  0  0  # atno 6907 bound_to 6896
  150.7069  134.1068  159.3995 H   0  0  0  0  0  0  0  0  0  0  0  0  # atno 6908 bound_to 6896
  151.8989  135.0386  160.0555 H   0  0  0  0  0  0  0  0  0  0  0  0  # atno 6909 bound_to 6896
  146.1986  140.3640  142.8431 H   0  0  0  0  0  0  0  0  0  0  0  0  # atno 7974 bound_to 7965
  154.4015  140.1534  156.2974 H   0  0  0  0  0  0  0  0  0  0  0  0  # atno 8008 bound_to 7997
  155.8731  140.3448  155.5813 H   0  0  0  0  0  0  0  0  0  0  0  0  # atno 8009 bound_to 7997
  155.7752  140.0836  157.2078 H   0  0  0  0  0  0  0  0  0  0  0  0  # atno 8010 bound_to 7997
  140.6938  143.6390  150.8453 H   0  0  0  0  0  0  0  0  0  0  0  0  # atno 10167 bound_to 10162
  156.6174  130.4866  149.6178 H   0  0  0  0  0  0  0  0  0  0  0  0  # atno 10718 bound_to 10713
  154.6037  135.2857  155.0508 H   0  0  0  0  0  0  0  0  0  0  0  0  # atno 10763 bound_to 10752
  154.1763  135.6464  153.5026 H   0  0  0  0  0  0  0  0  0  0  0  0  # atno 10764 bound_to 10752
  153.0167  135.5413  154.6765 H   0  0  0  0  0  0  0  0  0  0  0  0  # atno 10765 bound_to 10752
  140.7491  133.8607  155.9030 H   0  0  0  0  0  0  0  0  0  0  0  0  # atno 11005 bound_to 11000
  144.8634  140.7171  143.6093 LP  0  0  0  0  0  0  0  0  0  0  0  0  # atno 17320 bound_to 7965
  145.3560  139.1694  143.4409 LP  0  0  0  0  0  0  0  0  0  0  0  0  # atno 17321 bound_to 7965
  140.0106  143.5646  152.2840 LP  0  0  0  0  0  0  0  0  0  0  0  0  # atno 17342 bound_to 10162
  139.6369  144.7651  151.2419 LP  0  0  0  0  0  0  0  0  0  0  0  0  # atno 17343 bound_to 10162
  156.2340  130.6811  151.1491 LP  0  0  0  0  0  0  0  0  0  0  0  0  # atno 17370 bound_to 10713
  157.7237  131.0664  150.6024 LP  0  0  0  0  0  0  0  0  0  0  0  0  # atno 17371 bound_to 10713
  140.9767  134.1459  157.4530 LP  0  0  0  0  0  0  0  0  0  0  0  0  # atno 17394 bound_to 11000
  139.8791  134.9997  156.5968 LP  0  0  0  0  0  0  0  0  0  0  0  0  # atno 17395 bound_to 11000

$$$$
