AV-unprocessed.smi:1682|AV-procd|sdf|6743|dock8
  -GOLD-   22720 7493D 1   1.00000     0.00000
 Structure written by MMmdl.
 38 39  0  0  0  0  0  0  0  0  1 V2000
  150.7876  140.1910  154.9946 O   0  0  0  0  0  0  0  0  0  0  0  0
  149.8216  140.9490  155.0917 C   0  0  0  0  0  0  0  0  0  0  0  0
  149.8242  142.0471  155.8627 N   0  0  0  0  0  0  0  0  0  0  0  0
  150.9394  142.4757  156.6990 C   0  0  0  0  0  0  0  0  0  0  0  0
  151.5406  141.2969  157.4828 C   0  0  0  0  0  0  0  0  0  0  0  0
  152.2263  141.7438  158.7597 C   0  0  0  0  0  0  0  0  0  0  0  0
  153.0365  140.8495  159.4913 C   0  0  0  0  0  0  0  0  0  0  0  0
  153.6536  141.3137  160.6689 C   0  0  0  0  0  0  0  0  0  0  0  0
  153.4390  142.6472  161.0667 C   0  0  0  0  0  0  0  0  0  0  0  0
  152.6140  143.4610  160.2651 C   0  0  0  0  0  0  0  0  0  0  0  0
  152.0177  143.0261  159.1338 N   0  0  0  0  0  0  0  0  0  0  0  0
  148.5281  140.6562  154.3152 C   0  0  2  0  0  0  0  0  0  0  0  0
  148.0589  141.8926  153.5224 C   0  0  0  0  0  0  0  0  0  0  0  0
  146.8045  142.3417  154.2537 C   0  0  0  0  0  0  0  0  0  0  0  0
  146.2023  143.3756  153.9700 O   0  0  0  0  0  0  0  0  0  0  0  0
  146.4785  141.4773  155.2204 N   0  0  0  0  0  0  0  0  0  0  0  0
  145.3486  141.5871  156.1405 C   0  0  0  0  0  0  0  0  0  0  0  0
  145.4081  142.8717  156.9865 C   0  0  0  0  0  0  0  0  0  0  0  0
  146.6255  142.9873  157.5148 F   0  0  0  0  0  0  0  0  0  0  0  0
  145.1732  143.9395  156.2239 F   0  0  0  0  0  0  0  0  0  0  0  0
  144.5184  142.8375  157.9780 F   0  0  0  0  0  0  0  0  0  0  0  0
  147.3476  140.3124  155.2483 C   0  0  0  0  0  0  0  0  0  0  0  0
  148.9916  142.6178  155.8831 H   0  0  0  0  0  0  0  0  0  0  0  0
  151.7037  142.9563  156.0858 H   0  0  0  0  0  0  0  0  0  0  0  0
  150.5729  143.2356  157.3899 H   0  0  0  0  0  0  0  0  0  0  0  0
  150.7597  140.5774  157.7332 H   0  0  0  0  0  0  0  0  0  0  0  0
  152.2618  140.7611  156.8645 H   0  0  0  0  0  0  0  0  0  0  0  0
  153.1831  139.8322  159.1592 H   0  0  0  0  0  0  0  0  0  0  0  0
  154.2801  140.6587  161.2561 H   0  0  0  0  0  0  0  0  0  0  0  0
  153.8956  143.0370  161.9642 H   0  0  0  0  0  0  0  0  0  0  0  0
  152.4285  144.4888  160.5399 H   0  0  0  0  0  0  0  0  0  0  0  0
  148.7055  139.8239  153.6318 H   0  0  0  0  0  0  0  0  0  0  0  0
  148.7931  142.6995  153.4903 H   0  0  0  0  0  0  0  0  0  0  0  0
  147.8045  141.6282  152.4956 H   0  0  0  0  0  0  0  0  0  0  0  0
  144.4139  141.5528  155.5785 H   0  0  0  0  0  0  0  0  0  0  0  0
  145.3400  140.7156  156.7966 H   0  0  0  0  0  0  0  0  0  0  0  0
  146.8002  139.4462  154.8744 H   0  0  0  0  0  0  0  0  0  0  0  0
  147.6603  140.0873  156.2693 H   0  0  0  0  0  0  0  0  0  0  0  0
  1  2  2  0  0  0  0
  2  3  1  0  0  0  0
  2 12  1  0  0  0  0
  3  4  1  0  0  0  0
  3 23  1  0  0  0  0
  4  5  1  0  0  0  0
  4 24  1  0  0  0  0
  4 25  1  0  0  0  0
  5  6  1  0  0  0  0
  5 26  1  0  0  0  0
  5 27  1  0  0  0  0
  6 11  1  0  0  0  0
  6  7  2  0  0  0  0
  7  8  1  0  0  0  0
  7 28  1  0  0  0  0
  8  9  2  0  0  0  0
  8 29  1  0  0  0  0
  9 10  1  0  0  0  0
  9 30  1  0  0  0  0
 10 11  2  0  0  0  0
 10 31  1  0  0  0  0
 12 22  1  0  0  0  0
 12 13  1  0  0  0  0
 12 32  1  0  0  0  0
 13 14  1  0  0  0  0
 13 33  1  0  0  0  0
 13 34  1  0  0  0  0
 14 15  2  0  0  0  0
 14 16  1  0  0  0  0
 16 17  1  0  0  0  0
 16 22  1  0  0  0  0
 17 18  1  0  0  0  0
 17 35  1  0  0  0  0
 17 36  1  0  0  0  0
 18 19  1  0  0  0  0
 18 20  1  0  0  0  0
 18 21  1  0  0  0  0
 22 37  1  0  0  0  0
 22 38  1  0  0  0  0
M  END
> <s_m_source_file>
AV-unprocessed.smi

> <i_m_source_file_index>
1682

> <i_lp_mmshare_version>
43012

> <i_f3d_flags>
0

> <s_epik_input>
RkMoRikoRilbQ0gyXU4oW0NIMl0xKUMoPU8pW0NIMl1bQ0BIXTFDKD1PKVtOSF1bQ0gyXVtDSDJdYzJbY0hdW2NIXVtjSF1bY0hdbjI=

> <s_epik_cmdline>
J2VwaWtfcHl0aG9uJywgJy1waCcsICc3LjAnLCAnLXRuJywgJzgnLCAnLW1hJywgJzIwMCcsICctbWV0YWxfYmluZGluZycsICctaW1hZScsICc8aW5maWxlLm1hZT4nLCAnLW9tYWUnLCAnPG91dGZpbGUubWFlPic=

> <r_epik_Ionization_Penalty>
0.0252359

> <r_epik_Ionization_Penalty_Charging>
0

> <r_epik_Ionization_Penalty_Neutral>
0.0252359

> <r_epik_State_Penalty>
0.020532

> <r_epik_Charging_Adjusted_Penalty>
0.020532

> <i_epik_Tot_Q>
0

> <i_epik_Tot_abs_Q>
0

> <r_epik_Metal_State_Penalty>
0.0196899

> <b_epik_Metal_Only>
0

> <s_lp_Force_Field>
OPLS_2005

> <r_lp_Energy>
9.5977

> <b_lp_Chiralities_Consistent>
1

> <s_lp_Variant>
AV-unprocessed.smi:1682-1

> <Gold.Version>
5.8.1

> <Gold.Id.Protein>
6NUR|6NUR_protein|mol2

> <Gold.PLP.Fitness>
41.2726

> <Gold.PLP.PLP>
-38.2901

> <Gold.PLP.part.hbond>
-2.1297

> <Gold.PLP.part.metal>
0.0000

> <Gold.PLP.part.buried>
-4.3611

> <Gold.PLP.part.nonpolar>
-31.7422

> <Gold.PLP.part.repulsive>
0.3866

> <Gold.PLP.ligand.clash>
0.0000

> <Gold.PLP.ligand.torsion>
0.5634

> <Gold.PLP.Chemscore.Hbond>
1.3354

> <Gold.PLP.Chemscore.CHOScore>
0.0000

> <Gold.PLP.Chemscore.Metal>
0.0000

> <Gold.Chemscore.Hbonds>
donor molecule, donor type, donor heavy atom, donor atom, acceptor molecule, acceptor atom, score
      L1  H     3    23       P1  8028  0.43
      P1  H  7989  7998       L1     1  1.00

> <Gold.PLP.Chemscore.Internal.Correction>
0.1031

> <Gold.Rescore>
     Score         DG    S(hbond)    S(metal)    S(lipo)     H(rot)  DE(clash)    DE(int)     intcor
     10.12     -14.20       1.22        0.00      85.54       2.09       0.72       3.36       ----

> <Gold.Chemscore.Fitness>
10.1177

> <Gold.Chemscore.DG>
-14.2028

> <Gold.Chemscore.ZeroCoef>
-5.4800

> <Gold.Chemscore.Hbond>
1.2159

> <Gold.Chemscore.Metal>
0.0000

> <Gold.Chemscore.Lipo>
85.5402

> <Gold.Chemscore.Internal_Hbond>
0.0000

> <Gold.Chemscore.DEClash>
0.7214

> <Gold.Chemscore.DEInternal>
3.3637

> <Gold.Chemscore.Rot>
2.0884

> <Gold.Chemscore.Internal.Correction>
   9.000000E+99

> <Gold.Chemscore.Hbonds>
donor molecule, donor type, donor heavy atom, donor atom, acceptor molecule, acceptor atom, score
      L1  H     3    23       P1  8028  0.42
      P1  H  7989  7998       L1     1  0.30

> <Gold.Chemscore.Hbond.Weighted>
-4.0610

> <Gold.Chemscore.Metal.Weighted>
-0.0000

> <Gold.Chemscore.Lipo.Weighted>
-10.0082

> <Gold.Chemscore.Internal_Hbond.Weighted>
0.0000

> <Gold.Chemscore.DEClash.Weighted>
0.7214

> <Gold.Chemscore.DEInternal.Weighted>
3.3637

> <Gold.Chemscore.Rot.Weighted>
5.3464

> <Gold.Chemscore.Internal.Correction.Weighted>
   9.000000E+99

> <Gold.Protein.RotatedTorsions>
[ 6907 6896 6895 6894 ] final  172.09 input  -60.11 | X-H torsion
[ 7974 7965 7964 7962 ] final  -57.93 input  175.53 | X-H torsion
[ 8008 7997 7996 7995 ] final   30.44 input   59.86 | X-H torsion
[ 10167 10162 10161 10158 ] final  -58.10 input  -65.29 | X-H torsion
[ 10718 10713 10712 10709 ] final  166.93 input   66.30 | X-H torsion
[ 10763 10752 10751 10750 ] final  -55.72 input  -60.55 | X-H torsion
[ 11005 11000 10999 10996 ] final  -54.88 input  -57.11 | X-H torsion

> <Gold.Protein.ActiveResidues>
 VAL166  LYS551  ARG553  GLY616  TRP617  ASP618  TYR619  PRO620  LYS621  CYS622 
 ASP623  PHE694  ASN695  SER759  ASP760  ASP761  ALA762  ILE779  LEU786  VAL792 
 PHE793  MET794  SER795  GLU796  ALA797  LYS798  CYS799  TRP800  GLU811  SER814 

> <Gold.Protein.RotatedAtoms>
  151.7898  133.3358  159.3495 H   0  0  0  0  0  0  0  0  0  0  0  0  # atno 6907 bound_to 6896
  150.7396  134.5853  159.5969 H   0  0  0  0  0  0  0  0  0  0  0  0  # atno 6908 bound_to 6896
  152.3218  134.7372  160.0363 H   0  0  0  0  0  0  0  0  0  0  0  0  # atno 6909 bound_to 6896
  145.8453  140.8389  143.0013 H   0  0  0  0  0  0  0  0  0  0  0  0  # atno 7974 bound_to 7965
  155.0904  140.3219  155.4575 H   0  0  0  0  0  0  0  0  0  0  0  0  # atno 8008 bound_to 7997
  156.2744  140.2079  156.5978 H   0  0  0  0  0  0  0  0  0  0  0  0  # atno 8009 bound_to 7997
  154.6908  140.0516  157.0348 H   0  0  0  0  0  0  0  0  0  0  0  0  # atno 8010 bound_to 7997
  140.6218  143.2422  151.5462 H   0  0  0  0  0  0  0  0  0  0  0  0  # atno 10167 bound_to 10162
  157.0589  131.0334  151.2654 H   0  0  0  0  0  0  0  0  0  0  0  0  # atno 10718 bound_to 10713
  154.1952  135.6420  153.5071 H   0  0  0  0  0  0  0  0  0  0  0  0  # atno 10763 bound_to 10752
  153.0025  135.5438  154.6373 H   0  0  0  0  0  0  0  0  0  0  0  0  # atno 10764 bound_to 10752
  154.5772  135.2922  155.0742 H   0  0  0  0  0  0  0  0  0  0  0  0  # atno 10765 bound_to 10752
  141.1047  133.6614  156.4387 H   0  0  0  0  0  0  0  0  0  0  0  0  # atno 11005 bound_to 11000
  144.6731  140.0873  143.7466 LP  0  0  0  0  0  0  0  0  0  0  0  0  # atno 17320 bound_to 7965
  145.9419  139.2674  143.1264 LP  0  0  0  0  0  0  0  0  0  0  0  0  # atno 17321 bound_to 7965
  139.5445  144.2558  152.1415 LP  0  0  0  0  0  0  0  0  0  0  0  0  # atno 17342 bound_to 10162
  140.1780  144.4872  150.6543 LP  0  0  0  0  0  0  0  0  0  0  0  0  # atno 17343 bound_to 10162
  157.4971  130.7857  149.7566 LP  0  0  0  0  0  0  0  0  0  0  0  0  # atno 17370 bound_to 10713
  155.9984  130.3894  150.2701 LP  0  0  0  0  0  0  0  0  0  0  0  0  # atno 17371 bound_to 10713
  140.4932  134.6556  157.5219 LP  0  0  0  0  0  0  0  0  0  0  0  0  # atno 17394 bound_to 11000
  139.9913  134.6981  155.9685 LP  0  0  0  0  0  0  0  0  0  0  0  0  # atno 17395 bound_to 11000

$$$$
