AV-unprocessed.smi:1139|AV-procd|sdf|4869|dock10
  -GOLD-   22720 3443D 1   1.00000     0.00000
 Structure written by MMmdl.
 43 44  0  0  0  0  0  0  0  0  2 V2000
  150.4392  142.2320  157.9744 C   0  0  0  0  0  0  0  0  0  0  0  0
  151.3878  141.0677  157.9573 C   0  0  0  0  0  0  0  0  0  0  0  0
  152.5707  141.1821  158.5374 N   0  0  0  0  0  0  0  0  0  0  0  0
  153.2069  139.9501  158.3571 O   0  0  0  0  0  0  0  0  0  0  0  0
  152.3715  139.1325  157.6670 C   0  0  0  0  0  0  0  0  0  0  0  0
  152.8714  137.7585  157.3724 C   0  0  0  0  0  0  0  0  0  0  0  0
  151.1998  139.7782  157.3813 C   0  0  0  0  0  0  0  0  0  0  0  0
  149.9969  139.2572  156.6389 C   0  0  0  0  0  0  0  0  0  0  0  0
  149.8196  140.0367  155.3356 C   0  0  0  0  0  0  0  0  0  0  0  0
  150.7200  140.0458  154.4964 O   0  0  0  0  0  0  0  0  0  0  0  0
  148.6555  140.6865  155.1785 N   0  0  0  0  0  0  0  0  0  0  0  0
  148.2992  141.5272  154.0382 C   0  0  0  0  0  0  0  0  0  0  0  0
  146.7689  141.6177  153.8027 C   0  0  2  0  0  0  0  0  0  0  0  0
  146.0099  141.9079  155.1174 C   0  0  0  0  0  0  0  0  0  0  0  0
  146.2539  140.3735  153.1563 N   0  3  0  0  0  0  0  0  0  0  0  0
  146.8754  140.0303  151.8583 C   0  0  0  0  0  0  0  0  0  0  0  0
  146.5699  138.5504  151.6183 C   0  0  0  0  0  0  0  0  0  0  0  0
  146.2509  137.9701  152.9979 C   0  0  0  0  0  0  0  0  0  0  0  0
  146.3622  139.1446  153.9732 C   0  0  0  0  0  0  0  0  0  0  0  0
  149.9416  142.3469  157.0116 H   0  0  0  0  0  0  0  0  0  0  0  0
  150.9547  143.1687  158.1903 H   0  0  0  0  0  0  0  0  0  0  0  0
  149.6687  142.0941  158.7329 H   0  0  0  0  0  0  0  0  0  0  0  0
  152.5174  137.4169  156.3997 H   0  0  0  0  0  0  0  0  0  0  0  0
  152.5226  137.0524  158.1257 H   0  0  0  0  0  0  0  0  0  0  0  0
  153.9612  137.7315  157.3614 H   0  0  0  0  0  0  0  0  0  0  0  0
  150.1075  138.1991  156.3990 H   0  0  0  0  0  0  0  0  0  0  0  0
  149.0920  139.3351  157.2433 H   0  0  0  0  0  0  0  0  0  0  0  0
  147.9760  140.6171  155.9224 H   0  0  0  0  0  0  0  0  0  0  0  0
  148.7115  142.5113  154.2590 H   0  0  0  0  0  0  0  0  0  0  0  0
  148.8015  141.1873  153.1306 H   0  0  0  0  0  0  0  0  0  0  0  0
  146.5810  142.4482  153.1199 H   0  0  0  0  0  0  0  0  0  0  0  0
  146.3489  142.8322  155.5839 H   0  0  0  0  0  0  0  0  0  0  0  0
  146.1488  141.1026  155.8396 H   0  0  0  0  0  0  0  0  0  0  0  0
  144.9395  142.0324  154.9571 H   0  0  0  0  0  0  0  0  0  0  0  0
  146.4995  140.6533  151.0462 H   0  0  0  0  0  0  0  0  0  0  0  0
  147.9555  140.1731  151.9229 H   0  0  0  0  0  0  0  0  0  0  0  0
  145.7037  138.4450  150.9638 H   0  0  0  0  0  0  0  0  0  0  0  0
  147.4068  138.0406  151.1395 H   0  0  0  0  0  0  0  0  0  0  0  0
  145.2380  137.5651  153.0037 H   0  0  0  0  0  0  0  0  0  0  0  0
  146.9294  137.1606  153.2696 H   0  0  0  0  0  0  0  0  0  0  0  0
  147.3368  139.1185  154.4635 H   0  0  0  0  0  0  0  0  0  0  0  0
  145.5938  139.0978  154.7453 H   0  0  0  0  0  0  0  0  0  0  0  0
  145.2695  140.5102  152.9746 H   0  0  0  0  0  0  0  0  0  0  0  0
  1  2  1  0  0  0  0
  1 20  1  0  0  0  0
  1 21  1  0  0  0  0
  1 22  1  0  0  0  0
  2  7  1  0  0  0  0
  2  3  2  0  0  0  0
  3  4  1  0  0  0  0
  4  5  1  0  0  0  0
  5  6  1  0  0  0  0
  5  7  2  0  0  0  0
  6 23  1  0  0  0  0
  6 24  1  0  0  0  0
  6 25  1  0  0  0  0
  7  8  1  0  0  0  0
  8  9  1  0  0  0  0
  8 26  1  0  0  0  0
  8 27  1  0  0  0  0
  9 10  2  0  0  0  0
  9 11  1  0  0  0  0
 11 12  1  0  0  0  0
 11 28  1  0  0  0  0
 12 13  1  0  0  0  0
 12 29  1  0  0  0  0
 12 30  1  0  0  0  0
 13 14  1  0  0  0  0
 13 15  1  0  0  0  0
 13 31  1  0  0  0  0
 14 32  1  0  0  0  0
 14 33  1  0  0  0  0
 14 34  1  0  0  0  0
 15 19  1  0  0  0  0
 15 16  1  0  0  0  0
 15 43  1  0  0  0  0
 16 17  1  0  0  0  0
 16 35  1  0  0  0  0
 16 36  1  0  0  0  0
 17 18  1  0  0  0  0
 17 37  1  0  0  0  0
 17 38  1  0  0  0  0
 18 19  1  0  0  0  0
 18 39  1  0  0  0  0
 18 40  1  0  0  0  0
 19 41  1  0  0  0  0
 19 42  1  0  0  0  0
M  CHG  1  15   1
M  END
> <s_m_source_file>
AV-unprocessed.smi

> <i_m_source_file_index>
1139

> <i_lp_mmshare_version>
43012

> <i_f3d_flags>
0

> <s_epik_input>
W0NIM11jMW5vYyhbQ0gzXSljMVtDSDJdQyg9TylbTkhdW0NIMl1bQ0BIXShbQ0gzXSlOMltDSDJdW0NIMl1bQ0gyXVtDSDJdMg==

> <s_epik_cmdline>
J2VwaWtfcHl0aG9uJywgJy1waCcsICc3LjAnLCAnLXRuJywgJzgnLCAnLW1hJywgJzIwMCcsICctbWV0YWxfYmluZGluZycsICctaW1hZScsICc8aW5maWxlLm1hZT4nLCAnLW9tYWUnLCAnPG91dGZpbGUubWFlPic=

> <r_epik_Ionization_Penalty>
0.0050436

> <r_epik_Ionization_Penalty_Charging>
0.0050435

> <r_epik_Ionization_Penalty_Neutral>
9.69799e-08

> <r_epik_State_Penalty>
0.00366867

> <r_epik_Charging_Adjusted_Penalty>
0.00871217

> <i_epik_Tot_Q>
1

> <i_epik_Tot_abs_Q>
1

> <r_epik_Metal_State_Penalty>
-0

> <b_epik_Metal_Only>
0

> <s_lp_Force_Field>
OPLS_2005

> <r_lp_Energy>
25.3713

> <b_lp_Chiralities_Consistent>
1

> <s_lp_Variant>
AV-unprocessed.smi:1139-1

> <Gold.Version>
5.8.1

> <Gold.Id.Protein>
6NUR|6NUR_protein|mol2

> <Gold.PLP.Fitness>
39.6022

> <Gold.PLP.PLP>
-28.1804

> <Gold.PLP.part.hbond>
-3.0000

> <Gold.PLP.part.metal>
0.0000

> <Gold.PLP.part.buried>
-0.8390

> <Gold.PLP.part.nonpolar>
-25.6949

> <Gold.PLP.part.repulsive>
0.1752

> <Gold.PLP.ligand.clash>
0.0000

> <Gold.PLP.ligand.torsion>
0.3248

> <Gold.PLP.Chemscore.Hbond>
4.0000

> <Gold.PLP.Chemscore.CHOScore>
0.0000

> <Gold.PLP.Chemscore.Metal>
0.0000

> <Gold.Chemscore.Hbonds>
donor molecule, donor type, donor heavy atom, donor atom, acceptor molecule, acceptor atom, score
      L1  H    15    43       P1 10175  2.00
      P1  H  7989  7998       L1    10  1.00
      P1  H  7997  8008       L1     4  0.80

> <Gold.PLP.Chemscore.Internal.Correction>
0.0714

> <Gold.Rescore>
     Score         DG    S(hbond)    S(metal)    S(lipo)     H(rot)  DE(clash)    DE(int)     intcor
     16.59     -18.53       2.50        0.00      77.80       1.72       0.62       1.31       ----

> <Gold.Chemscore.Fitness>
16.5936

> <Gold.Chemscore.DG>
-18.5312

> <Gold.Chemscore.ZeroCoef>
-5.4800

> <Gold.Chemscore.Hbond>
2.5002

> <Gold.Chemscore.Metal>
0.0000

> <Gold.Chemscore.Lipo>
77.7975

> <Gold.Chemscore.Internal_Hbond>
0.0000

> <Gold.Chemscore.DEClash>
0.6241

> <Gold.Chemscore.DEInternal>
1.3136

> <Gold.Chemscore.Rot>
1.7195

> <Gold.Chemscore.Internal.Correction>
   9.000000E+99

> <Gold.Chemscore.Hbonds>
donor molecule, donor type, donor heavy atom, donor atom, acceptor molecule, acceptor atom, score
      L1  H    15    43       P1 10175  0.88
      P1  H  7989  7998       L1    10  0.98
      P1  H  7997  8008       L1     4  0.09

> <Gold.Chemscore.Hbond.Weighted>
-8.3507

> <Gold.Chemscore.Metal.Weighted>
-0.0000

> <Gold.Chemscore.Lipo.Weighted>
-9.1023

> <Gold.Chemscore.Internal_Hbond.Weighted>
0.0000

> <Gold.Chemscore.DEClash.Weighted>
0.6241

> <Gold.Chemscore.DEInternal.Weighted>
1.3136

> <Gold.Chemscore.Rot.Weighted>
4.4018

> <Gold.Chemscore.Internal.Correction.Weighted>
   9.000000E+99

> <Gold.Protein.RotatedTorsions>
[ 6907 6896 6895 6894 ] final   63.75 input  -60.11 | X-H torsion
[ 7974 7965 7964 7962 ] final  109.20 input  175.53 | X-H torsion
[ 8008 7997 7996 7995 ] final  -83.33 input   59.86 | X-H torsion
[ 10167 10162 10161 10158 ] final  119.51 input  -65.29 | X-H torsion
[ 10718 10713 10712 10709 ] final  159.03 input   66.30 | X-H torsion
[ 10763 10752 10751 10750 ] final  -61.86 input  -60.55 | X-H torsion
[ 11005 11000 10999 10996 ] final   27.54 input  -57.11 | X-H torsion

> <Gold.Protein.ActiveResidues>
 VAL166  LYS551  ARG553  GLY616  TRP617  ASP618  TYR619  PRO620  LYS621  CYS622 
 ASP623  PHE694  ASN695  SER759  ASP760  ASP761  ALA762  ILE779  LEU786  VAL792 
 PHE793  MET794  SER795  GLU796  ALA797  LYS798  CYS799  TRP800  GLU811  SER814 

> <Gold.Protein.RotatedAtoms>
  152.4278  134.5835  159.9954 H   0  0  0  0  0  0  0  0  0  0  0  0  # atno 6907 bound_to 6896
  151.5967  133.3355  159.3047 H   0  0  0  0  0  0  0  0  0  0  0  0  # atno 6908 bound_to 6896
  150.8168  134.7391  159.6802 H   0  0  0  0  0  0  0  0  0  0  0  0  # atno 6909 bound_to 6896
  145.2708  139.2667  143.3967 H   0  0  0  0  0  0  0  0  0  0  0  0  # atno 7974 bound_to 7965
  154.6180  140.0620  156.9578 H   0  0  0  0  0  0  0  0  0  0  0  0  # atno 8008 bound_to 7997
  155.1864  140.3303  155.4347 H   0  0  0  0  0  0  0  0  0  0  0  0  # atno 8009 bound_to 7997
  156.2415  140.1888  156.6957 H   0  0  0  0  0  0  0  0  0  0  0  0  # atno 8010 bound_to 7997
  139.6041  144.7065  151.2993 H   0  0  0  0  0  0  0  0  0  0  0  0  # atno 10167 bound_to 10162
  157.1697  131.0607  151.2189 H   0  0  0  0  0  0  0  0  0  0  0  0  # atno 10718 bound_to 10713
  154.2911  135.6253  153.5385 H   0  0  0  0  0  0  0  0  0  0  0  0  # atno 10763 bound_to 10752
  152.9852  135.5656  154.5389 H   0  0  0  0  0  0  0  0  0  0  0  0  # atno 10764 bound_to 10752
  154.5000  135.2871  155.1404 H   0  0  0  0  0  0  0  0  0  0  0  0  # atno 10765 bound_to 10752
  140.3252  134.2499  155.7711 H   0  0  0  0  0  0  0  0  0  0  0  0  # atno 11005 bound_to 11000
  146.3247  140.3150  142.8629 LP  0  0  0  0  0  0  0  0  0  0  0  0  # atno 17320 bound_to 7965
  144.9337  140.8003  143.5673 LP  0  0  0  0  0  0  0  0  0  0  0  0  # atno 17321 bound_to 7965
  140.7272  143.6970  150.7876 LP  0  0  0  0  0  0  0  0  0  0  0  0  # atno 17342 bound_to 10162
  140.0552  143.5210  152.2654 LP  0  0  0  0  0  0  0  0  0  0  0  0  # atno 17343 bound_to 10162
  157.4055  130.7356  149.6799 LP  0  0  0  0  0  0  0  0  0  0  0  0  # atno 17370 bound_to 10713
  155.9740  130.4109  150.3955 LP  0  0  0  0  0  0  0  0  0  0  0  0  # atno 17371 bound_to 10713
  141.2077  133.7798  157.0103 LP  0  0  0  0  0  0  0  0  0  0  0  0  # atno 17394 bound_to 11000
  140.0908  134.9593  157.1773 LP  0  0  0  0  0  0  0  0  0  0  0  0  # atno 17395 bound_to 11000

$$$$
