#       Name:                AV-unprocessed.smi:33
#       Creating user name   scv26
#       Creation time:       Thu Mar 26 15:47:25 2020


#       File generated by GOLD software.
#

@<TRIPOS>MOLECULE
AV-unprocessed.smi:33
    80    85     1
SMALL
NO_CHARGES


@<TRIPOS>ATOM
      1 ****        -3.1077   1.9755   2.5256 O.2            1 S1                 0.0000
      2 ****        -3.7969   2.4254   1.6080 C.2            1 S1                 0.0000
      3 ****        -4.5867   1.6637   0.8260 O.3            1 S1                 0.0000
      4 ****        -4.6739   0.2662   1.0500 C.3            1 S1                 0.0000
      5 ****        -5.3925  -0.3934  -0.1384 C.3            1 S1                 0.0000
      6 ****        -4.5285  -0.4435  -1.2718 O.3            1 S1                 0.0000
      7 ****        -3.8328  -1.6567  -1.3220 C.3            1 S1                 0.0000
      8 ****        -2.3770  -1.3897  -1.0796 N.pl3          1 S1                 0.0000
      9 ****        -1.7403  -0.2003  -0.7907 C.2            1 S1                 0.0000
     10 ****        -0.4434  -0.2790  -0.6558 N.2            1 S1                 0.0000
     11 ****        -0.1613  -1.6192  -0.8873 C.ar           1 S1                 0.0000
     12 ****         1.0305  -2.3946  -0.9051 C.ar           1 S1                 0.0000
     13 ****         2.2565  -1.8740  -0.6548 N.am           1 S1                 0.0000
     14 ****         2.4998  -1.3513   0.6981 C.2            1 S1                 0.0000
     15 ****         1.8454  -1.7895   1.6462 O.2            1 S1                 0.0000
     16 ****         3.5720  -0.3260   0.9369 C.ar           1 S1                 0.0000
     17 ****         4.4714  -0.4808   2.0146 C.ar           1 S1                 0.0000
     18 ****         5.4705   0.4836   2.2500 C.ar           1 S1                 0.0000
     19 ****         5.5644   1.6181   1.4216 C.ar           1 S1                 0.0000
     20 ****         4.6526   1.7933   0.3635 C.ar           1 S1                 0.0000
     21 ****         3.6540   0.8290   0.1268 C.ar           1 S1                 0.0000
     22 ****         3.2369  -1.8899  -1.7522 C.2            1 S1                 0.0000
     23 ****         2.8414  -1.9079  -2.9192 O.2            1 S1                 0.0000
     24 ****         4.7104  -1.8256  -1.4625 C.ar           1 S1                 0.0000
     25 ****         5.5358  -0.9435  -2.1941 C.ar           1 S1                 0.0000
     26 ****         6.9196  -0.8879  -1.9375 C.ar           1 S1                 0.0000
     27 ****         7.4898  -1.7262  -0.9608 C.ar           1 S1                 0.0000
     28 ****         6.6775  -2.6283  -0.2479 C.ar           1 S1                 0.0000
     29 ****         5.2940  -2.6853  -0.5044 C.ar           1 S1                 0.0000
     30 ****         0.9213  -3.7194  -1.1882 N.ar           1 S1                 0.0000
     31 ****        -0.2786  -4.2500  -1.4421 C.ar           1 S1                 0.0000
     32 ****        -1.4711  -3.6496  -1.4591 N.ar           1 S1                 0.0000
     33 ****        -1.3649  -2.3203  -1.1699 C.ar           1 S1                 0.0000
     34 ****        -4.4623  -2.5995  -0.2696 C.3            1 S1                 0.0000
     35 ****        -3.6641  -2.8327   0.8783 O.3            1 S1                 0.0000
     36 ****        -5.7341  -1.8618   0.1124 C.3            1 S1                 0.0000
     37 ****        -6.7245  -2.2303  -0.7021 F              1 S1                 0.0000
     38 ****        -3.8436   3.8715   1.2464 C.ar           1 S1                 0.0000
     39 ****        -3.0494   4.7925   1.9688 C.ar           1 S1                 0.0000
     40 ****        -3.0765   6.1650   1.6539 C.ar           1 S1                 0.0000
     41 ****        -3.8988   6.6337   0.6129 C.ar           1 S1                 0.0000
     42 ****        -4.6931   5.7278  -0.1137 C.ar           1 S1                 0.0000
     43 ****        -4.6666   4.3546   0.1991 C.ar           1 S1                 0.0000
     44 ****        -3.6853  -0.1690   1.1983 H              1 S1                 0.0000
     45 ****        -5.2407   0.1002   1.9669 H              1 S1                 0.0000
     46 ****        -6.2935   0.1743  -0.3746 H              1 S1                 0.0000
     47 ****        -3.8673  -2.0577  -2.3358 H              1 S1                 0.0000
     48 ****        -2.2643   0.7379  -0.6822 H              1 S1                 0.0000
     49 ****         4.4089  -1.3478   2.6566 H              1 S1                 0.0000
     50 ****         6.1646   0.3528   3.0669 H              1 S1                 0.0000
     51 ****         6.3311   2.3570   1.6023 H              1 S1                 0.0000
     52 ****         4.7178   2.6680  -0.2665 H              1 S1                 0.0000
     53 ****         2.9565   0.9765  -0.6853 H              1 S1                 0.0000
     54 ****         5.1092  -0.2951  -2.9458 H              1 S1                 0.0000
     55 ****         7.5438  -0.2018  -2.4909 H              1 S1                 0.0000
     56 ****         8.5508  -1.6824  -0.7638 H              1 S1                 0.0000
     57 ****         7.1157  -3.2780   0.4954 H              1 S1                 0.0000
     58 ****         4.6819  -3.3857   0.0455 H              1 S1                 0.0000
     59 ****        -0.2843  -5.3074  -1.6613 H              1 S1                 0.0000
     60 ****        -4.6787  -3.5638  -0.7309 H              1 S1                 0.0000
     61 ****        -2.8538  -3.2329   0.6003 H              1 S1                 0.0000
     62 ****        -6.0739  -2.0637   1.1292 H              1 S1                 0.0000
     63 ****        -2.4113   4.4565   2.7734 H              1 S1                 0.0000
     64 ****        -2.4662   6.8588   2.2131 H              1 S1                 0.0000
     65 ****        -3.9203   7.6864   0.3721 H              1 S1                 0.0000
     66 ****        -5.3255   6.0865  -0.9125 H              1 S1                 0.0000
     67 ****        -5.2898   3.6870  -0.3777 H              1 S1                 0.0000
     68 ****        -3.1159   0.9952   2.7227 LP             1 S1                 0.0000
     69 ****        -2.5404   2.5908   3.0728 LP             1 S1                 0.0000
     70 ****        -3.8711   0.3078  -1.2148 LP             1 S1                 0.0000
     71 ****        -5.0750  -0.3458  -2.1036 LP             1 S1                 0.0000
     72 ****         0.1982   0.4560  -0.4365 LP             1 S1                 0.0000
     73 ****         1.1543  -2.4958   1.4927 LP             1 S1                 0.0000
     74 ****         2.0055  -1.4387   2.5688 LP             1 S1                 0.0000
     75 ****         1.8607  -1.9116  -3.1148 LP             1 S1                 0.0000
     76 ****         3.5011  -1.9188  -3.6707 LP             1 S1                 0.0000
     77 ****         1.7378  -4.2964  -1.2065 LP             1 S1                 0.0000
     78 ****        -2.3332  -4.1153  -1.6586 LP             1 S1                 0.0000
     79 ****        -4.1454  -3.4444   1.5061 LP             1 S1                 0.0000
     80 ****        -3.4726  -1.9659   1.3387 LP             1 S1                 0.0000
@<TRIPOS>BOND
    1    1    2 2     
    2    2    3 1     
    3    2   38 1     
    4    3    4 1     
    5    4    5 1     
    6    4   44 1     
    7    4   45 1     
    8    5   36 1     
    9    5    6 1     
   10    5   46 1     
   11    6    7 1     
   12    7    8 1     
   13    7   34 1     
   14    7   47 1     
   15    8   33 1     
   16    8    9 1     
   17    9   10 2     
   18    9   48 1     
   19   10   11 1     
   20   11   33 ar    
   21   11   12 ar    
   22   12   13 1     
   23   12   30 ar    
   24   13   14 am    
   25   13   22 am    
   26   14   15 2     
   27   14   16 1     
   28   16   21 ar    
   29   16   17 ar    
   30   17   18 ar    
   31   17   49 1     
   32   18   19 ar    
   33   18   50 1     
   34   19   20 ar    
   35   19   51 1     
   36   20   21 ar    
   37   20   52 1     
   38   21   53 1     
   39   22   23 2     
   40   22   24 1     
   41   24   29 ar    
   42   24   25 ar    
   43   25   26 ar    
   44   25   54 1     
   45   26   27 ar    
   46   26   55 1     
   47   27   28 ar    
   48   27   56 1     
   49   28   29 ar    
   50   28   57 1     
   51   29   58 1     
   52   30   31 ar    
   53   31   32 ar    
   54   31   59 1     
   55   32   33 ar    
   56   34   35 1     
   57   34   36 1     
   58   34   60 1     
   59   35   61 1     
   60   36   37 1     
   61   36   62 1     
   62   38   43 ar    
   63   38   39 ar    
   64   39   40 ar    
   65   39   63 1     
   66   40   41 ar    
   67   40   64 1     
   68   41   42 ar    
   69   41   65 1     
   70   42   43 ar    
   71   42   66 1     
   72   43   67 1     
   73    1   68 1     
   74    1   69 1     
   75    6   70 1     
   76    6   71 1     
   77   10   72 1     
   78   15   73 1     
   79   15   74 1     
   80   23   75 1     
   81   23   76 1     
   82   30   77 1     
   83   32   78 1     
   84   35   79 1     
   85   35   80 1     
@<TRIPOS>SUBSTRUCTURE
      1 S1             1
@<TRIPOS>SET
LONE_PAIRS      STATIC     ATOMS    <user>   **** ""
13 68 69 70 71 72 73 74 75 76 77 78 79 80
DONOR_HYDROGENS      STATIC     ATOMS    <user>   **** ""
1 61
ATOM$BLUE        STATIC     ATOMS    COLORGROUP SYSTEM
13 68 69 70 71 72 73 74 75 76 77 78 79 80
ATOM$RED        STATIC     ATOMS    COLORGROUP SYSTEM
1 61
