AV-unprocessed.smi:2280|AV-procd|sdf|9191|dock8
  -GOLD-   2272012403D 1   1.00000     0.00000
 Structure written by MMmdl.
 41 42  0  0  0  0  0  0  0  0  1 V2000
  144.1162  145.3684  154.2281 C   0  0  0  0  0  0  0  0  0  0  0  0
  145.1266  144.2590  154.4601 C   0  0  0  0  0  0  0  0  0  0  0  0
  145.9985  144.0037  153.3976 N   0  0  0  0  0  0  0  0  0  0  0  0
  146.8864  143.0696  153.5023 C   0  0  0  0  0  0  0  0  0  0  0  0
  147.0028  142.2895  154.6641 N   0  0  0  0  0  0  0  0  0  0  0  0
  148.0490  141.2543  154.6511 C   0  0  0  0  0  0  0  0  0  0  0  0
  149.2870  141.6675  155.4786 C   0  0  2  0  0  0  0  0  0  0  0  0
  150.4269  140.9514  155.0482 O   0  0  0  0  0  0  0  0  0  0  0  0
  149.1185  141.4107  156.9853 C   0  0  0  0  0  0  0  0  0  0  0  0
  149.9288  142.3226  157.7161 O   0  0  0  0  0  0  0  0  0  0  0  0
  149.3297  143.1486  158.6439 C   0  0  0  0  0  0  0  0  0  0  0  0
  147.9347  143.1560  158.9000 C   0  0  0  0  0  0  0  0  0  0  0  0
  147.3880  144.0262  159.8611 C   0  0  0  0  0  0  0  0  0  0  0  0
  148.2249  144.8987  160.5774 C   0  0  0  0  0  0  0  0  0  0  0  0
  149.6098  144.9008  160.3316 C   0  0  0  0  0  0  0  0  0  0  0  0
  150.1691  144.0308  159.3682 C   0  0  0  0  0  0  0  0  0  0  0  0
  151.6721  144.0357  159.1064 C   0  0  0  0  0  0  0  0  0  0  0  0
  152.2922  145.0094  159.7740 F   0  0  0  0  0  0  0  0  0  0  0  0
  152.2005  142.8714  159.4842 F   0  0  0  0  0  0  0  0  0  0  0  0
  151.9032  144.2116  157.8051 F   0  0  0  0  0  0  0  0  0  0  0  0
  146.2071  142.4864  155.7550 C   0  0  0  0  0  0  0  0  0  0  0  0
  146.3372  141.8147  156.7804 O   0  0  0  0  0  0  0  0  0  0  0  0
  145.1962  143.5475  155.6185 C   0  0  0  0  0  0  0  0  0  0  0  0
  144.2722  143.7797  156.8077 C   0  0  0  0  0  0  0  0  0  0  0  0
  143.0997  144.9814  154.3040 H   0  0  0  0  0  0  0  0  0  0  0  0
  144.2322  145.8111  153.2382 H   0  0  0  0  0  0  0  0  0  0  0  0
  144.2439  146.1613  154.9651 H   0  0  0  0  0  0  0  0  0  0  0  0
  147.5943  142.8344  152.7056 H   0  0  0  0  0  0  0  0  0  0  0  0
  147.6291  140.3351  155.0645 H   0  0  0  0  0  0  0  0  0  0  0  0
  148.3399  140.9786  153.6349 H   0  0  0  0  0  0  0  0  0  0  0  0
  149.4977  142.7290  155.3427 H   0  0  0  0  0  0  0  0  0  0  0  0
  151.0513  140.9298  155.7576 H   0  0  0  0  0  0  0  0  0  0  0  0
  148.0690  141.4943  157.2731 H   0  0  0  0  0  0  0  0  0  0  0  0
  149.4430  140.3920  157.2038 H   0  0  0  0  0  0  0  0  0  0  0  0
  147.2589  142.5022  158.3704 H   0  0  0  0  0  0  0  0  0  0  0  0
  146.3242  144.0239  160.0480 H   0  0  0  0  0  0  0  0  0  0  0  0
  147.8054  145.5666  161.3154 H   0  0  0  0  0  0  0  0  0  0  0  0
  150.2367  145.5781  160.8922 H   0  0  0  0  0  0  0  0  0  0  0  0
  144.8558  144.0222  157.6965 H   0  0  0  0  0  0  0  0  0  0  0  0
  143.6959  142.8778  157.0168 H   0  0  0  0  0  0  0  0  0  0  0  0
  143.5645  144.5918  156.6501 H   0  0  0  0  0  0  0  0  0  0  0  0
  1  2  1  0  0  0  0
  1 25  1  0  0  0  0
  1 26  1  0  0  0  0
  1 27  1  0  0  0  0
  2 23  2  0  0  0  0
  2  3  1  0  0  0  0
  3  4  2  0  0  0  0
  4  5  1  0  0  0  0
  4 28  1  0  0  0  0
  5  6  1  0  0  0  0
  5 21  1  0  0  0  0
  6  7  1  0  0  0  0
  6 29  1  0  0  0  0
  6 30  1  0  0  0  0
  7  8  1  0  0  0  0
  7  9  1  0  0  0  0
  7 31  1  0  0  0  0
  8 32  1  0  0  0  0
  9 10  1  0  0  0  0
  9 33  1  0  0  0  0
  9 34  1  0  0  0  0
 10 11  1  0  0  0  0
 11 16  1  0  0  0  0
 11 12  2  0  0  0  0
 12 13  1  0  0  0  0
 12 35  1  0  0  0  0
 13 14  2  0  0  0  0
 13 36  1  0  0  0  0
 14 15  1  0  0  0  0
 14 37  1  0  0  0  0
 15 16  2  0  0  0  0
 15 38  1  0  0  0  0
 16 17  1  0  0  0  0
 17 18  1  0  0  0  0
 17 19  1  0  0  0  0
 17 20  1  0  0  0  0
 21 22  2  0  0  0  0
 21 23  1  0  0  0  0
 23 24  1  0  0  0  0
 24 39  1  0  0  0  0
 24 40  1  0  0  0  0
 24 41  1  0  0  0  0
M  END
> <s_m_source_file>
AV-unprocessed.smi

> <i_m_source_file_index>
2280

> <i_lp_mmshare_version>
43012

> <i_f3d_flags>
0

> <s_epik_input>
W0NIM11jMW5bY0hdbihjKD1PKWMxW0NIM10pW0NIMl1bQ0BIXShbT0hdKVtDSDJdT2MyW2NIXVtjSF1bY0hdW2NIXWMyQyhGKShGKUY=

> <s_epik_cmdline>
J2VwaWtfcHl0aG9uJywgJy1waCcsICc3LjAnLCAnLXRuJywgJzgnLCAnLW1hJywgJzIwMCcsICctbWV0YWxfYmluZGluZycsICctaW1hZScsICc8aW5maWxlLm1hZT4nLCAnLW9tYWUnLCAnPG91dGZpbGUubWFlPic=

> <r_lp_tautomer_probability>
1

> <r_epik_Ionization_Penalty>
3.7476e-05

> <r_epik_Ionization_Penalty_Charging>
8.44705e-08

> <r_epik_Ionization_Penalty_Neutral>
3.73915e-05

> <r_epik_State_Penalty>
-0

> <r_epik_Charging_Adjusted_Penalty>
8.44705e-08

> <i_epik_Tot_Q>
0

> <i_epik_Tot_abs_Q>
0

> <r_epik_Metal_State_Penalty>
-0

> <b_epik_Metal_Only>
0

> <s_lp_Force_Field>
OPLS_2005

> <r_lp_Energy>
25.7706

> <b_lp_Chiralities_Consistent>
1

> <s_lp_Variant>
AV-unprocessed.smi:2280-1

> <Gold.Version>
5.8.1

> <Gold.Id.Protein>
6NUR|6NUR_protein|mol2

> <Gold.PLP.Fitness>
46.4686

> <Gold.PLP.PLP>
-46.4344

> <Gold.PLP.part.hbond>
-1.4879

> <Gold.PLP.part.metal>
0.0000

> <Gold.PLP.part.buried>
-6.6657

> <Gold.PLP.part.nonpolar>
-37.5472

> <Gold.PLP.part.repulsive>
0.4244

> <Gold.PLP.ligand.clash>
0.2952

> <Gold.PLP.ligand.torsion>
1.2208

> <Gold.PLP.Chemscore.Hbond>
0.7520

> <Gold.PLP.Chemscore.CHOScore>
0.0000

> <Gold.PLP.Chemscore.Metal>
0.0000

> <Gold.Chemscore.Hbonds>
donor molecule, donor type, donor heavy atom, donor atom, acceptor molecule, acceptor atom, score
      P1  H  7989  7998       L1     8  0.75

> <Gold.PLP.Chemscore.Internal.Correction>
0.5150

> <Gold.Rescore>
     Score         DG    S(hbond)    S(metal)    S(lipo)     H(rot)  DE(clash)    DE(int)     intcor
      3.11      -6.85       0.00        0.00      71.44       2.73       0.00       3.74       ----

> <Gold.Chemscore.Fitness>
3.1077

> <Gold.Chemscore.DG>
-6.8497

> <Gold.Chemscore.ZeroCoef>
-5.4800

> <Gold.Chemscore.Hbond>
0.0000

> <Gold.Chemscore.Metal>
0.0000

> <Gold.Chemscore.Lipo>
71.4401

> <Gold.Chemscore.Internal_Hbond>
0.0000

> <Gold.Chemscore.DEClash>
0.0041

> <Gold.Chemscore.DEInternal>
3.7379

> <Gold.Chemscore.Rot>
2.7300

> <Gold.Chemscore.Internal.Correction>
   9.000000E+99

> <Gold.Chemscore.Hbonds>
donor molecule, donor type, donor heavy atom, donor atom, acceptor molecule, acceptor atom, score
      P1  H  7989  7998       L1     8  0.22

> <Gold.Chemscore.Hbond.Weighted>
-0.0000

> <Gold.Chemscore.Metal.Weighted>
-0.0000

> <Gold.Chemscore.Lipo.Weighted>
-8.3585

> <Gold.Chemscore.Internal_Hbond.Weighted>
0.0000

> <Gold.Chemscore.DEClash.Weighted>
0.0041

> <Gold.Chemscore.DEInternal.Weighted>
3.7379

> <Gold.Chemscore.Rot.Weighted>
6.9888

> <Gold.Chemscore.Internal.Correction.Weighted>
   9.000000E+99

> <Gold.Protein.RotatedTorsions>
[ 6907 6896 6895 6894 ] final   74.93 input  -60.11 | X-H torsion
[ 7974 7965 7964 7962 ] final  159.79 input  175.53 | X-H torsion
[ 8008 7997 7996 7995 ] final   56.95 input   59.86 | X-H torsion
[ 10167 10162 10161 10158 ] final  -98.25 input  -65.29 | X-H torsion
[ 10718 10713 10712 10709 ] final -113.46 input   66.30 | X-H torsion
[ 10763 10752 10751 10750 ] final   70.29 input  -60.55 | X-H torsion
[ 11005 11000 10999 10996 ] final -178.31 input  -57.11 | X-H torsion

> <Gold.Protein.ActiveResidues>
 VAL166  LYS551  ARG553  GLY616  TRP617  ASP618  TYR619  PRO620  LYS621  CYS622 
 ASP623  PHE694  ASN695  SER759  ASP760  ASP761  ALA762  ILE779  LEU786  VAL792 
 PHE793  MET794  SER795  GLU796  ALA797  LYS798  CYS799  TRP800  GLU811  SER814 

> <Gold.Protein.RotatedAtoms>
  152.5000  134.4198  159.9476 H   0  0  0  0  0  0  0  0  0  0  0  0  # atno 6907 bound_to 6896
  151.4170  133.3703  159.2759 H   0  0  0  0  0  0  0  0  0  0  0  0  # atno 6908 bound_to 6896
  150.9250  134.8689  159.7573 H   0  0  0  0  0  0  0  0  0  0  0  0  # atno 6909 bound_to 6896
  144.7771  139.7666  143.6274 H   0  0  0  0  0  0  0  0  0  0  0  0  # atno 7974 bound_to 7965
  155.5259  140.3481  155.4416 H   0  0  0  0  0  0  0  0  0  0  0  0  # atno 8008 bound_to 7997
  156.0752  140.1373  156.9807 H   0  0  0  0  0  0  0  0  0  0  0  0  # atno 8009 bound_to 7997
  154.4549  140.0957  156.6704 H   0  0  0  0  0  0  0  0  0  0  0  0  # atno 8010 bound_to 7997
  140.2749  143.3319  152.0498 H   0  0  0  0  0  0  0  0  0  0  0  0  # atno 10167 bound_to 10162
  156.0768  130.5974  150.8646 H   0  0  0  0  0  0  0  0  0  0  0  0  # atno 10718 bound_to 10713
  153.0333  135.5179  154.7418 H   0  0  0  0  0  0  0  0  0  0  0  0  # atno 10763 bound_to 10752
  154.6415  135.2913  155.0099 H   0  0  0  0  0  0  0  0  0  0  0  0  # atno 10764 bound_to 10752
  154.1015  135.6635  153.4921 H   0  0  0  0  0  0  0  0  0  0  0  0  # atno 10765 bound_to 10752
  140.4312  134.6517  157.4712 H   0  0  0  0  0  0  0  0  0  0  0  0  # atno 11005 bound_to 11000
  146.1958  139.5223  142.9776 LP  0  0  0  0  0  0  0  0  0  0  0  0  # atno 17320 bound_to 7965
  145.6154  141.0332  143.1944 LP  0  0  0  0  0  0  0  0  0  0  0  0  # atno 17321 bound_to 7965
  139.4978  144.6631  151.6419 LP  0  0  0  0  0  0  0  0  0  0  0  0  # atno 17342 bound_to 10162
  140.5859  143.9865  150.6295 LP  0  0  0  0  0  0  0  0  0  0  0  0  # atno 17343 bound_to 10162
  157.5867  131.0945  150.9184 LP  0  0  0  0  0  0  0  0  0  0  0  0  # atno 17370 bound_to 10713
  156.9368  130.5370  149.5279 LP  0  0  0  0  0  0  0  0  0  0  0  0  # atno 17371 bound_to 10713
  140.0133  134.6657  155.9347 LP  0  0  0  0  0  0  0  0  0  0  0  0  # atno 17394 bound_to 11000
  141.1745  133.6539  156.4775 LP  0  0  0  0  0  0  0  0  0  0  0  0  # atno 17395 bound_to 11000

$$$$
