AV-unprocessed.smi:229|AV-procd|sdf|1748|dock6
  -GOLD-   2262020263D 1   1.00000     0.00000
 Structure written by MMmdl.
 58 62  0  0  0  0  0  0  0  0  1 V2000
  153.3367  142.4100  162.2965 C   0  0  0  0  0  0  0  0  0  0  0  0
  153.6879  141.2711  161.3310 C   0  0  0  0  0  0  0  0  0  0  0  0
  153.2032  141.5331  159.8974 C   0  0  1  0  0  0  0  0  0  0  0  0
  152.8644  140.2271  159.1595 C   0  0  0  0  0  0  0  0  0  0  0  0
  152.2976  140.5284  157.8495 N   0  0  0  0  0  0  0  0  0  0  0  0
  152.2061  139.5214  156.9452 C   0  0  0  0  0  0  0  0  0  0  0  0
  152.9536  139.5554  155.8091 N   0  0  0  0  0  0  0  0  0  0  0  0
  152.8764  138.5609  154.9198 C   0  0  0  0  0  0  0  0  0  0  0  0
  152.1269  137.4579  154.9647 N   0  0  0  0  0  0  0  0  0  0  0  0
  151.3683  137.4219  156.0972 C   0  0  0  0  0  0  0  0  0  0  0  0
  151.3477  138.4011  157.1303 C   0  0  0  0  0  0  0  0  0  0  0  0
  150.4465  138.0244  158.1199 N   0  0  0  0  0  0  0  0  0  0  0  0
  149.9697  136.8840  157.7006 C   0  0  0  0  0  0  0  0  0  0  0  0
  150.4698  136.4479  156.4950 N   0  0  0  0  0  0  0  0  0  0  0  0
  150.1165  135.2208  155.8029 C   0  0  0  0  0  0  0  0  0  0  0  0
  149.1112  134.3677  156.6007 C   0  0  2  0  0  0  0  0  0  0  0  0
  149.7016  133.8809  157.7917 O   0  0  0  0  0  0  0  0  0  0  0  0
  148.5217  133.2052  155.7756 C   0  0  2  0  0  0  0  0  0  0  0  0
  149.5246  132.1339  155.3130 C   0  0  0  0  0  0  0  0  0  0  0  0
  149.3975  132.1523  153.8004 C   0  0  0  0  0  0  0  0  0  0  0  0
  147.9923  132.7012  153.5903 C   0  0  0  0  0  0  0  0  0  0  0  0
  147.8812  133.6914  154.5989 O   0  0  0  0  0  0  0  0  0  0  0  0
  151.1210  141.3861  157.9275 C   0  0  0  0  0  0  0  0  0  0  0  0
  151.4376  142.6824  158.7025 C   0  0  1  0  0  0  0  0  0  0  0  0
  152.2582  143.6990  157.9144 C   0  0  0  0  0  0  0  0  0  0  0  0
  151.8983  145.0036  158.6081 C   0  0  0  0  0  0  0  0  0  0  0  0
  150.5085  144.8765  158.8656 O   0  0  0  0  0  0  0  0  0  0  0  0
  150.1737  143.4988  159.0191 C   0  0  0  0  0  0  0  0  0  0  0  0
  152.0364  142.3550  159.9622 O   0  0  0  0  0  0  0  0  0  0  0  0
  153.7087  142.1972  163.2987 H   0  0  0  0  0  0  0  0  0  0  0  0
  152.2579  142.5517  162.3661 H   0  0  0  0  0  0  0  0  0  0  0  0
  153.7779  143.3523  161.9710 H   0  0  0  0  0  0  0  0  0  0  0  0
  154.7704  141.1373  161.3269 H   0  0  0  0  0  0  0  0  0  0  0  0
  153.2643  140.3360  161.6994 H   0  0  0  0  0  0  0  0  0  0  0  0
  153.9981  142.0496  159.3601 H   0  0  0  0  0  0  0  0  0  0  0  0
  153.7662  139.6230  159.0492 H   0  0  0  0  0  0  0  0  0  0  0  0
  152.1480  139.6417  159.7380 H   0  0  0  0  0  0  0  0  0  0  0  0
  153.5056  138.6631  154.0480 H   0  0  0  0  0  0  0  0  0  0  0  0
  149.2355  136.3253  158.2627 H   0  0  0  0  0  0  0  0  0  0  0  0
  149.6973  135.4857  154.8315 H   0  0  0  0  0  0  0  0  0  0  0  0
  151.0287  134.6569  155.6036 H   0  0  0  0  0  0  0  0  0  0  0  0
  148.2846  135.0098  156.9074 H   0  0  0  0  0  0  0  0  0  0  0  0
  149.2427  133.0982  158.0557 H   0  0  0  0  0  0  0  0  0  0  0  0
  147.7510  132.7138  156.3717 H   0  0  0  0  0  0  0  0  0  0  0  0
  150.5485  132.3205  155.6372 H   0  0  0  0  0  0  0  0  0  0  0  0
  149.2310  131.1589  155.7037 H   0  0  0  0  0  0  0  0  0  0  0  0
  150.1293  132.8405  153.3756 H   0  0  0  0  0  0  0  0  0  0  0  0
  149.5460  131.1728  153.3454 H   0  0  0  0  0  0  0  0  0  0  0  0
  147.8470  133.1217  152.5952 H   0  0  0  0  0  0  0  0  0  0  0  0
  147.2411  131.9266  153.7532 H   0  0  0  0  0  0  0  0  0  0  0  0
  150.7327  141.6301  156.9390 H   0  0  0  0  0  0  0  0  0  0  0  0
  150.3326  140.8344  158.4418 H   0  0  0  0  0  0  0  0  0  0  0  0
  153.3301  143.5111  157.8938 H   0  0  0  0  0  0  0  0  0  0  0  0
  151.9154  143.7352  156.8793 H   0  0  0  0  0  0  0  0  0  0  0  0
  152.4340  145.0985  159.5539 H   0  0  0  0  0  0  0  0  0  0  0  0
  152.1155  145.8813  157.9995 H   0  0  0  0  0  0  0  0  0  0  0  0
  149.3712  143.2740  158.3157 H   0  0  0  0  0  0  0  0  0  0  0  0
  149.7948  143.2994  160.0223 H   0  0  0  0  0  0  0  0  0  0  0  0
  1  2  1  0  0  0  0
  1 30  1  0  0  0  0
  1 31  1  0  0  0  0
  1 32  1  0  0  0  0
  2  3  1  0  0  0  0
  2 33  1  0  0  0  0
  2 34  1  0  0  0  0
  3 29  1  0  0  0  0
  3  4  1  0  0  0  0
  3 35  1  0  0  0  0
  4  5  1  0  0  0  0
  4 36  1  0  0  0  0
  4 37  1  0  0  0  0
  5  6  1  0  0  0  0
  5 23  1  0  0  0  0
  6 11  1  0  0  0  0
  6  7  2  0  0  0  0
  7  8  1  0  0  0  0
  8  9  2  0  0  0  0
  8 38  1  0  0  0  0
  9 10  1  0  0  0  0
 10 14  1  0  0  0  0
 10 11  2  0  0  0  0
 11 12  1  0  0  0  0
 12 13  2  0  0  0  0
 13 14  1  0  0  0  0
 13 39  1  0  0  0  0
 14 15  1  0  0  0  0
 15 16  1  0  0  0  0
 15 40  1  0  0  0  0
 15 41  1  0  0  0  0
 16 17  1  0  0  0  0
 16 18  1  0  0  0  0
 16 42  1  0  0  0  0
 17 43  1  0  0  0  0
 18 22  1  0  0  0  0
 18 19  1  0  0  0  0
 18 44  1  0  0  0  0
 19 20  1  0  0  0  0
 19 45  1  0  0  0  0
 19 46  1  0  0  0  0
 20 21  1  0  0  0  0
 20 47  1  0  0  0  0
 20 48  1  0  0  0  0
 21 22  1  0  0  0  0
 21 49  1  0  0  0  0
 21 50  1  0  0  0  0
 23 24  1  0  0  0  0
 23 51  1  0  0  0  0
 23 52  1  0  0  0  0
 24 28  1  0  0  0  0
 24 25  1  0  0  0  0
 24 29  1  0  0  0  0
 25 26  1  0  0  0  0
 25 53  1  0  0  0  0
 25 54  1  0  0  0  0
 26 27  1  0  0  0  0
 26 55  1  0  0  0  0
 26 56  1  0  0  0  0
 27 28  1  0  0  0  0
 28 57  1  0  0  0  0
 28 58  1  0  0  0  0
M  END
> <s_m_source_file>
AV-unprocessed.smi

> <i_m_source_file_index>
229

> <i_lp_mmshare_version>
43012

> <i_f3d_flags>
0

> <s_epik_input>
W0NIMl0xT1tDSDJdW0NIMl1bQ0BdMTJbQ0gyXU4oW0NIMl1bQ0BIXShPMilbQ0gyXVtDSDNdKWMobltjSF1uMyljKGMzNCluW2NIXW40W0NIMl1bQ0BIXShbT0hdKVtDQEBIXTVbQ0gyXVtDSDJdW0NIMl1PNQ==

> <s_epik_cmdline>
J2VwaWtfcHl0aG9uJywgJy1waCcsICc3LjAnLCAnLXRuJywgJzgnLCAnLW1hJywgJzIwMCcsICctbWV0YWxfYmluZGluZycsICctaW1hZScsICc8aW5maWxlLm1hZT4nLCAnLW9tYWUnLCAnPG91dGZpbGUubWFlPic=

> <r_lp_tautomer_probability>
1

> <r_epik_Ionization_Penalty>
0.00318402

> <r_epik_Ionization_Penalty_Charging>
0

> <r_epik_Ionization_Penalty_Neutral>
0.00318402

> <r_epik_State_Penalty>
0.00215642

> <r_epik_Charging_Adjusted_Penalty>
0.00215642

> <i_epik_Tot_Q>
0

> <i_epik_Tot_abs_Q>
0

> <r_epik_Metal_State_Penalty>
-0

> <b_epik_Metal_Only>
0

> <s_lp_Force_Field>
OPLS_2005

> <r_lp_Energy>
56.2374

> <b_lp_Chiralities_Consistent>
1

> <s_lp_Variant>
AV-unprocessed.smi:229-2

> <Gold.Version>
5.8.1

> <Gold.Id.Protein>
6NUR|6NUR_protein|mol2

> <Gold.PLP.Fitness>
54.4145

> <Gold.PLP.PLP>
-47.1290

> <Gold.PLP.part.hbond>
-3.1476

> <Gold.PLP.part.metal>
0.0000

> <Gold.PLP.part.buried>
-8.6086

> <Gold.PLP.part.nonpolar>
-36.2281

> <Gold.PLP.part.repulsive>
0.3225

> <Gold.PLP.ligand.clash>
0.0000

> <Gold.PLP.ligand.torsion>
0.5835

> <Gold.PLP.Chemscore.Hbond>
2.7170

> <Gold.PLP.Chemscore.CHOScore>
0.0000

> <Gold.PLP.Chemscore.Metal>
0.0000

> <Gold.Chemscore.Hbonds>
donor molecule, donor type, donor heavy atom, donor atom, acceptor molecule, acceptor atom, score
      P1  H  6896  6907       L1    17  0.89
      P1  H  7997  8008       L1     7  1.00
      P1  H 10752 10765       L1     9  0.77

> <Gold.PLP.Chemscore.Internal.Correction>
0.3014

> <Gold.Rescore>
     Score         DG    S(hbond)    S(metal)    S(lipo)     H(rot)  DE(clash)    DE(int)     intcor
     18.68     -20.48       2.33        0.00     115.64       2.46       0.11       1.69       ----

> <Gold.Chemscore.Fitness>
18.6759

> <Gold.Chemscore.DG>
-20.4810

> <Gold.Chemscore.ZeroCoef>
-5.4800

> <Gold.Chemscore.Hbond>
2.3254

> <Gold.Chemscore.Metal>
0.0000

> <Gold.Chemscore.Lipo>
115.6368

> <Gold.Chemscore.Internal_Hbond>
0.0000

> <Gold.Chemscore.DEClash>
0.1103

> <Gold.Chemscore.DEInternal>
1.6948

> <Gold.Chemscore.Rot>
2.4591

> <Gold.Chemscore.Internal.Correction>
   9.000000E+99

> <Gold.Chemscore.Hbonds>
donor molecule, donor type, donor heavy atom, donor atom, acceptor molecule, acceptor atom, score
      P1  H  6896  6907       L1    17  0.17
      P1  H  7997  8008       L1     7  0.79
      P1  H 10752 10765       L1     9  0.63

> <Gold.Chemscore.Hbond.Weighted>
-7.7668

> <Gold.Chemscore.Metal.Weighted>
-0.0000

> <Gold.Chemscore.Lipo.Weighted>
-13.5295

> <Gold.Chemscore.Internal_Hbond.Weighted>
0.0000

> <Gold.Chemscore.DEClash.Weighted>
0.1103

> <Gold.Chemscore.DEInternal.Weighted>
1.6948

> <Gold.Chemscore.Rot.Weighted>
6.2953

> <Gold.Chemscore.Internal.Correction.Weighted>
   9.000000E+99

> <Gold.Protein.RotatedTorsions>
[ 6907 6896 6895 6894 ] final  -93.56 input  -60.11 | X-H torsion
[ 7974 7965 7964 7962 ] final  160.03 input  175.53 | X-H torsion
[ 8008 7997 7996 7995 ] final  -15.25 input   59.86 | X-H torsion
[ 10167 10162 10161 10158 ] final -177.95 input  -65.29 | X-H torsion
[ 10718 10713 10712 10709 ] final  -96.93 input   66.30 | X-H torsion
[ 10763 10752 10751 10750 ] final  172.50 input  -60.55 | X-H torsion
[ 11005 11000 10999 10996 ] final  128.03 input  -57.11 | X-H torsion

> <Gold.Protein.ActiveResidues>
 VAL166  LYS551  ARG553  GLY616  TRP617  ASP618  TYR619  PRO620  LYS621  CYS622 
 ASP623  PHE694  ASN695  SER759  ASP760  ASP761  ALA762  ILE779  LEU786  VAL792 
 PHE793  MET794  SER795  GLU796  ALA797  LYS798  CYS799  TRP800  GLU811  SER814 

> <Gold.Protein.RotatedAtoms>
  150.6925  134.1949  159.4299 H   0  0  0  0  0  0  0  0  0  0  0  0  # atno 6907 bound_to 6896
  151.9918  134.9973  160.0571 H   0  0  0  0  0  0  0  0  0  0  0  0  # atno 6908 bound_to 6896
  152.1660  133.4578  159.4922 H   0  0  0  0  0  0  0  0  0  0  0  0  # atno 6909 bound_to 6896
  144.7759  139.7699  143.6279 H   0  0  0  0  0  0  0  0  0  0  0  0  # atno 7974 bound_to 7965
  154.5145  140.2201  155.9093 H   0  0  0  0  0  0  0  0  0  0  0  0  # atno 8008 bound_to 7997
  156.1591  140.3146  155.8742 H   0  0  0  0  0  0  0  0  0  0  0  0  # atno 8009 bound_to 7997
  155.3787  140.0471  157.3035 H   0  0  0  0  0  0  0  0  0  0  0  0  # atno 8010 bound_to 7997
  139.5455  144.2247  152.0980 H   0  0  0  0  0  0  0  0  0  0  0  0  # atno 10167 bound_to 10162
  156.0072  130.5172  150.6299 H   0  0  0  0  0  0  0  0  0  0  0  0  # atno 10718 bound_to 10713
  154.4270  135.2759  155.1938 H   0  0  0  0  0  0  0  0  0  0  0  0  # atno 10763 bound_to 10752
  154.3860  135.6077  153.5820 H   0  0  0  0  0  0  0  0  0  0  0  0  # atno 10764 bound_to 10752
  152.9835  135.5892  154.4575 H   0  0  0  0  0  0  0  0  0  0  0  0  # atno 10765 bound_to 10752
  139.9539  134.9617  156.8942 H   0  0  0  0  0  0  0  0  0  0  0  0  # atno 11005 bound_to 11000
  146.1937  139.5192  142.9788 LP  0  0  0  0  0  0  0  0  0  0  0  0  # atno 17320 bound_to 7965
  145.6189  141.0326  143.1926 LP  0  0  0  0  0  0  0  0  0  0  0  0  # atno 17321 bound_to 7965
  140.1732  144.4915  150.6568 LP  0  0  0  0  0  0  0  0  0  0  0  0  # atno 17342 bound_to 10162
  140.6702  143.2283  151.5644 LP  0  0  0  0  0  0  0  0  0  0  0  0  # atno 17343 bound_to 10162
  157.4099  131.0822  151.1230 LP  0  0  0  0  0  0  0  0  0  0  0  0  # atno 17370 bound_to 10713
  157.1865  130.6333  149.5689 LP  0  0  0  0  0  0  0  0  0  0  0  0  # atno 17371 bound_to 10713
  140.5655  134.0494  155.7413 LP  0  0  0  0  0  0  0  0  0  0  0  0  # atno 17394 bound_to 11000
  141.1207  133.9466  157.2735 LP  0  0  0  0  0  0  0  0  0  0  0  0  # atno 17395 bound_to 11000

$$$$
