#       Name:                AV-unprocessed.smi:54
#       Creating user name   scv26
#       Creation time:       Thu Mar 26 16:42:31 2020


#       File generated by GOLD software.
#

@<TRIPOS>MOLECULE
AV-unprocessed.smi:54
    58    60     1
SMALL
NO_CHARGES


@<TRIPOS>ATOM
      1 ****        -0.5949   5.4792  -1.7732 C.3            1 S1                 0.0000
      2 ****        -1.2445   4.8791  -0.5156 C.3            1 S1                 0.0000
      3 ****        -0.7430   5.5772   0.7588 C.3            1 S1                 0.0000
      4 ****        -0.9853   3.3700  -0.4404 C.2            1 S1                 0.0000
      5 ****         0.1537   2.9065  -0.3717 O.2            1 S1                 0.0000
      6 ****        -2.1727   2.5340  -0.4510 N.am           1 S1                 0.0000
      7 ****        -2.2298   1.1830  -0.3932 C.2            1 S1                 0.0000
      8 ****        -1.1549   0.4083  -0.4234 N.2            1 S1                 0.0000
      9 ****        -1.4177  -0.9313  -0.3548 C.2            1 S1                 0.0000
     10 ****        -2.6595  -1.5236  -0.2664 C.2            1 S1                 0.0000
     11 ****        -2.5276  -2.9069  -0.2175 N.2            1 S1                 0.0000
     12 ****        -1.2397  -3.1046  -0.2722 C.2            1 S1                 0.0000
     13 ****        -0.4922  -1.9517  -0.3462 N.pl3          1 S1                 0.0000
     14 ****         0.9949  -1.7743  -0.4187 C.3            1 S1                 0.0000
     15 ****         1.5669  -2.9983  -0.7719 O.3            1 S1                 0.0000
     16 ****         2.1326  -3.6105   0.3792 C.3            1 S1                 0.0000
     17 ****         3.1416  -4.7030  -0.0136 C.3            1 S1                 0.0000
     18 ****         3.6285  -5.3548   1.1398 O.3            1 S1                 0.0000
     19 ****         2.6709  -2.4163   1.1778 C.3            1 S1                 0.0000
     20 ****         3.9243  -1.9886   0.6781 O.3            1 S1                 0.0000
     21 ****         1.6096  -1.3486   0.9396 C.3            1 S1                 0.0000
     22 ****         0.6875  -1.3408   2.0172 O.3            1 S1                 0.0000
     23 ****        -3.8331  -0.6996  -0.2391 C.2            1 S1                 0.0000
     24 ****        -5.0087  -1.0504  -0.1652 O.2            1 S1                 0.0000
     25 ****        -3.5223   0.6650  -0.3077 N.am           1 S1                 0.0000
     26 ****         1.1465  -1.0453  -1.2158 H              1 S1                 0.0000
     27 ****         1.3176  -4.0676   0.9432 H              1 S1                 0.0000
     28 ****         2.7961  -2.6576   2.2344 H              1 S1                 0.0000
     29 ****         2.0410  -0.3505   0.8509 H              1 S1                 0.0000
     30 ****        -0.9440   4.9794  -2.6778 H              1 S1                 0.0000
     31 ****         0.4922   5.3942  -1.7437 H              1 S1                 0.0000
     32 ****        -0.8400   6.5371  -1.8698 H              1 S1                 0.0000
     33 ****        -2.3218   5.0369  -0.5853 H              1 S1                 0.0000
     34 ****        -1.2044   5.1527   1.6514 H              1 S1                 0.0000
     35 ****        -0.9838   6.6405   0.7410 H              1 S1                 0.0000
     36 ****         0.3385   5.4861   0.8673 H              1 S1                 0.0000
     37 ****        -3.0547   3.0226  -0.4926 H              1 S1                 0.0000
     38 ****        -0.8094  -4.0951  -0.2581 H              1 S1                 0.0000
     39 ****         2.6545  -5.4448  -0.6468 H              1 S1                 0.0000
     40 ****         3.9749  -4.2963  -0.5870 H              1 S1                 0.0000
     41 ****         4.2173  -6.0430   0.8696 H              1 S1                 0.0000
     42 ****         4.5542  -2.6779   0.8245 H              1 S1                 0.0000
     43 ****         0.2442  -2.1751   2.0374 H              1 S1                 0.0000
     44 ****        -4.3019   1.3057  -0.2907 H              1 S1                 0.0000
     45 ****         0.9434   3.5198  -0.3638 LP             1 S1                 0.0000
     46 ****         0.2887   1.9168  -0.3239 LP             1 S1                 0.0000
     47 ****        -0.2268   0.7742  -0.4909 LP             1 S1                 0.0000
     48 ****        -3.2532  -3.5923  -0.1548 LP             1 S1                 0.0000
     49 ****         2.2824  -2.8468  -1.4538 LP             1 S1                 0.0000
     50 ****         0.8628  -3.5965  -1.1548 LP             1 S1                 0.0000
     51 ****         2.8651  -5.7465   1.6534 LP             1 S1                 0.0000
     52 ****         4.1170  -4.6999   1.7164 LP             1 S1                 0.0000
     53 ****         4.2135  -1.1594   1.1563 LP             1 S1                 0.0000
     54 ****         3.8511  -1.8002  -0.3013 LP             1 S1                 0.0000
     55 ****         0.0206  -0.6074   1.8855 LP             1 S1                 0.0000
     56 ****         1.1755  -1.1970   2.8781 LP             1 S1                 0.0000
     57 ****        -5.2383  -2.0224  -0.1150 LP             1 S1                 0.0000
     58 ****        -5.7357  -0.3638  -0.1553 LP             1 S1                 0.0000
@<TRIPOS>BOND
    1    1    2 1     
    2    1   30 1     
    3    1   31 1     
    4    1   32 1     
    5    2    3 1     
    6    2    4 1     
    7    2   33 1     
    8    3   34 1     
    9    3   35 1     
   10    3   36 1     
   11    4    5 2     
   12    4    6 am    
   13    6   37 1     
   14    6    7 1     
   15    7   25 1     
   16    7    8 2     
   17    8    9 1     
   18    9   13 1     
   19    9   10 2     
   20   10   11 1     
   21   10   23 1     
   22   11   12 2     
   23   12   13 1     
   24   12   38 1     
   25   13   14 1     
   26   14   26 1     
   27   14   21 1     
   28   14   15 1     
   29   15   16 1     
   30   16   27 1     
   31   16   17 1     
   32   16   19 1     
   33   17   18 1     
   34   17   39 1     
   35   17   40 1     
   36   18   41 1     
   37   19   28 1     
   38   19   20 1     
   39   19   21 1     
   40   20   42 1     
   41   21   29 1     
   42   21   22 1     
   43   22   43 1     
   44   23   24 2     
   45   23   25 am    
   46   25   44 1     
   47    5   45 1     
   48    5   46 1     
   49    8   47 1     
   50   11   48 1     
   51   15   49 1     
   52   15   50 1     
   53   18   51 1     
   54   18   52 1     
   55   20   53 1     
   56   20   54 1     
   57   22   55 1     
   58   22   56 1     
   59   24   57 1     
   60   24   58 1     
@<TRIPOS>SUBSTRUCTURE
      1 S1             1
@<TRIPOS>SET
LONE_PAIRS      STATIC     ATOMS    <user>   **** ""
14 45 46 47 48 49 50 51 52 53 54 55 56 57 58
DONOR_HYDROGENS      STATIC     ATOMS    <user>   **** ""
5 37 41 42 43 44
ATOM$BLUE        STATIC     ATOMS    COLORGROUP SYSTEM
14 45 46 47 48 49 50 51 52 53 54 55 56 57 58
ATOM$RED        STATIC     ATOMS    COLORGROUP SYSTEM
5 37 41 42 43 44
