AV-unprocessed.smi:2889|AV-procd|sdf|11110|dock10
  -GOLD-   2272015573D 1   1.00000     0.00000
 Structure written by MMmdl.
 36 37  0  0  0  0  0  0  0  0  1 V2000
  155.3023  140.2932  159.8092 C   0  0  0  0  0  0  0  0  0  0  0  0
  154.2136  141.1825  160.9546 S   0  0  0  0  0  0  0  0  0  0  0  0
  153.2596  142.2171  159.7977 C   0  0  2  0  0  0  0  0  0  0  0  0
  152.2371  143.0833  160.5570 C   0  0  0  0  0  0  0  0  0  0  0  0
  151.4245  143.9720  159.6040 C   0  0  0  0  0  0  0  0  0  0  0  0
  150.7110  143.1280  158.5394 C   0  0  0  0  0  0  0  0  0  0  0  0
  151.7065  142.2635  157.7482 C   0  0  0  0  0  0  0  0  0  0  0  0
  152.5925  141.3968  158.6657 C   0  0  2  0  0  0  0  0  0  0  0  0
  151.8210  140.2715  159.2064 N   0  0  0  0  0  0  0  0  0  0  0  0
  151.6239  138.8611  158.2344 S   0  0  0  0  0  0  0  0  0  0  0  0
  152.4426  139.0338  157.0242 O   0  0  0  0  0  0  0  0  0  0  0  0
  151.8350  137.6929  159.1027 O   0  0  0  0  0  0  0  0  0  0  0  0
  149.8468  138.9491  157.7599 C   0  0  0  0  0  0  0  0  0  0  0  0
  149.7320  139.1476  156.2755 C   0  0  0  0  0  0  0  0  0  0  0  0
  149.0826  138.3187  155.3191 C   0  0  0  0  0  0  0  0  0  0  0  0
  149.2885  138.9722  154.1385 C   0  0  0  0  0  0  0  0  0  0  0  0
  150.0074  140.1050  154.3418 O   0  0  0  0  0  0  0  0  0  0  0  0
  150.2868  140.2077  155.7093 N   0  0  0  0  0  0  0  0  0  0  0  0
  155.9910  139.6597  160.3676 H   0  0  0  0  0  0  0  0  0  0  0  0
  155.8853  140.9951  159.2133 H   0  0  0  0  0  0  0  0  0  0  0  0
  154.7262  139.6579  159.1374 H   0  0  0  0  0  0  0  0  0  0  0  0
  153.9740  142.9001  159.3361 H   0  0  0  0  0  0  0  0  0  0  0  0
  151.5592  142.4439  161.1238 H   0  0  0  0  0  0  0  0  0  0  0  0
  152.7516  143.7085  161.2878 H   0  0  0  0  0  0  0  0  0  0  0  0
  150.6933  144.5502  160.1696 H   0  0  0  0  0  0  0  0  0  0  0  0
  152.0838  144.6944  159.1212 H   0  0  0  0  0  0  0  0  0  0  0  0
  149.9699  142.4871  159.0187 H   0  0  0  0  0  0  0  0  0  0  0  0
  150.1606  143.7772  157.8580 H   0  0  0  0  0  0  0  0  0  0  0  0
  151.1751  141.6406  157.0277 H   0  0  0  0  0  0  0  0  0  0  0  0
  152.3484  142.9209  157.1606 H   0  0  0  0  0  0  0  0  0  0  0  0
  153.3873  140.9807  158.0462 H   0  0  0  0  0  0  0  0  0  0  0  0
  152.1480  140.0272  160.1412 H   0  0  0  0  0  0  0  0  0  0  0  0
  149.3607  138.0262  158.0775 H   0  0  0  0  0  0  0  0  0  0  0  0
  149.3850  139.7730  158.3037 H   0  0  0  0  0  0  0  0  0  0  0  0
  148.5467  137.3945  155.4756 H   0  0  0  0  0  0  0  0  0  0  0  0
  149.0025  138.7682  153.1173 H   0  0  0  0  0  0  0  0  0  0  0  0
  1  2  1  0  0  0  0
  1 19  1  0  0  0  0
  1 20  1  0  0  0  0
  1 21  1  0  0  0  0
  2  3  1  0  0  0  0
  3  8  1  0  0  0  0
  3  4  1  0  0  0  0
  3 22  1  0  0  0  0
  4  5  1  0  0  0  0
  4 23  1  0  0  0  0
  4 24  1  0  0  0  0
  5  6  1  0  0  0  0
  5 25  1  0  0  0  0
  5 26  1  0  0  0  0
  6  7  1  0  0  0  0
  6 27  1  0  0  0  0
  6 28  1  0  0  0  0
  7  8  1  0  0  0  0
  7 29  1  0  0  0  0
  7 30  1  0  0  0  0
  8  9  1  0  0  0  0
  8 31  1  0  0  0  0
  9 10  1  0  0  0  0
  9 32  1  0  0  0  0
 10 11  2  0  0  0  0
 10 12  2  0  0  0  0
 10 13  1  0  0  0  0
 13 14  1  0  0  0  0
 13 33  1  0  0  0  0
 13 34  1  0  0  0  0
 14 18  2  0  0  0  0
 14 15  1  0  0  0  0
 15 16  2  0  0  0  0
 15 35  1  0  0  0  0
 16 17  1  0  0  0  0
 16 36  1  0  0  0  0
 17 18  1  0  0  0  0
M  END
> <s_m_source_file>
AV-unprocessed.smi

> <i_m_source_file_index>
2889

> <i_lp_mmshare_version>
43012

> <i_f3d_flags>
0

> <s_epik_input>
W0NIM11TW0NAQEhdMVtDSDJdW0NIMl1bQ0gyXVtDSDJdW0NASF0xW05IXVMoPU8pKD1PKVtDSDJdYzJbY0hdW2NIXW9uMg==

> <s_epik_cmdline>
J2VwaWtfcHl0aG9uJywgJy1waCcsICc3LjAnLCAnLXRuJywgJzgnLCAnLW1hJywgJzIwMCcsICctbWV0YWxfYmluZGluZycsICctaW1hZScsICc8aW5maWxlLm1hZT4nLCAnLW9tYWUnLCAnPG91dGZpbGUubWFlPic=

> <r_lp_tautomer_probability>
1

> <r_epik_Ionization_Penalty>
0.000229547

> <r_epik_Ionization_Penalty_Charging>
0

> <r_epik_Ionization_Penalty_Neutral>
0.000229547

> <r_epik_State_Penalty>
-0

> <r_epik_Charging_Adjusted_Penalty>
0

> <i_epik_Tot_Q>
0

> <i_epik_Tot_abs_Q>
0

> <r_epik_Metal_State_Penalty>
0.145979

> <b_epik_Metal_Only>
0

> <s_lp_Force_Field>
OPLS_2005

> <r_lp_Energy>
4.93405

> <b_lp_Chiralities_Consistent>
1

> <s_lp_Variant>
AV-unprocessed.smi:2889-3

> <Gold.Version>
5.8.1

> <Gold.Id.Protein>
6NUR|6NUR_protein|mol2

> <Gold.PLP.Fitness>
39.6589

> <Gold.PLP.PLP>
-28.8645

> <Gold.PLP.part.hbond>
-2.0000

> <Gold.PLP.part.metal>
0.0000

> <Gold.PLP.part.buried>
-4.7490

> <Gold.PLP.part.nonpolar>
-21.2471

> <Gold.PLP.part.repulsive>
0.1461

> <Gold.PLP.ligand.clash>
0.0000

> <Gold.PLP.ligand.torsion>
0.5543

> <Gold.PLP.Chemscore.Hbond>
2.0000

> <Gold.PLP.Chemscore.CHOScore>
1.9097

> <Gold.PLP.Chemscore.Metal>
0.0000

> <Gold.Chemscore.Hbonds>
donor molecule, donor type, donor heavy atom, donor atom, acceptor molecule, acceptor atom, score
      P1  H  7989  7998       L1    17  0.99
      P1  H  7997  8008       L1    11  0.47
      L1  C    16    36       P1  7948  0.31
      L1  C    16    36       P1  7957  0.95

> <Gold.PLP.Chemscore.Internal.Correction>
0.1740

> <Gold.Rescore>
     Score         DG    S(hbond)    S(metal)    S(lipo)     H(rot)  DE(clash)    DE(int)     intcor
     16.76     -18.58       1.94        0.00      96.23       1.81       0.05       1.77       ----

> <Gold.Chemscore.Fitness>
16.7605

> <Gold.Chemscore.DG>
-18.5837

> <Gold.Chemscore.ZeroCoef>
-5.4800

> <Gold.Chemscore.Hbond>
1.9364

> <Gold.Chemscore.Metal>
0.0000

> <Gold.Chemscore.Lipo>
96.2306

> <Gold.Chemscore.Internal_Hbond>
0.0000

> <Gold.Chemscore.DEClash>
0.0515

> <Gold.Chemscore.DEInternal>
1.7717

> <Gold.Chemscore.Rot>
1.8058

> <Gold.Chemscore.Internal.Correction>
   9.000000E+99

> <Gold.Chemscore.Hbonds>
donor molecule, donor type, donor heavy atom, donor atom, acceptor molecule, acceptor atom, score
      P1  H  7989  7998       L1    17  0.41
      P1  H  7997  8008       L1    11  0.48

> <Gold.Chemscore.Hbond.Weighted>
-6.4675

> <Gold.Chemscore.Metal.Weighted>
-0.0000

> <Gold.Chemscore.Lipo.Weighted>
-11.2590

> <Gold.Chemscore.Internal_Hbond.Weighted>
0.0000

> <Gold.Chemscore.DEClash.Weighted>
0.0515

> <Gold.Chemscore.DEInternal.Weighted>
1.7717

> <Gold.Chemscore.Rot.Weighted>
4.6228

> <Gold.Chemscore.Internal.Correction.Weighted>
   9.000000E+99

> <Gold.Protein.RotatedTorsions>
[ 6907 6896 6895 6894 ] final   31.10 input  -60.11 | X-H torsion
[ 7974 7965 7964 7962 ] final  -95.78 input  175.53 | X-H torsion
[ 8008 7997 7996 7995 ] final  -52.08 input   59.86 | X-H torsion
[ 10167 10162 10161 10158 ] final  108.81 input  -65.29 | X-H torsion
[ 10718 10713 10712 10709 ] final   96.92 input   66.30 | X-H torsion
[ 10763 10752 10751 10750 ] final  -82.05 input  -60.55 | X-H torsion
[ 11005 11000 10999 10996 ] final  149.60 input  -57.11 | X-H torsion

> <Gold.Protein.ActiveResidues>
 VAL166  LYS551  ARG553  GLY616  TRP617  ASP618  TYR619  PRO620  LYS621  CYS622 
 ASP623  PHE694  ASN695  SER759  ASP760  ASP761  ALA762  ILE779  LEU786  VAL792 
 PHE793  MET794  SER795  GLU796  ALA797  LYS798  CYS799  TRP800  GLU811  SER814 

> <Gold.Protein.RotatedAtoms>
  152.0554  134.9627  160.0574 H   0  0  0  0  0  0  0  0  0  0  0  0  # atno 6907 bound_to 6896
  152.1011  133.4246  159.4596 H   0  0  0  0  0  0  0  0  0  0  0  0  # atno 6908 bound_to 6896
  150.6839  134.2678  159.4619 H   0  0  0  0  0  0  0  0  0  0  0  0  # atno 6909 bound_to 6896
  145.3555  140.9483  143.2530 H   0  0  0  0  0  0  0  0  0  0  0  0  # atno 7974 bound_to 7965
  154.4098  140.1232  156.4933 H   0  0  0  0  0  0  0  0  0  0  0  0  # atno 8008 bound_to 7997
  155.6968  140.3495  155.4897 H   0  0  0  0  0  0  0  0  0  0  0  0  # atno 8009 bound_to 7997
  155.9420  140.1089  157.1037 H   0  0  0  0  0  0  0  0  0  0  0  0  # atno 8010 bound_to 7997
  139.6816  144.7117  151.1505 H   0  0  0  0  0  0  0  0  0  0  0  0  # atno 10167 bound_to 10162
  157.6920  131.0593  150.4565 H   0  0  0  0  0  0  0  0  0  0  0  0  # atno 10718 bound_to 10713
  154.5710  135.5605  153.7095 H   0  0  0  0  0  0  0  0  0  0  0  0  # atno 10763 bound_to 10752
  153.0048  135.6297  154.2114 H   0  0  0  0  0  0  0  0  0  0  0  0  # atno 10764 bound_to 10752
  154.2054  135.2876  155.2956 H   0  0  0  0  0  0  0  0  0  0  0  0  # atno 10765 bound_to 10752
  140.1059  134.8954  157.1865 H   0  0  0  0  0  0  0  0  0  0  0  0  # atno 11005 bound_to 11000
  144.8685  139.5072  143.6779 LP  0  0  0  0  0  0  0  0  0  0  0  0  # atno 17320 bound_to 7965
  146.2950  139.7250  142.9133 LP  0  0  0  0  0  0  0  0  0  0  0  0  # atno 17321 bound_to 7965
  140.7654  143.5690  150.9016 LP  0  0  0  0  0  0  0  0  0  0  0  0  # atno 17342 bound_to 10162
  139.9363  143.6435  152.3064 LP  0  0  0  0  0  0  0  0  0  0  0  0  # atno 17343 bound_to 10162
  156.4912  130.4096  149.6405 LP  0  0  0  0  0  0  0  0  0  0  0  0  # atno 17370 bound_to 10713
  156.3415  130.7384  151.2330 LP  0  0  0  0  0  0  0  0  0  0  0  0  # atno 17371 bound_to 10713
  140.3156  134.2974  155.7257 LP  0  0  0  0  0  0  0  0  0  0  0  0  # atno 17394 bound_to 11000
  141.2118  133.7678  156.9839 LP  0  0  0  0  0  0  0  0  0  0  0  0  # atno 17395 bound_to 11000

$$$$
