AV-unprocessed.smi:1120|AV-procd|sdf|4821|dock8
  -GOLD-   22720 3383D 1   1.00000     0.00000
 Structure written by MMmdl.
 49 50  0  0  0  0  0  0  0  0  2 V2000
  151.7522  145.1161  159.2817 C   0  0  0  0  0  0  0  0  0  0  0  0
  151.4940  143.6133  159.4586 C   0  0  2  0  0  0  0  0  0  0  0  0
  152.7361  142.7823  159.0905 C   0  0  0  0  0  0  0  0  0  0  0  0
  152.4957  141.2758  159.2856 C   0  0  0  0  0  0  0  0  0  0  0  0
  151.2394  140.7754  158.5461 C   0  0  2  0  0  0  0  0  0  0  0  0
  151.4886  140.6692  157.1048 N   0  0  0  0  0  0  0  0  0  0  0  0
  150.2214  140.2959  155.9952 S   0  0  0  0  0  0  0  0  0  0  0  0
  150.8382  139.9569  154.7033 O   0  0  0  0  0  0  0  0  0  0  0  0
  149.3307  139.3316  156.6592 O   0  0  0  0  0  0  0  0  0  0  0  0
  149.3255  141.9016  155.8272 C   0  0  0  0  0  0  0  0  0  0  0  0
  147.9627  141.6695  155.1787 C   0  0  0  0  0  0  0  0  0  0  0  0
  147.7922  140.7040  154.4355 O   0  0  0  0  0  0  0  0  0  0  0  0
  146.9991  142.5577  155.4673 N   0  0  0  0  0  0  0  0  0  0  0  0
  145.6333  142.5146  154.9533 C   0  0  0  0  0  0  0  0  0  0  0  0
  144.5606  142.4020  156.0568 C   0  0  0  0  0  0  0  0  0  0  0  0
  143.8502  143.7097  156.3620 C   0  0  0  0  0  0  0  0  0  0  0  0
  144.0733  144.4205  157.5610 C   0  0  0  0  0  0  0  0  0  0  0  0
  143.3673  145.6195  157.7929 C   0  0  0  0  0  0  0  0  0  0  0  0
  142.4541  146.0824  156.8229 C   0  0  0  0  0  0  0  0  0  0  0  0
  142.2711  145.3340  155.6427 C   0  0  0  0  0  0  0  0  0  0  0  0
  142.9651  144.1897  155.4582 N   0  3  0  0  0  0  0  0  0  0  0  0
  150.0005  141.6495  158.8181 C   0  0  0  0  0  0  0  0  0  0  0  0
  150.2819  143.1499  158.6306 C   0  0  0  0  0  0  0  0  0  0  0  0
  151.9833  145.3598  158.2444 H   0  0  0  0  0  0  0  0  0  0  0  0
  152.5907  145.4456  159.8957 H   0  0  0  0  0  0  0  0  0  0  0  0
  150.8801  145.7014  159.5750 H   0  0  0  0  0  0  0  0  0  0  0  0
  151.2705  143.4401  160.5124 H   0  0  0  0  0  0  0  0  0  0  0  0
  153.0142  142.9751  158.0534 H   0  0  0  0  0  0  0  0  0  0  0  0
  153.5863  143.0942  159.6982 H   0  0  0  0  0  0  0  0  0  0  0  0
  153.3763  140.7131  158.9748 H   0  0  0  0  0  0  0  0  0  0  0  0
  152.3747  141.0792  160.3515 H   0  0  0  0  0  0  0  0  0  0  0  0
  151.0149  139.7732  158.9125 H   0  0  0  0  0  0  0  0  0  0  0  0
  152.4079  140.3142  156.8417 H   0  0  0  0  0  0  0  0  0  0  0  0
  149.2161  142.3545  156.8127 H   0  0  0  0  0  0  0  0  0  0  0  0
  149.9214  142.5723  155.2081 H   0  0  0  0  0  0  0  0  0  0  0  0
  147.2277  143.3214  156.0881 H   0  0  0  0  0  0  0  0  0  0  0  0
  145.4728  143.4340  154.3897 H   0  0  0  0  0  0  0  0  0  0  0  0
  145.5290  141.6959  154.2396 H   0  0  0  0  0  0  0  0  0  0  0  0
  143.8185  141.6564  155.7685 H   0  0  0  0  0  0  0  0  0  0  0  0
  145.0151  142.0277  156.9751 H   0  0  0  0  0  0  0  0  0  0  0  0
  144.7735  144.0508  158.2959 H   0  0  0  0  0  0  0  0  0  0  0  0
  143.5226  146.1766  158.7053 H   0  0  0  0  0  0  0  0  0  0  0  0
  141.9014  146.9968  156.9821 H   0  0  0  0  0  0  0  0  0  0  0  0
  141.5916  145.6091  154.8493 H   0  0  0  0  0  0  0  0  0  0  0  0
  149.1687  141.3389  158.1846 H   0  0  0  0  0  0  0  0  0  0  0  0
  149.6737  141.4839  159.8454 H   0  0  0  0  0  0  0  0  0  0  0  0
  149.3971  143.7216  158.9128 H   0  0  0  0  0  0  0  0  0  0  0  0
  150.4566  143.3577  157.5740 H   0  0  0  0  0  0  0  0  0  0  0  0
  142.8109  143.6610  154.5988 H   0  0  0  0  0  0  0  0  0  0  0  0
  1  2  1  0  0  0  0
  1 24  1  0  0  0  0
  1 25  1  0  0  0  0
  1 26  1  0  0  0  0
  2 23  1  0  0  0  0
  2  3  1  0  0  0  0
  2 27  1  0  0  0  0
  3  4  1  0  0  0  0
  3 28  1  0  0  0  0
  3 29  1  0  0  0  0
  4  5  1  0  0  0  0
  4 30  1  0  0  0  0
  4 31  1  0  0  0  0
  5  6  1  0  0  0  0
  5 22  1  0  0  0  0
  5 32  1  0  0  0  0
  6  7  1  0  0  0  0
  6 33  1  0  0  0  0
  7  8  2  0  0  0  0
  7  9  2  0  0  0  0
  7 10  1  0  0  0  0
 10 11  1  0  0  0  0
 10 34  1  0  0  0  0
 10 35  1  0  0  0  0
 11 12  2  0  0  0  0
 11 13  1  0  0  0  0
 13 14  1  0  0  0  0
 13 36  1  0  0  0  0
 14 15  1  0  0  0  0
 14 37  1  0  0  0  0
 14 38  1  0  0  0  0
 15 16  1  0  0  0  0
 15 39  1  0  0  0  0
 15 40  1  0  0  0  0
 16 21  1  0  0  0  0
 16 17  2  0  0  0  0
 17 18  1  0  0  0  0
 17 41  1  0  0  0  0
 18 19  2  0  0  0  0
 18 42  1  0  0  0  0
 19 20  1  0  0  0  0
 19 43  1  0  0  0  0
 20 21  2  0  0  0  0
 20 44  1  0  0  0  0
 21 49  1  0  0  0  0
 22 23  1  0  0  0  0
 22 45  1  0  0  0  0
 22 46  1  0  0  0  0
 23 47  1  0  0  0  0
 23 48  1  0  0  0  0
M  CHG  1  21   1
M  END
> <s_m_source_file>
AV-unprocessed.smi

> <i_m_source_file_index>
1120

> <i_lp_mmshare_version>
43012

> <i_f3d_flags>
0

> <s_epik_input>
W0NIM11bQ0BASF0xW0NIMl1bQ0gyXVtDQEhdKFtDSDJdW0NIMl0xKVtOSF1TKD1PKSg9TylbQ0gyXUMoPU8pW05IXVtDSDJdW0NIMl1jMltjSF1bY0hdW2NIXVtjSF1uMg==

> <s_epik_cmdline>
J2VwaWtfcHl0aG9uJywgJy1waCcsICc3LjAnLCAnLXRuJywgJzgnLCAnLW1hJywgJzIwMCcsICctbWV0YWxfYmluZGluZycsICctaW1hZScsICc8aW5maWxlLm1hZT4nLCAnLW9tYWUnLCAnPG91dGZpbGUubWFlPic=

> <r_epik_Ionization_Penalty>
1.97387

> <r_epik_Ionization_Penalty_Charging>
1.97382

> <r_epik_Ionization_Penalty_Neutral>
4.57635e-05

> <r_epik_State_Penalty>
2.10057

> <r_epik_Charging_Adjusted_Penalty>
4.07439

> <i_epik_Tot_Q>
1

> <i_epik_Tot_abs_Q>
1

> <r_epik_Metal_State_Penalty>
2.15877

> <b_epik_Metal_Only>
0

> <s_lp_Force_Field>
OPLS_2005

> <r_lp_Energy>
8.31708

> <b_lp_Chiralities_Consistent>
1

> <s_lp_Variant>
AV-unprocessed.smi:1120-4

> <Gold.Version>
5.8.1

> <Gold.Id.Protein>
6NUR|6NUR_protein|mol2

> <Gold.PLP.Fitness>
56.4873

> <Gold.PLP.PLP>
-46.8875

> <Gold.PLP.part.hbond>
-3.0000

> <Gold.PLP.part.metal>
0.0000

> <Gold.PLP.part.buried>
-8.0238

> <Gold.PLP.part.nonpolar>
-36.9977

> <Gold.PLP.part.repulsive>
0.8201

> <Gold.PLP.ligand.clash>
0.0000

> <Gold.PLP.ligand.torsion>
1.6689

> <Gold.PLP.Chemscore.Hbond>
3.9200

> <Gold.PLP.Chemscore.CHOScore>
0.0000

> <Gold.PLP.Chemscore.Metal>
0.0000

> <Gold.Chemscore.Hbonds>
donor molecule, donor type, donor heavy atom, donor atom, acceptor molecule, acceptor atom, score
      L1  H    13    36       P1  8028  0.09
      P1  H  7989  7998       L1     8  1.00

> <Gold.PLP.Chemscore.Internal.Correction>
1.1777

> <Gold.Rescore>
     Score         DG    S(hbond)    S(metal)    S(lipo)     H(rot)  DE(clash)    DE(int)     intcor
     17.40     -19.56       1.73        0.00     115.56       2.05       0.53       1.62       ----

> <Gold.Chemscore.Fitness>
17.4005

> <Gold.Chemscore.DG>
-19.5554

> <Gold.Chemscore.ZeroCoef>
-5.4800

> <Gold.Chemscore.Hbond>
1.7345

> <Gold.Chemscore.Metal>
0.0000

> <Gold.Chemscore.Lipo>
115.5613

> <Gold.Chemscore.Internal_Hbond>
0.0000

> <Gold.Chemscore.DEClash>
0.5316

> <Gold.Chemscore.DEInternal>
1.6232

> <Gold.Chemscore.Rot>
2.0463

> <Gold.Chemscore.Internal.Correction>
   9.000000E+99

> <Gold.Chemscore.Hbonds>
donor molecule, donor type, donor heavy atom, donor atom, acceptor molecule, acceptor atom, score
      P1  H  7989  7998       L1     8  1.00

> <Gold.Chemscore.Hbond.Weighted>
-5.7932

> <Gold.Chemscore.Metal.Weighted>
-0.0000

> <Gold.Chemscore.Lipo.Weighted>
-13.5207

> <Gold.Chemscore.Internal_Hbond.Weighted>
0.0000

> <Gold.Chemscore.DEClash.Weighted>
0.5316

> <Gold.Chemscore.DEInternal.Weighted>
1.6232

> <Gold.Chemscore.Rot.Weighted>
5.2386

> <Gold.Chemscore.Internal.Correction.Weighted>
   9.000000E+99

> <Gold.Protein.RotatedTorsions>
[ 6907 6896 6895 6894 ] final  -29.01 input  -60.11 | X-H torsion
[ 7974 7965 7964 7962 ] final -114.73 input  175.53 | X-H torsion
[ 8008 7997 7996 7995 ] final -127.43 input   59.86 | X-H torsion
[ 10167 10162 10161 10158 ] final    8.09 input  -65.29 | X-H torsion
[ 10718 10713 10712 10709 ] final   32.71 input   66.30 | X-H torsion
[ 10763 10752 10751 10750 ] final -147.24 input  -60.55 | X-H torsion
[ 11005 11000 10999 10996 ] final   -4.49 input  -57.11 | X-H torsion

> <Gold.Protein.ActiveResidues>
 VAL166  LYS551  ARG553  GLY616  TRP617  ASP618  TYR619  PRO620  LYS621  CYS622 
 ASP623  PHE694  ASN695  SER759  ASP760  ASP761  ALA762  ILE779  LEU786  VAL792 
 PHE793  MET794  SER795  GLU796  ALA797  LYS798  CYS799  TRP800  GLU811  SER814 

> <Gold.Protein.RotatedAtoms>
  151.1251  135.0100  159.8556 H   0  0  0  0  0  0  0  0  0  0  0  0  # atno 6907 bound_to 6896
  152.5449  134.1676  159.8593 H   0  0  0  0  0  0  0  0  0  0  0  0  # atno 6908 bound_to 6896
  151.1738  133.4723  159.2627 H   0  0  0  0  0  0  0  0  0  0  0  0  # atno 6909 bound_to 6896
  145.1167  140.8644  143.3838 H   0  0  0  0  0  0  0  0  0  0  0  0  # atno 7974 bound_to 7965
  155.2461  140.0430  157.2981 H   0  0  0  0  0  0  0  0  0  0  0  0  # atno 8008 bound_to 7997
  154.5798  140.2397  155.8040 H   0  0  0  0  0  0  0  0  0  0  0  0  # atno 8009 bound_to 7997
  156.2184  140.2977  155.9903 H   0  0  0  0  0  0  0  0  0  0  0  0  # atno 8010 bound_to 7997
  140.6334  143.7941  150.7326 H   0  0  0  0  0  0  0  0  0  0  0  0  # atno 10167 bound_to 10162
  157.2886  130.7291  149.6598 H   0  0  0  0  0  0  0  0  0  0  0  0  # atno 10718 bound_to 10713
  154.8296  135.3365  154.6787 H   0  0  0  0  0  0  0  0  0  0  0  0  # atno 10763 bound_to 10752
  153.7409  135.6946  153.4972 H   0  0  0  0  0  0  0  0  0  0  0  0  # atno 10764 bound_to 10752
  153.2244  135.4437  155.0477 H   0  0  0  0  0  0  0  0  0  0  0  0  # atno 10765 bound_to 10752
  140.6808  133.9155  155.8554 H   0  0  0  0  0  0  0  0  0  0  0  0  # atno 11005 bound_to 11000
  145.0786  139.2977  143.5795 LP  0  0  0  0  0  0  0  0  0  0  0  0  # atno 17320 bound_to 7965
  146.3523  140.0285  142.8652 LP  0  0  0  0  0  0  0  0  0  0  0  0  # atno 17321 bound_to 7965
  140.1557  143.4318  152.2101 LP  0  0  0  0  0  0  0  0  0  0  0  0  # atno 17342 bound_to 10162
  139.5546  144.7363  151.4332 LP  0  0  0  0  0  0  0  0  0  0  0  0  # atno 17343 bound_to 10162
  155.9666  130.4316  150.4925 LP  0  0  0  0  0  0  0  0  0  0  0  0  # atno 17370 bound_to 10713
  157.2884  131.0621  151.2151 LP  0  0  0  0  0  0  0  0  0  0  0  0  # atno 17371 bound_to 10713
  141.0319  134.0744  157.4004 LP  0  0  0  0  0  0  0  0  0  0  0  0  # atno 17394 bound_to 11000
  139.8952  135.0140  156.6991 LP  0  0  0  0  0  0  0  0  0  0  0  0  # atno 17395 bound_to 11000

$$$$
