AV-unprocessed.smi:1750|AV-procd|sdf|7053|dock2
  -GOLD-   22720 8263D 1   1.00000     0.00000
 Structure written by MMmdl.
 36 37  0  0  0  0  0  0  0  0  1 V2000
  151.7771  142.9211  159.0210 C   0  0  0  0  0  0  0  0  0  0  0  0
  151.4223  141.7541  158.0931 C   0  0  0  0  0  0  0  0  0  0  0  0
  150.8285  142.2242  156.7578 C   0  0  0  0  0  0  0  0  0  0  0  0
  150.4818  141.0900  155.8516 C   0  0  0  0  0  0  0  0  0  0  0  0
  151.3964  140.2286  155.3888 N   0  0  0  0  0  0  0  0  0  0  0  0
  150.8419  139.2729  154.5492 N   0  0  0  0  0  0  0  0  0  0  0  0
  149.5233  139.4515  154.3899 C   0  0  0  0  0  0  0  0  0  0  0  0
  148.7058  138.6165  153.5828 N   0  0  0  0  0  0  0  0  0  0  0  0
  147.3725  138.6675  153.4155 C   0  0  0  0  0  0  0  0  0  0  0  0
  146.6149  139.4706  153.9609 O   0  0  0  0  0  0  0  0  0  0  0  0
  146.9529  137.7227  152.5638 N   0  0  0  0  0  0  0  0  0  0  0  0
  145.5643  137.5358  152.1665 C   0  0  0  0  0  0  0  0  0  0  0  0
  145.1727  136.0540  152.2414 C   0  0  1  0  0  0  0  0  0  0  0  0
  143.7066  135.7887  151.9058 C   0  0  0  0  0  0  0  0  0  0  0  0
  143.7525  134.3427  151.4686 C   0  0  0  0  0  0  0  0  0  0  0  0
  145.0744  134.2880  150.7079 C   0  0  0  0  0  0  0  0  0  0  0  0
  145.9079  135.2881  151.2895 O   0  0  0  0  0  0  0  0  0  0  0  0
  148.8474  140.8198  155.2573 S   0  0  0  0  0  0  0  0  0  0  0  0
  152.2018  142.5575  159.9568 H   0  0  0  0  0  0  0  0  0  0  0  0
  150.8943  143.5129  159.2644 H   0  0  0  0  0  0  0  0  0  0  0  0
  152.5089  143.5842  158.5588 H   0  0  0  0  0  0  0  0  0  0  0  0
  152.3163  141.1583  157.9061 H   0  0  0  0  0  0  0  0  0  0  0  0
  150.7132  141.0972  158.5985 H   0  0  0  0  0  0  0  0  0  0  0  0
  149.9308  142.8178  156.9350 H   0  0  0  0  0  0  0  0  0  0  0  0
  151.5353  142.8757  156.2425 H   0  0  0  0  0  0  0  0  0  0  0  0
  149.1949  137.9025  153.0633 H   0  0  0  0  0  0  0  0  0  0  0  0
  147.6348  137.1021  152.1524 H   0  0  0  0  0  0  0  0  0  0  0  0
  144.9223  138.1205  152.8273 H   0  0  0  0  0  0  0  0  0  0  0  0
  145.4182  137.9159  151.1542 H   0  0  0  0  0  0  0  0  0  0  0  0
  145.3877  135.6544  153.2342 H   0  0  0  0  0  0  0  0  0  0  0  0
  143.0387  135.9605  152.7503 H   0  0  0  0  0  0  0  0  0  0  0  0
  143.3796  136.4183  151.0769 H   0  0  0  0  0  0  0  0  0  0  0  0
  143.7929  133.6894  152.3414 H   0  0  0  0  0  0  0  0  0  0  0  0
  142.8973  134.0489  150.8595 H   0  0  0  0  0  0  0  0  0  0  0  0
  145.5398  133.3034  150.7585 H   0  0  0  0  0  0  0  0  0  0  0  0
  144.9205  134.5357  149.6572 H   0  0  0  0  0  0  0  0  0  0  0  0
  1  2  1  0  0  0  0
  1 19  1  0  0  0  0
  1 20  1  0  0  0  0
  1 21  1  0  0  0  0
  2  3  1  0  0  0  0
  2 22  1  0  0  0  0
  2 23  1  0  0  0  0
  3  4  1  0  0  0  0
  3 24  1  0  0  0  0
  3 25  1  0  0  0  0
  4 18  1  0  0  0  0
  4  5  2  0  0  0  0
  5  6  1  0  0  0  0
  6  7  2  0  0  0  0
  7  8  1  0  0  0  0
  7 18  1  0  0  0  0
  8  9  1  0  0  0  0
  8 26  1  0  0  0  0
  9 10  2  0  0  0  0
  9 11  1  0  0  0  0
 11 12  1  0  0  0  0
 11 27  1  0  0  0  0
 12 13  1  0  0  0  0
 12 28  1  0  0  0  0
 12 29  1  0  0  0  0
 13 17  1  0  0  0  0
 13 14  1  0  0  0  0
 13 30  1  0  0  0  0
 14 15  1  0  0  0  0
 14 31  1  0  0  0  0
 14 32  1  0  0  0  0
 15 16  1  0  0  0  0
 15 33  1  0  0  0  0
 15 34  1  0  0  0  0
 16 17  1  0  0  0  0
 16 35  1  0  0  0  0
 16 36  1  0  0  0  0
M  END
> <s_m_source_file>
AV-unprocessed.smi

> <i_m_source_file_index>
1750

> <i_lp_mmshare_version>
43012

> <i_f3d_flags>
0

> <s_epik_input>
W0NIM11bQ0gyXVtDSDJdYzFubmMoczEpW05IXUMoPU8pW05IXVtDSDJdW0NAQEhdMltDSDJdW0NIMl1bQ0gyXU8y

> <s_epik_cmdline>
J2VwaWtfcHl0aG9uJywgJy1waCcsICc3LjAnLCAnLXRuJywgJzgnLCAnLW1hJywgJzIwMCcsICctbWV0YWxfYmluZGluZycsICctaW1hZScsICc8aW5maWxlLm1hZT4nLCAnLW9tYWUnLCAnPG91dGZpbGUubWFlPic=

> <r_lp_tautomer_probability>
1

> <r_epik_Ionization_Penalty>
0.000503051

> <r_epik_Ionization_Penalty_Charging>
0

> <r_epik_Ionization_Penalty_Neutral>
0.000503051

> <r_epik_State_Penalty>
-0

> <r_epik_Charging_Adjusted_Penalty>
0

> <i_epik_Tot_Q>
0

> <i_epik_Tot_abs_Q>
0

> <r_epik_Metal_State_Penalty>
0.219912

> <b_epik_Metal_Only>
0

> <s_lp_Force_Field>
OPLS_2005

> <r_lp_Energy>
11.8885

> <b_lp_Chiralities_Consistent>
1

> <s_lp_Variant>
AV-unprocessed.smi:1750-2

> <Gold.Version>
5.8.1

> <Gold.Id.Protein>
6NUR|6NUR_protein|mol2

> <Gold.PLP.Fitness>
37.3206

> <Gold.PLP.PLP>
-31.7590

> <Gold.PLP.part.hbond>
-5.0000

> <Gold.PLP.part.metal>
0.0000

> <Gold.PLP.part.buried>
-4.1879

> <Gold.PLP.part.nonpolar>
-23.1824

> <Gold.PLP.part.repulsive>
0.6356

> <Gold.PLP.ligand.clash>
0.0000

> <Gold.PLP.ligand.torsion>
0.0926

> <Gold.PLP.Chemscore.Hbond>
1.9120

> <Gold.PLP.Chemscore.CHOScore>
0.0000

> <Gold.PLP.Chemscore.Metal>
0.0000

> <Gold.Chemscore.Hbonds>
donor molecule, donor type, donor heavy atom, donor atom, acceptor molecule, acceptor atom, score
      L1  H     8    26       P1  7948  0.89
      L1  H    11    27       P1  7948  1.00

> <Gold.PLP.Chemscore.Internal.Correction>
0.0107

> <Gold.Rescore>
     Score         DG    S(hbond)    S(metal)    S(lipo)     H(rot)  DE(clash)    DE(int)     intcor
     13.88     -15.31       1.95        0.00      64.11       1.63       0.10       1.34       ----

> <Gold.Chemscore.Fitness>
13.8754

> <Gold.Chemscore.DG>
-15.3089

> <Gold.Chemscore.ZeroCoef>
-5.4800

> <Gold.Chemscore.Hbond>
1.9471

> <Gold.Chemscore.Metal>
0.0000

> <Gold.Chemscore.Lipo>
64.1125

> <Gold.Chemscore.Internal_Hbond>
0.0000

> <Gold.Chemscore.DEClash>
0.0967

> <Gold.Chemscore.DEInternal>
1.3367

> <Gold.Chemscore.Rot>
1.6311

> <Gold.Chemscore.Internal.Correction>
   9.000000E+99

> <Gold.Chemscore.Hbonds>
donor molecule, donor type, donor heavy atom, donor atom, acceptor molecule, acceptor atom, score
      L1  H     8    26       P1  7948  0.81
      L1  H    11    27       P1  7948  0.98

> <Gold.Chemscore.Hbond.Weighted>
-6.5034

> <Gold.Chemscore.Metal.Weighted>
-0.0000

> <Gold.Chemscore.Lipo.Weighted>
-7.5012

> <Gold.Chemscore.Internal_Hbond.Weighted>
0.0000

> <Gold.Chemscore.DEClash.Weighted>
0.0967

> <Gold.Chemscore.DEInternal.Weighted>
1.3367

> <Gold.Chemscore.Rot.Weighted>
4.1757

> <Gold.Chemscore.Internal.Correction.Weighted>
   9.000000E+99

> <Gold.Protein.RotatedTorsions>
[ 6907 6896 6895 6894 ] final  -38.03 input  -60.11 | X-H torsion
[ 7974 7965 7964 7962 ] final  -20.15 input  175.53 | X-H torsion
[ 8008 7997 7996 7995 ] final   98.92 input   59.86 | X-H torsion
[ 10167 10162 10161 10158 ] final  -15.99 input  -65.29 | X-H torsion
[ 10718 10713 10712 10709 ] final -101.61 input   66.30 | X-H torsion
[ 10763 10752 10751 10750 ] final -151.20 input  -60.55 | X-H torsion
[ 11005 11000 10999 10996 ] final  -14.79 input  -57.11 | X-H torsion

> <Gold.Protein.ActiveResidues>
 VAL166  LYS551  ARG553  GLY616  TRP617  ASP618  TYR619  PRO620  LYS621  CYS622 
 ASP623  PHE694  ASN695  SER759  ASP760  ASP761  ALA762  ILE779  LEU786  VAL792 
 PHE793  MET794  SER795  GLU796  ALA797  LYS798  CYS799  TRP800  GLU811  SER814 

> <Gold.Protein.RotatedAtoms>
  151.0074  134.9370  159.7987 H   0  0  0  0  0  0  0  0  0  0  0  0  # atno 6907 bound_to 6896
  152.5294  134.3073  159.9110 H   0  0  0  0  0  0  0  0  0  0  0  0  # atno 6908 bound_to 6896
  151.3079  133.4051  159.2679 H   0  0  0  0  0  0  0  0  0  0  0  0  # atno 6909 bound_to 6896
  146.1804  140.4161  142.8497 H   0  0  0  0  0  0  0  0  0  0  0  0  # atno 7974 bound_to 7965
  156.1053  140.3236  155.7997 H   0  0  0  0  0  0  0  0  0  0  0  0  # atno 8008 bound_to 7997
  155.4767  140.0551  157.2990 H   0  0  0  0  0  0  0  0  0  0  0  0  # atno 8009 bound_to 7997
  154.4723  140.2017  155.9978 H   0  0  0  0  0  0  0  0  0  0  0  0  # atno 8010 bound_to 7997
  140.7227  143.5162  150.9689 H   0  0  0  0  0  0  0  0  0  0  0  0  # atno 10167 bound_to 10162
  156.0200  130.5381  150.6988 H   0  0  0  0  0  0  0  0  0  0  0  0  # atno 10718 bound_to 10713
  154.8073  135.3266  154.7399 H   0  0  0  0  0  0  0  0  0  0  0  0  # atno 10763 bound_to 10752
  153.8055  135.6900  153.4853 H   0  0  0  0  0  0  0  0  0  0  0  0  # atno 10764 bound_to 10752
  153.1826  135.4581  154.9993 H   0  0  0  0  0  0  0  0  0  0  0  0  # atno 10765 bound_to 10752
  140.7900  133.8295  155.9371 H   0  0  0  0  0  0  0  0  0  0  0  0  # atno 11005 bound_to 11000
  144.8305  140.6699  143.6294 LP  0  0  0  0  0  0  0  0  0  0  0  0  # atno 17320 bound_to 7965
  145.4093  139.1583  143.4134 LP  0  0  0  0  0  0  0  0  0  0  0  0  # atno 17321 bound_to 7965
  139.8877  143.6992  152.3149 LP  0  0  0  0  0  0  0  0  0  0  0  0  # atno 17342 bound_to 10162
  139.7296  144.7585  151.0823 LP  0  0  0  0  0  0  0  0  0  0  0  0  # atno 17343 bound_to 10162
  157.4653  131.0887  151.0701 LP  0  0  0  0  0  0  0  0  0  0  0  0  # atno 17370 bound_to 10713
  157.1177  130.6048  149.5497 LP  0  0  0  0  0  0  0  0  0  0  0  0  # atno 17371 bound_to 10713
  140.9399  134.1915  157.4805 LP  0  0  0  0  0  0  0  0  0  0  0  0  # atno 17394 bound_to 11000
  139.8732  134.9867  156.5337 LP  0  0  0  0  0  0  0  0  0  0  0  0  # atno 17395 bound_to 11000

$$$$
