#       Name:                AV-unprocessed.smi:1357
#       Creating user name   scv26
#       Creation time:       Fri Mar 27 05:14:00 2020


#       File generated by GOLD software.
#

@<TRIPOS>MOLECULE
AV-unprocessed.smi:1357
    49    50     1
SMALL
NO_CHARGES


@<TRIPOS>ATOM
      1 ****        -3.7523   2.0892  -1.0338 C.3            1 S1                 0.0000
      2 ****        -3.0570   2.7678   0.1649 C.3            1 S1                 0.0000
      3 ****        -3.6098   4.1990   0.3221 C.3            1 S1                 0.0000
      4 ****        -3.3729   1.9619   1.4471 C.3            1 S1                 0.0000
      5 ****        -1.5386   2.8514  -0.1261 C.2            1 S1                 0.0000
      6 ****        -1.1452   3.4352  -1.1372 O.2            1 S1                 0.0000
      7 ****        -0.6898   2.2740   0.7416 N.am           1 S1                 0.0000
      8 ****         0.7587   2.2143   0.5907 C.3            1 S1                 0.0000
      9 ****         1.1966   1.0298  -0.2498 C.ar           1 S1                 0.0000
     10 ****         1.3504   1.1530  -1.6453 C.ar           1 S1                 0.0000
     11 ****         1.7368   0.0158  -2.3800 C.ar           1 S1                 0.0000
     12 ****         1.9683  -1.1880  -1.8144 N.ar           1 S1                 0.0000
     13 ****         1.8192  -1.3065  -0.4730 C.ar           1 S1                 0.0000
     14 ****         2.0693  -2.5526   0.1194 N.3            1 S1                 0.0000
     15 ****         3.4849  -2.8988   0.1378 C.3            1 S1                 0.0000
     16 ****         3.6975  -4.2089   0.9161 C.3            1 S1                 0.0000
     17 ****         2.8929  -5.2392   0.3491 O.3            1 S1                 0.0000
     18 ****         1.5042  -4.9243   0.4026 C.3            1 S1                 0.0000
     19 ****         1.2373  -3.6348  -0.3930 C.3            1 S1                 0.0000
     20 ****         1.4349  -0.2249   0.3474 C.ar           1 S1                 0.0000
     21 ****        -4.8282   2.0109  -0.8735 H              1 S1                 0.0000
     22 ****        -3.3731   1.0792  -1.1956 H              1 S1                 0.0000
     23 ****        -3.6060   2.6479  -1.9594 H              1 S1                 0.0000
     24 ****        -3.4412   4.8010  -0.5720 H              1 S1                 0.0000
     25 ****        -3.1428   4.7170   1.1608 H              1 S1                 0.0000
     26 ****        -4.6851   4.1881   0.5043 H              1 S1                 0.0000
     27 ****        -4.4478   1.9156   1.6249 H              1 S1                 0.0000
     28 ****        -2.9234   2.4147   2.3321 H              1 S1                 0.0000
     29 ****        -3.0160   0.9332   1.3771 H              1 S1                 0.0000
     30 ****        -1.0821   1.8146   1.5506 H              1 S1                 0.0000
     31 ****         1.1434   3.1401   0.1596 H              1 S1                 0.0000
     32 ****         1.2036   2.1333   1.5829 H              1 S1                 0.0000
     33 ****         1.1702   2.0941  -2.1440 H              1 S1                 0.0000
     34 ****         1.8615   0.0740  -3.4510 H              1 S1                 0.0000
     35 ****         3.8485  -3.0122  -0.8846 H              1 S1                 0.0000
     36 ****         4.0582  -2.0926   0.5972 H              1 S1                 0.0000
     37 ****         4.7443  -4.5084   0.8682 H              1 S1                 0.0000
     38 ****         3.4506  -4.0797   1.9711 H              1 S1                 0.0000
     39 ****         0.9354  -5.7522  -0.0208 H              1 S1                 0.0000
     40 ****         1.1850  -4.8155   1.4405 H              1 S1                 0.0000
     41 ****         0.1849  -3.3584  -0.3174 H              1 S1                 0.0000
     42 ****         1.4534  -3.8027  -1.4491 H              1 S1                 0.0000
     43 ****         1.3228  -0.3562   1.4140 H              1 S1                 0.0000
     44 ****        -1.8051   3.8509  -1.7632 LP             1 S1                 0.0000
     45 ****        -0.1661   3.4934  -1.3320 LP             1 S1                 0.0000
     46 ****         2.2427  -1.9720  -2.3712 LP             1 S1                 0.0000
     47 ****         1.7908  -2.4385   1.0730 LP             1 S1                 0.0000
     48 ****         3.0511  -6.0872   0.8548 LP             1 S1                 0.0000
     49 ****         3.1582  -5.3666  -0.6067 LP             1 S1                 0.0000
@<TRIPOS>BOND
    1    1    2 1     
    2    1   21 1     
    3    1   22 1     
    4    1   23 1     
    5    2    3 1     
    6    2    4 1     
    7    2    5 1     
    8    3   24 1     
    9    3   25 1     
   10    3   26 1     
   11    4   27 1     
   12    4   28 1     
   13    4   29 1     
   14    5    6 2     
   15    5    7 am    
   16    7    8 1     
   17    7   30 1     
   18    8    9 1     
   19    8   31 1     
   20    8   32 1     
   21    9   20 ar    
   22    9   10 ar    
   23   10   11 ar    
   24   10   33 1     
   25   11   12 ar    
   26   11   34 1     
   27   12   13 ar    
   28   13   14 1     
   29   13   20 ar    
   30   14   19 1     
   31   14   15 1     
   32   15   16 1     
   33   15   35 1     
   34   15   36 1     
   35   16   17 1     
   36   16   37 1     
   37   16   38 1     
   38   17   18 1     
   39   18   19 1     
   40   18   39 1     
   41   18   40 1     
   42   19   41 1     
   43   19   42 1     
   44   20   43 1     
   45    6   44 1     
   46    6   45 1     
   47   12   46 1     
   48   14   47 1     
   49   17   48 1     
   50   17   49 1     
@<TRIPOS>SUBSTRUCTURE
      1 S1             1
@<TRIPOS>SET
LONE_PAIRS      STATIC     ATOMS    <user>   **** ""
6 44 45 46 47 48 49
DONOR_HYDROGENS      STATIC     ATOMS    <user>   **** ""
1 30
ATOM$BLUE        STATIC     ATOMS    COLORGROUP SYSTEM
6 44 45 46 47 48 49
ATOM$RED        STATIC     ATOMS    COLORGROUP SYSTEM
1 30
