AV-unprocessed.smi:533|AV-procd|sdf|2855|dock1
  -GOLD-   2262023343D 1   1.00000     0.00000
 Structure written by MMmdl.
 35 36  0  0  0  0  0  0  0  0  2 V2000
  152.2536  144.4422  158.5405 C   0  0  0  0  0  0  0  0  0  0  0  0
  150.8116  143.9272  158.5444 C   0  0  0  0  0  0  0  0  0  0  0  0
  150.5534  143.0545  157.4158 N   0  0  0  0  0  0  0  0  0  0  0  0
  151.0095  141.7784  157.1091 C   0  0  0  0  0  0  0  0  0  0  0  0
  151.8453  141.0728  157.8723 N   0  0  0  0  0  0  0  0  0  0  0  0
  151.9988  139.9012  157.1443 C   0  0  0  0  0  0  0  0  0  0  0  0
  151.2737  139.9310  155.9935 C   0  0  0  0  0  0  0  0  0  0  0  0
  151.2508  138.8280  155.0082 C   0  0  0  0  0  0  0  0  0  0  0  0
  150.5871  138.9088  153.9768 O   0  0  0  0  0  0  0  0  0  0  0  0
  152.0346  137.7728  155.3978 N   0  5  0  0  0  0  0  0  0  0  0  0
  152.7807  137.6983  156.5549 C   0  0  0  0  0  0  0  0  0  0  0  0
  153.4572  136.7048  156.8211 O   0  0  0  0  0  0  0  0  0  0  0  0
  152.7762  138.7492  157.4368 N   0  0  0  0  0  0  0  0  0  0  0  0
  153.5419  138.7478  158.6872 C   0  0  0  0  0  0  0  0  0  0  0  0
  150.6129  141.1630  155.9677 N   0  0  0  0  0  0  0  0  0  0  0  0
  149.7061  141.6948  154.9530 C   0  0  0  0  0  0  0  0  0  0  0  0
  148.5588  140.7249  154.6335 C   0  0  0  0  0  0  0  0  0  0  0  0
  147.7251  141.2723  153.6255 O   0  0  0  0  0  0  0  0  0  0  0  0
  146.9315  142.3463  154.0958 C   0  0  0  0  0  0  0  0  0  0  0  0
  152.4317  145.0976  159.3933 H   0  0  0  0  0  0  0  0  0  0  0  0
  152.4667  145.0108  157.6349 H   0  0  0  0  0  0  0  0  0  0  0  0
  152.9672  143.6196  158.5988 H   0  0  0  0  0  0  0  0  0  0  0  0
  150.6100  143.3800  159.4658 H   0  0  0  0  0  0  0  0  0  0  0  0
  150.1140  144.7646  158.5093 H   0  0  0  0  0  0  0  0  0  0  0  0
  149.9333  143.4536  156.7263 H   0  0  0  0  0  0  0  0  0  0  0  0
  154.1060  137.8329  158.8699 H   0  0  0  0  0  0  0  0  0  0  0  0
  152.8693  138.8873  159.5342 H   0  0  0  0  0  0  0  0  0  0  0  0
  154.2540  139.5733  158.6860 H   0  0  0  0  0  0  0  0  0  0  0  0
  149.3162  142.6580  155.2769 H   0  0  0  0  0  0  0  0  0  0  0  0
  150.2737  141.9071  154.0468 H   0  0  0  0  0  0  0  0  0  0  0  0
  148.9671  139.7692  154.3020 H   0  0  0  0  0  0  0  0  0  0  0  0
  147.9731  140.5329  155.5340 H   0  0  0  0  0  0  0  0  0  0  0  0
  146.3104  142.7240  153.2836 H   0  0  0  0  0  0  0  0  0  0  0  0
  147.5527  143.1678  154.4548 H   0  0  0  0  0  0  0  0  0  0  0  0
  146.2719  142.0256  154.9031 H   0  0  0  0  0  0  0  0  0  0  0  0
  1  2  1  0  0  0  0
  1 20  1  0  0  0  0
  1 21  1  0  0  0  0
  1 22  1  0  0  0  0
  2  3  1  0  0  0  0
  2 23  1  0  0  0  0
  2 24  1  0  0  0  0
  3  4  1  0  0  0  0
  3 25  1  0  0  0  0
  4 15  1  0  0  0  0
  4  5  2  0  0  0  0
  5  6  1  0  0  0  0
  6 13  1  0  0  0  0
  6  7  2  0  0  0  0
  7  8  1  0  0  0  0
  7 15  1  0  0  0  0
  8  9  2  0  0  0  0
  8 10  1  0  0  0  0
 10 11  1  0  0  0  0
 11 12  2  0  0  0  0
 11 13  1  0  0  0  0
 13 14  1  0  0  0  0
 14 26  1  0  0  0  0
 14 27  1  0  0  0  0
 14 28  1  0  0  0  0
 15 16  1  0  0  0  0
 16 17  1  0  0  0  0
 16 29  1  0  0  0  0
 16 30  1  0  0  0  0
 17 18  1  0  0  0  0
 17 31  1  0  0  0  0
 17 32  1  0  0  0  0
 18 19  1  0  0  0  0
 19 33  1  0  0  0  0
 19 34  1  0  0  0  0
 19 35  1  0  0  0  0
M  CHG  1  10  -1
M  END
> <s_m_source_file>
AV-unprocessed.smi

> <i_m_source_file_index>
533

> <i_lp_mmshare_version>
43012

> <i_f3d_flags>
0

> <s_epik_input>
W0NIM11bQ0gyXVtOSF1jKG4xKW4oW0NIMl1bQ0gyXU9bQ0gzXSljKGMxMiljKD1PKVtuSF1jKD1PKW4yW0NIM10=

> <s_epik_cmdline>
J2VwaWtfcHl0aG9uJywgJy1waCcsICc3LjAnLCAnLXRuJywgJzgnLCAnLW1hJywgJzIwMCcsICctbWV0YWxfYmluZGluZycsICctaW1hZScsICc8aW5maWxlLm1hZT4nLCAnLW9tYWUnLCAnPG91dGZpbGUubWFlPic=

> <r_lp_tautomer_probability>
1

> <r_epik_Ionization_Penalty>
5.85583

> <r_epik_Ionization_Penalty_Charging>
1.37787e-08

> <r_epik_Ionization_Penalty_Neutral>
5.85583

> <r_epik_State_Penalty>
5.8557

> <r_epik_Charging_Adjusted_Penalty>
5.8557

> <i_epik_Tot_Q>
-1

> <i_epik_Tot_abs_Q>
1

> <r_epik_Metal_State_Penalty>
1.82051

> <b_epik_Metal_Only>
1

> <s_lp_Force_Field>
OPLS_2005

> <r_lp_Energy>
24.2596

> <b_lp_Chiralities_Consistent>
1

> <s_lp_Variant>
AV-unprocessed.smi:533-2

> <Gold.Version>
5.8.1

> <Gold.Id.Protein>
6NUR|6NUR_protein|mol2

> <Gold.PLP.Fitness>
39.6897

> <Gold.PLP.PLP>
-33.4212

> <Gold.PLP.part.hbond>
-2.5186

> <Gold.PLP.part.metal>
0.0000

> <Gold.PLP.part.buried>
-2.4729

> <Gold.PLP.part.nonpolar>
-28.5413

> <Gold.PLP.part.repulsive>
0.4328

> <Gold.PLP.ligand.clash>
0.0000

> <Gold.PLP.ligand.torsion>
0.1360

> <Gold.PLP.Chemscore.Hbond>
2.1794

> <Gold.PLP.Chemscore.CHOScore>
0.0000

> <Gold.PLP.Chemscore.Metal>
0.0000

> <Gold.Chemscore.Hbonds>
donor molecule, donor type, donor heavy atom, donor atom, acceptor molecule, acceptor atom, score
      L1  H     3    25       P1  8028  1.00
      P1  H  7989  7998       L1     9  0.21
      P1  H 10752 10765       L1    12  0.96

> <Gold.PLP.Chemscore.Internal.Correction>
0.0023

> <Gold.Rescore>
     Score         DG    S(hbond)    S(metal)    S(lipo)     H(rot)  DE(clash)    DE(int)     intcor
     13.59     -13.74       1.87        0.00      57.29       1.83       0.07       0.08       ----

> <Gold.Chemscore.Fitness>
13.5877

> <Gold.Chemscore.DG>
-13.7350

> <Gold.Chemscore.ZeroCoef>
-5.4800

> <Gold.Chemscore.Hbond>
1.8707

> <Gold.Chemscore.Metal>
0.0000

> <Gold.Chemscore.Lipo>
57.2863

> <Gold.Chemscore.Internal_Hbond>
0.0000

> <Gold.Chemscore.DEClash>
0.0664

> <Gold.Chemscore.DEInternal>
0.0810

> <Gold.Chemscore.Rot>
1.8342

> <Gold.Chemscore.Internal.Correction>
   9.000000E+99

> <Gold.Chemscore.Hbonds>
donor molecule, donor type, donor heavy atom, donor atom, acceptor molecule, acceptor atom, score
      L1  H     3    25       P1  8028  0.99
      P1  H  7989  7998       L1     9  0.01
      P1  H 10752 10765       L1    12  0.84

> <Gold.Chemscore.Hbond.Weighted>
-6.2482

> <Gold.Chemscore.Metal.Weighted>
-0.0000

> <Gold.Chemscore.Lipo.Weighted>
-6.7025

> <Gold.Chemscore.Internal_Hbond.Weighted>
0.0000

> <Gold.Chemscore.DEClash.Weighted>
0.0664

> <Gold.Chemscore.DEInternal.Weighted>
0.0810

> <Gold.Chemscore.Rot.Weighted>
4.6957

> <Gold.Chemscore.Internal.Correction.Weighted>
   9.000000E+99

> <Gold.Protein.RotatedTorsions>
[ 6907 6896 6895 6894 ] final   45.61 input  -60.11 | X-H torsion
[ 7974 7965 7964 7962 ] final  -50.96 input  175.53 | X-H torsion
[ 8008 7997 7996 7995 ] final -131.97 input   59.86 | X-H torsion
[ 10167 10162 10161 10158 ] final -105.29 input  -65.29 | X-H torsion
[ 10718 10713 10712 10709 ] final  115.61 input   66.30 | X-H torsion
[ 10763 10752 10751 10750 ] final -115.64 input  -60.55 | X-H torsion
[ 11005 11000 10999 10996 ] final  106.29 input  -57.11 | X-H torsion

> <Gold.Protein.ActiveResidues>
 VAL166  LYS551  ARG553  GLY616  TRP617  ASP618  TYR619  PRO620  LYS621  CYS622 
 ASP623  PHE694  ASN695  SER759  ASP760  ASP761  ALA762  ILE779  LEU786  VAL792 
 PHE793  MET794  SER795  GLU796  ALA797  LYS798  CYS799  TRP800  GLU811  SER814 

> <Gold.Protein.RotatedAtoms>
  152.2466  134.8175  160.0452 H   0  0  0  0  0  0  0  0  0  0  0  0  # atno 6907 bound_to 6896
  151.8870  133.3502  159.3794 H   0  0  0  0  0  0  0  0  0  0  0  0  # atno 6908 bound_to 6896
  150.7070  134.4888  159.5550 H   0  0  0  0  0  0  0  0  0  0  0  0  # atno 6909 bound_to 6896
  145.9242  140.7807  142.9632 H   0  0  0  0  0  0  0  0  0  0  0  0  # atno 7974 bound_to 7965
  155.3212  140.0462  157.3039 H   0  0  0  0  0  0  0  0  0  0  0  0  # atno 8008 bound_to 7997
  154.5379  140.2278  155.8657 H   0  0  0  0  0  0  0  0  0  0  0  0  # atno 8009 bound_to 7997
  156.1852  140.3064  155.9232 H   0  0  0  0  0  0  0  0  0  0  0  0  # atno 8010 bound_to 7997
  140.2001  143.3825  152.1136 H   0  0  0  0  0  0  0  0  0  0  0  0  # atno 10167 bound_to 10162
  157.6211  131.1015  150.7355 H   0  0  0  0  0  0  0  0  0  0  0  0  # atno 10718 bound_to 10713
  154.8489  135.4374  154.1694 H   0  0  0  0  0  0  0  0  0  0  0  0  # atno 10763 bound_to 10752
  153.2811  135.6953  153.7390 H   0  0  0  0  0  0  0  0  0  0  0  0  # atno 10764 bound_to 10752
  153.6594  135.3437  155.3097 H   0  0  0  0  0  0  0  0  0  0  0  0  # atno 10765 bound_to 10752
  139.8812  134.9364  156.5643 H   0  0  0  0  0  0  0  0  0  0  0  0  # atno 11005 bound_to 11000
  144.6756  140.2023  143.7386 LP  0  0  0  0  0  0  0  0  0  0  0  0  # atno 17320 bound_to 7965
  145.8511  139.2176  143.1771 LP  0  0  0  0  0  0  0  0  0  0  0  0  # atno 17321 bound_to 7965
  139.5220  144.7054  151.5370 LP  0  0  0  0  0  0  0  0  0  0  0  0  # atno 17342 bound_to 10162
  140.6396  143.8915  150.6679 LP  0  0  0  0  0  0  0  0  0  0  0  0  # atno 17343 bound_to 10162
  156.7712  130.4829  149.5418 LP  0  0  0  0  0  0  0  0  0  0  0  0  # atno 17370 bound_to 10713
  156.1357  130.6209  151.0397 LP  0  0  0  0  0  0  0  0  0  0  0  0  # atno 17371 bound_to 10713
  140.8146  133.8402  155.8840 LP  0  0  0  0  0  0  0  0  0  0  0  0  # atno 17394 bound_to 11000
  140.9475  134.1822  157.4752 LP  0  0  0  0  0  0  0  0  0  0  0  0  # atno 17395 bound_to 11000

$$$$
