AV-unprocessed.smi:2780|AV-procd|sdf|10715|dock8
  -GOLD-   2272015153D 1   1.00000     0.00000
 Structure written by MMmdl.
 47 49  0  0  0  0  0  0  0  0  2 V2000
  145.9167  130.2290  152.2250 C   0  0  0  0  0  0  0  0  0  0  0  0
  145.4656  131.5257  151.5737 C   0  0  0  0  0  0  0  0  0  0  0  0
  144.6111  131.4882  150.5333 C   0  0  0  0  0  0  0  0  0  0  0  0
  144.0373  132.7114  149.8568 C   0  0  0  0  0  0  0  0  0  0  0  0
  144.1252  133.9360  150.7704 C   0  0  0  0  0  0  0  0  0  0  0  0
  145.5385  134.1021  151.3524 C   0  0  1  0  0  0  0  0  0  0  0  0
  145.5998  135.3971  152.1858 C   0  0  0  0  0  0  0  0  0  0  0  0
  145.9974  132.8493  152.1613 C   0  0  2  0  0  0  0  0  0  0  0  0
  147.5407  132.8541  152.3209 C   0  0  0  0  0  0  0  0  0  0  0  0
  148.0166  133.8864  153.2641 N   0  3  0  0  0  0  0  0  0  0  0  0
  149.1086  133.4369  154.1496 C   0  0  0  0  0  0  0  0  0  0  0  0
  150.1397  134.5513  154.3871 C   0  0  0  0  0  0  0  0  0  0  0  0
  150.1835  134.9793  155.7762 N   0  0  0  0  0  0  0  0  0  0  0  0
  149.6129  134.3985  156.8436 C   0  0  0  0  0  0  0  0  0  0  0  0
  149.7976  135.0349  157.9989 N   0  0  0  0  0  0  0  0  0  0  0  0
  150.5449  136.1466  157.6669 N   0  0  0  0  0  0  0  0  0  0  0  0
  150.7514  136.0620  156.3476 C   0  0  0  0  0  0  0  0  0  0  0  0
  151.4942  137.0918  155.5573 C   0  0  0  0  0  0  0  0  0  0  0  0
  151.1231  138.5546  155.6565 C   0  0  0  0  0  0  0  0  0  0  0  0
  150.8571  137.7995  154.3812 C   0  0  0  0  0  0  0  0  0  0  0  0
  145.7451  130.2637  153.3004 H   0  0  0  0  0  0  0  0  0  0  0  0
  146.9739  130.0430  152.0378 H   0  0  0  0  0  0  0  0  0  0  0  0
  145.3634  129.3749  151.8324 H   0  0  0  0  0  0  0  0  0  0  0  0
  144.2814  130.5373  150.1398 H   0  0  0  0  0  0  0  0  0  0  0  0
  144.5764  132.8810  148.9243 H   0  0  0  0  0  0  0  0  0  0  0  0
  142.9958  132.5209  149.5959 H   0  0  0  0  0  0  0  0  0  0  0  0
  143.8345  134.8256  150.2102 H   0  0  0  0  0  0  0  0  0  0  0  0
  143.4055  133.8354  151.5841 H   0  0  0  0  0  0  0  0  0  0  0  0
  146.2147  134.2226  150.5042 H   0  0  0  0  0  0  0  0  0  0  0  0
  144.9489  135.3361  153.0587 H   0  0  0  0  0  0  0  0  0  0  0  0
  145.2758  136.2552  151.5957 H   0  0  0  0  0  0  0  0  0  0  0  0
  146.6053  135.6198  152.5386 H   0  0  0  0  0  0  0  0  0  0  0  0
  145.5503  132.9262  153.1538 H   0  0  0  0  0  0  0  0  0  0  0  0
  147.8784  131.8701  152.6494 H   0  0  0  0  0  0  0  0  0  0  0  0
  148.0360  133.0439  151.3700 H   0  0  0  0  0  0  0  0  0  0  0  0
  148.3373  134.6828  152.7319 H   0  0  0  0  0  0  0  0  0  0  0  0
  148.6794  133.1313  155.1046 H   0  0  0  0  0  0  0  0  0  0  0  0
  149.5913  132.5565  153.7228 H   0  0  0  0  0  0  0  0  0  0  0  0
  151.1312  134.2305  154.0670 H   0  0  0  0  0  0  0  0  0  0  0  0
  149.8856  135.4212  153.7804 H   0  0  0  0  0  0  0  0  0  0  0  0
  149.0423  133.4838  156.7742 H   0  0  0  0  0  0  0  0  0  0  0  0
  152.5491  136.8344  155.4827 H   0  0  0  0  0  0  0  0  0  0  0  0
  150.2563  138.8230  156.2566 H   0  0  0  0  0  0  0  0  0  0  0  0
  151.9338  139.2801  155.6535 H   0  0  0  0  0  0  0  0  0  0  0  0
  151.4916  138.0196  153.5251 H   0  0  0  0  0  0  0  0  0  0  0  0
  149.8206  137.5669  154.1447 H   0  0  0  0  0  0  0  0  0  0  0  0
  147.2381  134.1747  153.8394 H   0  0  0  0  0  0  0  0  0  0  0  0
  1  2  1  0  0  0  0
  1 21  1  0  0  0  0
  1 22  1  0  0  0  0
  1 23  1  0  0  0  0
  2  8  1  0  0  0  0
  2  3  2  0  0  0  0
  3  4  1  0  0  0  0
  3 24  1  0  0  0  0
  4  5  1  0  0  0  0
  4 25  1  0  0  0  0
  4 26  1  0  0  0  0
  5  6  1  0  0  0  0
  5 27  1  0  0  0  0
  5 28  1  0  0  0  0
  6  7  1  0  0  0  0
  6  8  1  0  0  0  0
  6 29  1  0  0  0  0
  7 30  1  0  0  0  0
  7 31  1  0  0  0  0
  7 32  1  0  0  0  0
  8  9  1  0  0  0  0
  8 33  1  0  0  0  0
  9 10  1  0  0  0  0
  9 34  1  0  0  0  0
  9 35  1  0  0  0  0
 10 11  1  0  0  0  0
 10 36  1  0  0  0  0
 10 47  1  0  0  0  0
 11 12  1  0  0  0  0
 11 37  1  0  0  0  0
 11 38  1  0  0  0  0
 12 13  1  0  0  0  0
 12 39  1  0  0  0  0
 12 40  1  0  0  0  0
 13 17  1  0  0  0  0
 13 14  1  0  0  0  0
 14 15  2  0  0  0  0
 14 41  1  0  0  0  0
 15 16  1  0  0  0  0
 16 17  2  0  0  0  0
 17 18  1  0  0  0  0
 18 20  1  0  0  0  0
 18 19  1  0  0  0  0
 18 42  1  0  0  0  0
 19 20  1  0  0  0  0
 19 43  1  0  0  0  0
 19 44  1  0  0  0  0
 20 45  1  0  0  0  0
 20 46  1  0  0  0  0
M  CHG  1  10   1
M  END
> <s_m_source_file>
AV-unprocessed.smi

> <i_m_source_file_index>
2780

> <i_lp_mmshare_version>
43012

> <i_f3d_flags>
0

> <s_epik_input>
W0NIM11DMT1bQ0hdW0NIMl1bQ0gyXVtDQEBIXShbQ0gzXSlbQ0BIXTFbQ0gyXVtOSF1bQ0gyXVtDSDJdbjJbY0hdbm5jMltDSF0zW0NIMl1bQ0gyXTM=

> <s_epik_cmdline>
J2VwaWtfcHl0aG9uJywgJy1waCcsICc3LjAnLCAnLXRuJywgJzgnLCAnLW1hJywgJzIwMCcsICctbWV0YWxfYmluZGluZycsICctaW1hZScsICc8aW5maWxlLm1hZT4nLCAnLW9tYWUnLCAnPG91dGZpbGUubWFlPic=

> <r_lp_tautomer_probability>
1

> <r_epik_Ionization_Penalty>
0.00176214

> <r_epik_Ionization_Penalty_Charging>
0.00175191

> <r_epik_Ionization_Penalty_Neutral>
1.02377e-05

> <r_epik_State_Penalty>
-0

> <r_epik_Charging_Adjusted_Penalty>
0.00175191

> <i_epik_Tot_Q>
1

> <i_epik_Tot_abs_Q>
1

> <r_epik_Metal_State_Penalty>
-0

> <b_epik_Metal_Only>
0

> <s_lp_Force_Field>
OPLS_2005

> <r_lp_Energy>
22.3616

> <b_lp_Chiralities_Consistent>
1

> <s_lp_Variant>
AV-unprocessed.smi:2780-3

> <Gold.Version>
5.8.1

> <Gold.Id.Protein>
6NUR|6NUR_protein|mol2

> <Gold.PLP.Fitness>
43.8704

> <Gold.PLP.PLP>
-37.0796

> <Gold.PLP.part.hbond>
-2.4417

> <Gold.PLP.part.metal>
0.0000

> <Gold.PLP.part.buried>
-5.2590

> <Gold.PLP.part.nonpolar>
-29.8129

> <Gold.PLP.part.repulsive>
0.0000

> <Gold.PLP.ligand.clash>
0.0000

> <Gold.PLP.ligand.torsion>
1.2413

> <Gold.PLP.Chemscore.Hbond>
3.0000

> <Gold.PLP.Chemscore.CHOScore>
0.0000

> <Gold.PLP.Chemscore.Metal>
0.0000

> <Gold.Chemscore.Hbonds>
donor molecule, donor type, donor heavy atom, donor atom, acceptor molecule, acceptor atom, score
      L1  H    10    36       P1  7948  2.00
      P1  H  6896  6908       L1    15  1.00

> <Gold.PLP.Chemscore.Internal.Correction>
0.2734

> <Gold.Rescore>
     Score         DG    S(hbond)    S(metal)    S(lipo)     H(rot)  DE(clash)    DE(int)     intcor
     14.95     -16.86       1.61        0.00      94.59       1.98       0.40       1.51       ----

> <Gold.Chemscore.Fitness>
14.9479

> <Gold.Chemscore.DG>
-16.8553

> <Gold.Chemscore.ZeroCoef>
-5.4800

> <Gold.Chemscore.Hbond>
1.6098

> <Gold.Chemscore.Metal>
0.0000

> <Gold.Chemscore.Lipo>
94.5904

> <Gold.Chemscore.Internal_Hbond>
0.0000

> <Gold.Chemscore.DEClash>
0.4008

> <Gold.Chemscore.DEInternal>
1.5067

> <Gold.Chemscore.Rot>
1.9799

> <Gold.Chemscore.Internal.Correction>
   9.000000E+99

> <Gold.Chemscore.Hbonds>
donor molecule, donor type, donor heavy atom, donor atom, acceptor molecule, acceptor atom, score
      L1  H    10    36       P1  7948  0.40
      P1  H  6896  6908       L1    15  0.42

> <Gold.Chemscore.Hbond.Weighted>
-5.3768

> <Gold.Chemscore.Metal.Weighted>
-0.0000

> <Gold.Chemscore.Lipo.Weighted>
-11.0671

> <Gold.Chemscore.Internal_Hbond.Weighted>
0.0000

> <Gold.Chemscore.DEClash.Weighted>
0.4008

> <Gold.Chemscore.DEInternal.Weighted>
1.5067

> <Gold.Chemscore.Rot.Weighted>
5.0685

> <Gold.Chemscore.Internal.Correction.Weighted>
   9.000000E+99

> <Gold.Protein.RotatedTorsions>
[ 6907 6896 6895 6894 ] final  154.66 input  -60.11 | X-H torsion
[ 7974 7965 7964 7962 ] final -178.70 input  175.53 | X-H torsion
[ 8008 7997 7996 7995 ] final  116.10 input   59.86 | X-H torsion
[ 10167 10162 10161 10158 ] final   37.88 input  -65.29 | X-H torsion
[ 10718 10713 10712 10709 ] final  175.15 input   66.30 | X-H torsion
[ 10763 10752 10751 10750 ] final   -9.42 input  -60.55 | X-H torsion
[ 11005 11000 10999 10996 ] final   97.72 input  -57.11 | X-H torsion

> <Gold.Protein.ActiveResidues>
 VAL166  LYS551  ARG553  GLY616  TRP617  ASP618  TYR619  PRO620  LYS621  CYS622 
 ASP623  PHE694  ASN695  SER759  ASP760  ASP761  ALA762  ILE779  LEU786  VAL792 
 PHE793  MET794  SER795  GLU796  ALA797  LYS798  CYS799  TRP800  GLU811  SER814 

> <Gold.Protein.RotatedAtoms>
  152.0553  133.4037  159.4394 H   0  0  0  0  0  0  0  0  0  0  0  0  # atno 6907 bound_to 6896
  150.6868  134.3261  159.4816 H   0  0  0  0  0  0  0  0  0  0  0  0  # atno 6908 bound_to 6896
  152.1076  134.9297  160.0618 H   0  0  0  0  0  0  0  0  0  0  0  0  # atno 6909 bound_to 6896
  144.7132  140.0828  143.6425 H   0  0  0  0  0  0  0  0  0  0  0  0  # atno 7974 bound_to 7965
  156.2420  140.2924  156.0470 H   0  0  0  0  0  0  0  0  0  0  0  0  # atno 8008 bound_to 7997
  155.1923  140.0407  157.2920 H   0  0  0  0  0  0  0  0  0  0  0  0  # atno 8009 bound_to 7997
  154.6186  140.2470  155.7585 H   0  0  0  0  0  0  0  0  0  0  0  0  # atno 8010 bound_to 7997
  140.3990  144.1749  150.6133 H   0  0  0  0  0  0  0  0  0  0  0  0  # atno 10167 bound_to 10162
  156.9391  130.9995  151.2972 H   0  0  0  0  0  0  0  0  0  0  0  0  # atno 10718 bound_to 10713
  153.4545  135.7015  153.6088 H   0  0  0  0  0  0  0  0  0  0  0  0  # atno 10763 bound_to 10752
  153.4409  135.3780  155.2227 H   0  0  0  0  0  0  0  0  0  0  0  0  # atno 10764 bound_to 10752
  154.8728  135.3973  154.3962 H   0  0  0  0  0  0  0  0  0  0  0  0  # atno 10765 bound_to 10752
  139.8775  134.9015  156.4350 H   0  0  0  0  0  0  0  0  0  0  0  0  # atno 11005 bound_to 11000
  145.9687  139.2854  143.1112 LP  0  0  0  0  0  0  0  0  0  0  0  0  # atno 17320 bound_to 7965
  145.9140  140.9160  143.0439 LP  0  0  0  0  0  0  0  0  0  0  0  0  # atno 17321 bound_to 7965
  140.4760  143.2396  151.9022 LP  0  0  0  0  0  0  0  0  0  0  0  0  # atno 17342 bound_to 10162
  139.4785  144.5320  151.8653 LP  0  0  0  0  0  0  0  0  0  0  0  0  # atno 17343 bound_to 10162
  157.5797  130.8367  149.8505 LP  0  0  0  0  0  0  0  0  0  0  0  0  # atno 17370 bound_to 10713
  156.0412  130.3738  150.1430 LP  0  0  0  0  0  0  0  0  0  0  0  0  # atno 17371 bound_to 10713
  140.9040  133.7759  155.9713 LP  0  0  0  0  0  0  0  0  0  0  0  0  # atno 17394 bound_to 11000
  140.8620  134.2830  157.5230 LP  0  0  0  0  0  0  0  0  0  0  0  0  # atno 17395 bound_to 11000

$$$$
