#       Name:                AV-unprocessed.smi:2186
#       Creating user name   scv26
#       Creation time:       Fri Mar 27 12:07:44 2020


#       File generated by GOLD software.
#

@<TRIPOS>MOLECULE
AV-unprocessed.smi:2186
    49    50     1
SMALL
NO_CHARGES


@<TRIPOS>ATOM
      1 ****        -3.6182   0.0290  -3.4980 C.3            1 S1                 0.0000
      2 ****        -3.3916  -0.5665  -2.1011 C.3            1 S1                 0.0000
      3 ****        -3.0718   0.4950  -1.0376 C.3            1 S1                 0.0000
      4 ****        -2.3755  -1.6643  -2.1139 C.2            1 S1                 0.0000
      5 ****        -1.0915  -1.4779  -2.4309 N.2            1 S1                 0.0000
      6 ****        -0.3280  -2.6464  -2.3243 C.2            1 S1                 0.0000
      7 ****         1.1516  -2.6144  -2.5979 C.3            1 S1                 0.0000
      8 ****         1.8550  -1.6167  -1.6717 C.2            1 S1                 0.0000
      9 ****         2.5139  -0.6925  -2.1478 O.2            1 S1                 0.0000
     10 ****         1.6852  -1.7955  -0.3516 N.am           1 S1                 0.0000
     11 ****         2.1246  -0.8639   0.6785 C.3            1 S1                 0.0000
     12 ****         1.1183   0.2941   0.8272 C.3            1 S1                 0.0000
     13 ****         1.5429   1.2999   1.8320 N.4            1 S1                 1.0000
     14 ****         0.8338   2.5912   1.6638 C.3            1 S1                 0.0000
     15 ****         1.3351   3.6209   2.6900 C.3            1 S1                 0.0000
     16 ****         1.1546   3.1075   4.0035 O.3            1 S1                 0.0000
     17 ****         1.9002   1.9152   4.2138 C.3            1 S1                 0.0000
     18 ****         1.4285   0.8264   3.2342 C.3            1 S1                 0.0000
     19 ****        -1.0700  -3.7389  -1.9484 C.2            1 S1                 0.0000
     20 ****        -2.7449  -3.3322  -1.6914 S.3            1 S1                 0.0000
     21 ****        -3.9183  -0.7419  -4.2087 H              1 S1                 0.0000
     22 ****        -2.7123   0.5001  -3.8806 H              1 S1                 0.0000
     23 ****        -4.4033   0.7852  -3.4800 H              1 S1                 0.0000
     24 ****        -4.3360  -1.0249  -1.8050 H              1 S1                 0.0000
     25 ****        -2.9995   0.0473  -0.0459 H              1 S1                 0.0000
     26 ****        -3.8479   1.2597  -1.0000 H              1 S1                 0.0000
     27 ****        -2.1247   0.9937  -1.2471 H              1 S1                 0.0000
     28 ****         1.5956  -3.5998  -2.4521 H              1 S1                 0.0000
     29 ****         1.3386  -2.3412  -3.6372 H              1 S1                 0.0000
     30 ****         1.1380  -2.5886  -0.0488 H              1 S1                 0.0000
     31 ****         2.2120  -1.4264   1.6072 H              1 S1                 0.0000
     32 ****         3.1210  -0.4838   0.4468 H              1 S1                 0.0000
     33 ****         1.0184   0.7901  -0.1396 H              1 S1                 0.0000
     34 ****         0.1268  -0.0860   1.0795 H              1 S1                 0.0000
     35 ****         0.9926   2.9740   0.6549 H              1 S1                 0.0000
     36 ****        -0.2399   2.4377   1.7836 H              1 S1                 0.0000
     37 ****         2.3857   3.8628   2.5202 H              1 S1                 0.0000
     38 ****         0.7747   4.5510   2.5940 H              1 S1                 0.0000
     39 ****         2.9668   2.1127   4.0946 H              1 S1                 0.0000
     40 ****         1.7512   1.5842   5.2418 H              1 S1                 0.0000
     41 ****         0.3920   0.5601   3.4470 H              1 S1                 0.0000
     42 ****         2.0273  -0.0708   3.3853 H              1 S1                 0.0000
     43 ****        -0.7327  -4.7539  -1.7985 H              1 S1                 0.0000
     44 ****         2.5201   1.4882   1.6590 H              1 S1                 0.0000
     45 ****        -0.7150  -0.5960  -2.7146 LP             1 S1                 0.0000
     46 ****         2.5906  -0.5923  -3.1398 LP             1 S1                 0.0000
     47 ****         2.9726  -0.0419  -1.5426 LP             1 S1                 0.0000
     48 ****         0.1842   2.9108   4.1432 LP             1 S1                 0.0000
     49 ****         1.4535   3.7965   4.6638 LP             1 S1                 0.0000
@<TRIPOS>BOND
    1    1    2 1     
    2    1   21 1     
    3    1   22 1     
    4    1   23 1     
    5    2    3 1     
    6    2    4 1     
    7    2   24 1     
    8    3   25 1     
    9    3   26 1     
   10    3   27 1     
   11    4   20 1     
   12    4    5 2     
   13    5    6 1     
   14    6    7 1     
   15    6   19 2     
   16    7    8 1     
   17    7   28 1     
   18    7   29 1     
   19    8    9 2     
   20    8   10 am    
   21   10   11 1     
   22   10   30 1     
   23   11   12 1     
   24   11   31 1     
   25   11   32 1     
   26   12   13 1     
   27   12   33 1     
   28   12   34 1     
   29   13   18 1     
   30   13   14 1     
   31   13   44 1     
   32   14   15 1     
   33   14   35 1     
   34   14   36 1     
   35   15   16 1     
   36   15   37 1     
   37   15   38 1     
   38   16   17 1     
   39   17   18 1     
   40   17   39 1     
   41   17   40 1     
   42   18   41 1     
   43   18   42 1     
   44   19   20 1     
   45   19   43 1     
   46    5   45 1     
   47    9   46 1     
   48    9   47 1     
   49   16   48 1     
   50   16   49 1     
@<TRIPOS>SUBSTRUCTURE
      1 S1             1
@<TRIPOS>SET
LONE_PAIRS      STATIC     ATOMS    <user>   **** ""
5 45 46 47 48 49
DONOR_HYDROGENS      STATIC     ATOMS    <user>   **** ""
2 30 44
ATOM$BLUE        STATIC     ATOMS    COLORGROUP SYSTEM
5 45 46 47 48 49
ATOM$RED        STATIC     ATOMS    COLORGROUP SYSTEM
2 30 44
