#       Name:                AV-unprocessed.smi:2121
#       Creating user name   scv26
#       Creation time:       Fri Mar 27 11:39:00 2020


#       File generated by GOLD software.
#

@<TRIPOS>MOLECULE
AV-unprocessed.smi:2121
    57    58     1
SMALL
NO_CHARGES


@<TRIPOS>ATOM
      1 ****        -5.5161  -0.8358  -1.2300 C.3            1 S1                 0.0000
      2 ****        -4.8834   0.0672  -0.1660 C.3            1 S1                 0.0000
      3 ****        -3.3541  -0.1043  -0.0974 C.3            1 S1                 0.0000
      4 ****        -2.8012   0.6813   1.0026 N.3            1 S1                 0.0000
      5 ****        -1.3974   0.8307   0.9991 C.ar           1 S1                 0.0000
      6 ****        -0.7367   1.3145  -0.1549 C.ar           1 S1                 0.0000
      7 ****         0.6644   1.4496  -0.1391 C.ar           1 S1                 0.0000
      8 ****         1.3737   1.0957   1.0277 C.ar           1 S1                 0.0000
      9 ****         2.8886   1.2145   1.1207 C.3            1 S1                 0.0000
     10 ****         3.5867   0.9934  -0.1415 N.am           1 S1                 0.0000
     11 ****         3.7789  -0.2054  -0.7125 C.2            1 S1                 0.0000
     12 ****         3.3768  -1.2601  -0.2180 O.2            1 S1                 0.0000
     13 ****         4.5155  -0.2018  -2.0614 C.3            1 S1                 0.0000
     14 ****         3.4610  -0.2788  -3.1782 C.3            1 S1                 0.0000
     15 ****         5.3879  -1.3693  -2.1787 N.am           1 S1                 0.0000
     16 ****         6.6136  -1.4707  -1.6441 C.2            1 S1                 0.0000
     17 ****         7.1772  -2.6540  -1.8879 N.am           1 S1                 0.0000
     18 ****         7.1685  -0.5836  -0.9986 O.2            1 S1                 0.0000
     19 ****         0.6306   0.6365   2.1331 C.ar           1 S1                 0.0000
     20 ****        -0.7127   0.5070   2.1241 N.ar           1 S1                 0.0000
     21 ****        -3.4597   0.4243   2.2815 C.3            1 S1                 0.0000
     22 ****        -4.9851   0.5836   2.1435 C.3            1 S1                 0.0000
     23 ****        -5.7218   0.2077   3.4332 C.3            1 S1                 0.0000
     24 ****        -5.4507  -0.2655   1.0982 O.3            1 S1                 0.0000
     25 ****        -5.1206  -0.6110  -2.2208 H              1 S1                 0.0000
     26 ****        -6.5970  -0.6983  -1.2649 H              1 S1                 0.0000
     27 ****        -5.3205  -1.8880  -1.0218 H              1 S1                 0.0000
     28 ****        -5.1256   1.1046  -0.4045 H              1 S1                 0.0000
     29 ****        -3.1001  -1.1534   0.0612 H              1 S1                 0.0000
     30 ****        -2.9216   0.1838  -1.0544 H              1 S1                 0.0000
     31 ****        -1.2856   1.5952  -1.0413 H              1 S1                 0.0000
     32 ****         1.1785   1.8226  -1.0127 H              1 S1                 0.0000
     33 ****         3.1313   2.2173   1.4723 H              1 S1                 0.0000
     34 ****         3.2690   0.5225   1.8742 H              1 S1                 0.0000
     35 ****         3.9483   1.8091  -0.6145 H              1 S1                 0.0000
     36 ****         5.1005   0.7135  -2.1712 H              1 S1                 0.0000
     37 ****         2.7823   0.5744  -3.1415 H              1 S1                 0.0000
     38 ****         2.8586  -1.1860  -3.1076 H              1 S1                 0.0000
     39 ****         3.9339  -0.2738  -4.1607 H              1 S1                 0.0000
     40 ****         5.0207  -2.1608  -2.6859 H              1 S1                 0.0000
     41 ****         8.1028  -2.8579  -1.5412 H              1 S1                 0.0000
     42 ****         6.6713  -3.3443  -2.4239 H              1 S1                 0.0000
     43 ****         1.1259   0.3624   3.0527 H              1 S1                 0.0000
     44 ****        -3.2147  -0.5852   2.6149 H              1 S1                 0.0000
     45 ****        -3.0912   1.1175   3.0389 H              1 S1                 0.0000
     46 ****        -5.2254   1.6195   1.8971 H              1 S1                 0.0000
     47 ****        -5.4074   0.8409   4.2632 H              1 S1                 0.0000
     48 ****        -5.5286  -0.8289   3.7104 H              1 S1                 0.0000
     49 ****        -6.7991   0.3256   3.3148 H              1 S1                 0.0000
     50 ****        -3.0588   1.6294   0.8162 LP             1 S1                 0.0000
     51 ****         2.8807  -1.2481   0.6502 LP             1 S1                 0.0000
     52 ****         3.5466  -2.1280  -0.6849 LP             1 S1                 0.0000
     53 ****         6.7022   0.2871  -0.8421 LP             1 S1                 0.0000
     54 ****         8.0860  -0.7328  -0.6301 LP             1 S1                 0.0000
     55 ****        -1.1961   0.1772   2.9350 LP             1 S1                 0.0000
     56 ****        -5.2088  -1.2101   1.3201 LP             1 S1                 0.0000
     57 ****        -6.4453  -0.1821   1.0358 LP             1 S1                 0.0000
@<TRIPOS>BOND
    1    1    2 1     
    2    1   25 1     
    3    1   26 1     
    4    1   27 1     
    5    2   24 1     
    6    2    3 1     
    7    2   28 1     
    8    3    4 1     
    9    3   29 1     
   10    3   30 1     
   11    4    5 1     
   12    4   21 1     
   13    5   20 ar    
   14    5    6 ar    
   15    6    7 ar    
   16    6   31 1     
   17    7    8 ar    
   18    7   32 1     
   19    8    9 1     
   20    8   19 ar    
   21    9   10 1     
   22    9   33 1     
   23    9   34 1     
   24   10   11 am    
   25   10   35 1     
   26   11   12 2     
   27   11   13 1     
   28   13   14 1     
   29   13   15 1     
   30   13   36 1     
   31   14   37 1     
   32   14   38 1     
   33   14   39 1     
   34   15   16 am    
   35   15   40 1     
   36   16   17 am    
   37   16   18 2     
   38   17   41 1     
   39   17   42 1     
   40   19   20 ar    
   41   19   43 1     
   42   21   22 1     
   43   21   44 1     
   44   21   45 1     
   45   22   23 1     
   46   22   24 1     
   47   22   46 1     
   48   23   47 1     
   49   23   48 1     
   50   23   49 1     
   51    4   50 1     
   52   12   51 1     
   53   12   52 1     
   54   18   53 1     
   55   18   54 1     
   56   20   55 1     
   57   24   56 1     
   58   24   57 1     
@<TRIPOS>SUBSTRUCTURE
      1 S1             1
@<TRIPOS>SET
LONE_PAIRS      STATIC     ATOMS    <user>   **** ""
8 50 51 52 53 54 55 56 57
DONOR_HYDROGENS      STATIC     ATOMS    <user>   **** ""
4 35 40 41 42
ATOM$BLUE        STATIC     ATOMS    COLORGROUP SYSTEM
8 50 51 52 53 54 55 56 57
ATOM$RED        STATIC     ATOMS    COLORGROUP SYSTEM
4 35 40 41 42
