#       Name:                AV-unprocessed.smi:2740
#       Creating user name   scv26
#       Creation time:       Fri Mar 27 15:00:52 2020


#       File generated by GOLD software.
#

@<TRIPOS>MOLECULE
AV-unprocessed.smi:2740
    36    37     1
SMALL
NO_CHARGES


@<TRIPOS>ATOM
      1 ****        -5.7697   2.2945   0.0287 C.3            1 S1                 0.0000
      2 ****        -4.5180   1.9141   0.7445 C.2            1 S1                 0.0000
      3 ****        -4.3952   1.4771   2.0379 C.2            1 S1                 0.0000
      4 ****        -3.0806   1.1974   2.4140 N.2            1 S1                 0.0000
      5 ****        -2.1933   1.4008   1.4344 C.2            1 S1                 0.0000
      6 ****        -0.8750   1.1925   1.5849 N.pl3          1 S1                -1.0000
      7 ****        -0.3159   0.0487   1.1277 C.2            1 S1                 0.0000
      8 ****        -0.9022  -0.8720   0.5534 O.2            1 S1                 0.0000
      9 ****         1.0041  -0.0344   1.3480 N.am           1 S1                 0.0000
     10 ****         1.8627  -1.1504   0.9658 C.3            1 S1                 0.0000
     11 ****         2.2685  -1.0734  -0.5154 C.3            1 S1                 0.0000
     12 ****         3.0861  -2.2727  -0.9935 C.3            1 S1                 0.0000
     13 ****         3.9288  -1.7107  -2.1297 C.3            1 S1                 0.0000
     14 ****         3.7426  -0.1950  -2.0209 C.3            1 S1                 0.0000
     15 ****         3.1582   0.0086  -0.7433 O.3            1 S1                 0.0000
     16 ****        -2.9636   1.9882  -0.0412 S.3            1 S1                 0.0000
     17 ****        -6.4377   1.4377  -0.0599 H              1 S1                 0.0000
     18 ****        -5.5552   2.6591  -0.9761 H              1 S1                 0.0000
     19 ****        -6.2987   3.0813   0.5664 H              1 S1                 0.0000
     20 ****        -5.1865   1.3362   2.7590 H              1 S1                 0.0000
     21 ****         1.4464   0.7424   1.8169 H              1 S1                 0.0000
     22 ****         2.7492  -1.1382   1.6002 H              1 S1                 0.0000
     23 ****         1.3519  -2.0932   1.1685 H              1 S1                 0.0000
     24 ****         1.3904  -0.9537  -1.1530 H              1 S1                 0.0000
     25 ****         3.7407  -2.6273  -0.1962 H              1 S1                 0.0000
     26 ****         2.4557  -3.1060  -1.3049 H              1 S1                 0.0000
     27 ****         4.9748  -1.9934  -2.0061 H              1 S1                 0.0000
     28 ****         3.5949  -2.0745  -3.1019 H              1 S1                 0.0000
     29 ****         4.6804   0.3521  -2.1202 H              1 S1                 0.0000
     30 ****         3.0559   0.1635  -2.7892 H              1 S1                 0.0000
     31 ****        -2.8271   0.8764   3.3265 LP             1 S1                 0.0000
     32 ****        -0.3074   1.8822   2.0345 LP             1 S1                 0.0000
     33 ****        -1.8865  -0.8115   0.3876 LP             1 S1                 0.0000
     34 ****        -0.3933  -1.6789   0.2537 LP             1 S1                 0.0000
     35 ****         3.8684   0.0231  -0.0394 LP             1 S1                 0.0000
     36 ****         2.6571   0.8739  -0.7290 LP             1 S1                 0.0000
@<TRIPOS>BOND
    1    1    2 1     
    2    1   17 1     
    3    1   18 1     
    4    1   19 1     
    5    2   16 1     
    6    2    3 2     
    7    3    4 1     
    8    3   20 1     
    9    4    5 2     
   10    5    6 1     
   11    5   16 1     
   12    6    7 1     
   13    7    8 2     
   14    7    9 am    
   15    9   10 1     
   16    9   21 1     
   17   10   11 1     
   18   10   22 1     
   19   10   23 1     
   20   11   15 1     
   21   11   12 1     
   22   11   24 1     
   23   12   13 1     
   24   12   25 1     
   25   12   26 1     
   26   13   14 1     
   27   13   27 1     
   28   13   28 1     
   29   14   15 1     
   30   14   29 1     
   31   14   30 1     
   32    4   31 1     
   33    6   32 1     
   34    8   33 1     
   35    8   34 1     
   36   15   35 1     
   37   15   36 1     
@<TRIPOS>SUBSTRUCTURE
      1 S1             1
@<TRIPOS>SET
LONE_PAIRS      STATIC     ATOMS    <user>   **** ""
6 31 32 33 34 35 36
DONOR_HYDROGENS      STATIC     ATOMS    <user>   **** ""
1 21
ATOM$BLUE        STATIC     ATOMS    COLORGROUP SYSTEM
6 31 32 33 34 35 36
ATOM$RED        STATIC     ATOMS    COLORGROUP SYSTEM
1 21
