AV-unprocessed.smi:240|AV-procd|sdf|1834|dock1
  -GOLD-   2262020443D 1   1.00000     0.00000
 Structure written by MMmdl.
 55 59  0  0  0  0  0  0  0  0  1 V2000
  149.0325  138.8203  153.2022 O   0  0  0  0  0  0  0  0  0  0  0  0
  148.1858  139.2951  154.2287 C   0  0  2  0  0  0  0  0  0  0  0  0
  147.3154  140.4440  153.6850 C   0  0  0  0  0  0  0  0  0  0  0  0
  147.3592  141.5440  154.7474 C   0  0  0  0  0  0  0  0  0  0  0  0
  148.7383  141.3874  155.3822 C   0  0  0  0  0  0  0  0  0  0  0  0
  148.9233  139.8668  155.4679 C   0  0  2  0  0  0  0  0  0  0  0  0
  150.3637  139.3644  155.8051 C   0  0  2  0  0  0  0  0  0  0  0  0
  151.5006  140.2047  155.1655 C   0  0  0  0  0  0  0  0  0  0  0  0
  152.7720  139.6887  155.5427 O   0  0  0  0  0  0  0  0  0  0  0  0
  152.9554  138.3512  155.1004 C   0  0  0  0  0  0  0  0  0  0  0  0
  151.9109  137.4581  155.7811 C   0  0  0  0  0  0  0  0  0  0  0  0
  150.5660  137.9418  155.4932 N   0  0  0  0  0  0  0  0  0  0  0  0
  149.6380  137.0657  155.9402 C   0  0  0  0  0  0  0  0  0  0  0  0
  148.8712  136.4559  155.0032 N   0  0  0  0  0  0  0  0  0  0  0  0
  147.9326  135.5806  155.3747 C   0  0  0  0  0  0  0  0  0  0  0  0
  147.6087  135.1755  156.6045 N   0  0  0  0  0  0  0  0  0  0  0  0
  148.3900  135.7751  157.5482 C   0  0  0  0  0  0  0  0  0  0  0  0
  149.4206  136.7266  157.3062 C   0  0  0  0  0  0  0  0  0  0  0  0
  149.9957  137.1171  158.5093 N   0  0  0  0  0  0  0  0  0  0  0  0
  149.3377  136.4414  159.4110 C   0  0  0  0  0  0  0  0  0  0  0  0
  148.3628  135.6014  158.9214 N   0  0  0  0  0  0  0  0  0  0  0  0
  147.4867  134.7332  159.6947 C   0  0  0  0  0  0  0  0  0  0  0  0
  146.7126  135.4673  160.8173 C   0  0  2  0  0  0  0  0  0  0  0  0
  145.9257  136.4931  160.2398 O   0  0  0  0  0  0  0  0  0  0  0  0
  147.6445  136.0850  161.8628 C   0  0  0  0  0  0  0  0  0  0  0  0
  147.4324  135.2136  163.0951 C   0  0  0  0  0  0  0  0  0  0  0  0
  146.0598  134.8770  163.0046 O   0  0  0  0  0  0  0  0  0  0  0  0
  145.8027  134.5410  161.6490 C   0  0  0  0  0  0  0  0  0  0  0  0
  149.0448  139.4607  152.5068 H   0  0  0  0  0  0  0  0  0  0  0  0
  147.5520  138.4638  154.5403 H   0  0  0  0  0  0  0  0  0  0  0  0
  147.7351  140.8371  152.7573 H   0  0  0  0  0  0  0  0  0  0  0  0
  146.2962  140.1239  153.4666 H   0  0  0  0  0  0  0  0  0  0  0  0
  147.1996  142.5381  154.3287 H   0  0  0  0  0  0  0  0  0  0  0  0
  146.5856  141.3681  155.4963 H   0  0  0  0  0  0  0  0  0  0  0  0
  149.4771  141.8428  154.7240 H   0  0  0  0  0  0  0  0  0  0  0  0
  148.8083  141.8738  156.3556 H   0  0  0  0  0  0  0  0  0  0  0  0
  148.2997  139.5820  156.3167 H   0  0  0  0  0  0  0  0  0  0  0  0
  150.4908  139.4752  156.8821 H   0  0  0  0  0  0  0  0  0  0  0  0
  151.4352  140.2367  154.0788 H   0  0  0  0  0  0  0  0  0  0  0  0
  151.4613  141.2358  155.5136 H   0  0  0  0  0  0  0  0  0  0  0  0
  152.8735  138.2946  154.0137 H   0  0  0  0  0  0  0  0  0  0  0  0
  153.9607  138.0228  155.3645 H   0  0  0  0  0  0  0  0  0  0  0  0
  152.0231  136.4305  155.4324 H   0  0  0  0  0  0  0  0  0  0  0  0
  152.0740  137.4522  156.8600 H   0  0  0  0  0  0  0  0  0  0  0  0
  147.3594  135.1414  154.5716 H   0  0  0  0  0  0  0  0  0  0  0  0
  149.5511  136.5373  160.4656 H   0  0  0  0  0  0  0  0  0  0  0  0
  146.7865  134.2580  159.0063 H   0  0  0  0  0  0  0  0  0  0  0  0
  148.0900  133.9290  160.1177 H   0  0  0  0  0  0  0  0  0  0  0  0
  145.5721  137.0263  160.9352 H   0  0  0  0  0  0  0  0  0  0  0  0
  148.6895  136.1140  161.5521 H   0  0  0  0  0  0  0  0  0  0  0  0
  147.3468  137.1083  162.0977 H   0  0  0  0  0  0  0  0  0  0  0  0
  148.0391  134.3079  163.0452 H   0  0  0  0  0  0  0  0  0  0  0  0
  147.6608  135.7344  164.0251 H   0  0  0  0  0  0  0  0  0  0  0  0
  144.7432  134.6347  161.4074 H   0  0  0  0  0  0  0  0  0  0  0  0
  146.0796  133.4949  161.5157 H   0  0  0  0  0  0  0  0  0  0  0  0
  1  2  1  0  0  0  0
  1 29  1  0  0  0  0
  2  6  1  0  0  0  0
  2  3  1  0  0  0  0
  2 30  1  0  0  0  0
  3  4  1  0  0  0  0
  3 31  1  0  0  0  0
  3 32  1  0  0  0  0
  4  5  1  0  0  0  0
  4 33  1  0  0  0  0
  4 34  1  0  0  0  0
  5  6  1  0  0  0  0
  5 35  1  0  0  0  0
  5 36  1  0  0  0  0
  6  7  1  0  0  0  0
  6 37  1  0  0  0  0
  7 12  1  0  0  0  0
  7  8  1  0  0  0  0
  7 38  1  0  0  0  0
  8  9  1  0  0  0  0
  8 39  1  0  0  0  0
  8 40  1  0  0  0  0
  9 10  1  0  0  0  0
 10 11  1  0  0  0  0
 10 41  1  0  0  0  0
 10 42  1  0  0  0  0
 11 12  1  0  0  0  0
 11 43  1  0  0  0  0
 11 44  1  0  0  0  0
 12 13  1  0  0  0  0
 13 18  1  0  0  0  0
 13 14  2  0  0  0  0
 14 15  1  0  0  0  0
 15 16  2  0  0  0  0
 15 45  1  0  0  0  0
 16 17  1  0  0  0  0
 17 21  1  0  0  0  0
 17 18  2  0  0  0  0
 18 19  1  0  0  0  0
 19 20  2  0  0  0  0
 20 21  1  0  0  0  0
 20 46  1  0  0  0  0
 21 22  1  0  0  0  0
 22 23  1  0  0  0  0
 22 47  1  0  0  0  0
 22 48  1  0  0  0  0
 23 28  1  0  0  0  0
 23 24  1  0  0  0  0
 23 25  1  0  0  0  0
 24 49  1  0  0  0  0
 25 26  1  0  0  0  0
 25 50  1  0  0  0  0
 25 51  1  0  0  0  0
 26 27  1  0  0  0  0
 26 52  1  0  0  0  0
 26 53  1  0  0  0  0
 27 28  1  0  0  0  0
 28 54  1  0  0  0  0
 28 55  1  0  0  0  0
M  END
> <s_m_source_file>
AV-unprocessed.smi

> <i_m_source_file_index>
240

> <i_lp_mmshare_version>
43012

> <i_f3d_flags>
0

> <s_epik_input>
W09IXVtDQEBIXTFbQ0gyXVtDSDJdW0NIMl1bQ0BIXTFbQ0BASF0yW0NIMl1PW0NIMl1bQ0gyXU4yYyhuW2NIXW4zKWMoYzM0KW5bY0hdbjRbQ0gyXVtDQEBdNShbT0hdKVtDSDJdW0NIMl1PW0NIMl01

> <s_epik_cmdline>
J2VwaWtfcHl0aG9uJywgJy1waCcsICc3LjAnLCAnLXRuJywgJzgnLCAnLW1hJywgJzIwMCcsICctbWV0YWxfYmluZGluZycsICctaW1hZScsICc8aW5maWxlLm1hZT4nLCAnLW9tYWUnLCAnPG91dGZpbGUubWFlPic=

> <r_lp_tautomer_probability>
1

> <r_epik_Ionization_Penalty>
0.000130618

> <r_epik_Ionization_Penalty_Charging>
0

> <r_epik_Ionization_Penalty_Neutral>
0.000130618

> <r_epik_State_Penalty>
-0

> <r_epik_Charging_Adjusted_Penalty>
0

> <i_epik_Tot_Q>
0

> <i_epik_Tot_abs_Q>
0

> <r_epik_Metal_State_Penalty>
-0

> <b_epik_Metal_Only>
0

> <s_lp_Force_Field>
OPLS_2005

> <r_lp_Energy>
66.7643

> <b_lp_Chiralities_Consistent>
1

> <s_lp_Variant>
AV-unprocessed.smi:240-11

> <Gold.Version>
5.8.1

> <Gold.Id.Protein>
6NUR|6NUR_protein|mol2

> <Gold.PLP.Fitness>
38.5237

> <Gold.PLP.PLP>
-33.5583

> <Gold.PLP.part.hbond>
-3.0540

> <Gold.PLP.part.metal>
0.0000

> <Gold.PLP.part.buried>
-1.7006

> <Gold.PLP.part.nonpolar>
-29.6601

> <Gold.PLP.part.repulsive>
0.2159

> <Gold.PLP.ligand.clash>
0.0000

> <Gold.PLP.ligand.torsion>
0.6569

> <Gold.PLP.Chemscore.Hbond>
2.0000

> <Gold.PLP.Chemscore.CHOScore>
0.0000

> <Gold.PLP.Chemscore.Metal>
0.0000

> <Gold.Chemscore.Hbonds>
donor molecule, donor type, donor heavy atom, donor atom, acceptor molecule, acceptor atom, score
      L1  H     1    29       P1  7957  1.00
      P1  H  7997  8009       L1     9  1.00

> <Gold.PLP.Chemscore.Internal.Correction>
0.2793

> <Gold.Rescore>
     Score         DG    S(hbond)    S(metal)    S(lipo)     H(rot)  DE(clash)    DE(int)     intcor
     11.88     -13.74       1.81        0.00      84.59       3.00       0.10       1.75       ----

> <Gold.Chemscore.Fitness>
11.8841

> <Gold.Chemscore.DG>
-13.7381

> <Gold.Chemscore.ZeroCoef>
-5.4800

> <Gold.Chemscore.Hbond>
1.8117

> <Gold.Chemscore.Metal>
0.0000

> <Gold.Chemscore.Lipo>
84.5897

> <Gold.Chemscore.Internal_Hbond>
0.0000

> <Gold.Chemscore.DEClash>
0.1028

> <Gold.Chemscore.DEInternal>
1.7511

> <Gold.Chemscore.Rot>
3.0039

> <Gold.Chemscore.Internal.Correction>
   9.000000E+99

> <Gold.Chemscore.Hbonds>
donor molecule, donor type, donor heavy atom, donor atom, acceptor molecule, acceptor atom, score
      L1  H     1    29       P1  7957  0.93
      P1  H  7997  8009       L1     9  0.45

> <Gold.Chemscore.Hbond.Weighted>
-6.0510

> <Gold.Chemscore.Metal.Weighted>
-0.0000

> <Gold.Chemscore.Lipo.Weighted>
-9.8970

> <Gold.Chemscore.Internal_Hbond.Weighted>
0.0000

> <Gold.Chemscore.DEClash.Weighted>
0.1028

> <Gold.Chemscore.DEInternal.Weighted>
1.7511

> <Gold.Chemscore.Rot.Weighted>
7.6899

> <Gold.Chemscore.Internal.Correction.Weighted>
   9.000000E+99

> <Gold.Protein.RotatedTorsions>
[ 6907 6896 6895 6894 ] final    4.22 input  -60.11 | X-H torsion
[ 7974 7965 7964 7962 ] final   67.01 input  175.53 | X-H torsion
[ 8008 7997 7996 7995 ] final -156.72 input   59.86 | X-H torsion
[ 10167 10162 10161 10158 ] final  -84.88 input  -65.29 | X-H torsion
[ 10718 10713 10712 10709 ] final   72.14 input   66.30 | X-H torsion
[ 10763 10752 10751 10750 ] final   41.64 input  -60.55 | X-H torsion
[ 11005 11000 10999 10996 ] final  -98.38 input  -57.11 | X-H torsion

> <Gold.Protein.ActiveResidues>
 VAL166  LYS551  ARG553  GLY616  TRP617  ASP618  TYR619  PRO620  LYS621  CYS622 
 ASP623  PHE694  ASN695  SER759  ASP760  ASP761  ALA762  ILE779  LEU786  VAL792 
 PHE793  MET794  SER795  GLU796  ALA797  LYS798  CYS799  TRP800  GLU811  SER814 

> <Gold.Protein.RotatedAtoms>
  151.6378  135.1016  160.0134 H   0  0  0  0  0  0  0  0  0  0  0  0  # atno 6907 bound_to 6896
  152.4071  133.6902  159.6374 H   0  0  0  0  0  0  0  0  0  0  0  0  # atno 6908 bound_to 6896
  150.7964  133.8607  159.3272 H   0  0  0  0  0  0  0  0  0  0  0  0  # atno 6909 bound_to 6896
  145.8198  139.3078  143.1050 H   0  0  0  0  0  0  0  0  0  0  0  0  # atno 7974 bound_to 7965
  155.7215  140.0790  157.2328 H   0  0  0  0  0  0  0  0  0  0  0  0  # atno 8008 bound_to 7997
  154.4044  140.1612  156.2462 H   0  0  0  0  0  0  0  0  0  0  0  0  # atno 8009 bound_to 7997
  155.9192  140.3399  155.6162 H   0  0  0  0  0  0  0  0  0  0  0  0  # atno 8010 bound_to 7997
  140.4090  143.2630  151.9043 H   0  0  0  0  0  0  0  0  0  0  0  0  # atno 10167 bound_to 10162
  157.6486  130.9563  150.0887 H   0  0  0  0  0  0  0  0  0  0  0  0  # atno 10718 bound_to 10713
  152.9903  135.6156  154.2820 H   0  0  0  0  0  0  0  0  0  0  0  0  # atno 10763 bound_to 10752
  154.2549  135.2784  155.2803 H   0  0  0  0  0  0  0  0  0  0  0  0  # atno 10764 bound_to 10752
  154.5256  135.5802  153.6774 H   0  0  0  0  0  0  0  0  0  0  0  0  # atno 10765 bound_to 10752
  141.1347  133.8241  157.0831 H   0  0  0  0  0  0  0  0  0  0  0  0  # atno 11005 bound_to 11000
  145.9687  140.8778  143.0173 LP  0  0  0  0  0  0  0  0  0  0  0  0  # atno 17320 bound_to 7965
  144.6749  140.1915  143.7396 LP  0  0  0  0  0  0  0  0  0  0  0  0  # atno 17321 bound_to 7965
  139.4783  144.5556  151.8318 LP  0  0  0  0  0  0  0  0  0  0  0  0  # atno 17342 bound_to 10162
  140.4658  144.1657  150.5911 LP  0  0  0  0  0  0  0  0  0  0  0  0  # atno 17343 bound_to 10162
  156.1842  130.3651  149.8995 LP  0  0  0  0  0  0  0  0  0  0  0  0  # atno 17370 bound_to 10713
  156.6939  130.8907  151.3591 LP  0  0  0  0  0  0  0  0  0  0  0  0  # atno 17371 bound_to 10713
  140.0439  134.9840  157.1012 LP  0  0  0  0  0  0  0  0  0  0  0  0  # atno 17394 bound_to 11000
  140.4093  134.1998  155.7163 LP  0  0  0  0  0  0  0  0  0  0  0  0  # atno 17395 bound_to 11000

$$$$
