AV-unprocessed.smi:2981|AV-procd|sdf|11375|dock2
  -GOLD-   2272016293D 1   1.00000     0.00000
 Structure written by MMmdl.
 31 32  0  0  0  0  0  0  0  0  1 V2000
  149.7714  141.2102  158.0169 O   0  0  0  0  0  0  0  0  0  0  0  0
  150.8329  141.4794  157.4527 C   0  0  0  0  0  0  0  0  0  0  0  0
  151.6307  142.7332  157.8390 C   0  0  0  0  0  0  0  0  0  0  0  0
  152.1129  142.7070  159.2280 N   0  0  0  0  0  0  0  0  0  0  0  0
  151.7089  143.7915  159.9870 N   0  0  0  0  0  0  0  0  0  0  0  0
  152.0578  143.8643  161.2251 C   0  0  0  0  0  0  0  0  0  0  0  0
  152.8683  142.8476  161.8584 C   0  0  0  0  0  0  0  0  0  0  0  0
  153.3048  142.9995  163.5239 Cl  0  0  0  0  0  0  0  0  0  0  0  0
  153.2647  141.7919  161.1038 C   0  0  0  0  0  0  0  0  0  0  0  0
  154.2371  140.5360  161.7906 Cl  0  0  0  0  0  0  0  0  0  0  0  0
  152.8863  141.6757  159.6886 C   0  0  0  0  0  0  0  0  0  0  0  0
  153.2276  140.7357  158.9693 O   0  0  0  0  0  0  0  0  0  0  0  0
  151.3535  140.7279  156.4710 N   0  0  0  0  0  0  0  0  0  0  0  0
  150.7635  139.4959  155.9578 C   0  0  1  0  0  0  0  0  0  0  0  0
  151.5991  138.9178  154.8008 C   0  0  0  0  0  0  0  0  0  0  0  0
  151.1503  137.4739  154.5445 C   0  0  0  0  0  0  0  0  0  0  0  0
  150.6011  136.8165  156.1654 S   0  0  0  0  0  0  0  0  0  0  0  0
  149.2042  136.3710  156.0497 O   0  0  0  0  0  0  0  0  0  0  0  0
  151.6366  135.9277  156.7138 O   0  0  0  0  0  0  0  0  0  0  0  0
  150.6595  138.4194  157.0500 C   0  0  0  0  0  0  0  0  0  0  0  0
  152.4738  142.8586  157.1566 H   0  0  0  0  0  0  0  0  0  0  0  0
  150.9911  143.6026  157.6759 H   0  0  0  0  0  0  0  0  0  0  0  0
  151.7604  144.6973  161.8622 H   0  0  0  0  0  0  0  0  0  0  0  0
  152.2251  141.0249  156.0566 H   0  0  0  0  0  0  0  0  0  0  0  0
  149.7623  139.7023  155.5744 H   0  0  0  0  0  0  0  0  0  0  0  0
  151.5209  139.5265  153.8994 H   0  0  0  0  0  0  0  0  0  0  0  0
  152.6518  138.9085  155.0878 H   0  0  0  0  0  0  0  0  0  0  0  0
  150.2969  137.4495  153.8664 H   0  0  0  0  0  0  0  0  0  0  0  0
  151.9416  136.8482  154.1311 H   0  0  0  0  0  0  0  0  0  0  0  0
  151.5443  138.4151  157.6877 H   0  0  0  0  0  0  0  0  0  0  0  0
  149.7773  138.5337  157.6805 H   0  0  0  0  0  0  0  0  0  0  0  0
  1  2  2  0  0  0  0
  2  3  1  0  0  0  0
  2 13  1  0  0  0  0
  3  4  1  0  0  0  0
  3 21  1  0  0  0  0
  3 22  1  0  0  0  0
  4 11  1  0  0  0  0
  4  5  1  0  0  0  0
  5  6  2  0  0  0  0
  6  7  1  0  0  0  0
  6 23  1  0  0  0  0
  7  8  1  0  0  0  0
  7  9  2  0  0  0  0
  9 10  1  0  0  0  0
  9 11  1  0  0  0  0
 11 12  2  0  0  0  0
 13 14  1  0  0  0  0
 13 24  1  0  0  0  0
 14 20  1  0  0  0  0
 14 15  1  0  0  0  0
 14 25  1  0  0  0  0
 15 16  1  0  0  0  0
 15 26  1  0  0  0  0
 15 27  1  0  0  0  0
 16 17  1  0  0  0  0
 16 28  1  0  0  0  0
 16 29  1  0  0  0  0
 17 18  2  0  0  0  0
 17 19  2  0  0  0  0
 17 20  1  0  0  0  0
 20 30  1  0  0  0  0
 20 31  1  0  0  0  0
M  END
> <s_m_source_file>
AV-unprocessed.smi

> <i_m_source_file_index>
2981

> <i_lp_mmshare_version>
43012

> <i_f3d_flags>
0

> <s_epik_input>
Tz1TMSg9TylbQ0gyXVtDSDJdW0NASF0oW0NIMl0xKVtOSF1DKD1PKVtDSDJdbjJuW2NIXWMoQ2wpYyhDbCljMj1P

> <s_epik_cmdline>
J2VwaWtfcHl0aG9uJywgJy1waCcsICc3LjAnLCAnLXRuJywgJzgnLCAnLW1hJywgJzIwMCcsICctbWV0YWxfYmluZGluZycsICctaW1hZScsICc8aW5maWxlLm1hZT4nLCAnLW9tYWUnLCAnPG91dGZpbGUubWFlPic=

> <r_lp_tautomer_probability>
1

> <r_epik_Ionization_Penalty>
1.07216e-07

> <r_epik_Ionization_Penalty_Charging>
2.33395e-11

> <r_epik_Ionization_Penalty_Neutral>
1.07193e-07

> <r_epik_State_Penalty>
-0

> <r_epik_Charging_Adjusted_Penalty>
2.33395e-11

> <i_epik_Tot_Q>
0

> <i_epik_Tot_abs_Q>
0

> <r_epik_Metal_State_Penalty>
-0

> <b_epik_Metal_Only>
0

> <s_lp_Force_Field>
OPLS_2005

> <r_lp_Energy>
17.277

> <b_lp_Chiralities_Consistent>
1

> <s_lp_Variant>
AV-unprocessed.smi:2981-2

> <Gold.Version>
5.8.1

> <Gold.Id.Protein>
6NUR|6NUR_protein|mol2

> <Gold.PLP.Fitness>
44.5956

> <Gold.PLP.PLP>
-40.8230

> <Gold.PLP.part.hbond>
-2.0000

> <Gold.PLP.part.metal>
0.0000

> <Gold.PLP.part.buried>
-3.6580

> <Gold.PLP.part.nonpolar>
-33.8601

> <Gold.PLP.part.repulsive>
0.2495

> <Gold.PLP.ligand.clash>
0.0000

> <Gold.PLP.ligand.torsion>
0.0265

> <Gold.PLP.Chemscore.Hbond>
1.2738

> <Gold.PLP.Chemscore.CHOScore>
0.0000

> <Gold.PLP.Chemscore.Metal>
0.0000

> <Gold.Chemscore.Hbonds>
donor molecule, donor type, donor heavy atom, donor atom, acceptor molecule, acceptor atom, score
      P1  H 10752 10765       L1    19  0.34

> <Gold.PLP.Chemscore.Internal.Correction>
0.0043

> <Gold.Rescore>
     Score         DG    S(hbond)    S(metal)    S(lipo)     H(rot)  DE(clash)    DE(int)     intcor
     14.38     -15.74       1.17        0.00      91.74       1.70       0.16       1.20       ----

> <Gold.Chemscore.Fitness>
14.3755

> <Gold.Chemscore.DG>
-15.7410

> <Gold.Chemscore.ZeroCoef>
-5.4800

> <Gold.Chemscore.Hbond>
1.1653

> <Gold.Chemscore.Metal>
0.0000

> <Gold.Chemscore.Lipo>
91.7388

> <Gold.Chemscore.Internal_Hbond>
0.0000

> <Gold.Chemscore.DEClash>
0.1611

> <Gold.Chemscore.DEInternal>
1.2044

> <Gold.Chemscore.Rot>
1.7049

> <Gold.Chemscore.Internal.Correction>
   9.000000E+99

> <Gold.Chemscore.Hbonds>
donor molecule, donor type, donor heavy atom, donor atom, acceptor molecule, acceptor atom, score
      P1  H  7997  8009       L1    12  0.02
      P1  H 10752 10765       L1    19  0.20

> <Gold.Chemscore.Hbond.Weighted>
-3.8921

> <Gold.Chemscore.Metal.Weighted>
-0.0000

> <Gold.Chemscore.Lipo.Weighted>
-10.7334

> <Gold.Chemscore.Internal_Hbond.Weighted>
0.0000

> <Gold.Chemscore.DEClash.Weighted>
0.1611

> <Gold.Chemscore.DEInternal.Weighted>
1.2044

> <Gold.Chemscore.Rot.Weighted>
4.3646

> <Gold.Chemscore.Internal.Correction.Weighted>
   9.000000E+99

> <Gold.Protein.RotatedTorsions>
[ 6907 6896 6895 6894 ] final   -3.58 input  -60.11 | X-H torsion
[ 7974 7965 7964 7962 ] final  126.46 input  175.53 | X-H torsion
[ 8008 7997 7996 7995 ] final  134.57 input   59.86 | X-H torsion
[ 10167 10162 10161 10158 ] final  177.96 input  -65.29 | X-H torsion
[ 10718 10713 10712 10709 ] final  108.63 input   66.30 | X-H torsion
[ 10763 10752 10751 10750 ] final -154.88 input  -60.55 | X-H torsion
[ 11005 11000 10999 10996 ] final -146.36 input  -57.11 | X-H torsion

> <Gold.Protein.ActiveResidues>
 VAL166  LYS551  ARG553  GLY616  TRP617  ASP618  TYR619  PRO620  LYS621  CYS622 
 ASP623  PHE694  ASN695  SER759  ASP760  ASP761  ALA762  ILE779  LEU786  VAL792 
 PHE793  MET794  SER795  GLU796  ALA797  LYS798  CYS799  TRP800  GLU811  SER814 

> <Gold.Protein.RotatedAtoms>
  151.5114  135.1065  159.9854 H   0  0  0  0  0  0  0  0  0  0  0  0  # atno 6907 bound_to 6896
  152.4660  133.7919  159.6917 H   0  0  0  0  0  0  0  0  0  0  0  0  # atno 6908 bound_to 6896
  150.8644  133.7533  159.3007 H   0  0  0  0  0  0  0  0  0  0  0  0  # atno 6909 bound_to 6896
  145.0615  139.3802  143.5003 H   0  0  0  0  0  0  0  0  0  0  0  0  # atno 7974 bound_to 7965
  156.2999  140.2493  156.3438 H   0  0  0  0  0  0  0  0  0  0  0  0  # atno 8008 bound_to 7997
  154.9030  140.0405  157.1923 H   0  0  0  0  0  0  0  0  0  0  0  0  # atno 8009 bound_to 7997
  154.8482  140.2901  155.5619 H   0  0  0  0  0  0  0  0  0  0  0  0  # atno 8010 bound_to 7997
  139.5274  144.2737  152.0606 H   0  0  0  0  0  0  0  0  0  0  0  0  # atno 10167 bound_to 10162
  157.6577  131.0897  150.6334 H   0  0  0  0  0  0  0  0  0  0  0  0  # atno 10718 bound_to 10713
  154.7827  135.3180  154.7954 H   0  0  0  0  0  0  0  0  0  0  0  0  # atno 10763 bound_to 10752
  153.8662  135.6848  153.4782 H   0  0  0  0  0  0  0  0  0  0  0  0  # atno 10764 bound_to 10752
  153.1468  135.4716  154.9517 H   0  0  0  0  0  0  0  0  0  0  0  0  # atno 10765 bound_to 10752
  140.7827  134.3060  157.5040 H   0  0  0  0  0  0  0  0  0  0  0  0  # atno 11005 bound_to 11000
  146.3524  140.0315  142.8650 LP  0  0  0  0  0  0  0  0  0  0  0  0  # atno 17320 bound_to 7965
  145.1403  140.9568  143.4492 LP  0  0  0  0  0  0  0  0  0  0  0  0  # atno 17321 bound_to 7965
  140.2195  144.4480  150.6348 LP  0  0  0  0  0  0  0  0  0  0  0  0  # atno 17342 bound_to 10162
  140.6428  143.2207  151.6253 LP  0  0  0  0  0  0  0  0  0  0  0  0  # atno 17343 bound_to 10162
  156.6639  130.4520  149.5678 LP  0  0  0  0  0  0  0  0  0  0  0  0  # atno 17370 bound_to 10713
  156.2046  130.6641  151.1205 LP  0  0  0  0  0  0  0  0  0  0  0  0  # atno 17371 bound_to 10713
  139.8740  134.9328  156.3564 LP  0  0  0  0  0  0  0  0  0  0  0  0  # atno 17394 bound_to 11000
  140.9466  133.7478  156.0217 LP  0  0  0  0  0  0  0  0  0  0  0  0  # atno 17395 bound_to 11000

$$$$
