AV-unprocessed.smi:2136|AV-procd|sdf|8704|dock5
  -GOLD-   2272011463D 1   1.00000     0.00000
 Structure written by MMmdl.
 43 44  0  0  0  0  0  0  0  0  2 V2000
  154.6690  139.2448  161.1546 C   0  0  0  0  0  0  0  0  0  0  0  0
  154.0074  139.3808  159.4409 S   0  0  0  0  0  0  0  0  0  0  0  0
  155.1263  139.3627  158.4860 O   0  0  0  0  0  0  0  0  0  0  0  0
  152.9382  138.3773  159.3199 O   0  0  0  0  0  0  0  0  0  0  0  0
  153.2669  140.9671  159.4004 N   0  0  0  0  0  0  0  0  0  0  0  0
  153.5198  141.8201  160.5875 C   0  0  0  0  0  0  0  0  0  0  0  0
  153.1353  143.2901  160.3756 C   0  0  0  0  0  0  0  0  0  0  0  0
  151.6931  143.4120  159.8994 C   0  0  0  0  0  0  0  0  0  0  0  0
  151.5649  142.6440  158.5876 C   0  0  0  0  0  0  0  0  0  0  0  0
  151.9340  141.1481  158.7423 C   0  0  1  0  0  0  0  0  0  0  0  0
  151.7704  140.4693  157.3718 C   0  0  0  0  0  0  0  0  0  0  0  0
  152.6747  139.7709  156.9116 O   0  0  0  0  0  0  0  0  0  0  0  0
  150.6119  140.6805  156.7277 N   0  0  0  0  0  0  0  0  0  0  0  0
  150.2583  140.1134  155.4326 C   0  0  0  0  0  0  0  0  0  0  0  0
  149.0624  140.8446  154.7992 C   0  0  0  0  0  0  0  0  0  0  0  0
  147.8837  139.9208  154.5619 C   0  0  0  0  0  0  0  0  0  0  0  0
  147.9707  138.5502  154.8924 C   0  0  0  0  0  0  0  0  0  0  0  0
  146.8603  137.7115  154.6629 C   0  0  0  0  0  0  0  0  0  0  0  0
  145.6880  138.2618  154.1054 C   0  0  0  0  0  0  0  0  0  0  0  0
  145.6420  139.5774  153.8006 N   0  3  0  0  0  0  0  0  0  0  0  0
  146.6829  140.4141  154.0068 C   0  0  0  0  0  0  0  0  0  0  0  0
  154.9913  138.2190  161.3315 H   0  0  0  0  0  0  0  0  0  0  0  0
  153.8879  139.5038  161.8689 H   0  0  0  0  0  0  0  0  0  0  0  0
  155.5230  139.9044  161.2896 H   0  0  0  0  0  0  0  0  0  0  0  0
  152.9704  141.4080  161.4348 H   0  0  0  0  0  0  0  0  0  0  0  0
  154.5773  141.7840  160.8484 H   0  0  0  0  0  0  0  0  0  0  0  0
  153.2674  143.8437  161.3056 H   0  0  0  0  0  0  0  0  0  0  0  0
  153.8071  143.7457  159.6468 H   0  0  0  0  0  0  0  0  0  0  0  0
  151.0076  143.0113  160.6469 H   0  0  0  0  0  0  0  0  0  0  0  0
  151.4304  144.4600  159.7522 H   0  0  0  0  0  0  0  0  0  0  0  0
  150.5429  142.7394  158.2176 H   0  0  0  0  0  0  0  0  0  0  0  0
  152.2039  143.1185  157.8406 H   0  0  0  0  0  0  0  0  0  0  0  0
  151.1975  140.7043  159.4148 H   0  0  0  0  0  0  0  0  0  0  0  0
  149.9173  141.2576  157.1803 H   0  0  0  0  0  0  0  0  0  0  0  0
  151.1244  140.1413  154.7690 H   0  0  0  0  0  0  0  0  0  0  0  0
  150.0146  139.0611  155.5810 H   0  0  0  0  0  0  0  0  0  0  0  0
  148.7501  141.6712  155.4391 H   0  0  0  0  0  0  0  0  0  0  0  0
  149.3492  141.2878  153.8446 H   0  0  0  0  0  0  0  0  0  0  0  0
  148.8775  138.1461  155.3188 H   0  0  0  0  0  0  0  0  0  0  0  0
  146.9081  136.6609  154.9104 H   0  0  0  0  0  0  0  0  0  0  0  0
  144.7929  137.6941  153.8957 H   0  0  0  0  0  0  0  0  0  0  0  0
  146.5233  141.4443  153.7228 H   0  0  0  0  0  0  0  0  0  0  0  0
  144.7843  139.9555  153.3972 H   0  0  0  0  0  0  0  0  0  0  0  0
  1  2  1  0  0  0  0
  1 22  1  0  0  0  0
  1 23  1  0  0  0  0
  1 24  1  0  0  0  0
  2  3  2  0  0  0  0
  2  4  2  0  0  0  0
  2  5  1  0  0  0  0
  5 10  1  0  0  0  0
  5  6  1  0  0  0  0
  6  7  1  0  0  0  0
  6 25  1  0  0  0  0
  6 26  1  0  0  0  0
  7  8  1  0  0  0  0
  7 27  1  0  0  0  0
  7 28  1  0  0  0  0
  8  9  1  0  0  0  0
  8 29  1  0  0  0  0
  8 30  1  0  0  0  0
  9 10  1  0  0  0  0
  9 31  1  0  0  0  0
  9 32  1  0  0  0  0
 10 11  1  0  0  0  0
 10 33  1  0  0  0  0
 11 12  2  0  0  0  0
 11 13  1  0  0  0  0
 13 14  1  0  0  0  0
 13 34  1  0  0  0  0
 14 15  1  0  0  0  0
 14 35  1  0  0  0  0
 14 36  1  0  0  0  0
 15 16  1  0  0  0  0
 15 37  1  0  0  0  0
 15 38  1  0  0  0  0
 16 21  1  0  0  0  0
 16 17  2  0  0  0  0
 17 18  1  0  0  0  0
 17 39  1  0  0  0  0
 18 19  2  0  0  0  0
 18 40  1  0  0  0  0
 19 20  1  0  0  0  0
 19 41  1  0  0  0  0
 20 21  2  0  0  0  0
 20 43  1  0  0  0  0
 21 42  1  0  0  0  0
M  CHG  1  20   1
M  END
> <s_m_source_file>
AV-unprocessed.smi

> <i_m_source_file_index>
2136

> <i_lp_mmshare_version>
43012

> <i_f3d_flags>
0

> <s_epik_input>
W0NIM11TKD1PKSg9TylOMVtDSDJdW0NIMl1bQ0gyXVtDSDJdW0NASF0xQyg9TylbTkhdW0NIMl1bQ0gyXWMyW2NIXVtjSF1bY0hdbltjSF0y

> <s_epik_cmdline>
J2VwaWtfcHl0aG9uJywgJy1waCcsICc3LjAnLCAnLXRuJywgJzgnLCAnLW1hJywgJzIwMCcsICctbWV0YWxfYmluZGluZycsICctaW1hZScsICc8aW5maWxlLm1hZT4nLCAnLW9tYWUnLCAnPG91dGZpbGUubWFlPic=

> <r_epik_Ionization_Penalty>
2.2835

> <r_epik_Ionization_Penalty_Charging>
2.2835

> <r_epik_Ionization_Penalty_Neutral>
1.35461e-07

> <r_epik_State_Penalty>
2.43297

> <r_epik_Charging_Adjusted_Penalty>
4.71647

> <i_epik_Tot_Q>
1

> <i_epik_Tot_abs_Q>
1

> <r_epik_Metal_State_Penalty>
2.44557

> <b_epik_Metal_Only>
0

> <s_lp_Force_Field>
OPLS_2005

> <r_lp_Energy>
13.1957

> <b_lp_Chiralities_Consistent>
1

> <s_lp_Variant>
AV-unprocessed.smi:2136-3

> <Gold.Version>
5.8.1

> <Gold.Id.Protein>
6NUR|6NUR_protein|mol2

> <Gold.PLP.Fitness>
46.4618

> <Gold.PLP.PLP>
-36.7977

> <Gold.PLP.part.hbond>
-3.0000

> <Gold.PLP.part.metal>
0.0000

> <Gold.PLP.part.buried>
-2.4805

> <Gold.PLP.part.nonpolar>
-31.2397

> <Gold.PLP.part.repulsive>
0.0811

> <Gold.PLP.ligand.clash>
0.0000

> <Gold.PLP.ligand.torsion>
1.7895

> <Gold.PLP.Chemscore.Hbond>
3.6960

> <Gold.PLP.Chemscore.CHOScore>
0.0000

> <Gold.PLP.Chemscore.Metal>
0.0000

> <Gold.Chemscore.Hbonds>
donor molecule, donor type, donor heavy atom, donor atom, acceptor molecule, acceptor atom, score
      L1  H    20    43       P1 10175  1.98
      P1  H  7997  8008       L1     3  0.62
      P1  H  7997  8009       L1    12  1.00

> <Gold.PLP.Chemscore.Internal.Correction>
2.1551

> <Gold.Rescore>
     Score         DG    S(hbond)    S(metal)    S(lipo)     H(rot)  DE(clash)    DE(int)     intcor
     15.74     -21.19       2.65        0.00      94.92       1.65       0.05       5.41       ----

> <Gold.Chemscore.Fitness>
15.7367

> <Gold.Chemscore.DG>
-21.1934

> <Gold.Chemscore.ZeroCoef>
-5.4800

> <Gold.Chemscore.Hbond>
2.6470

> <Gold.Chemscore.Metal>
0.0000

> <Gold.Chemscore.Lipo>
94.9238

> <Gold.Chemscore.Internal_Hbond>
0.0000

> <Gold.Chemscore.DEClash>
0.0495

> <Gold.Chemscore.DEInternal>
5.4072

> <Gold.Chemscore.Rot>
1.6538

> <Gold.Chemscore.Internal.Correction>
   9.000000E+99

> <Gold.Chemscore.Hbonds>
donor molecule, donor type, donor heavy atom, donor atom, acceptor molecule, acceptor atom, score
      L1  H    20    43       P1 10175  0.92
      P1  H  7997  8008       L1     3  0.59
      P1  H  7997  8009       L1    12  0.94

> <Gold.Chemscore.Hbond.Weighted>
-8.8410

> <Gold.Chemscore.Metal.Weighted>
-0.0000

> <Gold.Chemscore.Lipo.Weighted>
-11.1061

> <Gold.Chemscore.Internal_Hbond.Weighted>
0.0000

> <Gold.Chemscore.DEClash.Weighted>
0.0495

> <Gold.Chemscore.DEInternal.Weighted>
5.4072

> <Gold.Chemscore.Rot.Weighted>
4.2337

> <Gold.Chemscore.Internal.Correction.Weighted>
   9.000000E+99

> <Gold.Protein.RotatedTorsions>
[ 6907 6896 6895 6894 ] final   25.59 input  -60.11 | X-H torsion
[ 7974 7965 7964 7962 ] final   35.32 input  175.53 | X-H torsion
[ 8008 7997 7996 7995 ] final -158.17 input   59.86 | X-H torsion
[ 10167 10162 10161 10158 ] final  108.36 input  -65.29 | X-H torsion
[ 10718 10713 10712 10709 ] final  101.94 input   66.30 | X-H torsion
[ 10763 10752 10751 10750 ] final  -17.13 input  -60.55 | X-H torsion
[ 11005 11000 10999 10996 ] final  -25.69 input  -57.11 | X-H torsion

> <Gold.Protein.ActiveResidues>
 VAL166  LYS551  ARG553  GLY616  TRP617  ASP618  TYR619  PRO620  LYS621  CYS622 
 ASP623  PHE694  ASN695  SER759  ASP760  ASP761  ALA762  ILE779  LEU786  VAL792 
 PHE793  MET794  SER795  GLU796  ALA797  LYS798  CYS799  TRP800  GLU811  SER814 

> <Gold.Protein.RotatedAtoms>
  151.9749  135.0058  160.0554 H   0  0  0  0  0  0  0  0  0  0  0  0  # atno 6907 bound_to 6896
  152.1749  133.4664  159.4936 H   0  0  0  0  0  0  0  0  0  0  0  0  # atno 6908 bound_to 6896
  150.6908  134.1823  159.4296 H   0  0  0  0  0  0  0  0  0  0  0  0  # atno 6909 bound_to 6896
  146.1291  139.6157  142.9238 H   0  0  0  0  0  0  0  0  0  0  0  0  # atno 7974 bound_to 7965
  155.7435  140.0817  157.2234 H   0  0  0  0  0  0  0  0  0  0  0  0  # atno 8008 bound_to 7997
  154.4019  140.1573  156.2699 H   0  0  0  0  0  0  0  0  0  0  0  0  # atno 8009 bound_to 7997
  155.8997  140.3410  155.6020 H   0  0  0  0  0  0  0  0  0  0  0  0  # atno 8010 bound_to 7997
  139.6852  144.7114  151.1444 H   0  0  0  0  0  0  0  0  0  0  0  0  # atno 10167 bound_to 10162
  157.6816  131.0740  150.5329 H   0  0  0  0  0  0  0  0  0  0  0  0  # atno 10718 bound_to 10713
  153.5691  135.7008  153.5513 H   0  0  0  0  0  0  0  0  0  0  0  0  # atno 10763 bound_to 10752
  153.3361  135.4034  155.1534 H   0  0  0  0  0  0  0  0  0  0  0  0  # atno 10764 bound_to 10752
  154.8636  135.3730  154.5212 H   0  0  0  0  0  0  0  0  0  0  0  0  # atno 10765 bound_to 10752
  140.8961  133.7555  156.0483 H   0  0  0  0  0  0  0  0  0  0  0  0  # atno 11005 bound_to 11000
  145.5300  141.0427  143.2388 LP  0  0  0  0  0  0  0  0  0  0  0  0  # atno 17320 bound_to 7965
  144.7672  139.6817  143.7210 LP  0  0  0  0  0  0  0  0  0  0  0  0  # atno 17321 bound_to 7965
  140.7665  143.5640  150.9068 LP  0  0  0  0  0  0  0  0  0  0  0  0  # atno 17342 bound_to 10162
  139.9314  143.6489  152.3075 LP  0  0  0  0  0  0  0  0  0  0  0  0  # atno 17343 bound_to 10162
  156.5638  130.4262  149.6050 LP  0  0  0  0  0  0  0  0  0  0  0  0  # atno 17370 bound_to 10713
  156.2798  130.7064  151.1885 LP  0  0  0  0  0  0  0  0  0  0  0  0  # atno 17371 bound_to 10713
  140.8287  134.3203  157.5356 LP  0  0  0  0  0  0  0  0  0  0  0  0  # atno 17394 bound_to 11000
  139.8736  134.9351  156.3625 LP  0  0  0  0  0  0  0  0  0  0  0  0  # atno 17395 bound_to 11000

$$$$
