AV-unprocessed.smi:2744|AV-procd|sdf|10569|dock10
  -GOLD-   2272015 23D 1   1.00000     0.00000
 Structure written by MMmdl.
 40 41  0  0  0  0  0  0  0  0  1 V2000
  150.8463  144.6946  159.9196 C   0  0  0  0  0  0  0  0  0  0  0  0
  150.5596  144.4689  158.4258 C   0  0  0  0  0  0  0  0  0  0  0  0
  151.7079  143.8146  157.6141 C   0  0  2  0  0  0  0  0  0  0  0  0
  153.0846  144.4102  157.9647 C   0  0  0  0  0  0  0  0  0  0  0  0
  151.4728  144.0764  156.2433 O   0  0  0  0  0  0  0  0  0  0  0  0
  151.7546  142.2768  157.8105 C   0  0  0  0  0  0  0  0  0  0  0  0
  150.9083  141.5264  156.8950 N   0  0  0  0  0  0  0  0  0  0  0  0
  149.5839  141.7718  156.6071 C   0  0  0  0  0  0  0  0  0  0  0  0
  149.0386  140.9547  155.7474 N   0  0  0  0  0  0  0  0  0  0  0  0
  150.0625  140.0724  155.4280 C   0  0  0  0  0  0  0  0  0  0  0  0
  150.1594  138.9485  154.5673 C   0  0  0  0  0  0  0  0  0  0  0  0
  149.0977  138.5375  153.8382 N   0  0  0  0  0  0  0  0  0  0  0  0
  147.7926  139.1806  153.9628 C   0  0  0  0  0  0  0  0  0  0  0  0
  146.6823  138.3113  153.3494 C   0  0  0  0  0  0  0  0  0  0  0  0
  147.8290  140.5674  153.3077 C   0  0  0  0  0  0  0  0  0  0  0  0
  151.3521  138.2993  154.5078 N   0  0  0  0  0  0  0  0  0  0  0  0
  152.3847  138.7257  155.2418 C   0  0  0  0  0  0  0  0  0  0  0  0
  152.4396  139.7592  156.0853 N   0  0  0  0  0  0  0  0  0  0  0  0
  151.2436  140.4124  156.1452 C   0  0  0  0  0  0  0  0  0  0  0  0
  150.0150  145.2176  160.3926 H   0  0  0  0  0  0  0  0  0  0  0  0
  151.7410  145.2995  160.0690 H   0  0  0  0  0  0  0  0  0  0  0  0
  150.9793  143.7537  160.4528 H   0  0  0  0  0  0  0  0  0  0  0  0
  149.6619  143.8562  158.3353 H   0  0  0  0  0  0  0  0  0  0  0  0
  150.3059  145.4354  157.9894 H   0  0  0  0  0  0  0  0  0  0  0  0
  153.3000  144.3020  159.0281 H   0  0  0  0  0  0  0  0  0  0  0  0
  153.1470  145.4706  157.7194 H   0  0  0  0  0  0  0  0  0  0  0  0
  153.8833  143.9101  157.4158 H   0  0  0  0  0  0  0  0  0  0  0  0
  150.5735  144.3467  156.1375 H   0  0  0  0  0  0  0  0  0  0  0  0
  152.7767  141.9102  157.7039 H   0  0  0  0  0  0  0  0  0  0  0  0
  151.4510  142.0259  158.8278 H   0  0  0  0  0  0  0  0  0  0  0  0
  149.0336  142.5878  157.0525 H   0  0  0  0  0  0  0  0  0  0  0  0
  149.1308  137.7282  153.2349 H   0  0  0  0  0  0  0  0  0  0  0  0
  147.5723  139.3310  155.0204 H   0  0  0  0  0  0  0  0  0  0  0  0
  145.7085  138.7898  153.4559 H   0  0  0  0  0  0  0  0  0  0  0  0
  146.6197  137.3374  153.8349 H   0  0  0  0  0  0  0  0  0  0  0  0
  146.8547  138.1414  152.2860 H   0  0  0  0  0  0  0  0  0  0  0  0
  146.8715  141.0778  153.4164 H   0  0  0  0  0  0  0  0  0  0  0  0
  148.0508  140.4988  152.2419 H   0  0  0  0  0  0  0  0  0  0  0  0
  148.5909  141.1981  153.7669 H   0  0  0  0  0  0  0  0  0  0  0  0
  153.2972  138.1575  155.1384 H   0  0  0  0  0  0  0  0  0  0  0  0
  1  2  1  0  0  0  0
  1 20  1  0  0  0  0
  1 21  1  0  0  0  0
  1 22  1  0  0  0  0
  2  3  1  0  0  0  0
  2 23  1  0  0  0  0
  2 24  1  0  0  0  0
  3  4  1  0  0  0  0
  3  5  1  0  0  0  0
  3  6  1  0  0  0  0
  4 25  1  0  0  0  0
  4 26  1  0  0  0  0
  4 27  1  0  0  0  0
  5 28  1  0  0  0  0
  6  7  1  0  0  0  0
  6 29  1  0  0  0  0
  6 30  1  0  0  0  0
  7 19  1  0  0  0  0
  7  8  1  0  0  0  0
  8  9  2  0  0  0  0
  8 31  1  0  0  0  0
  9 10  1  0  0  0  0
 10 19  2  0  0  0  0
 10 11  1  0  0  0  0
 11 12  1  0  0  0  0
 11 16  2  0  0  0  0
 12 13  1  0  0  0  0
 12 32  1  0  0  0  0
 13 14  1  0  0  0  0
 13 15  1  0  0  0  0
 13 33  1  0  0  0  0
 14 34  1  0  0  0  0
 14 35  1  0  0  0  0
 14 36  1  0  0  0  0
 15 37  1  0  0  0  0
 15 38  1  0  0  0  0
 15 39  1  0  0  0  0
 16 17  1  0  0  0  0
 17 18  2  0  0  0  0
 17 40  1  0  0  0  0
 18 19  1  0  0  0  0
M  END
> <s_m_source_file>
AV-unprocessed.smi

> <i_m_source_file_index>
2744

> <i_lp_mmshare_version>
43012

> <i_f3d_flags>
0

> <s_epik_input>
W0NIM11bQ0gyXVtDQEBdKFtDSDNdKShbT0hdKVtDSDJdbihbY0hdbjEpYyhjMTIpbltjSF1uYzJbTkhdW0NIXShbQ0gzXSlbQ0gzXQ==

> <s_epik_cmdline>
J2VwaWtfcHl0aG9uJywgJy1waCcsICc3LjAnLCAnLXRuJywgJzgnLCAnLW1hJywgJzIwMCcsICctbWV0YWxfYmluZGluZycsICctaW1hZScsICc8aW5maWxlLm1hZT4nLCAnLW9tYWUnLCAnPG91dGZpbGUubWFlPic=

> <r_lp_tautomer_probability>
1

> <r_epik_Ionization_Penalty>
0.00217876

> <r_epik_Ionization_Penalty_Charging>
0

> <r_epik_Ionization_Penalty_Neutral>
0.00217876

> <r_epik_State_Penalty>
-0

> <r_epik_Charging_Adjusted_Penalty>
0

> <i_epik_Tot_Q>
0

> <i_epik_Tot_abs_Q>
0

> <r_epik_Metal_State_Penalty>
-0

> <b_epik_Metal_Only>
0

> <s_lp_Force_Field>
OPLS_2005

> <r_lp_Energy>
9.28896

> <b_lp_Chiralities_Consistent>
1

> <s_lp_Variant>
AV-unprocessed.smi:2744-2

> <Gold.Version>
5.8.1

> <Gold.Id.Protein>
6NUR|6NUR_protein|mol2

> <Gold.PLP.Fitness>
46.5859

> <Gold.PLP.PLP>
-38.5279

> <Gold.PLP.part.hbond>
-4.0000

> <Gold.PLP.part.metal>
0.0000

> <Gold.PLP.part.buried>
-1.2330

> <Gold.PLP.part.nonpolar>
-33.5474

> <Gold.PLP.part.repulsive>
0.3093

> <Gold.PLP.ligand.clash>
0.0000

> <Gold.PLP.ligand.torsion>
1.0936

> <Gold.PLP.Chemscore.Hbond>
3.0000

> <Gold.PLP.Chemscore.CHOScore>
0.3978

> <Gold.PLP.Chemscore.Metal>
0.0000

> <Gold.Chemscore.Hbonds>
donor molecule, donor type, donor heavy atom, donor atom, acceptor molecule, acceptor atom, score
      L1  H     5    28       P1  8028  1.00
      L1  H    12    32       P1  7948  1.00
      P1  H  7997  8010       L1    18  1.00
      L1  C     8    31       P1  8028  0.70

> <Gold.PLP.Chemscore.Internal.Correction>
0.0518

> <Gold.Rescore>
     Score         DG    S(hbond)    S(metal)    S(lipo)     H(rot)  DE(clash)    DE(int)     intcor
     10.96     -16.35       2.31        0.00      78.90       2.38       0.65       4.74       ----

> <Gold.Chemscore.Fitness>
10.9593

> <Gold.Chemscore.DG>
-16.3473

> <Gold.Chemscore.ZeroCoef>
-5.4800

> <Gold.Chemscore.Hbond>
2.3140

> <Gold.Chemscore.Metal>
0.0000

> <Gold.Chemscore.Lipo>
78.9045

> <Gold.Chemscore.Internal_Hbond>
0.0000

> <Gold.Chemscore.DEClash>
0.6464

> <Gold.Chemscore.DEInternal>
4.7416

> <Gold.Chemscore.Rot>
2.3802

> <Gold.Chemscore.Internal.Correction>
   9.000000E+99

> <Gold.Chemscore.Hbonds>
donor molecule, donor type, donor heavy atom, donor atom, acceptor molecule, acceptor atom, score
      L1  H     5    28       P1  8028  1.00
      L1  H    12    32       P1  7948  0.95
      P1  H  7997  8010       L1    18  0.44

> <Gold.Chemscore.Hbond.Weighted>
-7.7288

> <Gold.Chemscore.Metal.Weighted>
-0.0000

> <Gold.Chemscore.Lipo.Weighted>
-9.2318

> <Gold.Chemscore.Internal_Hbond.Weighted>
0.0000

> <Gold.Chemscore.DEClash.Weighted>
0.6464

> <Gold.Chemscore.DEInternal.Weighted>
4.7416

> <Gold.Chemscore.Rot.Weighted>
6.0933

> <Gold.Chemscore.Internal.Correction.Weighted>
   9.000000E+99

> <Gold.Protein.RotatedTorsions>
[ 6907 6896 6895 6894 ] final  -53.41 input  -60.11 | X-H torsion
[ 7974 7965 7964 7962 ] final   23.37 input  175.53 | X-H torsion
[ 8008 7997 7996 7995 ] final   83.16 input   59.86 | X-H torsion
[ 10167 10162 10161 10158 ] final -169.72 input  -65.29 | X-H torsion
[ 10718 10713 10712 10709 ] final  -50.52 input   66.30 | X-H torsion
[ 10763 10752 10751 10750 ] final -115.12 input  -60.55 | X-H torsion
[ 11005 11000 10999 10996 ] final   61.52 input  -57.11 | X-H torsion

> <Gold.Protein.ActiveResidues>
 VAL166  LYS551  ARG553  GLY616  TRP617  ASP618  TYR619  PRO620  LYS621  CYS622 
 ASP623  PHE694  ASN695  SER759  ASP760  ASP761  ALA762  ILE779  LEU786  VAL792 
 PHE793  MET794  SER795  GLU796  ALA797  LYS798  CYS799  TRP800  GLU811  SER814 

> <Gold.Protein.RotatedAtoms>
  150.8429  134.7727  159.6946 H   0  0  0  0  0  0  0  0  0  0  0  0  # atno 6907 bound_to 6896
  152.4512  134.5385  159.9842 H   0  0  0  0  0  0  0  0  0  0  0  0  # atno 6908 bound_to 6896
  151.5522  133.3378  159.2991 H   0  0  0  0  0  0  0  0  0  0  0  0  # atno 6909 bound_to 6896
  146.1987  139.7754  142.8778 H   0  0  0  0  0  0  0  0  0  0  0  0  # atno 7974 bound_to 7965
  155.9202  140.3422  155.6167 H   0  0  0  0  0  0  0  0  0  0  0  0  # atno 8008 bound_to 7997
  155.7282  140.0792  157.2319 H   0  0  0  0  0  0  0  0  0  0  0  0  # atno 8009 bound_to 7997
  154.4068  140.1593  156.2466 H   0  0  0  0  0  0  0  0  0  0  0  0  # atno 8010 bound_to 7997
  139.5905  144.1223  152.1628 H   0  0  0  0  0  0  0  0  0  0  0  0  # atno 10167 bound_to 10162
  156.1793  130.4150  149.9531 H   0  0  0  0  0  0  0  0  0  0  0  0  # atno 10718 bound_to 10713
  154.8468  135.4393  154.1613 H   0  0  0  0  0  0  0  0  0  0  0  0  # atno 10763 bound_to 10752
  153.2749  135.6948  153.7449 H   0  0  0  0  0  0  0  0  0  0  0  0  # atno 10764 bound_to 10752
  153.6675  135.3424  155.3119 H   0  0  0  0  0  0  0  0  0  0  0  0  # atno 10765 bound_to 10752
  140.0156  134.6230  155.9715 H   0  0  0  0  0  0  0  0  0  0  0  0  # atno 11005 bound_to 11000
  145.3557  141.0316  143.3313 LP  0  0  0  0  0  0  0  0  0  0  0  0  # atno 17320 bound_to 7965
  144.8636  139.5141  143.6801 LP  0  0  0  0  0  0  0  0  0  0  0  0  # atno 17321 bound_to 7965
  140.0797  144.5711  150.7131 LP  0  0  0  0  0  0  0  0  0  0  0  0  # atno 17342 bound_to 10162
  140.7169  143.2552  151.4405 LP  0  0  0  0  0  0  0  0  0  0  0  0  # atno 17343 bound_to 10162
  156.7306  130.9042  151.3625 LP  0  0  0  0  0  0  0  0  0  0  0  0  # atno 17370 bound_to 10713
  157.6857  130.9183  150.0380 LP  0  0  0  0  0  0  0  0  0  0  0  0  # atno 17371 bound_to 10713
  141.1740  133.6539  156.4759 LP  0  0  0  0  0  0  0  0  0  0  0  0  # atno 17394 bound_to 11000
  140.4477  134.6957  157.5024 LP  0  0  0  0  0  0  0  0  0  0  0  0  # atno 17395 bound_to 11000

$$$$
