#       Name:                AV-unprocessed.smi:2685
#       Creating user name   scv26
#       Creation time:       Fri Mar 27 14:41:32 2020


#       File generated by GOLD software.
#

@<TRIPOS>MOLECULE
AV-unprocessed.smi:2685
    29    29     1
SMALL
NO_CHARGES


@<TRIPOS>ATOM
      1 ****        -0.0225   2.5535   0.0538 C.3            1 S1                 0.0000
      2 ****        -0.7781   1.2459  -0.0998 C.2            1 S1                 0.0000
      3 ****        -2.0620   1.2537  -0.1263 N.2            1 S1                 0.0000
      4 ****        -2.8101   0.0676  -0.2548 C.2            1 S1                 0.0000
      5 ****        -4.0371   0.1353  -0.2810 O.2            1 S1                 0.0000
      6 ****        -2.1403  -1.1250  -0.3460 N.pl3          1 S1                -1.0000
      7 ****        -0.7847  -1.1684  -0.3171 C.2            1 S1                 0.0000
      8 ****        -0.1513  -2.5484  -0.4164 C.3            1 S1                 0.0000
      9 ****        -0.0086  -0.0231  -0.2148 C.2            1 S1                 0.0000
     10 ****         1.5221  -0.0052  -0.1828 C.3            1 S1                 0.0000
     11 ****         2.1460  -0.1005   1.2154 C.2            1 S1                 0.0000
     12 ****         3.3605   0.1846   1.3025 O.co2          1 S1                 0.0000
     13 ****         1.4207  -0.4602   2.1696 O.co2          1 S1                -1.0000
     14 ****         0.6728   2.4999   0.8916 H              1 S1                 0.0000
     15 ****        -0.7102   3.3786   0.2429 H              1 S1                 0.0000
     16 ****         0.5340   2.7804  -0.8555 H              1 S1                 0.0000
     17 ****         0.3846  -2.6610  -1.3587 H              1 S1                 0.0000
     18 ****        -0.8966  -3.3431  -0.3643 H              1 S1                 0.0000
     19 ****         0.5556  -2.7120   0.3972 H              1 S1                 0.0000
     20 ****         1.9025  -0.8379  -0.7736 H              1 S1                 0.0000
     21 ****         1.9029   0.8856  -0.6817 H              1 S1                 0.0000
     22 ****        -2.5442   2.1267  -0.0536 LP             1 S1                 0.0000
     23 ****        -4.4904   1.0239  -0.2115 LP             1 S1                 0.0000
     24 ****        -4.5820  -0.6983  -0.3718 LP             1 S1                 0.0000
     25 ****        -2.6586  -1.9755  -0.4352 LP             1 S1                 0.0000
     26 ****         3.8240   0.1331   2.1871 LP             1 S1                 0.0000
     27 ****         3.8682   0.4640   0.4875 LP             1 S1                 0.0000
     28 ****         1.8061  -0.5376   3.0891 LP             1 S1                 0.0000
     29 ****         0.4557  -0.6702   2.0126 LP             1 S1                 0.0000
@<TRIPOS>BOND
    1    1    2 1     
    2    1   14 1     
    3    1   15 1     
    4    1   16 1     
    5    2    9 1     
    6    2    3 2     
    7    3    4 1     
    8    4    5 2     
    9    4    6 1     
   10    6    7 1     
   11    7    8 1     
   12    7    9 2     
   13    8   17 1     
   14    8   18 1     
   15    8   19 1     
   16    9   10 1     
   17   10   11 1     
   18   10   20 1     
   19   10   21 1     
   20   11   12 ar    
   21   11   13 ar    
   22    3   22 1     
   23    5   23 1     
   24    5   24 1     
   25    6   25 1     
   26   12   26 1     
   27   12   27 1     
   28   13   28 1     
   29   13   29 1     
@<TRIPOS>SUBSTRUCTURE
      1 S1             1
@<TRIPOS>SET
LONE_PAIRS      STATIC     ATOMS    <user>   **** ""
8 22 23 24 25 26 27 28 29
ATOM$BLUE        STATIC     ATOMS    COLORGROUP SYSTEM
8 22 23 24 25 26 27 28 29
