AV-unprocessed.smi:2060|AV-procd|sdf|8355|dock10
  -GOLD-   2272011 23D 1   1.00000     0.00000
 Structure written by MMmdl.
 45 46  0  0  0  0  0  0  0  0  1 V2000
  148.2920  135.4577  158.4426 C   0  0  0  0  0  0  0  0  0  0  0  0
  148.9856  136.4828  157.5268 C   0  0  0  0  0  0  0  0  0  0  0  0
  148.5561  136.4486  156.0254 C   0  0  2  0  0  0  0  0  0  0  0  0
  147.0317  136.7428  155.9990 C   0  0  0  0  0  0  0  0  0  0  0  0
  148.7825  135.0048  155.4714 C   0  0  0  0  0  0  0  0  0  0  0  0
  148.2750  134.8032  154.1137 N   0  0  0  0  0  0  0  0  0  0  0  0
  147.3202  133.9316  153.7565 C   0  0  0  0  0  0  0  0  0  0  0  0
  146.7426  133.1889  154.5511 O   0  0  0  0  0  0  0  0  0  0  0  0
  147.0808  133.9862  152.4353 N   0  0  0  0  0  0  0  0  0  0  0  0
  146.1467  133.2188  151.6939 C   0  0  0  0  0  0  0  0  0  0  0  0
  145.3510  133.8185  150.6819 C   0  0  0  0  0  0  0  0  0  0  0  0
  144.6045  132.7727  150.2167 C   0  0  0  0  0  0  0  0  0  0  0  0
  143.5616  132.6639  149.1576 C   0  0  0  0  0  0  0  0  0  0  0  0
  144.9189  131.6310  150.8873 O   0  0  0  0  0  0  0  0  0  0  0  0
  145.9077  131.9238  151.8340 N   0  0  0  0  0  0  0  0  0  0  0  0
  149.3005  137.4715  155.2366 N   0  0  0  0  0  0  0  0  0  0  0  0
  150.7617  137.3320  155.2465 C   0  0  0  0  0  0  0  0  0  0  0  0
  151.4422  138.3323  154.2961 C   0  0  0  0  0  0  0  0  0  0  0  0
  151.0627  139.6590  154.6416 O   0  0  0  0  0  0  0  0  0  0  0  0
  149.6541  139.8520  154.5906 C   0  0  0  0  0  0  0  0  0  0  0  0
  148.9626  138.8662  155.5470 C   0  0  0  0  0  0  0  0  0  0  0  0
  148.6529  135.5577  159.4664 H   0  0  0  0  0  0  0  0  0  0  0  0
  148.4911  134.4336  158.1285 H   0  0  0  0  0  0  0  0  0  0  0  0
  147.2114  135.5981  158.4656 H   0  0  0  0  0  0  0  0  0  0  0  0
  148.8368  137.4806  157.9395 H   0  0  0  0  0  0  0  0  0  0  0  0
  150.0591  136.3131  157.6109 H   0  0  0  0  0  0  0  0  0  0  0  0
  146.4891  136.1651  156.7479 H   0  0  0  0  0  0  0  0  0  0  0  0
  146.5852  136.4936  155.0362 H   0  0  0  0  0  0  0  0  0  0  0  0
  146.8211  137.7949  156.1921 H   0  0  0  0  0  0  0  0  0  0  0  0
  149.8466  134.7765  155.4273 H   0  0  0  0  0  0  0  0  0  0  0  0
  148.3503  134.2594  156.1393 H   0  0  0  0  0  0  0  0  0  0  0  0
  148.6880  135.3742  153.3910 H   0  0  0  0  0  0  0  0  0  0  0  0
  147.6258  134.6472  151.9015 H   0  0  0  0  0  0  0  0  0  0  0  0
  145.3290  134.8458  150.3495 H   0  0  0  0  0  0  0  0  0  0  0  0
  143.0878  133.6292  148.9786 H   0  0  0  0  0  0  0  0  0  0  0  0
  142.7844  131.9562  149.4471 H   0  0  0  0  0  0  0  0  0  0  0  0
  143.9991  132.3221  148.2194 H   0  0  0  0  0  0  0  0  0  0  0  0
  151.1507  137.4869  156.2526 H   0  0  0  0  0  0  0  0  0  0  0  0
  151.0601  136.3304  154.9418 H   0  0  0  0  0  0  0  0  0  0  0  0
  152.5264  138.2433  154.3657 H   0  0  0  0  0  0  0  0  0  0  0  0
  151.1697  138.1265  153.2598 H   0  0  0  0  0  0  0  0  0  0  0  0
  149.4250  140.8791  154.8747 H   0  0  0  0  0  0  0  0  0  0  0  0
  149.2958  139.7141  153.5691 H   0  0  0  0  0  0  0  0  0  0  0  0
  147.8894  139.0339  155.4803 H   0  0  0  0  0  0  0  0  0  0  0  0
  149.2578  139.1093  156.5676 H   0  0  0  0  0  0  0  0  0  0  0  0
  1  2  1  0  0  0  0
  1 22  1  0  0  0  0
  1 23  1  0  0  0  0
  1 24  1  0  0  0  0
  2  3  1  0  0  0  0
  2 25  1  0  0  0  0
  2 26  1  0  0  0  0
  3  4  1  0  0  0  0
  3  5  1  0  0  0  0
  3 16  1  0  0  0  0
  4 27  1  0  0  0  0
  4 28  1  0  0  0  0
  4 29  1  0  0  0  0
  5  6  1  0  0  0  0
  5 30  1  0  0  0  0
  5 31  1  0  0  0  0
  6  7  1  0  0  0  0
  6 32  1  0  0  0  0
  7  8  2  0  0  0  0
  7  9  1  0  0  0  0
  9 10  1  0  0  0  0
  9 33  1  0  0  0  0
 10 15  2  0  0  0  0
 10 11  1  0  0  0  0
 11 12  2  0  0  0  0
 11 34  1  0  0  0  0
 12 13  1  0  0  0  0
 12 14  1  0  0  0  0
 13 35  1  0  0  0  0
 13 36  1  0  0  0  0
 13 37  1  0  0  0  0
 14 15  1  0  0  0  0
 16 21  1  0  0  0  0
 16 17  1  0  0  0  0
 17 18  1  0  0  0  0
 17 38  1  0  0  0  0
 17 39  1  0  0  0  0
 18 19  1  0  0  0  0
 18 40  1  0  0  0  0
 18 41  1  0  0  0  0
 19 20  1  0  0  0  0
 20 21  1  0  0  0  0
 20 42  1  0  0  0  0
 20 43  1  0  0  0  0
 21 44  1  0  0  0  0
 21 45  1  0  0  0  0
M  END
> <s_m_source_file>
AV-unprocessed.smi

> <i_m_source_file_index>
2060

> <i_lp_mmshare_version>
43012

> <i_f3d_flags>
0

> <s_epik_input>
W0NIMl0xW0NIMl1PW0NIMl1bQ0gyXU4xW0NAQF0oW0NIM10pKFtDSDJdW0NIM10pW0NIMl1bTkhdQyg9TylbTkhdYzJbY0hdYyhbQ0gzXSlvbjI=

> <s_epik_cmdline>
J2VwaWtfcHl0aG9uJywgJy1waCcsICc3LjAnLCAnLXRuJywgJzgnLCAnLW1hJywgJzIwMCcsICctbWV0YWxfYmluZGluZycsICctaW1hZScsICc8aW5maWxlLm1hZT4nLCAnLW9tYWUnLCAnPG91dGZpbGUubWFlPic=

> <r_epik_Ionization_Penalty>
0.289127

> <r_epik_Ionization_Penalty_Charging>
0

> <r_epik_Ionization_Penalty_Neutral>
0.289127

> <r_epik_State_Penalty>
0.282056

> <r_epik_Charging_Adjusted_Penalty>
0.282056

> <i_epik_Tot_Q>
0

> <i_epik_Tot_abs_Q>
0

> <r_epik_Metal_State_Penalty>
0.284526

> <b_epik_Metal_Only>
0

> <s_lp_Force_Field>
OPLS_2005

> <r_lp_Energy>
40.1787

> <b_lp_Chiralities_Consistent>
1

> <s_lp_Variant>
AV-unprocessed.smi:2060-2

> <Gold.Version>
5.8.1

> <Gold.Id.Protein>
6NUR|6NUR_protein|mol2

> <Gold.PLP.Fitness>
34.7327

> <Gold.PLP.PLP>
-26.4958

> <Gold.PLP.part.hbond>
-3.0000

> <Gold.PLP.part.metal>
0.0000

> <Gold.PLP.part.buried>
-5.6546

> <Gold.PLP.part.nonpolar>
-18.3162

> <Gold.PLP.part.repulsive>
0.4851

> <Gold.PLP.ligand.clash>
0.0000

> <Gold.PLP.ligand.torsion>
0.4346

> <Gold.PLP.Chemscore.Hbond>
3.0000

> <Gold.PLP.Chemscore.CHOScore>
0.0000

> <Gold.PLP.Chemscore.Metal>
0.0000

> <Gold.Chemscore.Hbonds>
donor molecule, donor type, donor heavy atom, donor atom, acceptor molecule, acceptor atom, score
      L1  H     6    32       P1  7948  1.00
      L1  H     9    33       P1  7948  1.00
      P1  H  7989  7998       L1    19  1.00

> <Gold.PLP.Chemscore.Internal.Correction>
0.1060

> <Gold.Rescore>
     Score         DG    S(hbond)    S(metal)    S(lipo)     H(rot)  DE(clash)    DE(int)     intcor
     13.70     -14.27       1.80        0.00      61.16       1.71       0.12       0.44       ----

> <Gold.Chemscore.Fitness>
13.7042

> <Gold.Chemscore.DG>
-14.2679

> <Gold.Chemscore.ZeroCoef>
-5.4800

> <Gold.Chemscore.Hbond>
1.8026

> <Gold.Chemscore.Metal>
0.0000

> <Gold.Chemscore.Lipo>
61.1592

> <Gold.Chemscore.Internal_Hbond>
0.0000

> <Gold.Chemscore.DEClash>
0.1239

> <Gold.Chemscore.DEInternal>
0.4398

> <Gold.Chemscore.Rot>
1.7143

> <Gold.Chemscore.Internal.Correction>
   9.000000E+99

> <Gold.Chemscore.Hbonds>
donor molecule, donor type, donor heavy atom, donor atom, acceptor molecule, acceptor atom, score
      L1  H     6    32       P1  7948  0.88
      L1  H     9    33       P1  7948  0.45
      P1  H  7989  7998       L1    19  0.30

> <Gold.Chemscore.Hbond.Weighted>
-6.0208

> <Gold.Chemscore.Metal.Weighted>
-0.0000

> <Gold.Chemscore.Lipo.Weighted>
-7.1556

> <Gold.Chemscore.Internal_Hbond.Weighted>
0.0000

> <Gold.Chemscore.DEClash.Weighted>
0.1239

> <Gold.Chemscore.DEInternal.Weighted>
0.4398

> <Gold.Chemscore.Rot.Weighted>
4.3885

> <Gold.Chemscore.Internal.Correction.Weighted>
   9.000000E+99

> <Gold.Protein.RotatedTorsions>
[ 6907 6896 6895 6894 ] final  147.82 input  -60.11 | X-H torsion
[ 7974 7965 7964 7962 ] final -152.98 input  175.53 | X-H torsion
[ 8008 7997 7996 7995 ] final  -36.17 input   59.86 | X-H torsion
[ 10167 10162 10161 10158 ] final  -55.20 input  -65.29 | X-H torsion
[ 10718 10713 10712 10709 ] final  116.70 input   66.30 | X-H torsion
[ 10763 10752 10751 10750 ] final   -9.06 input  -60.55 | X-H torsion
[ 11005 11000 10999 10996 ] final  133.42 input  -57.11 | X-H torsion

> <Gold.Protein.ActiveResidues>
 VAL166  LYS551  ARG553  GLY616  TRP617  ASP618  TYR619  PRO620  LYS621  CYS622 
 ASP623  PHE694  ASN695  SER759  ASP760  ASP761  ALA762  ILE779  LEU786  VAL792 
 PHE793  MET794  SER795  GLU796  ALA797  LYS798  CYS799  TRP800  GLU811  SER814 

> <Gold.Protein.RotatedAtoms>
  152.1497  133.4514  159.4806 H   0  0  0  0  0  0  0  0  0  0  0  0  # atno 6907 bound_to 6896
  150.6894  134.2205  159.4404 H   0  0  0  0  0  0  0  0  0  0  0  0  # atno 6908 bound_to 6896
  152.0101  134.9881  160.0618 H   0  0  0  0  0  0  0  0  0  0  0  0  # atno 6909 bound_to 6896
  144.7765  140.4589  143.5869 H   0  0  0  0  0  0  0  0  0  0  0  0  # atno 7974 bound_to 7965
  154.4079  140.1638  156.2330 H   0  0  0  0  0  0  0  0  0  0  0  0  # atno 8008 bound_to 7997
  155.9266  140.3417  155.6192 H   0  0  0  0  0  0  0  0  0  0  0  0  # atno 8009 bound_to 7997
  155.7157  140.0762  157.2343 H   0  0  0  0  0  0  0  0  0  0  0  0  # atno 8010 bound_to 7997
  140.6388  143.2496  151.5046 H   0  0  0  0  0  0  0  0  0  0  0  0  # atno 10167 bound_to 10162
  157.6144  131.1028  150.7510 H   0  0  0  0  0  0  0  0  0  0  0  0  # atno 10718 bound_to 10713
  153.4494  135.7015  153.6119 H   0  0  0  0  0  0  0  0  0  0  0  0  # atno 10763 bound_to 10752
  153.4460  135.3769  155.2256 H   0  0  0  0  0  0  0  0  0  0  0  0  # atno 10764 bound_to 10752
  154.8728  135.3985  154.3904 H   0  0  0  0  0  0  0  0  0  0  0  0  # atno 10765 bound_to 10752
  139.9850  134.9535  156.9722 H   0  0  0  0  0  0  0  0  0  0  0  0  # atno 11005 bound_to 11000
  145.6171  139.1520  143.3043 LP  0  0  0  0  0  0  0  0  0  0  0  0  # atno 17320 bound_to 7965
  146.1948  140.6283  142.9129 LP  0  0  0  0  0  0  0  0  0  0  0  0  # atno 17321 bound_to 7965
  139.5597  144.2186  152.1671 LP  0  0  0  0  0  0  0  0  0  0  0  0  # atno 17342 bound_to 10162
  140.1451  144.5167  150.6721 LP  0  0  0  0  0  0  0  0  0  0  0  0  # atno 17343 bound_to 10162
  156.7881  130.4881  149.5389 LP  0  0  0  0  0  0  0  0  0  0  0  0  # atno 17370 bound_to 10713
  156.1259  130.6143  151.0263 LP  0  0  0  0  0  0  0  0  0  0  0  0  # atno 17371 bound_to 10713
  140.5019  134.1088  155.7252 LP  0  0  0  0  0  0  0  0  0  0  0  0  # atno 17394 bound_to 11000
  141.1517  133.8957  157.2081 LP  0  0  0  0  0  0  0  0  0  0  0  0  # atno 17395 bound_to 11000

$$$$
