AV-unprocessed.smi:3337|AV-procd|sdf|12862|dock8
  -GOLD-   2272019263D 1   1.00000     0.00000
 Structure written by MMmdl.
 46 47  0  0  0  0  0  0  0  0  2 V2000
  143.7472  133.1504  151.2568 C   0  0  0  0  0  0  0  0  0  0  0  0
  144.9328  133.1576  152.2319 C   0  0  1  0  0  0  0  0  0  0  0  0
  145.6226  131.7835  152.2853 C   0  0  0  0  0  0  0  0  0  0  0  0
  146.8350  131.8120  153.2324 C   0  0  1  0  0  0  0  0  0  0  0  0
  147.5430  130.4504  153.2741 C   0  0  0  0  0  0  0  0  0  0  0  0
  147.8043  132.9386  152.8168 C   0  0  0  0  0  0  0  0  0  0  0  0
  147.1365  134.2661  152.7721 N   0  3  2  0  0  0  0  0  0  0  0  0
  146.8861  134.8509  154.1167 C   0  0  0  0  0  0  0  0  0  0  0  0
  148.1661  134.9273  154.9724 C   0  0  0  0  0  0  0  0  0  0  0  0
  149.0551  135.9889  154.5155 N   0  0  0  0  0  0  0  0  0  0  0  0
  149.6038  136.9228  155.3091 C   0  0  0  0  0  0  0  0  0  0  0  0
  149.4205  136.9567  156.5266 O   0  0  0  0  0  0  0  0  0  0  0  0
  150.4895  137.9723  154.6190 C   0  0  2  0  0  0  0  0  0  0  0  0
  151.9236  138.0016  155.1849 C   0  0  0  0  0  0  0  0  0  0  0  0
  149.8521  139.2823  154.6685 N   0  0  0  0  0  0  0  0  0  0  0  0
  148.6235  139.6531  154.3012 C   0  0  0  0  0  0  0  0  0  0  0  0
  148.3566  140.9317  154.5260 N   0  0  0  0  0  0  0  0  0  0  0  0
  149.5434  141.3185  155.0807 C   0  0  0  0  0  0  0  0  0  0  0  0
  150.4696  140.3675  155.1992 N   0  0  0  0  0  0  0  0  0  0  0  0
  145.9551  134.2566  151.8655 C   0  0  0  0  0  0  0  0  0  0  0  0
  144.0717  132.9446  150.2362 H   0  0  0  0  0  0  0  0  0  0  0  0
  143.2346  134.1129  151.2556 H   0  0  0  0  0  0  0  0  0  0  0  0
  143.0159  132.3902  151.5331 H   0  0  0  0  0  0  0  0  0  0  0  0
  144.5270  133.3713  153.2208 H   0  0  0  0  0  0  0  0  0  0  0  0
  144.9120  131.0238  152.6137 H   0  0  0  0  0  0  0  0  0  0  0  0
  145.9448  131.4933  151.2839 H   0  0  0  0  0  0  0  0  0  0  0  0
  146.4744  132.0194  154.2408 H   0  0  0  0  0  0  0  0  0  0  0  0
  147.9426  130.1796  152.2962 H   0  0  0  0  0  0  0  0  0  0  0  0
  146.8574  129.6605  153.5829 H   0  0  0  0  0  0  0  0  0  0  0  0
  148.3724  130.4602  153.9818 H   0  0  0  0  0  0  0  0  0  0  0  0
  148.6642  132.9751  153.4870 H   0  0  0  0  0  0  0  0  0  0  0  0
  148.2060  132.7263  151.8246 H   0  0  0  0  0  0  0  0  0  0  0  0
  146.4197  135.8313  154.0242 H   0  0  0  0  0  0  0  0  0  0  0  0
  146.1676  134.2253  154.6480 H   0  0  0  0  0  0  0  0  0  0  0  0
  147.9066  135.1271  156.0123 H   0  0  0  0  0  0  0  0  0  0  0  0
  148.7122  133.9838  154.9664 H   0  0  0  0  0  0  0  0  0  0  0  0
  149.2528  136.0290  153.5259 H   0  0  0  0  0  0  0  0  0  0  0  0
  150.5662  137.6940  153.5663 H   0  0  0  0  0  0  0  0  0  0  0  0
  152.4014  137.0256  155.0934 H   0  0  0  0  0  0  0  0  0  0  0  0
  151.9446  138.2816  156.2388 H   0  0  0  0  0  0  0  0  0  0  0  0
  152.5399  138.7189  154.6422 H   0  0  0  0  0  0  0  0  0  0  0  0
  147.9077  138.9735  153.8625 H   0  0  0  0  0  0  0  0  0  0  0  0
  149.7279  142.3296  155.4132 H   0  0  0  0  0  0  0  0  0  0  0  0
  146.3157  134.0883  150.8497 H   0  0  0  0  0  0  0  0  0  0  0  0
  145.4731  135.2332  151.8492 H   0  0  0  0  0  0  0  0  0  0  0  0
  147.8100  134.8859  152.3451 H   0  0  0  0  0  0  0  0  0  0  0  0
  1  2  1  0  0  0  0
  1 21  1  0  0  0  0
  1 22  1  0  0  0  0
  1 23  1  0  0  0  0
  2 20  1  0  0  0  0
  2  3  1  0  0  0  0
  2 24  1  0  0  0  0
  3  4  1  0  0  0  0
  3 25  1  0  0  0  0
  3 26  1  0  0  0  0
  4  5  1  0  0  0  0
  4  6  1  0  0  0  0
  4 27  1  0  0  0  0
  5 28  1  0  0  0  0
  5 29  1  0  0  0  0
  5 30  1  0  0  0  0
  6  7  1  0  0  0  0
  6 31  1  0  0  0  0
  6 32  1  0  0  0  0
  7  8  1  0  0  0  0
  7 20  1  0  0  0  0
  7 46  1  0  0  0  0
  8  9  1  0  0  0  0
  8 33  1  0  0  0  0
  8 34  1  0  0  0  0
  9 10  1  0  0  0  0
  9 35  1  0  0  0  0
  9 36  1  0  0  0  0
 10 11  1  0  0  0  0
 10 37  1  0  0  0  0
 11 12  2  0  0  0  0
 11 13  1  0  0  0  0
 13 14  1  0  0  0  0
 13 15  1  0  0  0  0
 13 38  1  0  0  0  0
 14 39  1  0  0  0  0
 14 40  1  0  0  0  0
 14 41  1  0  0  0  0
 15 19  1  0  0  0  0
 15 16  1  0  0  0  0
 16 17  2  0  0  0  0
 16 42  1  0  0  0  0
 17 18  1  0  0  0  0
 18 19  2  0  0  0  0
 18 43  1  0  0  0  0
 20 44  1  0  0  0  0
 20 45  1  0  0  0  0
M  CHG  1   7   1
M  END
> <s_m_source_file>
AV-unprocessed.smi

> <i_m_source_file_index>
3337

> <i_lp_mmshare_version>
43012

> <i_f3d_flags>
0

> <s_epik_input>
W0NIM11bQ0BASF0xW0NIMl1bQ0BASF0oW0NIM10pW0NIMl1OKFtDSDJdMSlbQ0gyXVtDSDJdW05IXUMoPU8pW0NASF0oW0NIM10pbjJbY0hdbltjSF1uMg==

> <s_epik_cmdline>
J2VwaWtfcHl0aG9uJywgJy1waCcsICc3LjAnLCAnLXRuJywgJzgnLCAnLW1hJywgJzIwMCcsICctbWV0YWxfYmluZGluZycsICctaW1hZScsICc8aW5maWxlLm1hZT4nLCAnLW9tYWUnLCAnPG91dGZpbGUubWFlPic=

> <r_lp_tautomer_probability>
1

> <r_epik_Ionization_Penalty>
0.00175613

> <r_epik_Ionization_Penalty_Charging>
0.00174812

> <r_epik_Ionization_Penalty_Neutral>
8.01354e-06

> <r_epik_State_Penalty>
0.00118332

> <r_epik_Charging_Adjusted_Penalty>
0.00293143

> <i_epik_Tot_Q>
1

> <i_epik_Tot_abs_Q>
1

> <r_epik_Metal_State_Penalty>
-0

> <b_epik_Metal_Only>
0

> <s_lp_Force_Field>
OPLS_2005

> <r_lp_Energy>
24.5444

> <b_lp_Chiralities_Consistent>
1

> <s_lp_Variant>
AV-unprocessed.smi:3337-2

> <Gold.Version>
5.8.1

> <Gold.Id.Protein>
6NUR|6NUR_protein|mol2

> <Gold.PLP.Fitness>
47.7152

> <Gold.PLP.PLP>
-33.0168

> <Gold.PLP.part.hbond>
-2.9456

> <Gold.PLP.part.metal>
0.0000

> <Gold.PLP.part.buried>
-3.7445

> <Gold.PLP.part.nonpolar>
-26.7906

> <Gold.PLP.part.repulsive>
0.2365

> <Gold.PLP.ligand.clash>
0.0000

> <Gold.PLP.ligand.torsion>
0.2174

> <Gold.PLP.Chemscore.Hbond>
4.0000

> <Gold.PLP.Chemscore.CHOScore>
1.0000

> <Gold.PLP.Chemscore.Metal>
0.0000

> <Gold.Chemscore.Hbonds>
donor molecule, donor type, donor heavy atom, donor atom, acceptor molecule, acceptor atom, score
      L1  H     7    46       P1  7948  2.00
      L1  H    10    37       P1  7948  1.00
      P1  H  7989  7998       L1    19  0.63
      L1  C    18    43       P1  8028  0.97

> <Gold.PLP.Chemscore.Internal.Correction>
0.1332

> <Gold.Rescore>
     Score         DG    S(hbond)    S(metal)    S(lipo)     H(rot)  DE(clash)    DE(int)     intcor
     13.97     -15.09       2.80        0.00      57.08       2.51       0.00       1.12       ----

> <Gold.Chemscore.Fitness>
13.9666

> <Gold.Chemscore.DG>
-15.0896

> <Gold.Chemscore.ZeroCoef>
-5.4800

> <Gold.Chemscore.Hbond>
2.8038

> <Gold.Chemscore.Metal>
0.0000

> <Gold.Chemscore.Lipo>
57.0761

> <Gold.Chemscore.Internal_Hbond>
0.0000

> <Gold.Chemscore.DEClash>
0.0000

> <Gold.Chemscore.DEInternal>
1.1230

> <Gold.Chemscore.Rot>
2.5129

> <Gold.Chemscore.Internal.Correction>
   9.000000E+99

> <Gold.Chemscore.Hbonds>
donor molecule, donor type, donor heavy atom, donor atom, acceptor molecule, acceptor atom, score
      L1  H     7    46       P1  7948  0.82
      L1  H    10    37       P1  7948  0.78
      P1  H  7989  7998       L1    19  0.02

> <Gold.Chemscore.Hbond.Weighted>
-9.3648

> <Gold.Chemscore.Metal.Weighted>
-0.0000

> <Gold.Chemscore.Lipo.Weighted>
-6.6779

> <Gold.Chemscore.Internal_Hbond.Weighted>
0.0000

> <Gold.Chemscore.DEClash.Weighted>
0.0000

> <Gold.Chemscore.DEInternal.Weighted>
1.1230

> <Gold.Chemscore.Rot.Weighted>
6.4331

> <Gold.Chemscore.Internal.Correction.Weighted>
   9.000000E+99

> <Gold.Protein.RotatedTorsions>
[ 6907 6896 6895 6894 ] final -161.71 input  -60.11 | X-H torsion
[ 7974 7965 7964 7962 ] final -110.47 input  175.53 | X-H torsion
[ 8008 7997 7996 7995 ] final  -40.26 input   59.86 | X-H torsion
[ 10167 10162 10161 10158 ] final   67.95 input  -65.29 | X-H torsion
[ 10718 10713 10712 10709 ] final  -54.06 input   66.30 | X-H torsion
[ 10763 10752 10751 10750 ] final   41.13 input  -60.55 | X-H torsion
[ 11005 11000 10999 10996 ] final -122.24 input  -57.11 | X-H torsion

> <Gold.Protein.ActiveResidues>
 VAL166  LYS551  ARG553  GLY616  TRP617  ASP618  TYR619  PRO620  LYS621  CYS622 
 ASP623  PHE694  ASN695  SER759  ASP760  ASP761  ALA762  ILE779  LEU786  VAL792 
 PHE793  MET794  SER795  GLU796  ALA797  LYS798  CYS799  TRP800  GLU811  SER814 

> <Gold.Protein.RotatedAtoms>
  151.3690  133.3862  159.2697 H   0  0  0  0  0  0  0  0  0  0  0  0  # atno 6907 bound_to 6896
  150.9666  134.9047  159.7773 H   0  0  0  0  0  0  0  0  0  0  0  0  # atno 6908 bound_to 6896
  152.5169  134.3650  159.9350 H   0  0  0  0  0  0  0  0  0  0  0  0  # atno 6909 bound_to 6896
  145.1679  140.8911  143.3552 H   0  0  0  0  0  0  0  0  0  0  0  0  # atno 7974 bound_to 7965
  154.4014  140.1530  156.2998 H   0  0  0  0  0  0  0  0  0  0  0  0  # atno 8008 bound_to 7997
  155.8710  140.3449  155.5800 H   0  0  0  0  0  0  0  0  0  0  0  0  # atno 8009 bound_to 7997
  155.7774  140.0838  157.2067 H   0  0  0  0  0  0  0  0  0  0  0  0  # atno 8010 bound_to 7997
  140.0840  144.5046  150.7143 H   0  0  0  0  0  0  0  0  0  0  0  0  # atno 10167 bound_to 10162
  156.1482  130.4152  149.9989 H   0  0  0  0  0  0  0  0  0  0  0  0  # atno 10718 bound_to 10713
  152.9917  135.6171  154.2737 H   0  0  0  0  0  0  0  0  0  0  0  0  # atno 10763 bound_to 10752
  154.2469  135.2786  155.2834 H   0  0  0  0  0  0  0  0  0  0  0  0  # atno 10764 bound_to 10752
  154.5321  135.5785  153.6825 H   0  0  0  0  0  0  0  0  0  0  0  0  # atno 10765 bound_to 10752
  141.0010  134.0403  157.3538 H   0  0  0  0  0  0  0  0  0  0  0  0  # atno 11005 bound_to 11000
  145.0263  139.3380  143.6047 LP  0  0  0  0  0  0  0  0  0  0  0  0  # atno 17320 bound_to 7965
  146.3473  139.9583  142.8720 LP  0  0  0  0  0  0  0  0  0  0  0  0  # atno 17321 bound_to 7965
  140.7063  143.2470  151.4716 LP  0  0  0  0  0  0  0  0  0  0  0  0  # atno 17342 bound_to 10162
  139.5763  144.1812  152.1907 LP  0  0  0  0  0  0  0  0  0  0  0  0  # atno 17343 bound_to 10162
  156.7854  130.9236  151.3646 LP  0  0  0  0  0  0  0  0  0  0  0  0  # atno 17370 bound_to 10713
  157.6634  130.8986  149.9880 LP  0  0  0  0  0  0  0  0  0  0  0  0  # atno 17371 bound_to 10713
  139.9038  135.0173  156.7395 LP  0  0  0  0  0  0  0  0  0  0  0  0  # atno 17394 bound_to 11000
  140.6889  133.9407  155.7954 LP  0  0  0  0  0  0  0  0  0  0  0  0  # atno 17395 bound_to 11000

$$$$
