AV-unprocessed.smi:2504|AV-procd|sdf|9852|dock4
  -GOLD-   2272013483D 1   1.00000     0.00000
 Structure written by MMmdl.
 46 48  0  0  0  0  0  0  0  0  3 V2000
  153.4732  141.2625  159.5480 O   0  0  0  0  0  0  0  0  0  0  0  0
  152.4481  141.3690  158.8740 C   0  0  0  0  0  0  0  0  0  0  0  0
  151.4071  142.4633  159.1902 C   0  0  0  0  0  0  0  0  0  0  0  0
  151.0179  143.2644  157.9393 C   0  0  0  0  0  0  0  0  0  0  0  0
  152.0407  144.3987  157.8516 C   0  0  0  0  0  0  0  0  0  0  0  0
  152.4237  144.7194  159.3008 C   0  0  0  0  0  0  0  0  0  0  0  0
  151.9481  143.5339  160.1566 C   0  0  0  0  0  0  0  0  0  0  0  0
  152.2276  140.5629  157.7544 N   0  0  0  0  0  0  0  0  0  0  0  0
  150.8887  140.3159  157.2353 C   0  0  0  0  0  0  0  0  0  0  0  0
  151.4196  138.9402  156.8052 C   0  0  0  0  0  0  0  0  0  0  0  0
  151.7939  138.7455  154.9932 S   0  0  0  0  0  0  0  0  0  0  0  0
  150.7135  139.4624  154.2953 O   0  0  0  0  0  0  0  0  0  0  0  0
  153.1648  139.2457  154.8055 O   0  0  0  0  0  0  0  0  0  0  0  0
  151.7040  137.1393  154.7888 N   0  5  0  0  0  0  0  0  0  0  0  0
  150.4975  136.4192  155.1520 C   0  0  0  0  0  0  0  0  0  0  0  0
  150.8775  135.1163  155.8893 C   0  0  0  0  0  0  0  0  0  0  0  0
  150.3578  133.8437  155.2250 C   0  0  0  0  0  0  0  0  0  0  0  0
  149.5088  133.9179  154.0954 C   0  0  0  0  0  0  0  0  0  0  0  0
  149.0520  132.7294  153.4902 C   0  0  0  0  0  0  0  0  0  0  0  0
  149.4516  131.4892  154.0268 C   0  0  0  0  0  0  0  0  0  0  0  0
  150.2571  131.4538  155.1108 N   0  3  0  0  0  0  0  0  0  0  0  0
  150.7134  132.5691  155.7217 C   0  0  0  0  0  0  0  0  0  0  0  0
  152.6584  139.1734  157.6803 C   0  0  0  0  0  0  0  0  0  0  0  0
  150.5268  141.9940  159.6311 H   0  0  0  0  0  0  0  0  0  0  0  0
  151.0011  142.6649  157.0279 H   0  0  0  0  0  0  0  0  0  0  0  0
  150.0180  143.6795  158.0713 H   0  0  0  0  0  0  0  0  0  0  0  0
  152.9220  144.0548  157.3087 H   0  0  0  0  0  0  0  0  0  0  0  0
  151.6509  145.2679  157.3213 H   0  0  0  0  0  0  0  0  0  0  0  0
  153.4996  144.8708  159.3917 H   0  0  0  0  0  0  0  0  0  0  0  0
  151.9379  145.6379  159.6319 H   0  0  0  0  0  0  0  0  0  0  0  0
  151.1467  143.8629  160.8192 H   0  0  0  0  0  0  0  0  0  0  0  0
  152.7471  143.1593  160.7985 H   0  0  0  0  0  0  0  0  0  0  0  0
  150.1268  140.2506  158.0141 H   0  0  0  0  0  0  0  0  0  0  0  0
  150.5954  140.9826  156.4241 H   0  0  0  0  0  0  0  0  0  0  0  0
  150.8049  138.1093  157.1517 H   0  0  0  0  0  0  0  0  0  0  0  0
  149.8527  137.0095  155.8038 H   0  0  0  0  0  0  0  0  0  0  0  0
  149.8965  136.1731  154.2766 H   0  0  0  0  0  0  0  0  0  0  0  0
  151.9633  135.0486  155.9622 H   0  0  0  0  0  0  0  0  0  0  0  0
  150.5127  135.1549  156.9169 H   0  0  0  0  0  0  0  0  0  0  0  0
  149.2221  134.8768  153.6879 H   0  0  0  0  0  0  0  0  0  0  0  0
  148.4076  132.7706  152.6249 H   0  0  0  0  0  0  0  0  0  0  0  0
  149.1534  130.5320  153.6246 H   0  0  0  0  0  0  0  0  0  0  0  0
  151.3556  132.4107  156.5758 H   0  0  0  0  0  0  0  0  0  0  0  0
  153.6153  139.0389  157.1746 H   0  0  0  0  0  0  0  0  0  0  0  0
  152.6082  138.6433  158.6322 H   0  0  0  0  0  0  0  0  0  0  0  0
  150.5356  130.5459  155.4831 H   0  0  0  0  0  0  0  0  0  0  0  0
  1  2  2  0  0  0  0
  2  3  1  0  0  0  0
  2  8  1  0  0  0  0
  3  7  1  0  0  0  0
  3  4  1  0  0  0  0
  3 24  1  0  0  0  0
  4  5  1  0  0  0  0
  4 25  1  0  0  0  0
  4 26  1  0  0  0  0
  5  6  1  0  0  0  0
  5 27  1  0  0  0  0
  5 28  1  0  0  0  0
  6  7  1  0  0  0  0
  6 29  1  0  0  0  0
  6 30  1  0  0  0  0
  7 31  1  0  0  0  0
  7 32  1  0  0  0  0
  8 23  1  0  0  0  0
  8  9  1  0  0  0  0
  9 10  1  0  0  0  0
  9 33  1  0  0  0  0
  9 34  1  0  0  0  0
 10 11  1  0  0  0  0
 10 23  1  0  0  0  0
 10 35  1  0  0  0  0
 11 12  2  0  0  0  0
 11 13  2  0  0  0  0
 11 14  1  0  0  0  0
 14 15  1  0  0  0  0
 15 16  1  0  0  0  0
 15 36  1  0  0  0  0
 15 37  1  0  0  0  0
 16 17  1  0  0  0  0
 16 38  1  0  0  0  0
 16 39  1  0  0  0  0
 17 22  1  0  0  0  0
 17 18  2  0  0  0  0
 18 19  1  0  0  0  0
 18 40  1  0  0  0  0
 19 20  2  0  0  0  0
 19 41  1  0  0  0  0
 20 21  1  0  0  0  0
 20 42  1  0  0  0  0
 21 22  2  0  0  0  0
 21 46  1  0  0  0  0
 22 43  1  0  0  0  0
 23 44  1  0  0  0  0
 23 45  1  0  0  0  0
M  CHG  1  14  -1
M  CHG  1  21   1
M  END
> <s_m_source_file>
AV-unprocessed.smi

> <i_m_source_file_index>
2504

> <i_lp_mmshare_version>
43012

> <i_f3d_flags>
0

> <s_epik_input>
W0NIMl0xW0NIMl1bQ0gyXVtDSDJdW0NIXTFDKD1PKU4yW0NIMl1bQ0hdKFtDSDJdMilTKD1PKSg9TylbTkhdW0NIMl1bQ0gyXWMzW2NIXVtjSF1bY0hdbltjSF0z

> <s_epik_cmdline>
J2VwaWtfcHl0aG9uJywgJy1waCcsICc3LjAnLCAnLXRuJywgJzgnLCAnLW1hJywgJzIwMCcsICctbWV0YWxfYmluZGluZycsICctaW1hZScsICc8aW5maWxlLm1hZT4nLCAnLW9tYWUnLCAnPG91dGZpbGUubWFlPic=

> <r_epik_Ionization_Penalty>
7.23206

> <r_epik_Ionization_Penalty_Charging>
7.23206

> <r_epik_Ionization_Penalty_Neutral>
2.37876e-07

> <r_epik_State_Penalty>
7.91796

> <r_epik_Charging_Adjusted_Penalty>
15.15

> <i_epik_Tot_Q>
0

> <i_epik_Tot_abs_Q>
2

> <r_epik_Metal_State_Penalty>
3.92928

> <b_epik_Metal_Only>
1

> <s_lp_Force_Field>
OPLS_2005

> <r_lp_Energy>
37.1942

> <b_lp_Chiralities_Consistent>
1

> <s_lp_Variant>
AV-unprocessed.smi:2504-4

> <Gold.Version>
5.8.1

> <Gold.Id.Protein>
6NUR|6NUR_protein|mol2

> <Gold.PLP.Fitness>
56.3831

> <Gold.PLP.PLP>
-47.2494

> <Gold.PLP.part.hbond>
-3.4219

> <Gold.PLP.part.metal>
0.0000

> <Gold.PLP.part.buried>
-6.5385

> <Gold.PLP.part.nonpolar>
-37.3624

> <Gold.PLP.part.repulsive>
0.2955

> <Gold.PLP.ligand.clash>
0.0000

> <Gold.PLP.ligand.torsion>
2.5811

> <Gold.PLP.Chemscore.Hbond>
3.9920

> <Gold.PLP.Chemscore.CHOScore>
0.0000

> <Gold.PLP.Chemscore.Metal>
0.0000

> <Gold.Chemscore.Hbonds>
donor molecule, donor type, donor heavy atom, donor atom, acceptor molecule, acceptor atom, score
      P1  H  7989  7998       L1    12  1.00
      P1  H  7997  8008       L1    13  0.99
      P1  H 10752 10765       L1    14  2.00

> <Gold.PLP.Chemscore.Internal.Correction>
2.3199

> <Gold.Rescore>
     Score         DG    S(hbond)    S(metal)    S(lipo)     H(rot)  DE(clash)    DE(int)     intcor
     20.96     -23.41       2.81        0.00     110.54       1.72       0.12       2.33       ----

> <Gold.Chemscore.Fitness>
20.9598

> <Gold.Chemscore.DG>
-23.4067

> <Gold.Chemscore.ZeroCoef>
-5.4800

> <Gold.Chemscore.Hbond>
2.8101

> <Gold.Chemscore.Metal>
0.0000

> <Gold.Chemscore.Lipo>
110.5413

> <Gold.Chemscore.Internal_Hbond>
0.0000

> <Gold.Chemscore.DEClash>
0.1215

> <Gold.Chemscore.DEInternal>
2.3254

> <Gold.Chemscore.Rot>
1.7158

> <Gold.Chemscore.Internal.Correction>
   9.000000E+99

> <Gold.Chemscore.Hbonds>
donor molecule, donor type, donor heavy atom, donor atom, acceptor molecule, acceptor atom, score
      P1  H  7989  7998       L1    12  0.35
      P1  H  7997  8008       L1    13  0.89
      P1  H 10752 10765       L1    14  0.29

> <Gold.Chemscore.Hbond.Weighted>
-9.3857

> <Gold.Chemscore.Metal.Weighted>
-0.0000

> <Gold.Chemscore.Lipo.Weighted>
-12.9333

> <Gold.Chemscore.Internal_Hbond.Weighted>
0.0000

> <Gold.Chemscore.DEClash.Weighted>
0.1215

> <Gold.Chemscore.DEInternal.Weighted>
2.3254

> <Gold.Chemscore.Rot.Weighted>
4.3924

> <Gold.Chemscore.Internal.Correction.Weighted>
   9.000000E+99

> <Gold.Protein.RotatedTorsions>
[ 6907 6896 6895 6894 ] final    1.38 input  -60.11 | X-H torsion
[ 7974 7965 7964 7962 ] final -176.12 input  175.53 | X-H torsion
[ 8008 7997 7996 7995 ] final  -32.69 input   59.86 | X-H torsion
[ 10167 10162 10161 10158 ] final -136.92 input  -65.29 | X-H torsion
[ 10718 10713 10712 10709 ] final -140.37 input   66.30 | X-H torsion
[ 10763 10752 10751 10750 ] final  171.93 input  -60.55 | X-H torsion
[ 11005 11000 10999 10996 ] final   75.29 input  -57.11 | X-H torsion

> <Gold.Protein.ActiveResidues>
 VAL166  LYS551  ARG553  GLY616  TRP617  ASP618  TYR619  PRO620  LYS621  CYS622 
 ASP623  PHE694  ASN695  SER759  ASP760  ASP761  ALA762  ILE779  LEU786  VAL792 
 PHE793  MET794  SER795  GLU796  ALA797  LYS798  CYS799  TRP800  GLU811  SER814 

> <Gold.Protein.RotatedAtoms>
  151.5917  135.1053  160.0040 H   0  0  0  0  0  0  0  0  0  0  0  0  # atno 6907 bound_to 6896
  152.4303  133.7262  159.6572 H   0  0  0  0  0  0  0  0  0  0  0  0  # atno 6908 bound_to 6896
  150.8195  133.8207  159.3168 H   0  0  0  0  0  0  0  0  0  0  0  0  # atno 6909 bound_to 6896
  144.7127  140.1217  143.6404 H   0  0  0  0  0  0  0  0  0  0  0  0  # atno 7974 bound_to 7965
  154.4172  140.1730  156.1768 H   0  0  0  0  0  0  0  0  0  0  0  0  # atno 8008 bound_to 7997
  155.9715  140.3385  155.6556 H   0  0  0  0  0  0  0  0  0  0  0  0  # atno 8009 bound_to 7997
  155.6619  140.0702  157.2541 H   0  0  0  0  0  0  0  0  0  0  0  0  # atno 8010 bound_to 7997
  139.8630  143.7053  152.2648 H   0  0  0  0  0  0  0  0  0  0  0  0  # atno 10167 bound_to 10162
  156.3215  130.7537  151.1635 H   0  0  0  0  0  0  0  0  0  0  0  0  # atno 10718 bound_to 10713
  154.4189  135.2757  155.1989 H   0  0  0  0  0  0  0  0  0  0  0  0  # atno 10763 bound_to 10752
  154.3943  135.6059  153.5864 H   0  0  0  0  0  0  0  0  0  0  0  0  # atno 10764 bound_to 10752
  152.9832  135.5911  154.4481 H   0  0  0  0  0  0  0  0  0  0  0  0  # atno 10765 bound_to 10752
  139.9351  134.7505  156.1252 H   0  0  0  0  0  0  0  0  0  0  0  0  # atno 11005 bound_to 11000
  145.9365  139.2640  143.1294 LP  0  0  0  0  0  0  0  0  0  0  0  0  # atno 17320 bound_to 7965
  145.9469  140.8938  143.0279 LP  0  0  0  0  0  0  0  0  0  0  0  0  # atno 17321 bound_to 7965
  139.7356  144.7572  151.0733 LP  0  0  0  0  0  0  0  0  0  0  0  0  # atno 17342 bound_to 10162
  140.7772  143.5035  150.9742 LP  0  0  0  0  0  0  0  0  0  0  0  0  # atno 17343 bound_to 10162
  157.7413  131.0506  150.5109 LP  0  0  0  0  0  0  0  0  0  0  0  0  # atno 17370 bound_to 10713
  156.5262  130.4173  149.6225 LP  0  0  0  0  0  0  0  0  0  0  0  0  # atno 17371 bound_to 10713
  141.0960  133.6695  156.2646 LP  0  0  0  0  0  0  0  0  0  0  0  0  # atno 17394 bound_to 11000
  140.6098  134.5470  157.5531 LP  0  0  0  0  0  0  0  0  0  0  0  0  # atno 17395 bound_to 11000

$$$$
