AV-unprocessed.smi:2124|AV-procd|sdf|8654|dock10
  -GOLD-   2272011403D 1   1.00000     0.00000
 Structure written by MMmdl.
 47 49  0  0  0  0  0  0  0  0  1 V2000
  151.3035  142.7167  157.5940 C   0  0  0  0  0  0  0  0  0  0  0  0
  150.8277  141.6791  156.5997 C   0  0  0  0  0  0  0  0  0  0  0  0
  151.2403  140.4543  156.5831 N   0  0  0  0  0  0  0  0  0  0  0  0
  150.7228  139.5817  155.6156 C   0  0  0  0  0  0  0  0  0  0  0  0
  151.2513  138.1587  155.6672 C   0  0  0  0  0  0  0  0  0  0  0  0
  149.8059  139.9987  154.6939 C   0  0  0  0  0  0  0  0  0  0  0  0
  149.2123  139.0776  153.6294 C   0  0  0  0  0  0  0  0  0  0  0  0
  147.6846  138.9771  153.6071 C   0  0  0  0  0  0  0  0  0  0  0  0
  146.9916  139.8461  154.1367 O   0  0  0  0  0  0  0  0  0  0  0  0
  147.1746  137.9061  152.9804 N   0  0  0  0  0  0  0  0  0  0  0  0
  145.7521  137.6199  152.8018 C   0  0  2  0  0  0  0  0  0  0  0  0
  145.0833  137.5393  154.1858 C   0  0  0  0  0  0  0  0  0  0  0  0
  145.5900  136.3199  151.9755 C   0  0  2  0  0  0  0  0  0  0  0  0
  144.1124  135.9351  151.7066 C   0  0  0  0  0  0  0  0  0  0  0  0
  144.0266  134.4815  152.2029 C   0  0  1  0  0  0  0  0  0  0  0  0
  144.8312  133.5659  151.2629 C   0  0  0  0  0  0  0  0  0  0  0  0
  146.2881  133.9318  151.6018 C   0  0  0  0  0  0  0  0  0  0  0  0
  146.1242  135.0375  152.6629 C   0  0  2  0  0  0  0  0  0  0  0  0
  144.9131  134.5306  153.4395 C   0  0  0  0  0  0  0  0  0  0  0  0
  149.3416  141.3988  154.7222 C   0  0  0  0  0  0  0  0  0  0  0  0
  148.5139  141.8736  153.9459 O   0  0  0  0  0  0  0  0  0  0  0  0
  149.8903  142.1663  155.6904 N   0  0  0  0  0  0  0  0  0  0  0  0
  149.6024  143.1317  155.7537 H   0  0  0  0  0  0  0  0  0  0  0  0
  151.0969  142.3830  158.6112 H   0  0  0  0  0  0  0  0  0  0  0  0
  150.8085  143.6771  157.4432 H   0  0  0  0  0  0  0  0  0  0  0  0
  152.3786  142.8670  157.4937 H   0  0  0  0  0  0  0  0  0  0  0  0
  151.8645  137.9497  154.7907 H   0  0  0  0  0  0  0  0  0  0  0  0
  150.4312  137.4411  155.6966 H   0  0  0  0  0  0  0  0  0  0  0  0
  151.8657  137.9965  156.5536 H   0  0  0  0  0  0  0  0  0  0  0  0
  149.5676  139.3828  152.6438 H   0  0  0  0  0  0  0  0  0  0  0  0
  149.6041  138.0699  153.7646 H   0  0  0  0  0  0  0  0  0  0  0  0
  147.8224  137.2458  152.5757 H   0  0  0  0  0  0  0  0  0  0  0  0
  145.2915  138.4387  152.2465 H   0  0  0  0  0  0  0  0  0  0  0  0
  144.0042  137.4127  154.1090 H   0  0  0  0  0  0  0  0  0  0  0  0
  145.2544  138.4522  154.7573 H   0  0  0  0  0  0  0  0  0  0  0  0
  145.4764  136.7061  154.7689 H   0  0  0  0  0  0  0  0  0  0  0  0
  146.1054  136.4624  151.0240 H   0  0  0  0  0  0  0  0  0  0  0  0
  143.4243  136.5581  152.2803 H   0  0  0  0  0  0  0  0  0  0  0  0
  143.8430  136.0326  150.6544 H   0  0  0  0  0  0  0  0  0  0  0  0
  143.0063  134.1402  152.3800 H   0  0  0  0  0  0  0  0  0  0  0  0
  144.6386  132.5152  151.4826 H   0  0  0  0  0  0  0  0  0  0  0  0
  144.5911  133.7391  150.2131 H   0  0  0  0  0  0  0  0  0  0  0  0
  146.8103  133.0703  152.0200 H   0  0  0  0  0  0  0  0  0  0  0  0
  146.8490  134.2681  150.7290 H   0  0  0  0  0  0  0  0  0  0  0  0
  147.0217  135.1790  153.2635 H   0  0  0  0  0  0  0  0  0  0  0  0
  144.5582  135.2272  154.2007 H   0  0  0  0  0  0  0  0  0  0  0  0
  145.0711  133.5525  153.8977 H   0  0  0  0  0  0  0  0  0  0  0  0
  1  2  1  0  0  0  0
  1 24  1  0  0  0  0
  1 25  1  0  0  0  0
  1 26  1  0  0  0  0
  2 22  1  0  0  0  0
  2  3  2  0  0  0  0
  3  4  1  0  0  0  0
  4  5  1  0  0  0  0
  4  6  2  0  0  0  0
  5 27  1  0  0  0  0
  5 28  1  0  0  0  0
  5 29  1  0  0  0  0
  6  7  1  0  0  0  0
  6 20  1  0  0  0  0
  7  8  1  0  0  0  0
  7 30  1  0  0  0  0
  7 31  1  0  0  0  0
  8  9  2  0  0  0  0
  8 10  1  0  0  0  0
 10 11  1  0  0  0  0
 10 32  1  0  0  0  0
 11 12  1  0  0  0  0
 11 13  1  0  0  0  0
 11 33  1  0  0  0  0
 12 34  1  0  0  0  0
 12 35  1  0  0  0  0
 12 36  1  0  0  0  0
 13 18  1  0  0  0  0
 13 14  1  0  0  0  0
 13 37  1  0  0  0  0
 14 15  1  0  0  0  0
 14 38  1  0  0  0  0
 14 39  1  0  0  0  0
 15 19  1  0  0  0  0
 15 16  1  0  0  0  0
 15 40  1  0  0  0  0
 16 17  1  0  0  0  0
 16 41  1  0  0  0  0
 16 42  1  0  0  0  0
 17 18  1  0  0  0  0
 17 43  1  0  0  0  0
 17 44  1  0  0  0  0
 18 19  1  0  0  0  0
 18 45  1  0  0  0  0
 19 46  1  0  0  0  0
 19 47  1  0  0  0  0
 20 21  2  0  0  0  0
 20 22  1  0  0  0  0
 22 23  1  0  0  0  0
M  END
> <s_m_source_file>
AV-unprocessed.smi

> <i_m_source_file_index>
2124

> <i_lp_mmshare_version>
43012

> <i_f3d_flags>
0

> <s_epik_input>
W0NIM11jMW5jKFtDSDNdKWMoYyg9TylbbkhdMSlbQ0gyXUMoPU8pW05IXVtDQEhdKFtDSDNdKVtDQEhdKFtDSDJdW0NASF0yMylbQ0BIXShbQ0gyXTMpW0NIMl1bQ0gyXTI=

> <s_epik_cmdline>
J2VwaWtfcHl0aG9uJywgJy1waCcsICc3LjAnLCAnLXRuJywgJzgnLCAnLW1hJywgJzIwMCcsICctbWV0YWxfYmluZGluZycsICctaW1hZScsICc8aW5maWxlLm1hZT4nLCAnLW9tYWUnLCAnPG91dGZpbGUubWFlPic=

> <r_lp_tautomer_probability>
0.839158

> <r_epik_Ionization_Penalty>
0.000383628

> <r_epik_Ionization_Penalty_Charging>
0.00035045

> <r_epik_Ionization_Penalty_Neutral>
3.31781e-05

> <r_epik_State_Penalty>
0.09125

> <r_epik_Charging_Adjusted_Penalty>
0.0916005

> <i_epik_Tot_Q>
0

> <i_epik_Tot_abs_Q>
0

> <r_epik_Metal_State_Penalty>
0.255229

> <b_epik_Metal_Only>
0

> <s_lp_Force_Field>
OPLS_2005

> <r_lp_Energy>
52.554

> <b_lp_Chiralities_Consistent>
1

> <s_lp_Variant>
AV-unprocessed.smi:2124-5

> <Gold.Version>
5.8.1

> <Gold.Id.Protein>
6NUR|6NUR_protein|mol2

> <Gold.PLP.Fitness>
39.6248

> <Gold.PLP.PLP>
-32.7811

> <Gold.PLP.part.hbond>
-3.0000

> <Gold.PLP.part.metal>
0.0000

> <Gold.PLP.part.buried>
0.5497

> <Gold.PLP.part.nonpolar>
-29.6643

> <Gold.PLP.part.repulsive>
0.5454

> <Gold.PLP.ligand.clash>
0.0000

> <Gold.PLP.ligand.torsion>
0.3038

> <Gold.PLP.Chemscore.Hbond>
2.4758

> <Gold.PLP.Chemscore.CHOScore>
0.0000

> <Gold.PLP.Chemscore.Metal>
0.0000

> <Gold.Chemscore.Hbonds>
donor molecule, donor type, donor heavy atom, donor atom, acceptor molecule, acceptor atom, score
      L1  H    10    32       P1  7948  1.00
      L1  H    22    23       P1  8028  1.00
      P1  H  8011  8017       L1    21  0.37

> <Gold.PLP.Chemscore.Internal.Correction>
0.0239

> <Gold.Rescore>
     Score         DG    S(hbond)    S(metal)    S(lipo)     H(rot)  DE(clash)    DE(int)     intcor
     12.33     -17.98       2.43        0.00      73.77       1.65       1.53       4.12       ----

> <Gold.Chemscore.Fitness>
12.3301

> <Gold.Chemscore.DG>
-17.9832

> <Gold.Chemscore.ZeroCoef>
-5.4800

> <Gold.Chemscore.Hbond>
2.4264

> <Gold.Chemscore.Metal>
0.0000

> <Gold.Chemscore.Lipo>
73.7741

> <Gold.Chemscore.Internal_Hbond>
0.0000

> <Gold.Chemscore.DEClash>
1.5299

> <Gold.Chemscore.DEInternal>
4.1232

> <Gold.Chemscore.Rot>
1.6534

> <Gold.Chemscore.Internal.Correction>
   9.000000E+99

> <Gold.Chemscore.Hbonds>
donor molecule, donor type, donor heavy atom, donor atom, acceptor molecule, acceptor atom, score
      L1  H    10    32       P1  7948  1.00
      L1  H    22    23       P1  8028  1.00
      P1  H  8011  8017       L1    21  0.09

> <Gold.Chemscore.Hbond.Weighted>
-8.1042

> <Gold.Chemscore.Metal.Weighted>
-0.0000

> <Gold.Chemscore.Lipo.Weighted>
-8.6316

> <Gold.Chemscore.Internal_Hbond.Weighted>
0.0000

> <Gold.Chemscore.DEClash.Weighted>
1.5299

> <Gold.Chemscore.DEInternal.Weighted>
4.1232

> <Gold.Chemscore.Rot.Weighted>
4.2326

> <Gold.Chemscore.Internal.Correction.Weighted>
   9.000000E+99

> <Gold.Protein.RotatedTorsions>
[ 6907 6896 6895 6894 ] final -171.55 input  -60.11 | X-H torsion
[ 7974 7965 7964 7962 ] final   33.49 input  175.53 | X-H torsion
[ 8008 7997 7996 7995 ] final  105.09 input   59.86 | X-H torsion
[ 10167 10162 10161 10158 ] final -148.30 input  -65.29 | X-H torsion
[ 10718 10713 10712 10709 ] final   10.53 input   66.30 | X-H torsion
[ 10763 10752 10751 10750 ] final  -31.52 input  -60.55 | X-H torsion
[ 11005 11000 10999 10996 ] final    3.68 input  -57.11 | X-H torsion

> <Gold.Protein.ActiveResidues>
 VAL166  LYS551  ARG553  GLY616  TRP617  ASP618  TYR619  PRO620  LYS621  CYS622 
 ASP623  PHE694  ASN695  SER759  ASP760  ASP761  ALA762  ILE779  LEU786  VAL792 
 PHE793  MET794  SER795  GLU796  ALA797  LYS798  CYS799  TRP800  GLU811  SER814 

> <Gold.Protein.RotatedAtoms>
  151.5257  133.3458  159.2908 H   0  0  0  0  0  0  0  0  0  0  0  0  # atno 6907 bound_to 6896
  150.8625  134.7982  159.7104 H   0  0  0  0  0  0  0  0  0  0  0  0  # atno 6908 bound_to 6896
  152.4640  134.5128  159.9810 H   0  0  0  0  0  0  0  0  0  0  0  0  # atno 6909 bound_to 6896
  146.1417  139.6390  142.9159 H   0  0  0  0  0  0  0  0  0  0  0  0  # atno 7974 bound_to 7965
  156.1629  140.3136  155.8838 H   0  0  0  0  0  0  0  0  0  0  0  0  # atno 8008 bound_to 7997
  155.3745  140.0484  157.3062 H   0  0  0  0  0  0  0  0  0  0  0  0  # atno 8009 bound_to 7997
  154.5164  140.2183  155.9069 H   0  0  0  0  0  0  0  0  0  0  0  0  # atno 8010 bound_to 7997
  139.7544  143.8470  152.2594 H   0  0  0  0  0  0  0  0  0  0  0  0  # atno 10167 bound_to 10162
  156.9823  130.6010  149.5678 H   0  0  0  0  0  0  0  0  0  0  0  0  # atno 10718 bound_to 10713
  153.7987  135.6892  153.4859 H   0  0  0  0  0  0  0  0  0  0  0  0  # atno 10763 bound_to 10752
  153.1702  135.4545  154.9891 H   0  0  0  0  0  0  0  0  0  0  0  0  # atno 10764 bound_to 10752
  154.8015  135.3339  154.7477 H   0  0  0  0  0  0  0  0  0  0  0  0  # atno 10765 bound_to 10752
  140.5904  133.9929  155.8086 H   0  0  0  0  0  0  0  0  0  0  0  0  # atno 11005 bound_to 11000
  145.5032  141.0437  143.2529 LP  0  0  0  0  0  0  0  0  0  0  0  0  # atno 17320 bound_to 7965
  144.7800  139.6547  143.7158 LP  0  0  0  0  0  0  0  0  0  0  0  0  # atno 17321 bound_to 7965
  139.8457  144.7188  150.9275 LP  0  0  0  0  0  0  0  0  0  0  0  0  # atno 17342 bound_to 10162
  140.7801  143.3943  151.1256 LP  0  0  0  0  0  0  0  0  0  0  0  0  # atno 17343 bound_to 10162
  156.0239  130.5334  150.8353 LP  0  0  0  0  0  0  0  0  0  0  0  0  # atno 17370 bound_to 10713
  157.5517  131.0944  150.9686 LP  0  0  0  0  0  0  0  0  0  0  0  0  # atno 17371 bound_to 10713
  141.0938  133.9875  157.3193 LP  0  0  0  0  0  0  0  0  0  0  0  0  # atno 17394 bound_to 11000
  139.9277  135.0201  156.8291 LP  0  0  0  0  0  0  0  0  0  0  0  0  # atno 17395 bound_to 11000

$$$$
