AV-unprocessed.smi:796|AV-procd|sdf|3765|dock4
  -GOLD-   22720 1203D 1   1.00000     0.00000
 Structure written by MMmdl.
 46 47  0  0  0  0  0  0  0  0  1 V2000
  149.9257  132.7086  156.3117 C   0  0  0  0  0  0  0  0  0  0  0  0
  149.2391  132.5941  154.9388 C   0  0  0  0  0  0  0  0  0  0  0  0
  150.0204  133.1930  153.7343 C   0  0  1  0  0  0  0  0  0  0  0  0
  151.4837  132.7011  153.7754 C   0  0  0  0  0  0  0  0  0  0  0  0
  149.3555  132.7135  152.4153 C   0  0  0  0  0  0  0  0  0  0  0  0
  149.4144  131.3080  152.2633 O   0  0  0  0  0  0  0  0  0  0  0  0
  150.0475  134.6623  153.7987 N   0  0  0  0  0  0  0  0  0  0  0  0
  150.6300  135.4480  154.7198 C   0  0  0  0  0  0  0  0  0  0  0  0
  151.2888  135.0245  155.6687 O   0  0  0  0  0  0  0  0  0  0  0  0
  150.4104  136.7455  154.4479 N   0  0  0  0  0  0  0  0  0  0  0  0
  150.7916  137.8892  155.2006 C   0  0  0  0  0  0  0  0  0  0  0  0
  150.7618  139.2160  154.7123 C   0  0  0  0  0  0  0  0  0  0  0  0
  151.1897  140.2619  155.5523 C   0  0  0  0  0  0  0  0  0  0  0  0
  151.6477  139.9614  156.8568 C   0  0  0  0  0  0  0  0  0  0  0  0
  152.0897  140.9954  157.7112 N   0  0  0  0  0  0  0  0  0  0  0  0
  152.8467  140.5650  158.8844 C   0  0  0  0  0  0  0  0  0  0  0  0
  153.5243  141.7706  159.5580 C   0  0  0  0  0  0  0  0  0  0  0  0
  152.5515  142.7643  159.8628 O   0  0  0  0  0  0  0  0  0  0  0  0
  151.9059  143.2497  158.6905 C   0  0  0  0  0  0  0  0  0  0  0  0
  151.1682  142.0957  157.9905 C   0  0  0  0  0  0  0  0  0  0  0  0
  151.6768  138.6875  157.3199 N   0  0  0  0  0  0  0  0  0  0  0  0
  151.2667  137.6880  156.5115 C   0  0  0  0  0  0  0  0  0  0  0  0
  149.2916  132.2834  157.0897 H   0  0  0  0  0  0  0  0  0  0  0  0
  150.1190  133.7459  156.5842 H   0  0  0  0  0  0  0  0  0  0  0  0
  150.8727  132.1707  156.3388 H   0  0  0  0  0  0  0  0  0  0  0  0
  149.0321  131.5414  154.7428 H   0  0  0  0  0  0  0  0  0  0  0  0
  148.2585  133.0652  155.0125 H   0  0  0  0  0  0  0  0  0  0  0  0
  151.5364  131.6120  153.7526 H   0  0  0  0  0  0  0  0  0  0  0  0
  152.0015  133.0374  154.6733 H   0  0  0  0  0  0  0  0  0  0  0  0
  152.0584  133.0724  152.9263 H   0  0  0  0  0  0  0  0  0  0  0  0
  148.3065  133.0109  152.3942 H   0  0  0  0  0  0  0  0  0  0  0  0
  149.8179  133.1745  151.5426 H   0  0  0  0  0  0  0  0  0  0  0  0
  149.5824  131.1114  151.3543 H   0  0  0  0  0  0  0  0  0  0  0  0
  149.5391  135.1321  153.0642 H   0  0  0  0  0  0  0  0  0  0  0  0
  149.9299  136.9405  153.5817 H   0  0  0  0  0  0  0  0  0  0  0  0
  150.4345  139.4545  153.7126 H   0  0  0  0  0  0  0  0  0  0  0  0
  151.1532  141.2778  155.1887 H   0  0  0  0  0  0  0  0  0  0  0  0
  152.1642  140.0819  159.5846 H   0  0  0  0  0  0  0  0  0  0  0  0
  153.6086  139.8306  158.6278 H   0  0  0  0  0  0  0  0  0  0  0  0
  154.0122  141.4583  160.4814 H   0  0  0  0  0  0  0  0  0  0  0  0
  154.2995  142.1900  158.9145 H   0  0  0  0  0  0  0  0  0  0  0  0
  151.1992  144.0306  158.9720 H   0  0  0  0  0  0  0  0  0  0  0  0
  152.6367  143.7072  158.0215 H   0  0  0  0  0  0  0  0  0  0  0  0
  150.7237  142.4609  157.0638 H   0  0  0  0  0  0  0  0  0  0  0  0
  150.3557  141.7345  158.6224 H   0  0  0  0  0  0  0  0  0  0  0  0
  151.3189  136.6931  156.9291 H   0  0  0  0  0  0  0  0  0  0  0  0
  1  2  1  0  0  0  0
  1 23  1  0  0  0  0
  1 24  1  0  0  0  0
  1 25  1  0  0  0  0
  2  3  1  0  0  0  0
  2 26  1  0  0  0  0
  2 27  1  0  0  0  0
  3  4  1  0  0  0  0
  3  5  1  0  0  0  0
  3  7  1  0  0  0  0
  4 28  1  0  0  0  0
  4 29  1  0  0  0  0
  4 30  1  0  0  0  0
  5  6  1  0  0  0  0
  5 31  1  0  0  0  0
  5 32  1  0  0  0  0
  6 33  1  0  0  0  0
  7  8  1  0  0  0  0
  7 34  1  0  0  0  0
  8  9  2  0  0  0  0
  8 10  1  0  0  0  0
 10 11  1  0  0  0  0
 10 35  1  0  0  0  0
 11 22  1  0  0  0  0
 11 12  2  0  0  0  0
 12 13  1  0  0  0  0
 12 36  1  0  0  0  0
 13 14  2  0  0  0  0
 13 37  1  0  0  0  0
 14 15  1  0  0  0  0
 14 21  1  0  0  0  0
 15 20  1  0  0  0  0
 15 16  1  0  0  0  0
 16 17  1  0  0  0  0
 16 38  1  0  0  0  0
 16 39  1  0  0  0  0
 17 18  1  0  0  0  0
 17 40  1  0  0  0  0
 17 41  1  0  0  0  0
 18 19  1  0  0  0  0
 19 20  1  0  0  0  0
 19 42  1  0  0  0  0
 19 43  1  0  0  0  0
 20 44  1  0  0  0  0
 20 45  1  0  0  0  0
 21 22  2  0  0  0  0
 22 46  1  0  0  0  0
M  END
> <s_m_source_file>
AV-unprocessed.smi

> <i_m_source_file_index>
796

> <i_lp_mmshare_version>
43012

> <i_f3d_flags>
0

> <s_epik_input>
W0NIM11bQ0gyXVtDQEBdKFtDSDNdKShbQ0gyXVtPSF0pW05IXUMoPU8pW05IXWMxW2NIXVtjSF1jKG5bY0hdMSlOMltDSDJdW0NIMl1PW0NIMl1bQ0gyXTI=

> <s_epik_cmdline>
J2VwaWtfcHl0aG9uJywgJy1waCcsICc3LjAnLCAnLXRuJywgJzgnLCAnLW1hJywgJzIwMCcsICctbWV0YWxfYmluZGluZycsICctaW1hZScsICc8aW5maWxlLm1hZT4nLCAnLW9tYWUnLCAnPG91dGZpbGUubWFlPic=

> <r_lp_tautomer_probability>
1

> <r_epik_Ionization_Penalty>
0.00214298

> <r_epik_Ionization_Penalty_Charging>
0

> <r_epik_Ionization_Penalty_Neutral>
0.00214298

> <r_epik_State_Penalty>
0.00144388

> <r_epik_Charging_Adjusted_Penalty>
0.00144388

> <i_epik_Tot_Q>
0

> <i_epik_Tot_abs_Q>
0

> <r_epik_Metal_State_Penalty>
-0

> <b_epik_Metal_Only>
0

> <s_lp_Force_Field>
OPLS_2005

> <r_lp_Energy>
27.2445

> <b_lp_Chiralities_Consistent>
1

> <s_lp_Variant>
AV-unprocessed.smi:796-1

> <Gold.Version>
5.8.1

> <Gold.Id.Protein>
6NUR|6NUR_protein|mol2

> <Gold.PLP.Fitness>
43.0272

> <Gold.PLP.PLP>
-34.4883

> <Gold.PLP.part.hbond>
-3.0000

> <Gold.PLP.part.metal>
0.0000

> <Gold.PLP.part.buried>
-3.9301

> <Gold.PLP.part.nonpolar>
-27.4730

> <Gold.PLP.part.repulsive>
0.0723

> <Gold.PLP.ligand.clash>
0.0000

> <Gold.PLP.ligand.torsion>
0.3925

> <Gold.PLP.Chemscore.Hbond>
2.9913

> <Gold.PLP.Chemscore.CHOScore>
0.0000

> <Gold.PLP.Chemscore.Metal>
0.0000

> <Gold.Chemscore.Hbonds>
donor molecule, donor type, donor heavy atom, donor atom, acceptor molecule, acceptor atom, score
      L1  H     6    33       P1 10747  0.02
      L1  H     7    34       P1  7948  0.25
      L1  H    10    35       P1  7948  0.90
      P1  H 10752 10763       L1     9  0.43

> <Gold.PLP.Chemscore.Internal.Correction>
0.3500

> <Gold.Rescore>
     Score         DG    S(hbond)    S(metal)    S(lipo)     H(rot)  DE(clash)    DE(int)     intcor
     14.13     -17.94       2.65        0.00      80.01       2.24       0.11       3.71       ----

> <Gold.Chemscore.Fitness>
14.1325

> <Gold.Chemscore.DG>
-17.9450

> <Gold.Chemscore.ZeroCoef>
-5.4800

> <Gold.Chemscore.Hbond>
2.6452

> <Gold.Chemscore.Metal>
0.0000

> <Gold.Chemscore.Lipo>
80.0086

> <Gold.Chemscore.Internal_Hbond>
0.0000

> <Gold.Chemscore.DEClash>
0.1057

> <Gold.Chemscore.DEInternal>
3.7068

> <Gold.Chemscore.Rot>
2.2387

> <Gold.Chemscore.Internal.Correction>
   9.000000E+99

> <Gold.Chemscore.Hbonds>
donor molecule, donor type, donor heavy atom, donor atom, acceptor molecule, acceptor atom, score
      L1  H    10    35       P1  7948  0.29
      P1  H 10752 10763       L1     9  0.25

> <Gold.Chemscore.Hbond.Weighted>
-8.8350

> <Gold.Chemscore.Metal.Weighted>
-0.0000

> <Gold.Chemscore.Lipo.Weighted>
-9.3610

> <Gold.Chemscore.Internal_Hbond.Weighted>
0.0000

> <Gold.Chemscore.DEClash.Weighted>
0.1057

> <Gold.Chemscore.DEInternal.Weighted>
3.7068

> <Gold.Chemscore.Rot.Weighted>
5.7310

> <Gold.Chemscore.Internal.Correction.Weighted>
   9.000000E+99

> <Gold.Protein.RotatedTorsions>
[ 6907 6896 6895 6894 ] final  -90.19 input  -60.11 | X-H torsion
[ 7974 7965 7964 7962 ] final  -28.17 input  175.53 | X-H torsion
[ 8008 7997 7996 7995 ] final   87.06 input   59.86 | X-H torsion
[ 10167 10162 10161 10158 ] final   -4.89 input  -65.29 | X-H torsion
[ 10718 10713 10712 10709 ] final   21.09 input   66.30 | X-H torsion
[ 10763 10752 10751 10750 ] final  107.10 input  -60.55 | X-H torsion
[ 11005 11000 10999 10996 ] final  -20.49 input  -57.11 | X-H torsion

> <Gold.Protein.ActiveResidues>
 VAL166  LYS551  ARG553  GLY616  TRP617  ASP618  TYR619  PRO620  LYS621  CYS622 
 ASP623  PHE694  ASN695  SER759  ASP760  ASP761  ALA762  ILE779  LEU786  VAL792 
 PHE793  MET794  SER795  GLU796  ALA797  LYS798  CYS799  TRP800  GLU811  SER814 

> <Gold.Protein.RotatedAtoms>
  150.6879  134.2470  159.4495 H   0  0  0  0  0  0  0  0  0  0  0  0  # atno 6907 bound_to 6896
  152.0411  134.9708  160.0583 H   0  0  0  0  0  0  0  0  0  0  0  0  # atno 6908 bound_to 6896
  152.1210  133.4318  159.4712 H   0  0  0  0  0  0  0  0  0  0  0  0  # atno 6909 bound_to 6896
  146.1306  140.5248  142.8695 H   0  0  0  0  0  0  0  0  0  0  0  0  # atno 7974 bound_to 7965
  155.9706  140.3386  155.6572 H   0  0  0  0  0  0  0  0  0  0  0  0  # atno 8008 bound_to 7997
  155.6680  140.0723  157.2548 H   0  0  0  0  0  0  0  0  0  0  0  0  # atno 8009 bound_to 7997
  154.4165  140.1696  156.1835 H   0  0  0  0  0  0  0  0  0  0  0  0  # atno 8010 bound_to 7997
  140.6944  143.6371  150.8469 H   0  0  0  0  0  0  0  0  0  0  0  0  # atno 10167 bound_to 10162
  157.1336  130.6602  149.5959 H   0  0  0  0  0  0  0  0  0  0  0  0  # atno 10718 bound_to 10713
  153.4021  135.3855  155.1994 H   0  0  0  0  0  0  0  0  0  0  0  0  # atno 10763 bound_to 10752
  154.8730  135.3774  154.4606 H   0  0  0  0  0  0  0  0  0  0  0  0  # atno 10764 bound_to 10752
  153.5104  135.7087  153.5846 H   0  0  0  0  0  0  0  0  0  0  0  0  # atno 10765 bound_to 10752
  140.8469  133.7885  155.9922 H   0  0  0  0  0  0  0  0  0  0  0  0  # atno 11005 bound_to 11000
  144.7687  140.5589  143.6685 LP  0  0  0  0  0  0  0  0  0  0  0  0  # atno 17320 bound_to 7965
  145.5268  139.1476  143.3522 LP  0  0  0  0  0  0  0  0  0  0  0  0  # atno 17321 bound_to 7965
  140.0088  143.5665  152.2847 LP  0  0  0  0  0  0  0  0  0  0  0  0  # atno 17342 bound_to 10162
  139.6381  144.7652  151.2395 LP  0  0  0  0  0  0  0  0  0  0  0  0  # atno 17343 bound_to 10162
  155.9803  130.4802  150.6763 LP  0  0  0  0  0  0  0  0  0  0  0  0  # atno 17370 bound_to 10713
  157.4370  131.0856  151.0982 LP  0  0  0  0  0  0  0  0  0  0  0  0  # atno 17371 bound_to 10713
  140.8833  134.2584  157.5133 LP  0  0  0  0  0  0  0  0  0  0  0  0  # atno 17394 bound_to 11000
  139.8703  134.9626  156.4434 LP  0  0  0  0  0  0  0  0  0  0  0  0  # atno 17395 bound_to 11000

$$$$
