AV-unprocessed.smi:213|AV-procd|sdf|1641|dock7
  -GOLD-   2262020 13D 1   1.00000     0.00000
 Structure written by MMmdl.
 58 61  0  0  0  0  0  0  0  0  1 V2000
  152.1106  139.8692  155.4954 C   0  0  0  0  0  0  0  0  0  0  0  0
  151.3925  140.8432  156.4461 C   0  0  2  0  0  0  0  0  0  0  0  0
  152.2429  141.1947  157.6874 C   0  0  0  0  0  0  0  0  0  0  0  0
  151.9793  142.5039  158.2864 N   0  0  0  0  0  0  0  0  0  0  0  0
  152.7097  142.6589  159.5399 C   0  0  0  0  0  0  0  0  0  0  0  0
  152.4567  144.0307  160.1885 C   0  0  0  0  0  0  0  0  0  0  0  0
  151.0593  144.2073  160.3962 O   0  0  0  0  0  0  0  0  0  0  0  0
  150.3105  144.1105  159.1893 C   0  0  0  0  0  0  0  0  0  0  0  0
  150.5580  142.7408  158.5333 C   0  0  0  0  0  0  0  0  0  0  0  0
  150.0834  140.3164  156.8425 N   0  0  0  0  0  0  0  0  0  0  0  0
  148.8476  140.9432  156.3774 C   0  0  0  0  0  0  0  0  0  0  0  0
  149.9908  139.1594  157.5511 C   0  0  0  0  0  0  0  0  0  0  0  0
  151.1290  138.4485  157.7729 N   0  0  0  0  0  0  0  0  0  0  0  0
  151.0943  137.3065  158.4650 C   0  0  0  0  0  0  0  0  0  0  0  0
  150.0436  136.6958  159.0135 N   0  0  0  0  0  0  0  0  0  0  0  0
  148.8947  137.3931  158.7849 C   0  0  0  0  0  0  0  0  0  0  0  0
  148.7756  138.6202  158.0707 C   0  0  0  0  0  0  0  0  0  0  0  0
  147.4390  139.0063  158.0325 N   0  0  0  0  0  0  0  0  0  0  0  0
  146.8114  138.0743  158.6957 C   0  0  0  0  0  0  0  0  0  0  0  0
  147.6108  137.0657  159.1805 N   0  0  0  0  0  0  0  0  0  0  0  0
  147.1866  135.9013  159.9365 C   0  0  0  0  0  0  0  0  0  0  0  0
  147.0642  136.1993  161.4433 C   0  0  2  0  0  0  0  0  0  0  0  0
  148.2737  136.7380  161.9419 O   0  0  0  0  0  0  0  0  0  0  0  0
  146.6398  134.9658  162.2646 C   0  0  2  0  0  0  0  0  0  0  0  0
  147.4094  133.6696  161.9991 C   0  0  0  0  0  0  0  0  0  0  0  0
  146.4280  132.6397  162.5121 C   0  0  0  0  0  0  0  0  0  0  0  0
  145.0894  133.2335  162.0768 C   0  0  0  0  0  0  0  0  0  0  0  0
  145.2624  134.6488  162.0804 O   0  0  0  0  0  0  0  0  0  0  0  0
  153.0409  140.2981  155.1229 H   0  0  0  0  0  0  0  0  0  0  0  0
  151.4897  139.6396  154.6291 H   0  0  0  0  0  0  0  0  0  0  0  0
  152.3569  138.9285  155.9877 H   0  0  0  0  0  0  0  0  0  0  0  0
  151.2326  141.7733  155.9075 H   0  0  0  0  0  0  0  0  0  0  0  0
  152.1061  140.4211  158.4448 H   0  0  0  0  0  0  0  0  0  0  0  0
  153.2950  141.1479  157.4035 H   0  0  0  0  0  0  0  0  0  0  0  0
  152.4184  141.8721  160.2379 H   0  0  0  0  0  0  0  0  0  0  0  0
  153.7791  142.5381  159.3631 H   0  0  0  0  0  0  0  0  0  0  0  0
  152.9717  144.0983  161.1467 H   0  0  0  0  0  0  0  0  0  0  0  0
  152.8429  144.8334  159.5584 H   0  0  0  0  0  0  0  0  0  0  0  0
  149.2518  144.2378  159.4149 H   0  0  0  0  0  0  0  0  0  0  0  0
  150.5936  144.9184  158.5128 H   0  0  0  0  0  0  0  0  0  0  0  0
  149.9966  142.7022  157.6008 H   0  0  0  0  0  0  0  0  0  0  0  0
  150.1569  141.9544  159.1746 H   0  0  0  0  0  0  0  0  0  0  0  0
  148.0998  140.9596  157.1711 H   0  0  0  0  0  0  0  0  0  0  0  0
  148.4384  140.3951  155.5281 H   0  0  0  0  0  0  0  0  0  0  0  0
  149.0170  141.9723  156.0622 H   0  0  0  0  0  0  0  0  0  0  0  0
  152.0448  136.8108  158.5969 H   0  0  0  0  0  0  0  0  0  0  0  0
  145.7411  138.0924  158.8422 H   0  0  0  0  0  0  0  0  0  0  0  0
  146.2275  135.5680  159.5385 H   0  0  0  0  0  0  0  0  0  0  0  0
  147.8963  135.0921  159.7593 H   0  0  0  0  0  0  0  0  0  0  0  0
  146.3027  136.9677  161.5823 H   0  0  0  0  0  0  0  0  0  0  0  0
  148.8245  136.0223  162.2199 H   0  0  0  0  0  0  0  0  0  0  0  0
  146.7518  135.2065  163.3232 H   0  0  0  0  0  0  0  0  0  0  0  0
  147.5803  133.5118  160.9337 H   0  0  0  0  0  0  0  0  0  0  0  0
  148.3728  133.6345  162.5084 H   0  0  0  0  0  0  0  0  0  0  0  0
  146.6028  131.6411  162.1106 H   0  0  0  0  0  0  0  0  0  0  0  0
  146.4790  132.5846  163.6005 H   0  0  0  0  0  0  0  0  0  0  0  0
  144.8469  132.9195  161.0609 H   0  0  0  0  0  0  0  0  0  0  0  0
  144.2698  132.9313  162.7292 H   0  0  0  0  0  0  0  0  0  0  0  0
  1  2  1  0  0  0  0
  1 29  1  0  0  0  0
  1 30  1  0  0  0  0
  1 31  1  0  0  0  0
  2  3  1  0  0  0  0
  2 10  1  0  0  0  0
  2 32  1  0  0  0  0
  3  4  1  0  0  0  0
  3 33  1  0  0  0  0
  3 34  1  0  0  0  0
  4  9  1  0  0  0  0
  4  5  1  0  0  0  0
  5  6  1  0  0  0  0
  5 35  1  0  0  0  0
  5 36  1  0  0  0  0
  6  7  1  0  0  0  0
  6 37  1  0  0  0  0
  6 38  1  0  0  0  0
  7  8  1  0  0  0  0
  8  9  1  0  0  0  0
  8 39  1  0  0  0  0
  8 40  1  0  0  0  0
  9 41  1  0  0  0  0
  9 42  1  0  0  0  0
 10 11  1  0  0  0  0
 10 12  1  0  0  0  0
 11 43  1  0  0  0  0
 11 44  1  0  0  0  0
 11 45  1  0  0  0  0
 12 17  1  0  0  0  0
 12 13  2  0  0  0  0
 13 14  1  0  0  0  0
 14 15  2  0  0  0  0
 14 46  1  0  0  0  0
 15 16  1  0  0  0  0
 16 20  1  0  0  0  0
 16 17  2  0  0  0  0
 17 18  1  0  0  0  0
 18 19  2  0  0  0  0
 19 20  1  0  0  0  0
 19 47  1  0  0  0  0
 20 21  1  0  0  0  0
 21 22  1  0  0  0  0
 21 48  1  0  0  0  0
 21 49  1  0  0  0  0
 22 23  1  0  0  0  0
 22 24  1  0  0  0  0
 22 50  1  0  0  0  0
 23 51  1  0  0  0  0
 24 28  1  0  0  0  0
 24 25  1  0  0  0  0
 24 52  1  0  0  0  0
 25 26  1  0  0  0  0
 25 53  1  0  0  0  0
 25 54  1  0  0  0  0
 26 27  1  0  0  0  0
 26 55  1  0  0  0  0
 26 56  1  0  0  0  0
 27 28  1  0  0  0  0
 27 57  1  0  0  0  0
 27 58  1  0  0  0  0
M  END
> <s_m_source_file>
AV-unprocessed.smi

> <i_m_source_file_index>
213

> <i_lp_mmshare_version>
43012

> <i_f3d_flags>
0

> <s_epik_input>
W0NIMl0xW0NIMl1PW0NIMl1bQ0gyXU4xW0NIMl1bQ0BASF0oW0NIM10pTihbQ0gzXSljKG5bY0hdbjIpYyhjMjMpbltjSF1uM1tDSDJdW0NASF0oW09IXSlbQ0BASF00W0NIMl1bQ0gyXVtDSDJdTzQ=

> <s_epik_cmdline>
J2VwaWtfcHl0aG9uJywgJy1waCcsICc3LjAnLCAnLXRuJywgJzgnLCAnLW1hJywgJzIwMCcsICctbWV0YWxfYmluZGluZycsICctaW1hZScsICc8aW5maWxlLm1hZT4nLCAnLW9tYWUnLCAnPG91dGZpbGUubWFlPic=

> <r_lp_tautomer_probability>
1

> <r_epik_Ionization_Penalty>
0.423322

> <r_epik_Ionization_Penalty_Charging>
0

> <r_epik_Ionization_Penalty_Neutral>
0.423322

> <r_epik_State_Penalty>
0.569486

> <r_epik_Charging_Adjusted_Penalty>
0.569486

> <i_epik_Tot_Q>
0

> <i_epik_Tot_abs_Q>
0

> <r_epik_Metal_State_Penalty>
0.568671

> <b_epik_Metal_Only>
0

> <s_lp_Force_Field>
OPLS_2005

> <r_lp_Energy>
51.8913

> <b_lp_Chiralities_Consistent>
1

> <s_lp_Variant>
AV-unprocessed.smi:213-9

> <Gold.Version>
5.8.1

> <Gold.Id.Protein>
6NUR|6NUR_protein|mol2

> <Gold.PLP.Fitness>
45.9083

> <Gold.PLP.PLP>
-41.5193

> <Gold.PLP.part.hbond>
-2.3700

> <Gold.PLP.part.metal>
0.0000

> <Gold.PLP.part.buried>
-6.5243

> <Gold.PLP.part.nonpolar>
-31.1434

> <Gold.PLP.part.repulsive>
0.1708

> <Gold.PLP.ligand.clash>
0.0000

> <Gold.PLP.ligand.torsion>
0.9844

> <Gold.PLP.Chemscore.Hbond>
2.0000

> <Gold.PLP.Chemscore.CHOScore>
0.0000

> <Gold.PLP.Chemscore.Metal>
0.0000

> <Gold.Chemscore.Hbonds>
donor molecule, donor type, donor heavy atom, donor atom, acceptor molecule, acceptor atom, score
      P1  H  6896  6908       L1    15  0.80
      P1  H  6931  6943       L1    23  1.00

> <Gold.PLP.Chemscore.Internal.Correction>
0.3579

> <Gold.Rescore>
     Score         DG    S(hbond)    S(metal)    S(lipo)     H(rot)  DE(clash)    DE(int)     intcor
     10.44     -17.27       1.84        0.00     108.10       2.74       2.29       4.54       ----

> <Gold.Chemscore.Fitness>
10.4401

> <Gold.Chemscore.DG>
-17.2716

> <Gold.Chemscore.ZeroCoef>
-5.4800

> <Gold.Chemscore.Hbond>
1.8421

> <Gold.Chemscore.Metal>
0.0000

> <Gold.Chemscore.Lipo>
108.1004

> <Gold.Chemscore.Internal_Hbond>
0.0000

> <Gold.Chemscore.DEClash>
2.2935

> <Gold.Chemscore.DEInternal>
4.5381

> <Gold.Chemscore.Rot>
2.7378

> <Gold.Chemscore.Internal.Correction>
   9.000000E+99

> <Gold.Chemscore.Hbonds>
donor molecule, donor type, donor heavy atom, donor atom, acceptor molecule, acceptor atom, score
      P1  H  6896  6908       L1    15  0.35
      P1  H  6931  6943       L1    23  0.88

> <Gold.Chemscore.Hbond.Weighted>
-6.1525

> <Gold.Chemscore.Metal.Weighted>
-0.0000

> <Gold.Chemscore.Lipo.Weighted>
-12.6478

> <Gold.Chemscore.Internal_Hbond.Weighted>
0.0000

> <Gold.Chemscore.DEClash.Weighted>
2.2935

> <Gold.Chemscore.DEInternal.Weighted>
4.5381

> <Gold.Chemscore.Rot.Weighted>
7.0087

> <Gold.Chemscore.Internal.Correction.Weighted>
   9.000000E+99

> <Gold.Protein.RotatedTorsions>
[ 6907 6896 6895 6894 ] final -172.18 input  -60.11 | X-H torsion
[ 7974 7965 7964 7962 ] final -145.51 input  175.53 | X-H torsion
[ 8008 7997 7996 7995 ] final   63.92 input   59.86 | X-H torsion
[ 10167 10162 10161 10158 ] final  -34.09 input  -65.29 | X-H torsion
[ 10718 10713 10712 10709 ] final  161.75 input   66.30 | X-H torsion
[ 10763 10752 10751 10750 ] final  -27.73 input  -60.55 | X-H torsion
[ 11005 11000 10999 10996 ] final  -22.45 input  -57.11 | X-H torsion

> <Gold.Protein.ActiveResidues>
 VAL166  LYS551  ARG553  GLY616  TRP617  ASP618  TYR619  PRO620  LYS621  CYS622 
 ASP623  PHE694  ASN695  SER759  ASP760  ASP761  ALA762  ILE779  LEU786  VAL792 
 PHE793  MET794  SER795  GLU796  ALA797  LYS798  CYS799  TRP800  GLU811  SER814 

> <Gold.Protein.RotatedAtoms>
  151.5358  133.3441  159.2926 H   0  0  0  0  0  0  0  0  0  0  0  0  # atno 6907 bound_to 6896
  150.8566  134.7909  159.7061 H   0  0  0  0  0  0  0  0  0  0  0  0  # atno 6908 bound_to 6896
  152.4598  134.5219  159.9837 H   0  0  0  0  0  0  0  0  0  0  0  0  # atno 6909 bound_to 6896
  144.8222  140.5574  143.5570 H   0  0  0  0  0  0  0  0  0  0  0  0  # atno 7974 bound_to 7965
  155.6378  140.3496  155.4704 H   0  0  0  0  0  0  0  0  0  0  0  0  # atno 8008 bound_to 7997
  155.9951  140.1201  157.0625 H   0  0  0  0  0  0  0  0  0  0  0  0  # atno 8009 bound_to 7997
  154.4231  140.1112  156.5605 H   0  0  0  0  0  0  0  0  0  0  0  0  # atno 8010 bound_to 7997
  140.7192  143.3573  151.2034 H   0  0  0  0  0  0  0  0  0  0  0  0  # atno 10167 bound_to 10162
  157.1322  131.0519  151.2366 H   0  0  0  0  0  0  0  0  0  0  0  0  # atno 10718 bound_to 10713
  153.7368  135.6935  153.4976 H   0  0  0  0  0  0  0  0  0  0  0  0  # atno 10763 bound_to 10752
  153.2097  135.4407  155.0364 H   0  0  0  0  0  0  0  0  0  0  0  0  # atno 10764 bound_to 10752
  154.8234  135.3434  154.6895 H   0  0  0  0  0  0  0  0  0  0  0  0  # atno 10765 bound_to 10752
  140.8658  133.7756  156.0128 H   0  0  0  0  0  0  0  0  0  0  0  0  # atno 11005 bound_to 11000
  145.5079  139.1480  143.3621 LP  0  0  0  0  0  0  0  0  0  0  0  0  # atno 17320 bound_to 7965
  146.2528  140.5219  142.8886 LP  0  0  0  0  0  0  0  0  0  0  0  0  # atno 17321 bound_to 7965
  139.7117  143.9366  152.2950 LP  0  0  0  0  0  0  0  0  0  0  0  0  # atno 17342 bound_to 10162
  139.9093  144.6866  150.8580 LP  0  0  0  0  0  0  0  0  0  0  0  0  # atno 17343 bound_to 10162
  157.4382  130.7529  149.7047 LP  0  0  0  0  0  0  0  0  0  0  0  0  # atno 17370 bound_to 10713
  155.9805  130.4028  150.3522 LP  0  0  0  0  0  0  0  0  0  0  0  0  # atno 17371 bound_to 10713
  140.8631  134.2817  157.5225 LP  0  0  0  0  0  0  0  0  0  0  0  0  # atno 17394 bound_to 11000
  139.8709  134.9528  156.4126 LP  0  0  0  0  0  0  0  0  0  0  0  0  # atno 17395 bound_to 11000

$$$$
