AV-unprocessed.smi:1533|AV-procd|sdf|6165|dock10
  -GOLD-   22720 6313D 1   1.00000     0.00000
 Structure written by MMmdl.
 37 39  0  0  0  0  0  0  0  0  1 V2000
  144.9892  144.4730  153.5005 C   0  0  0  0  0  0  0  0  0  0  0  0
  145.7857  143.3099  153.9851 C   0  0  0  0  0  0  0  0  0  0  0  0
  145.2274  142.3339  154.6908 N   0  0  0  0  0  0  0  0  0  0  0  0
  146.2957  141.4581  154.9329 O   0  0  0  0  0  0  0  0  0  0  0  0
  147.3790  142.0277  154.3522 C   0  0  0  0  0  0  0  0  0  0  0  0
  148.6845  141.3069  154.3951 C   0  0  0  0  0  0  0  0  0  0  0  0
  149.1525  141.0274  155.8322 C   0  0  0  0  0  0  0  0  0  0  0  0
  149.6226  142.2413  156.4901 N   0  0  0  0  0  0  0  0  0  0  0  0
  150.2736  142.2773  157.6634 C   0  0  0  0  0  0  0  0  0  0  0  0
  150.5394  141.2642  158.3112 O   0  0  0  0  0  0  0  0  0  0  0  0
  150.6835  143.6708  158.1723 C   0  0  1  0  0  0  0  0  0  0  0  0
  150.0449  144.0379  159.5349 C   0  0  0  0  0  0  0  0  0  0  0  0
  151.2627  144.3836  160.4145 C   0  0  2  0  0  0  0  0  0  0  0  0
  151.8971  145.6974  159.9193 C   0  0  0  0  0  0  0  0  0  0  0  0
  152.5707  145.2730  158.5996 C   0  0  0  0  0  0  0  0  0  0  0  0
  152.1957  143.7822  158.4951 C   0  0  1  0  0  0  0  0  0  0  0  0
  152.2861  143.3528  159.9593 C   0  0  0  0  0  0  0  0  0  0  0  0
  147.1156  143.1742  153.7300 N   0  0  0  0  0  0  0  0  0  0  0  0
  144.0143  144.5084  153.9880 H   0  0  0  0  0  0  0  0  0  0  0  0
  144.8356  144.4002  152.4236 H   0  0  0  0  0  0  0  0  0  0  0  0
  145.5136  145.4047  153.7137 H   0  0  0  0  0  0  0  0  0  0  0  0
  148.5800  140.3736  153.8401 H   0  0  0  0  0  0  0  0  0  0  0  0
  149.4286  141.9030  153.8657 H   0  0  0  0  0  0  0  0  0  0  0  0
  148.3282  140.6206  156.4190 H   0  0  0  0  0  0  0  0  0  0  0  0
  149.9395  140.2709  155.8371 H   0  0  0  0  0  0  0  0  0  0  0  0
  149.4392  143.1167  156.0211 H   0  0  0  0  0  0  0  0  0  0  0  0
  150.4087  144.4110  157.4185 H   0  0  0  0  0  0  0  0  0  0  0  0
  149.3537  144.8771  159.4491 H   0  0  0  0  0  0  0  0  0  0  0  0
  149.4896  143.2049  159.9696 H   0  0  0  0  0  0  0  0  0  0  0  0
  151.0459  144.3776  161.4831 H   0  0  0  0  0  0  0  0  0  0  0  0
  151.1563  146.4848  159.7748 H   0  0  0  0  0  0  0  0  0  0  0  0
  152.6408  146.0629  160.6288 H   0  0  0  0  0  0  0  0  0  0  0  0
  152.2228  145.8551  157.7455 H   0  0  0  0  0  0  0  0  0  0  0  0
  153.6527  145.3953  158.6665 H   0  0  0  0  0  0  0  0  0  0  0  0
  152.8399  143.2205  157.8171 H   0  0  0  0  0  0  0  0  0  0  0  0
  153.2756  143.5057  160.3941 H   0  0  0  0  0  0  0  0  0  0  0  0
  151.9770  142.3244  160.1472 H   0  0  0  0  0  0  0  0  0  0  0  0
  1  2  1  0  0  0  0
  1 19  1  0  0  0  0
  1 20  1  0  0  0  0
  1 21  1  0  0  0  0
  2 18  1  0  0  0  0
  2  3  2  0  0  0  0
  3  4  1  0  0  0  0
  4  5  1  0  0  0  0
  5  6  1  0  0  0  0
  5 18  2  0  0  0  0
  6  7  1  0  0  0  0
  6 22  1  0  0  0  0
  6 23  1  0  0  0  0
  7  8  1  0  0  0  0
  7 24  1  0  0  0  0
  7 25  1  0  0  0  0
  8  9  1  0  0  0  0
  8 26  1  0  0  0  0
  9 10  2  0  0  0  0
  9 11  1  0  0  0  0
 11 16  1  0  0  0  0
 11 12  1  0  0  0  0
 11 27  1  0  0  0  0
 12 13  1  0  0  0  0
 12 28  1  0  0  0  0
 12 29  1  0  0  0  0
 13 17  1  0  0  0  0
 13 14  1  0  0  0  0
 13 30  1  0  0  0  0
 14 15  1  0  0  0  0
 14 31  1  0  0  0  0
 14 32  1  0  0  0  0
 15 16  1  0  0  0  0
 15 33  1  0  0  0  0
 15 34  1  0  0  0  0
 16 17  1  0  0  0  0
 16 35  1  0  0  0  0
 17 36  1  0  0  0  0
 17 37  1  0  0  0  0
M  END
> <s_m_source_file>
AV-unprocessed.smi

> <i_m_source_file_index>
1533

> <i_lp_mmshare_version>
43012

> <i_f3d_flags>
0

> <s_epik_input>
W0NIM11jMW5vYyhuMSlbQ0gyXVtDSDJdW05IXUMoPU8pW0NASF0oW0NIMl1bQ0BASF0yMylbQ0BASF0oW0NIMl0zKVtDSDJdW0NIMl0y

> <s_epik_cmdline>
J2VwaWtfcHl0aG9uJywgJy1waCcsICc3LjAnLCAnLXRuJywgJzgnLCAnLW1hJywgJzIwMCcsICctbWV0YWxfYmluZGluZycsICctaW1hZScsICc8aW5maWxlLm1hZT4nLCAnLW9tYWUnLCAnPG91dGZpbGUubWFlPic=

> <r_lp_tautomer_probability>
1

> <r_epik_Ionization_Penalty>
1.90116e-08

> <r_epik_Ionization_Penalty_Charging>
0

> <r_epik_Ionization_Penalty_Neutral>
1.90116e-08

> <r_epik_State_Penalty>
-0

> <r_epik_Charging_Adjusted_Penalty>
0

> <i_epik_Tot_Q>
0

> <i_epik_Tot_abs_Q>
0

> <r_epik_Metal_State_Penalty>
-0

> <b_epik_Metal_Only>
0

> <s_lp_Force_Field>
OPLS_2005

> <r_lp_Energy>
42.7172

> <b_lp_Chiralities_Consistent>
1

> <s_lp_Variant>
AV-unprocessed.smi:1533-4

> <Gold.Version>
5.8.1

> <Gold.Id.Protein>
6NUR|6NUR_protein|mol2

> <Gold.PLP.Fitness>
42.4108

> <Gold.PLP.PLP>
-38.8109

> <Gold.PLP.part.hbond>
-2.0698

> <Gold.PLP.part.metal>
0.0000

> <Gold.PLP.part.buried>
-4.3272

> <Gold.PLP.part.nonpolar>
-33.5337

> <Gold.PLP.part.repulsive>
1.5119

> <Gold.PLP.ligand.clash>
0.0000

> <Gold.PLP.ligand.torsion>
0.1463

> <Gold.PLP.Chemscore.Hbond>
1.2860

> <Gold.PLP.Chemscore.CHOScore>
0.0000

> <Gold.PLP.Chemscore.Metal>
0.0000

> <Gold.Chemscore.Hbonds>
donor molecule, donor type, donor heavy atom, donor atom, acceptor molecule, acceptor atom, score
      L1  H     8    26       P1  8028  1.00
      P1  H  8022  8030       L1    18  0.29

> <Gold.PLP.Chemscore.Internal.Correction>
0.0344

> <Gold.Rescore>
     Score         DG    S(hbond)    S(metal)    S(lipo)     H(rot)  DE(clash)    DE(int)     intcor
     15.57     -16.13       1.02        0.00     102.51       1.85       0.41       0.16       ----

> <Gold.Chemscore.Fitness>
15.5663

> <Gold.Chemscore.DG>
-16.1330

> <Gold.Chemscore.ZeroCoef>
-5.4800

> <Gold.Chemscore.Hbond>
1.0158

> <Gold.Chemscore.Metal>
0.0000

> <Gold.Chemscore.Lipo>
102.5080

> <Gold.Chemscore.Internal_Hbond>
0.0000

> <Gold.Chemscore.DEClash>
0.4114

> <Gold.Chemscore.DEInternal>
0.1553

> <Gold.Chemscore.Rot>
1.8490

> <Gold.Chemscore.Internal.Correction>
   9.000000E+99

> <Gold.Chemscore.Hbonds>
donor molecule, donor type, donor heavy atom, donor atom, acceptor molecule, acceptor atom, score
      L1  H     8    26       P1  8028  1.00
      P1  H  8022  8030       L1    18  0.28

> <Gold.Chemscore.Hbond.Weighted>
-3.3929

> <Gold.Chemscore.Metal.Weighted>
-0.0000

> <Gold.Chemscore.Lipo.Weighted>
-11.9934

> <Gold.Chemscore.Internal_Hbond.Weighted>
0.0000

> <Gold.Chemscore.DEClash.Weighted>
0.4114

> <Gold.Chemscore.DEInternal.Weighted>
0.1553

> <Gold.Chemscore.Rot.Weighted>
4.7334

> <Gold.Chemscore.Internal.Correction.Weighted>
   9.000000E+99

> <Gold.Protein.RotatedTorsions>
[ 6907 6896 6895 6894 ] final -105.80 input  -60.11 | X-H torsion
[ 7974 7965 7964 7962 ] final  142.06 input  175.53 | X-H torsion
[ 8008 7997 7996 7995 ] final   23.84 input   59.86 | X-H torsion
[ 10167 10162 10161 10158 ] final  -13.58 input  -65.29 | X-H torsion
[ 10718 10713 10712 10709 ] final  159.74 input   66.30 | X-H torsion
[ 10763 10752 10751 10750 ] final  106.68 input  -60.55 | X-H torsion
[ 11005 11000 10999 10996 ] final    0.35 input  -57.11 | X-H torsion

> <Gold.Protein.ActiveResidues>
 VAL166  LYS551  ARG553  GLY616  TRP617  ASP618  TYR619  PRO620  LYS621  CYS622 
 ASP623  PHE694  ASN695  SER759  ASP760  ASP761  ALA762  ILE779  LEU786  VAL792 
 PHE793  MET794  SER795  GLU796  ALA797  LYS798  CYS799  TRP800  GLU811  SER814 

> <Gold.Protein.RotatedAtoms>
  150.7355  134.0073  159.3657 H   0  0  0  0  0  0  0  0  0  0  0  0  # atno 6907 bound_to 6896
  151.8030  135.0701  160.0412 H   0  0  0  0  0  0  0  0  0  0  0  0  # atno 6908 bound_to 6896
  152.3127  133.5733  159.5728 H   0  0  0  0  0  0  0  0  0  0  0  0  # atno 6909 bound_to 6896
  144.9041  139.5382  143.5740 H   0  0  0  0  0  0  0  0  0  0  0  0  # atno 7974 bound_to 7965
  154.9871  140.3109  155.4922 H   0  0  0  0  0  0  0  0  0  0  0  0  # atno 8008 bound_to 7997
  156.2945  140.2256  156.4914 H   0  0  0  0  0  0  0  0  0  0  0  0  # atno 8009 bound_to 7997
  154.7736  140.0450  157.1060 H   0  0  0  0  0  0  0  0  0  0  0  0  # atno 8010 bound_to 7997
  140.7185  143.5411  150.9408 H   0  0  0  0  0  0  0  0  0  0  0  0  # atno 10167 bound_to 10162
  157.1600  131.0585  151.2237 H   0  0  0  0  0  0  0  0  0  0  0  0  # atno 10718 bound_to 10713
  153.3963  135.3869  155.1958 H   0  0  0  0  0  0  0  0  0  0  0  0  # atno 10763 bound_to 10752
  154.8725  135.3760  154.4674 H   0  0  0  0  0  0  0  0  0  0  0  0  # atno 10764 bound_to 10752
  153.5166  135.7087  153.5814 H   0  0  0  0  0  0  0  0  0  0  0  0  # atno 10765 bound_to 10752
  140.6276  133.9604  155.8257 H   0  0  0  0  0  0  0  0  0  0  0  0  # atno 11005 bound_to 11000
  146.3124  139.7795  142.9009 LP  0  0  0  0  0  0  0  0  0  0  0  0  # atno 17320 bound_to 7965
  145.3566  141.0318  143.3308 LP  0  0  0  0  0  0  0  0  0  0  0  0  # atno 17321 bound_to 7965
  139.9134  143.6693  152.3111 LP  0  0  0  0  0  0  0  0  0  0  0  0  # atno 17342 bound_to 10162
  139.7084  144.7624  151.1154 LP  0  0  0  0  0  0  0  0  0  0  0  0  # atno 17343 bound_to 10162
  157.4141  130.7401  149.6862 LP  0  0  0  0  0  0  0  0  0  0  0  0  # atno 17370 bound_to 10713
  155.9755  130.4087  150.3842 LP  0  0  0  0  0  0  0  0  0  0  0  0  # atno 17371 bound_to 10713
  141.0698  134.0222  157.3542 LP  0  0  0  0  0  0  0  0  0  0  0  0  # atno 17394 bound_to 11000
  139.9129  135.0193  156.7763 LP  0  0  0  0  0  0  0  0  0  0  0  0  # atno 17395 bound_to 11000

$$$$
