AV-unprocessed.smi:3263|AV-procd|sdf|12487|dock9
  -GOLD-   2272018383D 1   1.00000     0.00000
 Structure written by MMmdl.
 41 43  0  0  0  0  0  0  0  0  1 V2000
  154.5313  139.1281  158.2549 O   0  0  0  0  0  0  0  0  0  0  0  0
  153.4218  139.1665  158.7880 C   0  0  0  0  0  0  0  0  0  0  0  0
  152.3030  138.2210  158.3354 C   0  0  0  0  0  0  0  0  0  0  0  0
  151.6291  138.6360  157.0075 C   0  0  1  0  0  0  0  0  0  0  0  0
  152.6045  138.7576  155.8115 C   0  0  0  0  0  0  0  0  0  0  0  0
  151.9787  137.8304  154.7546 C   0  0  2  0  0  0  0  0  0  0  0  0
  150.6660  138.4486  154.2383 C   0  0  0  0  0  0  0  0  0  0  0  0
  149.7095  138.2573  155.4307 C   0  0  0  0  0  0  0  0  0  0  0  0
  150.6133  137.5928  156.4872 C   0  0  1  0  0  0  0  0  0  0  0  0
  151.4725  136.6808  155.6161 C   0  0  0  0  0  0  0  0  0  0  0  0
  153.1058  140.0255  159.7702 N   0  0  0  0  0  0  0  0  0  0  0  0
  154.0003  141.0307  160.3400 C   0  0  0  0  0  0  0  0  0  0  0  0
  153.2536  142.0601  161.2111 C   0  0  0  0  0  0  0  0  0  0  0  0
  152.3954  143.0295  160.4157 C   0  0  0  0  0  0  0  0  0  0  0  0
  152.3718  142.9833  159.0049 C   0  0  0  0  0  0  0  0  0  0  0  0
  151.5804  143.9227  158.3163 C   0  0  0  0  0  0  0  0  0  0  0  0
  150.8452  144.8654  159.0604 C   0  0  0  0  0  0  0  0  0  0  0  0
  150.9333  144.8254  160.4662 C   0  0  0  0  0  0  0  0  0  0  0  0
  151.6875  143.9280  161.1366 N   0  0  0  0  0  0  0  0  0  0  0  0
  152.7029  137.2096  158.2525 H   0  0  0  0  0  0  0  0  0  0  0  0
  151.5549  138.1920  159.1284 H   0  0  0  0  0  0  0  0  0  0  0  0
  151.1139  139.5850  157.1663 H   0  0  0  0  0  0  0  0  0  0  0  0
  152.7008  139.7853  155.4591 H   0  0  0  0  0  0  0  0  0  0  0  0
  153.6032  138.4047  156.0732 H   0  0  0  0  0  0  0  0  0  0  0  0
  152.6697  137.5433  153.9618 H   0  0  0  0  0  0  0  0  0  0  0  0
  150.7848  139.4978  153.9648 H   0  0  0  0  0  0  0  0  0  0  0  0
  150.2994  137.9123  153.3622 H   0  0  0  0  0  0  0  0  0  0  0  0
  149.2797  139.1977  155.7774 H   0  0  0  0  0  0  0  0  0  0  0  0
  148.8856  137.5971  155.1570 H   0  0  0  0  0  0  0  0  0  0  0  0
  150.0543  137.0862  157.2745 H   0  0  0  0  0  0  0  0  0  0  0  0
  150.8930  135.9440  155.0568 H   0  0  0  0  0  0  0  0  0  0  0  0
  152.2645  136.1686  156.1646 H   0  0  0  0  0  0  0  0  0  0  0  0
  152.1700  139.9853  160.1476 H   0  0  0  0  0  0  0  0  0  0  0  0
  154.7397  140.5115  160.9499 H   0  0  0  0  0  0  0  0  0  0  0  0
  154.5610  141.5382  159.5533 H   0  0  0  0  0  0  0  0  0  0  0  0
  152.6263  141.5403  161.9363 H   0  0  0  0  0  0  0  0  0  0  0  0
  153.9751  142.6327  161.7951 H   0  0  0  0  0  0  0  0  0  0  0  0
  152.9545  142.2539  158.4618 H   0  0  0  0  0  0  0  0  0  0  0  0
  151.5406  143.9219  157.2372 H   0  0  0  0  0  0  0  0  0  0  0  0
  150.2292  145.6019  158.5658 H   0  0  0  0  0  0  0  0  0  0  0  0
  150.3829  145.5328  161.0686 H   0  0  0  0  0  0  0  0  0  0  0  0
  1  2  2  0  0  0  0
  2  3  1  0  0  0  0
  2 11  1  0  0  0  0
  3  4  1  0  0  0  0
  3 20  1  0  0  0  0
  3 21  1  0  0  0  0
  4  9  1  0  0  0  0
  4  5  1  0  0  0  0
  4 22  1  0  0  0  0
  5  6  1  0  0  0  0
  5 23  1  0  0  0  0
  5 24  1  0  0  0  0
  6 10  1  0  0  0  0
  6  7  1  0  0  0  0
  6 25  1  0  0  0  0
  7  8  1  0  0  0  0
  7 26  1  0  0  0  0
  7 27  1  0  0  0  0
  8  9  1  0  0  0  0
  8 28  1  0  0  0  0
  8 29  1  0  0  0  0
  9 10  1  0  0  0  0
  9 30  1  0  0  0  0
 10 31  1  0  0  0  0
 10 32  1  0  0  0  0
 11 12  1  0  0  0  0
 11 33  1  0  0  0  0
 12 13  1  0  0  0  0
 12 34  1  0  0  0  0
 12 35  1  0  0  0  0
 13 14  1  0  0  0  0
 13 36  1  0  0  0  0
 13 37  1  0  0  0  0
 14 19  1  0  0  0  0
 14 15  2  0  0  0  0
 15 16  1  0  0  0  0
 15 38  1  0  0  0  0
 16 17  2  0  0  0  0
 16 39  1  0  0  0  0
 17 18  1  0  0  0  0
 17 40  1  0  0  0  0
 18 19  2  0  0  0  0
 18 41  1  0  0  0  0
M  END
> <s_m_source_file>
AV-unprocessed.smi

> <i_m_source_file_index>
3263

> <i_lp_mmshare_version>
43012

> <i_f3d_flags>
0

> <s_epik_input>
W0NIMl0xW0NIMl1bQ0BASF0oW0NIMl0yKVtDQEBIXShbQ0gyXVtDQEhdMTIpW0NIMl1DKD1PKVtOSF1bQ0gyXVtDSDJdYzNbY0hdW2NIXVtjSF1bY0hdbjM=

> <s_epik_cmdline>
J2VwaWtfcHl0aG9uJywgJy1waCcsICc3LjAnLCAnLXRuJywgJzgnLCAnLW1hJywgJzIwMCcsICctbWV0YWxfYmluZGluZycsICctaW1hZScsICc8aW5maWxlLm1hZT4nLCAnLW9tYWUnLCAnPG91dGZpbGUubWFlPic=

> <r_epik_Ionization_Penalty>
0.0273541

> <r_epik_Ionization_Penalty_Charging>
0

> <r_epik_Ionization_Penalty_Neutral>
0.0273541

> <r_epik_State_Penalty>
0.0223838

> <r_epik_Charging_Adjusted_Penalty>
0.0223838

> <i_epik_Tot_Q>
0

> <i_epik_Tot_abs_Q>
0

> <r_epik_Metal_State_Penalty>
0.0213927

> <b_epik_Metal_Only>
0

> <s_lp_Force_Field>
OPLS_2005

> <r_lp_Energy>
47.5771

> <b_lp_Chiralities_Consistent>
1

> <s_lp_Variant>
AV-unprocessed.smi:3263-2

> <Gold.Version>
5.8.1

> <Gold.Id.Protein>
6NUR|6NUR_protein|mol2

> <Gold.PLP.Fitness>
46.9838

> <Gold.PLP.PLP>
-44.6767

> <Gold.PLP.part.hbond>
-1.0000

> <Gold.PLP.part.metal>
0.0000

> <Gold.PLP.part.buried>
-4.8156

> <Gold.PLP.part.nonpolar>
-38.7081

> <Gold.PLP.part.repulsive>
0.2402

> <Gold.PLP.ligand.clash>
0.0000

> <Gold.PLP.ligand.torsion>
0.3601

> <Gold.PLP.Chemscore.Hbond>
1.0000

> <Gold.PLP.Chemscore.CHOScore>
0.0000

> <Gold.PLP.Chemscore.Metal>
0.0000

> <Gold.Chemscore.Hbonds>
donor molecule, donor type, donor heavy atom, donor atom, acceptor molecule, acceptor atom, score
      P1  H  7997  8009       L1     1  0.62

> <Gold.PLP.Chemscore.Internal.Correction>
0.0272

> <Gold.Rescore>
     Score         DG    S(hbond)    S(metal)    S(lipo)     H(rot)  DE(clash)    DE(int)     intcor
     20.05     -20.39       0.98        0.00     131.39       1.46       0.08       0.26       ----

> <Gold.Chemscore.Fitness>
20.0539

> <Gold.Chemscore.DG>
-20.3931

> <Gold.Chemscore.ZeroCoef>
-5.4800

> <Gold.Chemscore.Hbond>
0.9779

> <Gold.Chemscore.Metal>
0.0000

> <Gold.Chemscore.Lipo>
131.3928

> <Gold.Chemscore.Internal_Hbond>
0.0000

> <Gold.Chemscore.DEClash>
0.0774

> <Gold.Chemscore.DEInternal>
0.2617

> <Gold.Chemscore.Rot>
1.4555

> <Gold.Chemscore.Internal.Correction>
   9.000000E+99

> <Gold.Chemscore.Hbonds>
donor molecule, donor type, donor heavy atom, donor atom, acceptor molecule, acceptor atom, score
      P1  H  7997  8009       L1     1  0.62

> <Gold.Chemscore.Hbond.Weighted>
-3.2661

> <Gold.Chemscore.Metal.Weighted>
-0.0000

> <Gold.Chemscore.Lipo.Weighted>
-15.3730

> <Gold.Chemscore.Internal_Hbond.Weighted>
0.0000

> <Gold.Chemscore.DEClash.Weighted>
0.0774

> <Gold.Chemscore.DEInternal.Weighted>
0.2617

> <Gold.Chemscore.Rot.Weighted>
3.7260

> <Gold.Chemscore.Internal.Correction.Weighted>
   9.000000E+99

> <Gold.Protein.RotatedTorsions>
[ 6907 6896 6895 6894 ] final -110.38 input  -60.11 | X-H torsion
[ 7974 7965 7964 7962 ] final   21.83 input  175.53 | X-H torsion
[ 8008 7997 7996 7995 ] final  134.11 input   59.86 | X-H torsion
[ 10167 10162 10161 10158 ] final -148.04 input  -65.29 | X-H torsion
[ 10718 10713 10712 10709 ] final -160.03 input   66.30 | X-H torsion
[ 10763 10752 10751 10750 ] final  152.17 input  -60.55 | X-H torsion
[ 11005 11000 10999 10996 ] final   98.53 input  -57.11 | X-H torsion

> <Gold.Protein.ActiveResidues>
 VAL166  LYS551  ARG553  GLY616  TRP617  ASP618  TYR619  PRO620  LYS621  CYS622 
 ASP623  PHE694  ASN695  SER759  ASP760  ASP761  ALA762  ILE779  LEU786  VAL792 
 PHE793  MET794  SER795  GLU796  ALA797  LYS798  CYS799  TRP800  GLU811  SER814 

> <Gold.Protein.RotatedAtoms>
  150.7621  133.9390  159.3450 H   0  0  0  0  0  0  0  0  0  0  0  0  # atno 6907 bound_to 6896
  151.7296  135.0875  160.0307 H   0  0  0  0  0  0  0  0  0  0  0  0  # atno 6908 bound_to 6896
  152.3598  133.6245  159.6042 H   0  0  0  0  0  0  0  0  0  0  0  0  # atno 6909 bound_to 6896
  146.2055  139.7971  142.8729 H   0  0  0  0  0  0  0  0  0  0  0  0  # atno 7974 bound_to 7965
  156.2997  140.2504  156.3364 H   0  0  0  0  0  0  0  0  0  0  0  0  # atno 8008 bound_to 7997
  154.9096  140.0404  157.1958 H   0  0  0  0  0  0  0  0  0  0  0  0  # atno 8009 bound_to 7997
  154.8418  140.2892  155.5658 H   0  0  0  0  0  0  0  0  0  0  0  0  # atno 8010 bound_to 7997
  139.7567  143.8437  152.2598 H   0  0  0  0  0  0  0  0  0  0  0  0  # atno 10167 bound_to 10162
  156.5764  130.8710  151.2852 H   0  0  0  0  0  0  0  0  0  0  0  0  # atno 10718 bound_to 10713
  154.1156  135.2836  155.3220 H   0  0  0  0  0  0  0  0  0  0  0  0  # atno 10763 bound_to 10752
  154.6459  135.5386  153.7847 H   0  0  0  0  0  0  0  0  0  0  0  0  # atno 10764 bound_to 10752
  153.0330  135.6498  154.1313 H   0  0  0  0  0  0  0  0  0  0  0  0  # atno 10765 bound_to 10752
  139.8772  134.9053  156.4470 H   0  0  0  0  0  0  0  0  0  0  0  0  # atno 11005 bound_to 11000
  145.3336  141.0272  143.3432 LP  0  0  0  0  0  0  0  0  0  0  0  0  # atno 17320 bound_to 7965
  144.8782  139.4942  143.6736 LP  0  0  0  0  0  0  0  0  0  0  0  0  # atno 17321 bound_to 7965
  139.8432  144.7200  150.9306 LP  0  0  0  0  0  0  0  0  0  0  0  0  # atno 17342 bound_to 10162
  140.7803  143.3965  151.1221 LP  0  0  0  0  0  0  0  0  0  0  0  0  # atno 17343 bound_to 10162
  157.7336  130.9734  150.1989 LP  0  0  0  0  0  0  0  0  0  0  0  0  # atno 17370 bound_to 10713
  156.2670  130.3717  149.8071 LP  0  0  0  0  0  0  0  0  0  0  0  0  # atno 17371 bound_to 10713
  140.8959  133.7814  155.9624 LP  0  0  0  0  0  0  0  0  0  0  0  0  # atno 17394 bound_to 11000
  140.8703  134.2734  157.5193 LP  0  0  0  0  0  0  0  0  0  0  0  0  # atno 17395 bound_to 11000

$$$$
