AV-unprocessed.smi:1019|AV-procd|sdf|4443|dock6
  -GOLD-   22720 2403D 1   1.00000     0.00000
 Structure written by MMmdl.
 44 46  0  0  0  0  0  0  0  0  2 V2000
  145.6954  135.4664  153.3194 C   0  0  0  0  0  0  0  0  0  0  0  0
  145.9380  136.3690  152.1693 N   0  3  1  0  0  0  0  0  0  0  0  0
  145.3051  135.8842  150.9156 C   0  0  0  0  0  0  0  0  0  0  0  0
  145.2944  134.3680  150.8380 C   0  0  0  0  0  0  0  0  0  0  0  0
  144.0914  133.6868  150.5555 C   0  0  0  0  0  0  0  0  0  0  0  0
  144.0763  132.2806  150.4775 C   0  0  0  0  0  0  0  0  0  0  0  0
  145.2629  131.5505  150.6834 C   0  0  0  0  0  0  0  0  0  0  0  0
  146.4648  132.2269  150.9687 C   0  0  0  0  0  0  0  0  0  0  0  0
  146.4810  133.6330  151.0472 C   0  0  0  0  0  0  0  0  0  0  0  0
  145.5978  137.7801  152.4847 C   0  0  0  0  0  0  0  0  0  0  0  0
  146.8474  138.6183  152.8192 C   0  0  2  0  0  0  0  0  0  0  0  0
  147.7875  138.4689  151.7720 O   0  0  0  0  0  0  0  0  0  0  0  0
  147.4891  138.1854  154.1515 C   0  0  0  0  0  0  0  0  0  0  0  0
  148.6603  138.9762  154.4862 N   0  0  0  0  0  0  0  0  0  0  0  0
  149.8653  138.9309  153.8861 C   0  0  0  0  0  0  0  0  0  0  0  0
  150.8105  139.7408  154.3537 N   0  0  0  0  0  0  0  0  0  0  0  0
  150.1407  140.3909  155.3759 C   0  0  0  0  0  0  0  0  0  0  0  0
  150.5853  141.3854  156.2762 C   0  0  0  0  0  0  0  0  0  0  0  0
  149.7108  141.9091  157.2511 C   0  0  0  0  0  0  0  0  0  0  0  0
  148.3816  141.4476  157.3413 C   0  0  0  0  0  0  0  0  0  0  0  0
  147.9156  140.4567  156.4559 C   0  0  0  0  0  0  0  0  0  0  0  0
  148.7914  139.9366  155.4843 C   0  0  0  0  0  0  0  0  0  0  0  0
  144.6335  135.4226  153.5647 H   0  0  0  0  0  0  0  0  0  0  0  0
  146.2363  135.8109  154.2014 H   0  0  0  0  0  0  0  0  0  0  0  0
  146.0404  134.4544  153.1086 H   0  0  0  0  0  0  0  0  0  0  0  0
  144.2909  136.2781  150.8312 H   0  0  0  0  0  0  0  0  0  0  0  0
  145.8457  136.2519  150.0439 H   0  0  0  0  0  0  0  0  0  0  0  0
  143.1779  134.2412  150.3956 H   0  0  0  0  0  0  0  0  0  0  0  0
  143.1545  131.7614  150.2596 H   0  0  0  0  0  0  0  0  0  0  0  0
  145.2510  130.4721  150.6230 H   0  0  0  0  0  0  0  0  0  0  0  0
  147.3744  131.6664  151.1273 H   0  0  0  0  0  0  0  0  0  0  0  0
  147.4075  134.1441  151.2647 H   0  0  0  0  0  0  0  0  0  0  0  0
  145.0535  138.2146  151.6445 H   0  0  0  0  0  0  0  0  0  0  0  0
  144.9177  137.8209  153.3374 H   0  0  0  0  0  0  0  0  0  0  0  0
  146.5882  139.6749  152.8868 H   0  0  0  0  0  0  0  0  0  0  0  0
  148.5039  139.0683  151.9176 H   0  0  0  0  0  0  0  0  0  0  0  0
  146.7694  138.2835  154.9653 H   0  0  0  0  0  0  0  0  0  0  0  0
  147.7749  137.1333  154.1159 H   0  0  0  0  0  0  0  0  0  0  0  0
  150.0609  138.2618  153.0607 H   0  0  0  0  0  0  0  0  0  0  0  0
  151.6014  141.7464  156.2168 H   0  0  0  0  0  0  0  0  0  0  0  0
  150.0618  142.6693  157.9334 H   0  0  0  0  0  0  0  0  0  0  0  0
  147.7196  141.8558  158.0910 H   0  0  0  0  0  0  0  0  0  0  0  0
  146.8981  140.1024  156.5243 H   0  0  0  0  0  0  0  0  0  0  0  0
  146.9361  136.3602  152.0113 H   0  0  0  0  0  0  0  0  0  0  0  0
  1  2  1  0  0  0  0
  1 23  1  0  0  0  0
  1 24  1  0  0  0  0
  1 25  1  0  0  0  0
  2  3  1  0  0  0  0
  2 10  1  0  0  0  0
  2 44  1  0  0  0  0
  3  4  1  0  0  0  0
  3 26  1  0  0  0  0
  3 27  1  0  0  0  0
  4  9  1  0  0  0  0
  4  5  2  0  0  0  0
  5  6  1  0  0  0  0
  5 28  1  0  0  0  0
  6  7  2  0  0  0  0
  6 29  1  0  0  0  0
  7  8  1  0  0  0  0
  7 30  1  0  0  0  0
  8  9  2  0  0  0  0
  8 31  1  0  0  0  0
  9 32  1  0  0  0  0
 10 11  1  0  0  0  0
 10 33  1  0  0  0  0
 10 34  1  0  0  0  0
 11 12  1  0  0  0  0
 11 13  1  0  0  0  0
 11 35  1  0  0  0  0
 12 36  1  0  0  0  0
 13 14  1  0  0  0  0
 13 37  1  0  0  0  0
 13 38  1  0  0  0  0
 14 22  1  0  0  0  0
 14 15  1  0  0  0  0
 15 16  2  0  0  0  0
 15 39  1  0  0  0  0
 16 17  1  0  0  0  0
 17 22  2  0  0  0  0
 17 18  1  0  0  0  0
 18 19  2  0  0  0  0
 18 40  1  0  0  0  0
 19 20  1  0  0  0  0
 19 41  1  0  0  0  0
 20 21  2  0  0  0  0
 20 42  1  0  0  0  0
 21 22  1  0  0  0  0
 21 43  1  0  0  0  0
M  CHG  1   2   1
M  END
> <s_m_source_file>
AV-unprocessed.smi

> <i_m_source_file_index>
1019

> <i_lp_mmshare_version>
43012

> <i_f3d_flags>
0

> <s_epik_input>
W2NIXTFbY0hdW2NIXVtjSF1bY0hdYzFbQ0gyXU4oW0NIM10pW0NIMl1bQ0BIXShbT0hdKVtDSDJdbihbY0hdbjIpYyhjMjMpW2NIXVtjSF1bY0hdW2NIXTM=

> <s_epik_cmdline>
J2VwaWtfcHl0aG9uJywgJy1waCcsICc3LjAnLCAnLXRuJywgJzgnLCAnLW1hJywgJzIwMCcsICctbWV0YWxfYmluZGluZycsICctaW1hZScsICc8aW5maWxlLm1hZT4nLCAnLW9tYWUnLCAnPG91dGZpbGUubWFlPic=

> <r_epik_Ionization_Penalty>
0.0996557

> <r_epik_Ionization_Penalty_Charging>
0.0475377

> <r_epik_Ionization_Penalty_Neutral>
0.0521179

> <r_epik_State_Penalty>
0.0851777

> <r_epik_Charging_Adjusted_Penalty>
0.132715

> <i_epik_Tot_Q>
1

> <i_epik_Tot_abs_Q>
1

> <r_epik_Metal_State_Penalty>
0.0423478

> <b_epik_Metal_Only>
0

> <s_lp_Force_Field>
OPLS_2005

> <r_lp_Energy>
15.2714

> <b_lp_Chiralities_Consistent>
1

> <s_lp_Variant>
AV-unprocessed.smi:1019-1

> <Gold.Version>
5.8.1

> <Gold.Id.Protein>
6NUR|6NUR_protein|mol2

> <Gold.PLP.Fitness>
54.5560

> <Gold.PLP.PLP>
-38.4706

> <Gold.PLP.part.hbond>
-4.7809

> <Gold.PLP.part.metal>
0.0000

> <Gold.PLP.part.buried>
-0.7935

> <Gold.PLP.part.nonpolar>
-33.9838

> <Gold.PLP.part.repulsive>
0.1620

> <Gold.PLP.ligand.clash>
0.2489

> <Gold.PLP.ligand.torsion>
1.0833

> <Gold.PLP.Chemscore.Hbond>
4.8072

> <Gold.PLP.Chemscore.CHOScore>
1.2758

> <Gold.PLP.Chemscore.Metal>
0.0000

> <Gold.Chemscore.Hbonds>
donor molecule, donor type, donor heavy atom, donor atom, acceptor molecule, acceptor atom, score
      L1  H     2    44       P1  7948  2.00
      L1  H    12    36       P1  7957  0.85
      P1  H  7954  7966       L1    12  0.96
      P1  H  7989  7998       L1    16  1.00
      L1  C    15    39       P1  7948  0.94
      L1  C    15    39       P1  7957  0.26

> <Gold.PLP.Chemscore.Internal.Correction>
0.2520

> <Gold.Rescore>
     Score         DG    S(hbond)    S(metal)    S(lipo)     H(rot)  DE(clash)    DE(int)     intcor
     16.94     -21.26       3.05        0.00      99.54       2.36       1.04       3.28       ----

> <Gold.Chemscore.Fitness>
16.9396

> <Gold.Chemscore.DG>
-21.2639

> <Gold.Chemscore.ZeroCoef>
-5.4800

> <Gold.Chemscore.Hbond>
3.0490

> <Gold.Chemscore.Metal>
0.0000

> <Gold.Chemscore.Lipo>
99.5378

> <Gold.Chemscore.Internal_Hbond>
0.0000

> <Gold.Chemscore.DEClash>
1.0427

> <Gold.Chemscore.DEInternal>
3.2816

> <Gold.Chemscore.Rot>
2.3616

> <Gold.Chemscore.Internal.Correction>
   9.000000E+99

> <Gold.Chemscore.Hbonds>
donor molecule, donor type, donor heavy atom, donor atom, acceptor molecule, acceptor atom, score
      L1  H     2    44       P1  7948  0.96
      L1  H    12    36       P1  7957  0.80
      P1  H  7954  7966       L1    12  0.23
      P1  H  7989  7998       L1    16  0.65

> <Gold.Chemscore.Hbond.Weighted>
-10.1837

> <Gold.Chemscore.Metal.Weighted>
-0.0000

> <Gold.Chemscore.Lipo.Weighted>
-11.6459

> <Gold.Chemscore.Internal_Hbond.Weighted>
0.0000

> <Gold.Chemscore.DEClash.Weighted>
1.0427

> <Gold.Chemscore.DEInternal.Weighted>
3.2816

> <Gold.Chemscore.Rot.Weighted>
6.0457

> <Gold.Chemscore.Internal.Correction.Weighted>
   9.000000E+99

> <Gold.Protein.RotatedTorsions>
[ 6907 6896 6895 6894 ] final  131.29 input  -60.11 | X-H torsion
[ 7974 7965 7964 7962 ] final  -53.76 input  175.53 | X-H torsion
[ 8008 7997 7996 7995 ] final -160.07 input   59.86 | X-H torsion
[ 10167 10162 10161 10158 ] final   96.34 input  -65.29 | X-H torsion
[ 10718 10713 10712 10709 ] final  -51.94 input   66.30 | X-H torsion
[ 10763 10752 10751 10750 ] final -147.88 input  -60.55 | X-H torsion
[ 11005 11000 10999 10996 ] final   17.44 input  -57.11 | X-H torsion

> <Gold.Protein.ActiveResidues>
 VAL166  LYS551  ARG553  GLY616  TRP617  ASP618  TYR619  PRO620  LYS621  CYS622 
 ASP623  PHE694  ASN695  SER759  ASP760  ASP761  ALA762  ILE779  LEU786  VAL792 
 PHE793  MET794  SER795  GLU796  ALA797  LYS798  CYS799  TRP800  GLU811  SER814 

> <Gold.Protein.RotatedAtoms>
  152.3440  133.6101  159.5896 H   0  0  0  0  0  0  0  0  0  0  0  0  # atno 6907 bound_to 6896
  150.7496  133.9677  159.3544 H   0  0  0  0  0  0  0  0  0  0  0  0  # atno 6908 bound_to 6896
  151.7538  135.0827  160.0386 H   0  0  0  0  0  0  0  0  0  0  0  0  # atno 6909 bound_to 6896
  145.8932  140.8053  142.9780 H   0  0  0  0  0  0  0  0  0  0  0  0  # atno 7974 bound_to 7965
  155.7720  140.0853  157.2103 H   0  0  0  0  0  0  0  0  0  0  0  0  # atno 8008 bound_to 7997
  154.3995  140.1523  156.3010 H   0  0  0  0  0  0  0  0  0  0  0  0  # atno 8009 bound_to 7997
  155.8738  140.3424  155.5842 H   0  0  0  0  0  0  0  0  0  0  0  0  # atno 8010 bound_to 7997
  139.7904  144.6854  150.9900 H   0  0  0  0  0  0  0  0  0  0  0  0  # atno 10167 bound_to 10162
  156.1665  130.4149  149.9712 H   0  0  0  0  0  0  0  0  0  0  0  0  # atno 10718 bound_to 10713
  154.8262  135.3348  154.6888 H   0  0  0  0  0  0  0  0  0  0  0  0  # atno 10763 bound_to 10752
  153.7513  135.6939  153.4949 H   0  0  0  0  0  0  0  0  0  0  0  0  # atno 10764 bound_to 10752
  153.2174  135.4461  155.0400 H   0  0  0  0  0  0  0  0  0  0  0  0  # atno 10765 bound_to 10752
  140.4360  134.1371  155.7685 H   0  0  0  0  0  0  0  0  0  0  0  0  # atno 11005 bound_to 11000
  144.6731  140.1562  143.7426 LP  0  0  0  0  0  0  0  0  0  0  0  0  # atno 17320 bound_to 7965
  145.8882  139.2361  143.1565 LP  0  0  0  0  0  0  0  0  0  0  0  0  # atno 17321 bound_to 7965
  140.7820  143.4387  151.0584 LP  0  0  0  0  0  0  0  0  0  0  0  0  # atno 17342 bound_to 10162
  139.8064  143.8012  152.3167 LP  0  0  0  0  0  0  0  0  0  0  0  0  # atno 17343 bound_to 10162
  156.7525  130.9120  151.3638 LP  0  0  0  0  0  0  0  0  0  0  0  0  # atno 17370 bound_to 10713
  157.6772  130.9105  150.0178 LP  0  0  0  0  0  0  0  0  0  0  0  0  # atno 17371 bound_to 10713
  141.1726  133.8579  157.1524 LP  0  0  0  0  0  0  0  0  0  0  0  0  # atno 17394 bound_to 11000
  140.0102  134.9991  157.0379 LP  0  0  0  0  0  0  0  0  0  0  0  0  # atno 17395 bound_to 11000

$$$$
