#       Name:                AV-unprocessed.smi:72
#       Creating user name   scv26
#       Creation time:       Thu Mar 26 17:08:10 2020


#       File generated by GOLD software.
#

@<TRIPOS>MOLECULE
AV-unprocessed.smi:72
    41    42     1
SMALL
NO_CHARGES


@<TRIPOS>ATOM
      1 ****        -4.7258  -1.4129   1.3440 N.pl3          1 S1                 0.0000
      2 ****        -3.3744  -1.1988   1.1703 C.2            1 S1                 0.0000
      3 ****        -3.0088  -0.0051   0.5327 N.2            1 S1                 0.0000
      4 ****        -1.7399   0.2029   0.3748 C.2            1 S1                 0.0000
      5 ****        -0.7548  -0.7517   0.8511 N.am           1 S1                 0.0000
      6 ****         0.7272  -0.5258   0.6551 C.3            1 S1                 0.0000
      7 ****         0.9843   0.8469   0.6392 O.3            1 S1                 0.0000
      8 ****         1.9525   1.1351  -0.3615 C.3            1 S1                 0.0000
      9 ****         1.9044   2.6158  -0.7783 C.3            1 S1                 0.0000
     10 ****         2.6539   3.4002   0.1249 O.3            1 S1                 0.0000
     11 ****         1.6218   0.1238  -1.4680 C.3            1 S1                 0.0000
     12 ****         0.5602   0.5843  -2.2844 O.3            1 S1                 0.0000
     13 ****         1.1936  -1.1139  -0.6887 C.3            1 S1                 0.0000
     14 ****         2.2966  -1.9793  -0.5100 O.3            1 S1                 0.0000
     15 ****        -1.1968  -1.9558   1.4635 C.2            1 S1                 0.0000
     16 ****        -0.3800  -2.8001   1.8318 O.2            1 S1                 0.0000
     17 ****        -2.5780  -2.1287   1.6144 N.2            1 S1                 0.0000
     18 ****         1.2251  -0.9586   1.5245 H              1 S1                 0.0000
     19 ****         2.9399   0.8894   0.0353 H              1 S1                 0.0000
     20 ****         2.4810  -0.0639  -2.1135 H              1 S1                 0.0000
     21 ****         0.3932  -1.6652  -1.1854 H              1 S1                 0.0000
     22 ****        -5.1058  -2.2362   1.7878 H              1 S1                 0.0000
     23 ****        -5.4356  -0.7627   1.0394 H              1 S1                 0.0000
     24 ****        -1.3381   1.0883  -0.1194 H              1 S1                 0.0000
     25 ****         2.3515   2.7426  -1.7648 H              1 S1                 0.0000
     26 ****         0.8782   2.9806  -0.8351 H              1 S1                 0.0000
     27 ****         2.6150   4.3019  -0.1551 H              1 S1                 0.0000
     28 ****         0.8442   1.3650  -2.7345 H              1 S1                 0.0000
     29 ****         2.0157  -2.7189   0.0072 H              1 S1                 0.0000
     30 ****        -3.6926   0.6523   0.2160 LP             1 S1                 0.0000
     31 ****         1.3329   1.1313   1.5323 LP             1 S1                 0.0000
     32 ****         0.1392   1.3422   0.4381 LP             1 S1                 0.0000
     33 ****         3.6046   3.0902   0.1318 LP             1 S1                 0.0000
     34 ****         2.2691   3.3159   1.0441 LP             1 S1                 0.0000
     35 ****        -0.2358   0.7933  -1.7163 LP             1 S1                 0.0000
     36 ****         0.3178  -0.1202  -2.9514 LP             1 S1                 0.0000
     37 ****         3.0319  -1.4954  -0.0355 LP             1 S1                 0.0000
     38 ****         2.6255  -2.2952  -1.3999 LP             1 S1                 0.0000
     39 ****         0.5983  -2.6400   1.7005 LP             1 S1                 0.0000
     40 ****        -0.6949  -3.6460   2.2623 LP             1 S1                 0.0000
     41 ****        -2.9451  -2.9486   2.0538 LP             1 S1                 0.0000
@<TRIPOS>BOND
    1    1    2 1     
    2    1   22 1     
    3    1   23 1     
    4    2   17 2     
    5    2    3 1     
    6    3    4 2     
    7    4    5 1     
    8    4   24 1     
    9    5    6 1     
   10    5   15 am    
   11    6   18 1     
   12    6   13 1     
   13    6    7 1     
   14    7    8 1     
   15    8   19 1     
   16    8    9 1     
   17    8   11 1     
   18    9   10 1     
   19    9   25 1     
   20    9   26 1     
   21   10   27 1     
   22   11   20 1     
   23   11   12 1     
   24   11   13 1     
   25   12   28 1     
   26   13   21 1     
   27   13   14 1     
   28   14   29 1     
   29   15   16 2     
   30   15   17 1     
   31    3   30 1     
   32    7   31 1     
   33    7   32 1     
   34   10   33 1     
   35   10   34 1     
   36   12   35 1     
   37   12   36 1     
   38   14   37 1     
   39   14   38 1     
   40   16   39 1     
   41   16   40 1     
   42   17   41 1     
@<TRIPOS>SUBSTRUCTURE
      1 S1             1
@<TRIPOS>SET
LONE_PAIRS      STATIC     ATOMS    <user>   **** ""
12 30 31 32 33 34 35 36 37 38 39 40 41
DONOR_HYDROGENS      STATIC     ATOMS    <user>   **** ""
5 22 23 27 28 29
ATOM$BLUE        STATIC     ATOMS    COLORGROUP SYSTEM
12 30 31 32 33 34 35 36 37 38 39 40 41
ATOM$RED        STATIC     ATOMS    COLORGROUP SYSTEM
5 22 23 27 28 29
