AV-unprocessed.smi:312|AV-procd|sdf|2308|dock6
  -GOLD-   2262022203D 1   1.00000     0.00000
 Structure written by MMmdl.
 35 36  0  0  0  0  0  0  0  0  1 V2000
  149.4456  140.4721  157.6897 C   0  0  0  0  0  0  0  0  0  0  0  0
  150.8014  140.5744  156.9781 C   0  0  1  0  0  0  0  0  0  0  0  0
  150.6731  141.3118  155.6282 C   0  0  0  0  0  0  0  0  0  0  0  0
  149.5094  140.8932  154.8681 N   0  0  0  0  0  0  0  0  0  0  0  0
  148.4579  141.6917  154.4363 C   0  0  0  0  0  0  0  0  0  0  0  0
  147.5949  140.8678  153.7501 C   0  0  0  0  0  0  0  0  0  0  0  0
  148.0883  139.5653  153.7531 N   0  0  0  0  0  0  0  0  0  0  0  0
  149.2232  139.6580  154.4342 C   0  0  0  0  0  0  0  0  0  0  0  0
  151.7484  141.2601  157.8565 N   0  0  0  0  0  0  0  0  0  0  0  0
  151.6941  142.5544  158.2100 C   0  0  0  0  0  0  0  0  0  0  0  0
  150.8312  143.3319  157.8008 O   0  0  0  0  0  0  0  0  0  0  0  0
  152.7752  143.0388  159.1892 C   0  0  0  0  0  0  0  0  0  0  0  0
  152.8322  142.1606  160.4613 C   0  0  0  0  0  0  0  0  0  0  0  0
  152.5180  143.0755  161.6522 C   0  0  0  0  0  0  0  0  0  0  0  0
  151.8188  144.2931  161.0545 C   0  0  0  0  0  0  0  0  0  0  0  0
  152.4899  144.4665  159.6929 C   0  0  0  0  0  0  0  0  0  0  0  0
  148.7200  139.9380  157.0759 H   0  0  0  0  0  0  0  0  0  0  0  0
  149.0347  141.4586  157.9074 H   0  0  0  0  0  0  0  0  0  0  0  0
  149.5369  139.9332  158.6334 H   0  0  0  0  0  0  0  0  0  0  0  0
  151.1414  139.5545  156.7882 H   0  0  0  0  0  0  0  0  0  0  0  0
  150.5935  142.3868  155.7947 H   0  0  0  0  0  0  0  0  0  0  0  0
  151.5646  141.1559  155.0188 H   0  0  0  0  0  0  0  0  0  0  0  0
  148.4159  142.7515  154.6407 H   0  0  0  0  0  0  0  0  0  0  0  0
  146.6641  141.1104  153.2592 H   0  0  0  0  0  0  0  0  0  0  0  0
  149.8648  138.8085  154.6169 H   0  0  0  0  0  0  0  0  0  0  0  0
  152.4941  140.6998  158.2431 H   0  0  0  0  0  0  0  0  0  0  0  0
  153.7422  143.0245  158.6835 H   0  0  0  0  0  0  0  0  0  0  0  0
  152.1092  141.3433  160.4246 H   0  0  0  0  0  0  0  0  0  0  0  0
  153.8135  141.6998  160.5791 H   0  0  0  0  0  0  0  0  0  0  0  0
  151.9139  142.5801  162.4129 H   0  0  0  0  0  0  0  0  0  0  0  0
  153.4497  143.3894  162.1247 H   0  0  0  0  0  0  0  0  0  0  0  0
  150.7564  144.0836  160.9220 H   0  0  0  0  0  0  0  0  0  0  0  0
  151.9084  145.1794  161.6831 H   0  0  0  0  0  0  0  0  0  0  0  0
  153.4319  145.0026  159.8155 H   0  0  0  0  0  0  0  0  0  0  0  0
  151.8754  145.0553  159.0097 H   0  0  0  0  0  0  0  0  0  0  0  0
  1  2  1  0  0  0  0
  1 17  1  0  0  0  0
  1 18  1  0  0  0  0
  1 19  1  0  0  0  0
  2  3  1  0  0  0  0
  2  9  1  0  0  0  0
  2 20  1  0  0  0  0
  3  4  1  0  0  0  0
  3 21  1  0  0  0  0
  3 22  1  0  0  0  0
  4  8  1  0  0  0  0
  4  5  1  0  0  0  0
  5  6  2  0  0  0  0
  5 23  1  0  0  0  0
  6  7  1  0  0  0  0
  6 24  1  0  0  0  0
  7  8  2  0  0  0  0
  8 25  1  0  0  0  0
  9 10  1  0  0  0  0
  9 26  1  0  0  0  0
 10 11  2  0  0  0  0
 10 12  1  0  0  0  0
 12 16  1  0  0  0  0
 12 13  1  0  0  0  0
 12 27  1  0  0  0  0
 13 14  1  0  0  0  0
 13 28  1  0  0  0  0
 13 29  1  0  0  0  0
 14 15  1  0  0  0  0
 14 30  1  0  0  0  0
 14 31  1  0  0  0  0
 15 16  1  0  0  0  0
 15 32  1  0  0  0  0
 15 33  1  0  0  0  0
 16 34  1  0  0  0  0
 16 35  1  0  0  0  0
M  END
> <s_m_source_file>
AV-unprocessed.smi

> <i_m_source_file_index>
312

> <i_lp_mmshare_version>
43012

> <i_f3d_flags>
0

> <s_epik_input>
W2NIXTFuW2NIXVtjSF1uMVtDSDJdW0NAQEhdKFtDSDNdKVtOSF1DKD1PKVtDSF0yW0NIMl1bQ0gyXVtDSDJdW0NIMl0y

> <s_epik_cmdline>
J2VwaWtfcHl0aG9uJywgJy1waCcsICc3LjAnLCAnLXRuJywgJzgnLCAnLW1hJywgJzIwMCcsICctbWV0YWxfYmluZGluZycsICctaW1hZScsICc8aW5maWxlLm1hZT4nLCAnLW9tYWUnLCAnPG91dGZpbGUubWFlPic=

> <r_lp_tautomer_probability>
1

> <r_epik_Ionization_Penalty>
0.642614

> <r_epik_Ionization_Penalty_Charging>
0.642614

> <r_epik_Ionization_Penalty_Neutral>
3.44135e-08

> <r_epik_State_Penalty>
0.660429

> <r_epik_Charging_Adjusted_Penalty>
1.30304

> <i_epik_Tot_Q>
0

> <i_epik_Tot_abs_Q>
0

> <r_epik_Metal_State_Penalty>
0.31224

> <b_epik_Metal_Only>
0

> <s_lp_Force_Field>
OPLS_2005

> <r_lp_Energy>
21.6538

> <b_lp_Chiralities_Consistent>
1

> <s_lp_Variant>
AV-unprocessed.smi:312-4

> <Gold.Version>
5.8.1

> <Gold.Id.Protein>
6NUR|6NUR_protein|mol2

> <Gold.PLP.Fitness>
40.2268

> <Gold.PLP.PLP>
-37.7645

> <Gold.PLP.part.hbond>
0.0000

> <Gold.PLP.part.metal>
0.0000

> <Gold.PLP.part.buried>
-4.0291

> <Gold.PLP.part.nonpolar>
-33.3239

> <Gold.PLP.part.repulsive>
0.6937

> <Gold.PLP.ligand.clash>
0.0000

> <Gold.PLP.ligand.torsion>
0.2804

> <Gold.PLP.Chemscore.Hbond>
0.0000

> <Gold.PLP.Chemscore.CHOScore>
1.0000

> <Gold.PLP.Chemscore.Metal>
0.0000

> <Gold.Chemscore.Hbonds>
donor molecule, donor type, donor heavy atom, donor atom, acceptor molecule, acceptor atom, score
      L1  C     5    23       P1  8028  1.00

> <Gold.PLP.Chemscore.Internal.Correction>
0.0232

> <Gold.Rescore>
     Score         DG    S(hbond)    S(metal)    S(lipo)     H(rot)  DE(clash)    DE(int)     intcor
     10.71     -11.75       0.00        0.00      92.04       1.76       0.02       1.03       ----

> <Gold.Chemscore.Fitness>
10.7100

> <Gold.Chemscore.DG>
-11.7527

> <Gold.Chemscore.ZeroCoef>
-5.4800

> <Gold.Chemscore.Hbond>
0.0000

> <Gold.Chemscore.Metal>
0.0000

> <Gold.Chemscore.Lipo>
92.0425

> <Gold.Chemscore.Internal_Hbond>
0.0000

> <Gold.Chemscore.DEClash>
0.0176

> <Gold.Chemscore.DEInternal>
1.0251

> <Gold.Chemscore.Rot>
1.7563

> <Gold.Chemscore.Internal.Correction>
   9.000000E+99

> <Gold.Chemscore.Hbond.Weighted>
-0.0000

> <Gold.Chemscore.Metal.Weighted>
-0.0000

> <Gold.Chemscore.Lipo.Weighted>
-10.7690

> <Gold.Chemscore.Internal_Hbond.Weighted>
0.0000

> <Gold.Chemscore.DEClash.Weighted>
0.0176

> <Gold.Chemscore.DEInternal.Weighted>
1.0251

> <Gold.Chemscore.Rot.Weighted>
4.4962

> <Gold.Chemscore.Internal.Correction.Weighted>
   9.000000E+99

> <Gold.Protein.RotatedTorsions>
[ 6907 6896 6895 6894 ] final  132.89 input  -60.11 | X-H torsion
[ 7974 7965 7964 7962 ] final  105.35 input  175.53 | X-H torsion
[ 8008 7997 7996 7995 ] final  170.17 input   59.86 | X-H torsion
[ 10167 10162 10161 10158 ] final  -73.22 input  -65.29 | X-H torsion
[ 10718 10713 10712 10709 ] final  139.27 input   66.30 | X-H torsion
[ 10763 10752 10751 10750 ] final   46.98 input  -60.55 | X-H torsion
[ 11005 11000 10999 10996 ] final  -19.36 input  -57.11 | X-H torsion

> <Gold.Protein.ActiveResidues>
 VAL166  LYS551  ARG553  GLY616  TRP617  ASP618  TYR619  PRO620  LYS621  CYS622 
 ASP623  PHE694  ASN695  SER759  ASP760  ASP761  ALA762  ILE779  LEU786  VAL792 
 PHE793  MET794  SER795  GLU796  ALA797  LYS798  CYS799  TRP800  GLU811  SER814 

> <Gold.Protein.RotatedAtoms>
  152.3276  133.5923  159.5787 H   0  0  0  0  0  0  0  0  0  0  0  0  # atno 6907 bound_to 6896
  150.7405  133.9916  159.3618 H   0  0  0  0  0  0  0  0  0  0  0  0  # atno 6908 bound_to 6896
  151.7794  135.0766  160.0422 H   0  0  0  0  0  0  0  0  0  0  0  0  # atno 6909 bound_to 6896
  145.3208  139.2513  143.3713 H   0  0  0  0  0  0  0  0  0  0  0  0  # atno 7974 bound_to 7965
  156.1390  140.1545  156.8950 H   0  0  0  0  0  0  0  0  0  0  0  0  # atno 8008 bound_to 7997
  154.4971  140.0835  156.7759 H   0  0  0  0  0  0  0  0  0  0  0  0  # atno 8009 bound_to 7997
  155.4114  140.3419  155.4266 H   0  0  0  0  0  0  0  0  0  0  0  0  # atno 8010 bound_to 7997
  140.5128  143.2342  151.7565 H   0  0  0  0  0  0  0  0  0  0  0  0  # atno 10167 bound_to 10162
  157.4163  131.1033  151.0401 H   0  0  0  0  0  0  0  0  0  0  0  0  # atno 10718 bound_to 10713
  152.9804  135.5991  154.3688 H   0  0  0  0  0  0  0  0  0  0  0  0  # atno 10763 bound_to 10752
  154.3363  135.2768  155.2447 H   0  0  0  0  0  0  0  0  0  0  0  0  # atno 10764 bound_to 10752
  154.4549  135.5980  153.6271 H   0  0  0  0  0  0  0  0  0  0  0  0  # atno 10765 bound_to 10752
  140.8359  133.7962  155.9808 H   0  0  0  0  0  0  0  0  0  0  0  0  # atno 11005 bound_to 11000
  146.3083  140.3764  142.8679 LP  0  0  0  0  0  0  0  0  0  0  0  0  # atno 17320 bound_to 7965
  144.8941  140.7561  143.5908 LP  0  0  0  0  0  0  0  0  0  0  0  0  # atno 17321 bound_to 7965
  139.4901  144.4367  151.9811 LP  0  0  0  0  0  0  0  0  0  0  0  0  # atno 17342 bound_to 10162
  140.3460  144.3147  150.5958 LP  0  0  0  0  0  0  0  0  0  0  0  0  # atno 17343 bound_to 10162
  157.1348  130.6117  149.5539 LP  0  0  0  0  0  0  0  0  0  0  0  0  # atno 17370 bound_to 10713
  155.9866  130.4901  150.7087 LP  0  0  0  0  0  0  0  0  0  0  0  0  # atno 17371 bound_to 10713
  140.8948  134.2451  157.5075 LP  0  0  0  0  0  0  0  0  0  0  0  0  # atno 17394 bound_to 11000
  139.8704  134.9678  156.4611 LP  0  0  0  0  0  0  0  0  0  0  0  0  # atno 17395 bound_to 11000

$$$$
