AV-unprocessed.smi:1264|AV-procd|sdf|5313|dock5
  -GOLD-   22720 4433D 1   1.00000     0.00000
 Structure written by MMmdl.
 43 43  0  0  0  0  0  0  0  0  1 V2000
  151.4163  137.8997  158.8066 C   0  0  0  0  0  0  0  0  0  0  0  0
  151.2932  139.3211  158.5228 N   0  0  0  0  0  0  0  0  0  0  0  0
  152.2394  140.0534  157.9182 C   0  0  0  0  0  0  0  0  0  0  0  0
  153.3116  139.5812  157.5351 O   0  0  0  0  0  0  0  0  0  0  0  0
  151.9118  141.5399  157.6958 C   0  0  2  0  0  0  0  0  0  0  0  0
  151.7524  142.2002  159.0861 C   0  0  0  0  0  0  0  0  0  0  0  0
  152.2839  143.6480  159.1941 C   0  0  0  0  0  0  0  0  0  0  0  0
  151.9448  144.3022  160.5441 C   0  0  0  0  0  0  0  0  0  0  0  0
  151.7507  144.5047  158.0354 C   0  0  0  0  0  0  0  0  0  0  0  0
  150.6488  141.6609  156.9690 N   0  0  0  0  0  0  0  0  0  0  0  0
  150.4213  141.2061  155.7272 C   0  0  0  0  0  0  0  0  0  0  0  0
  151.2815  140.6640  155.0332 O   0  0  0  0  0  0  0  0  0  0  0  0
  148.9999  141.3728  155.1925 C   0  0  0  0  0  0  0  0  0  0  0  0
  148.0339  140.6835  156.1213 C   0  0  0  0  0  0  0  0  0  0  0  0
  147.5990  141.0980  157.4141 C   0  0  0  0  0  0  0  0  0  0  0  0
  147.9851  142.3226  158.1932 C   0  0  0  0  0  0  0  0  0  0  0  0
  146.7450  140.2397  157.9457 N   0  0  0  0  0  0  0  0  0  0  0  0
  146.5921  139.2171  157.0048 O   0  0  0  0  0  0  0  0  0  0  0  0
  147.3714  139.5022  155.9312 C   0  0  0  0  0  0  0  0  0  0  0  0
  147.3534  138.5179  154.8112 C   0  0  0  0  0  0  0  0  0  0  0  0
  150.5304  137.5482  159.3351 H   0  0  0  0  0  0  0  0  0  0  0  0
  152.2875  137.7017  159.4322 H   0  0  0  0  0  0  0  0  0  0  0  0
  151.5130  137.3274  157.8832 H   0  0  0  0  0  0  0  0  0  0  0  0
  150.4387  139.7784  158.8065 H   0  0  0  0  0  0  0  0  0  0  0  0
  152.7226  142.0121  157.1387 H   0  0  0  0  0  0  0  0  0  0  0  0
  150.6964  142.1965  159.3631 H   0  0  0  0  0  0  0  0  0  0  0  0
  152.2564  141.5893  159.8373 H   0  0  0  0  0  0  0  0  0  0  0  0
  153.3701  143.6293  159.0982 H   0  0  0  0  0  0  0  0  0  0  0  0
  150.8694  144.3080  160.7235 H   0  0  0  0  0  0  0  0  0  0  0  0
  152.2919  145.3353  160.5761 H   0  0  0  0  0  0  0  0  0  0  0  0
  152.4209  143.7814  161.3747 H   0  0  0  0  0  0  0  0  0  0  0  0
  150.6630  144.5781  158.0644 H   0  0  0  0  0  0  0  0  0  0  0  0
  152.0303  144.0809  157.0706 H   0  0  0  0  0  0  0  0  0  0  0  0
  152.1534  145.5173  158.0762 H   0  0  0  0  0  0  0  0  0  0  0  0
  149.8795  142.0854  157.4663 H   0  0  0  0  0  0  0  0  0  0  0  0
  148.7644  142.4324  155.0854 H   0  0  0  0  0  0  0  0  0  0  0  0
  148.9545  140.9527  154.1871 H   0  0  0  0  0  0  0  0  0  0  0  0
  148.5203  143.0402  157.5718 H   0  0  0  0  0  0  0  0  0  0  0  0
  148.6327  142.0638  159.0311 H   0  0  0  0  0  0  0  0  0  0  0  0
  147.1061  142.8273  158.5955 H   0  0  0  0  0  0  0  0  0  0  0  0
  148.3270  138.4667  154.3233 H   0  0  0  0  0  0  0  0  0  0  0  0
  146.6135  138.8008  154.0624 H   0  0  0  0  0  0  0  0  0  0  0  0
  147.1066  137.5192  155.1722 H   0  0  0  0  0  0  0  0  0  0  0  0
  1  2  1  0  0  0  0
  1 21  1  0  0  0  0
  1 22  1  0  0  0  0
  1 23  1  0  0  0  0
  2  3  1  0  0  0  0
  2 24  1  0  0  0  0
  3  4  2  0  0  0  0
  3  5  1  0  0  0  0
  5  6  1  0  0  0  0
  5 10  1  0  0  0  0
  5 25  1  0  0  0  0
  6  7  1  0  0  0  0
  6 26  1  0  0  0  0
  6 27  1  0  0  0  0
  7  8  1  0  0  0  0
  7  9  1  0  0  0  0
  7 28  1  0  0  0  0
  8 29  1  0  0  0  0
  8 30  1  0  0  0  0
  8 31  1  0  0  0  0
  9 32  1  0  0  0  0
  9 33  1  0  0  0  0
  9 34  1  0  0  0  0
 10 11  1  0  0  0  0
 10 35  1  0  0  0  0
 11 12  2  0  0  0  0
 11 13  1  0  0  0  0
 13 14  1  0  0  0  0
 13 36  1  0  0  0  0
 13 37  1  0  0  0  0
 14 19  2  0  0  0  0
 14 15  1  0  0  0  0
 15 16  1  0  0  0  0
 15 17  2  0  0  0  0
 16 38  1  0  0  0  0
 16 39  1  0  0  0  0
 16 40  1  0  0  0  0
 17 18  1  0  0  0  0
 18 19  1  0  0  0  0
 19 20  1  0  0  0  0
 20 41  1  0  0  0  0
 20 42  1  0  0  0  0
 20 43  1  0  0  0  0
M  END
> <s_m_source_file>
AV-unprocessed.smi

> <i_m_source_file_index>
1264

> <i_lp_mmshare_version>
43012

> <i_f3d_flags>
0

> <s_epik_input>
W0NIM11bTkhdQyg9TylbQ0BIXShbQ0gyXVtDSF0oW0NIM10pW0NIM10pW05IXUMoPU8pW0NIMl1jMWMoW0NIM10pbm9jMVtDSDNd

> <s_epik_cmdline>
J2VwaWtfcHl0aG9uJywgJy1waCcsICc3LjAnLCAnLXRuJywgJzgnLCAnLW1hJywgJzIwMCcsICctbWV0YWxfYmluZGluZycsICctaW1hZScsICc8aW5maWxlLm1hZT4nLCAnLW9tYWUnLCAnPG91dGZpbGUubWFlPic=

> <r_lp_tautomer_probability>
1

> <r_epik_Ionization_Penalty>
6.00781e-08

> <r_epik_Ionization_Penalty_Charging>
0

> <r_epik_Ionization_Penalty_Neutral>
6.00781e-08

> <r_epik_State_Penalty>
-0

> <r_epik_Charging_Adjusted_Penalty>
0

> <i_epik_Tot_Q>
0

> <i_epik_Tot_abs_Q>
0

> <r_epik_Metal_State_Penalty>
-0

> <b_epik_Metal_Only>
0

> <s_lp_Force_Field>
OPLS_2005

> <r_lp_Energy>
-0.565017

> <b_lp_Chiralities_Consistent>
1

> <s_lp_Variant>
AV-unprocessed.smi:1264-1

> <Gold.Version>
5.8.1

> <Gold.Id.Protein>
6NUR|6NUR_protein|mol2

> <Gold.PLP.Fitness>
36.7622

> <Gold.PLP.PLP>
-32.2368

> <Gold.PLP.part.hbond>
-2.7878

> <Gold.PLP.part.metal>
0.0000

> <Gold.PLP.part.buried>
-5.7314

> <Gold.PLP.part.nonpolar>
-23.9078

> <Gold.PLP.part.repulsive>
0.2318

> <Gold.PLP.ligand.clash>
0.0000

> <Gold.PLP.ligand.torsion>
0.7679

> <Gold.PLP.Chemscore.Hbond>
1.9920

> <Gold.PLP.Chemscore.CHOScore>
0.0000

> <Gold.PLP.Chemscore.Metal>
0.0000

> <Gold.Chemscore.Hbonds>
donor molecule, donor type, donor heavy atom, donor atom, acceptor molecule, acceptor atom, score
      P1  H  7989  7998       L1    12  0.86
      P1  H  7997  8008       L1     4  0.76

> <Gold.PLP.Chemscore.Internal.Correction>
0.0853

> <Gold.Rescore>
     Score         DG    S(hbond)    S(metal)    S(lipo)     H(rot)  DE(clash)    DE(int)     intcor
     15.18     -15.90       2.22        0.00      71.48       2.09       0.03       0.70       ----

> <Gold.Chemscore.Fitness>
15.1759

> <Gold.Chemscore.DG>
-15.9008

> <Gold.Chemscore.ZeroCoef>
-5.4800

> <Gold.Chemscore.Hbond>
2.2202

> <Gold.Chemscore.Metal>
0.0000

> <Gold.Chemscore.Lipo>
71.4849

> <Gold.Chemscore.Internal_Hbond>
0.0000

> <Gold.Chemscore.DEClash>
0.0266

> <Gold.Chemscore.DEInternal>
0.6983

> <Gold.Chemscore.Rot>
2.0931

> <Gold.Chemscore.Internal.Correction>
   9.000000E+99

> <Gold.Chemscore.Hbonds>
donor molecule, donor type, donor heavy atom, donor atom, acceptor molecule, acceptor atom, score
      P1  H  7989  7998       L1    12  0.83
      P1  H  7997  8008       L1     4  0.75

> <Gold.Chemscore.Hbond.Weighted>
-7.4155

> <Gold.Chemscore.Metal.Weighted>
-0.0000

> <Gold.Chemscore.Lipo.Weighted>
-8.3637

> <Gold.Chemscore.Internal_Hbond.Weighted>
0.0000

> <Gold.Chemscore.DEClash.Weighted>
0.0266

> <Gold.Chemscore.DEInternal.Weighted>
0.6983

> <Gold.Chemscore.Rot.Weighted>
5.3584

> <Gold.Chemscore.Internal.Correction.Weighted>
   9.000000E+99

> <Gold.Protein.RotatedTorsions>
[ 6907 6896 6895 6894 ] final  -95.31 input  -60.11 | X-H torsion
[ 7974 7965 7964 7962 ] final  -24.01 input  175.53 | X-H torsion
[ 8008 7997 7996 7995 ] final  -82.06 input   59.86 | X-H torsion
[ 10167 10162 10161 10158 ] final  -24.03 input  -65.29 | X-H torsion
[ 10718 10713 10712 10709 ] final  -80.18 input   66.30 | X-H torsion
[ 10763 10752 10751 10750 ] final   48.86 input  -60.55 | X-H torsion
[ 11005 11000 10999 10996 ] final   78.71 input  -57.11 | X-H torsion

> <Gold.Protein.ActiveResidues>
 VAL166  LYS551  ARG553  GLY616  TRP617  ASP618  TYR619  PRO620  LYS621  CYS622 
 ASP623  PHE694  ASN695  SER759  ASP760  ASP761  ALA762  ILE779  LEU786  VAL792 
 PHE793  MET794  SER795  GLU796  ALA797  LYS798  CYS799  TRP800  GLU811  SER814 

> <Gold.Protein.RotatedAtoms>
  150.6961  134.1677  159.4199 H   0  0  0  0  0  0  0  0  0  0  0  0  # atno 6907 bound_to 6896
  151.9655  135.0100  160.0559 H   0  0  0  0  0  0  0  0  0  0  0  0  # atno 6908 bound_to 6896
  152.1888  133.4723  159.5034 H   0  0  0  0  0  0  0  0  0  0  0  0  # atno 6909 bound_to 6896
  146.1581  140.4694  142.8583 H   0  0  0  0  0  0  0  0  0  0  0  0  # atno 7974 bound_to 7965
  154.6047  140.0638  156.9415 H   0  0  0  0  0  0  0  0  0  0  0  0  # atno 8008 bound_to 7997
  155.2073  140.3320  155.4316 H   0  0  0  0  0  0  0  0  0  0  0  0  # atno 8009 bound_to 7997
  156.2340  140.1854  156.7151 H   0  0  0  0  0  0  0  0  0  0  0  0  # atno 8010 bound_to 7997
  140.7288  143.4390  151.0686 H   0  0  0  0  0  0  0  0  0  0  0  0  # atno 10167 bound_to 10162
  156.0076  130.4567  150.3761 H   0  0  0  0  0  0  0  0  0  0  0  0  # atno 10718 bound_to 10713
  152.9789  135.5930  154.3995 H   0  0  0  0  0  0  0  0  0  0  0  0  # atno 10763 bound_to 10752
  154.3642  135.2767  155.2305 H   0  0  0  0  0  0  0  0  0  0  0  0  # atno 10764 bound_to 10752
  154.4289  135.6041  153.6111 H   0  0  0  0  0  0  0  0  0  0  0  0  # atno 10765 bound_to 10752
  139.9201  134.7785  156.1685 H   0  0  0  0  0  0  0  0  0  0  0  0  # atno 11005 bound_to 11000
  144.7990  140.6177  143.6491 LP  0  0  0  0  0  0  0  0  0  0  0  0  # atno 17320 bound_to 7965
  145.4658  139.1508  143.3841 LP  0  0  0  0  0  0  0  0  0  0  0  0  # atno 17321 bound_to 7965
  139.8055  143.8024  152.3167 LP  0  0  0  0  0  0  0  0  0  0  0  0  # atno 17342 bound_to 10162
  139.8055  144.7357  150.9767 LP  0  0  0  0  0  0  0  0  0  0  0  0  # atno 17343 bound_to 10162
  157.1843  131.0400  151.2733 LP  0  0  0  0  0  0  0  0  0  0  0  0  # atno 17370 bound_to 10713
  157.4118  130.7389  149.6845 LP  0  0  0  0  0  0  0  0  0  0  0  0  # atno 17371 bound_to 10713
  141.0715  133.6795  156.2150 LP  0  0  0  0  0  0  0  0  0  0  0  0  # atno 17394 bound_to 11000
  140.6499  134.5078  157.5576 LP  0  0  0  0  0  0  0  0  0  0  0  0  # atno 17395 bound_to 11000

$$$$
