AV-unprocessed.smi:3101|AV-procd|sdf|11810|dock5
  -GOLD-   2272017183D 1   1.00000     0.00000
 Structure written by MMmdl.
 28 29  0  0  0  0  0  0  0  0  1 V2000
  152.5047  144.6893  158.0440 C   0  0  0  0  0  0  0  0  0  0  0  0
  152.3850  143.7366  159.2475 C   0  0  2  0  0  0  0  0  0  0  0  0
  153.6782  143.0514  159.6393 C   0  0  0  0  0  0  0  0  0  0  0  0
  153.1602  141.9466  160.5527 C   0  0  0  0  0  0  0  0  0  0  0  0
  151.9041  141.5540  160.0052 O   0  0  0  0  0  0  0  0  0  0  0  0
  151.3968  142.5560  159.1219 C   0  0  2  0  0  0  0  0  0  0  0  0
  151.2872  141.9270  157.7225 C   0  0  0  0  0  0  0  0  0  0  0  0
  150.7230  142.5395  156.8150 O   0  0  0  0  0  0  0  0  0  0  0  0
  151.8534  140.7142  157.5838 N   0  0  0  0  0  0  0  0  0  0  0  0
  151.8996  139.8952  156.4251 C   0  0  0  0  0  0  0  0  0  0  0  0
  150.8464  140.0816  155.4989 C   0  0  0  0  0  0  0  0  0  0  0  0
  150.7532  139.3782  154.3486 N   0  0  0  0  0  0  0  0  0  0  0  0
  151.7261  138.4719  154.1148 C   0  0  0  0  0  0  0  0  0  0  0  0
  152.7830  138.2728  155.0253 C   0  0  0  0  0  0  0  0  0  0  0  0
  152.8701  138.9797  156.1730 N   0  0  0  0  0  0  0  0  0  0  0  0
  152.9129  144.1908  157.1645 H   0  0  0  0  0  0  0  0  0  0  0  0
  153.1656  145.5241  158.2784 H   0  0  0  0  0  0  0  0  0  0  0  0
  151.5326  145.1035  157.7755 H   0  0  0  0  0  0  0  0  0  0  0  0
  152.0587  144.3357  160.0995 H   0  0  0  0  0  0  0  0  0  0  0  0
  154.1734  142.6232  158.7670 H   0  0  0  0  0  0  0  0  0  0  0  0
  154.3822  143.7175  160.1388 H   0  0  0  0  0  0  0  0  0  0  0  0
  153.8469  141.1026  160.6217 H   0  0  0  0  0  0  0  0  0  0  0  0
  152.9957  142.3333  161.5592 H   0  0  0  0  0  0  0  0  0  0  0  0
  150.4065  142.8630  159.4626 H   0  0  0  0  0  0  0  0  0  0  0  0
  152.2984  140.3325  158.4056 H   0  0  0  0  0  0  0  0  0  0  0  0
  150.0654  140.8057  155.6810 H   0  0  0  0  0  0  0  0  0  0  0  0
  151.6619  137.9042  153.1984 H   0  0  0  0  0  0  0  0  0  0  0  0
  153.5586  137.5465  154.8328 H   0  0  0  0  0  0  0  0  0  0  0  0
  1  2  1  0  0  0  0
  1 16  1  0  0  0  0
  1 17  1  0  0  0  0
  1 18  1  0  0  0  0
  2  6  1  0  0  0  0
  2  3  1  0  0  0  0
  2 19  1  0  0  0  0
  3  4  1  0  0  0  0
  3 20  1  0  0  0  0
  3 21  1  0  0  0  0
  4  5  1  0  0  0  0
  4 22  1  0  0  0  0
  4 23  1  0  0  0  0
  5  6  1  0  0  0  0
  6  7  1  0  0  0  0
  6 24  1  0  0  0  0
  7  8  2  0  0  0  0
  7  9  1  0  0  0  0
  9 10  1  0  0  0  0
  9 25  1  0  0  0  0
 10 15  1  0  0  0  0
 10 11  2  0  0  0  0
 11 12  1  0  0  0  0
 11 26  1  0  0  0  0
 12 13  2  0  0  0  0
 13 14  1  0  0  0  0
 13 27  1  0  0  0  0
 14 15  2  0  0  0  0
 14 28  1  0  0  0  0
M  END
> <s_m_source_file>
AV-unprocessed.smi

> <i_m_source_file_index>
3101

> <i_lp_mmshare_version>
43012

> <i_f3d_flags>
0

> <s_epik_input>
W0NIM11bQ0BASF0xW0NIMl1bQ0gyXU9bQ0BIXTFDKD1PKVtOSF1jMltjSF1uW2NIXVtjSF1uMg==

> <s_epik_cmdline>
J2VwaWtfcHl0aG9uJywgJy1waCcsICc3LjAnLCAnLXRuJywgJzgnLCAnLW1hJywgJzIwMCcsICctbWV0YWxfYmluZGluZycsICctaW1hZScsICc8aW5maWxlLm1hZT4nLCAnLW9tYWUnLCAnPG91dGZpbGUubWFlPic=

> <r_lp_tautomer_probability>
1

> <r_epik_Ionization_Penalty>
2.83174e-06

> <r_epik_Ionization_Penalty_Charging>
0

> <r_epik_Ionization_Penalty_Neutral>
2.83174e-06

> <r_epik_State_Penalty>
-0

> <r_epik_Charging_Adjusted_Penalty>
0

> <i_epik_Tot_Q>
0

> <i_epik_Tot_abs_Q>
0

> <r_epik_Metal_State_Penalty>
-0

> <b_epik_Metal_Only>
0

> <s_lp_Force_Field>
OPLS_2005

> <r_lp_Energy>
27.4183

> <b_lp_Chiralities_Consistent>
1

> <s_lp_Variant>
AV-unprocessed.smi:3101-3

> <Gold.Version>
5.8.1

> <Gold.Id.Protein>
6NUR|6NUR_protein|mol2

> <Gold.PLP.Fitness>
39.0147

> <Gold.PLP.PLP>
-33.3568

> <Gold.PLP.part.hbond>
-2.2764

> <Gold.PLP.part.metal>
0.0000

> <Gold.PLP.part.buried>
-5.0481

> <Gold.PLP.part.nonpolar>
-26.1070

> <Gold.PLP.part.repulsive>
0.7737

> <Gold.PLP.ligand.clash>
0.0000

> <Gold.PLP.ligand.torsion>
0.3691

> <Gold.PLP.Chemscore.Hbond>
1.3200

> <Gold.PLP.Chemscore.CHOScore>
0.8084

> <Gold.PLP.Chemscore.Metal>
0.0000

> <Gold.Chemscore.Hbonds>
donor molecule, donor type, donor heavy atom, donor atom, acceptor molecule, acceptor atom, score
      P1  H  7989  7998       L1    12  0.28
      P1  H  7997  8009       L1    15  0.95
      L1  C    13    27       P1  7949  0.81

> <Gold.PLP.Chemscore.Internal.Correction>
0.0109

> <Gold.Rescore>
     Score         DG    S(hbond)    S(metal)    S(lipo)     H(rot)  DE(clash)    DE(int)     intcor
     13.41     -15.38       0.87        0.00      81.70       1.00       0.04       1.93       ----

> <Gold.Chemscore.Fitness>
13.4116

> <Gold.Chemscore.DG>
-15.3800

> <Gold.Chemscore.ZeroCoef>
-5.4800

> <Gold.Chemscore.Hbond>
0.8687

> <Gold.Chemscore.Metal>
0.0000

> <Gold.Chemscore.Lipo>
81.6975

> <Gold.Chemscore.Internal_Hbond>
0.0000

> <Gold.Chemscore.DEClash>
0.0428

> <Gold.Chemscore.DEInternal>
1.9256

> <Gold.Chemscore.Rot>
1.0000

> <Gold.Chemscore.Internal.Correction>
   9.000000E+99

> <Gold.Chemscore.Hbonds>
donor molecule, donor type, donor heavy atom, donor atom, acceptor molecule, acceptor atom, score
      P1  H  7997  8009       L1    15  0.14

> <Gold.Chemscore.Hbond.Weighted>
-2.9014

> <Gold.Chemscore.Metal.Weighted>
-0.0000

> <Gold.Chemscore.Lipo.Weighted>
-9.5586

> <Gold.Chemscore.Internal_Hbond.Weighted>
0.0000

> <Gold.Chemscore.DEClash.Weighted>
0.0428

> <Gold.Chemscore.DEInternal.Weighted>
1.9256

> <Gold.Chemscore.Rot.Weighted>
2.5600

> <Gold.Chemscore.Internal.Correction.Weighted>
   9.000000E+99

> <Gold.Protein.RotatedTorsions>
[ 6907 6896 6895 6894 ] final -140.40 input  -60.11 | X-H torsion
[ 7974 7965 7964 7962 ] final -172.01 input  175.53 | X-H torsion
[ 8008 7997 7996 7995 ] final -145.51 input   59.86 | X-H torsion
[ 10167 10162 10161 10158 ] final   28.83 input  -65.29 | X-H torsion
[ 10718 10713 10712 10709 ] final   65.59 input   66.30 | X-H torsion
[ 10763 10752 10751 10750 ] final   24.05 input  -60.55 | X-H torsion
[ 11005 11000 10999 10996 ] final -169.54 input  -57.11 | X-H torsion

> <Gold.Protein.ActiveResidues>
 VAL166  LYS551  ARG553  GLY616  TRP617  ASP618  TYR619  PRO620  LYS621  CYS622 
 ASP623  PHE694  ASN695  SER759  ASP760  ASP761  ALA762  ILE779  LEU786  VAL792 
 PHE793  MET794  SER795  GLU796  ALA797  LYS798  CYS799  TRP800  GLU811  SER814 

> <Gold.Protein.RotatedAtoms>
  151.0603  133.5550  159.2634 H   0  0  0  0  0  0  0  0  0  0  0  0  # atno 6907 bound_to 6896
  151.2528  135.0627  159.9078 H   0  0  0  0  0  0  0  0  0  0  0  0  # atno 6908 bound_to 6896
  152.5396  134.0361  159.8100 H   0  0  0  0  0  0  0  0  0  0  0  0  # atno 6909 bound_to 6896
  144.7151  140.1836  143.6356 H   0  0  0  0  0  0  0  0  0  0  0  0  # atno 7974 bound_to 7965
  155.5443  140.0611  157.2863 H   0  0  0  0  0  0  0  0  0  0  0  0  # atno 8008 bound_to 7997
  154.4441  140.1913  156.0667 H   0  0  0  0  0  0  0  0  0  0  0  0  # atno 8009 bound_to 7997
  156.0562  140.3278  155.7412 H   0  0  0  0  0  0  0  0  0  0  0  0  # atno 8010 bound_to 7997
  140.4818  144.0604  150.6268 H   0  0  0  0  0  0  0  0  0  0  0  0  # atno 10167 bound_to 10162
  157.6115  130.9222  149.9997 H   0  0  0  0  0  0  0  0  0  0  0  0  # atno 10718 bound_to 10713
  153.0792  135.6614  154.0080 H   0  0  0  0  0  0  0  0  0  0  0  0  # atno 10763 bound_to 10752
  153.9706  135.2965  155.3429 H   0  0  0  0  0  0  0  0  0  0  0  0  # atno 10764 bound_to 10752
  154.7188  135.5173  153.8851 H   0  0  0  0  0  0  0  0  0  0  0  0  # atno 10765 bound_to 10752
  140.5296  134.5629  157.5071 H   0  0  0  0  0  0  0  0  0  0  0  0  # atno 11005 bound_to 11000
  145.8833  139.2335  143.1592 LP  0  0  0  0  0  0  0  0  0  0  0  0  # atno 17320 bound_to 7965
  145.9974  140.8550  143.0036 LP  0  0  0  0  0  0  0  0  0  0  0  0  # atno 17321 bound_to 7965
  140.3848  143.2783  152.0129 LP  0  0  0  0  0  0  0  0  0  0  0  0  # atno 17342 bound_to 10162
  139.4835  144.6125  151.7406 LP  0  0  0  0  0  0  0  0  0  0  0  0  # atno 17343 bound_to 10162
  156.1220  130.3645  149.9871 LP  0  0  0  0  0  0  0  0  0  0  0  0  # atno 17370 bound_to 10713
  156.7949  130.9269  151.3646 LP  0  0  0  0  0  0  0  0  0  0  0  0  # atno 17371 bound_to 10713
  139.9561  134.7532  156.0338 LP  0  0  0  0  0  0  0  0  0  0  0  0  # atno 17394 bound_to 11000
  141.1289  133.6592  156.3410 LP  0  0  0  0  0  0  0  0  0  0  0  0  # atno 17395 bound_to 11000

$$$$
