AV-unprocessed.smi:2353|AV-procd|sdf|9381|dock4
  -GOLD-   2272013 13D 1   1.00000     0.00000
 Structure written by MMmdl.
 45 47  0  0  0  0  0  0  0  0  1 V2000
  151.3423  145.2670  160.4109 C   0  0  0  0  0  0  0  0  0  0  0  0
  151.8015  143.8859  159.9904 C   0  0  0  0  0  0  0  0  0  0  0  0
  152.6485  143.1332  160.8263 C   0  0  0  0  0  0  0  0  0  0  0  0
  153.0720  141.8531  160.4270 C   0  0  0  0  0  0  0  0  0  0  0  0
  152.6525  141.3178  159.1915 C   0  0  0  0  0  0  0  0  0  0  0  0
  153.1179  139.9342  158.7788 C   0  0  0  0  0  0  0  0  0  0  0  0
  151.8015  142.0626  158.3421 C   0  0  0  0  0  0  0  0  0  0  0  0
  151.4272  141.4794  157.1488 O   0  0  0  0  0  0  0  0  0  0  0  0
  150.6732  142.2491  156.2216 C   0  0  0  0  0  0  0  0  0  0  0  0
  149.9063  141.2911  155.2936 C   0  0  1  0  0  0  0  0  0  0  0  0
  149.1788  142.0952  154.3856 O   0  0  0  0  0  0  0  0  0  0  0  0
  150.8600  140.3877  154.4804 C   0  0  0  0  0  0  0  0  0  0  0  0
  151.5067  139.3745  155.3237 N   0  0  0  0  0  0  0  0  0  0  0  0
  150.6206  138.5791  156.0311 N   0  0  0  0  0  0  0  0  0  0  0  0
  151.0522  137.6351  156.8041 C   0  0  0  0  0  0  0  0  0  0  0  0
  150.1830  136.7666  157.5723 N   0  0  0  0  0  0  0  0  0  0  0  0
  150.6037  136.2957  158.8145 C   0  0  0  0  0  0  0  0  0  0  0  0
  149.5772  135.5081  159.2871 C   0  0  0  0  0  0  0  0  0  0  0  0
  148.5321  135.4837  158.3639 N   0  0  0  0  0  0  0  0  0  0  0  0
  148.9609  136.2527  157.3708 C   0  0  0  0  0  0  0  0  0  0  0  0
  152.4798  137.4001  156.9375 C   0  0  0  0  0  0  0  0  0  0  0  0
  153.3358  138.1803  156.2431 C   0  0  0  0  0  0  0  0  0  0  0  0
  152.8664  139.2495  155.3632 C   0  0  0  0  0  0  0  0  0  0  0  0
  153.6259  139.9671  154.7136 O   0  0  0  0  0  0  0  0  0  0  0  0
  151.3821  143.3534  158.7545 C   0  0  0  0  0  0  0  0  0  0  0  0
  151.5491  145.4497  161.4658 H   0  0  0  0  0  0  0  0  0  0  0  0
  150.2690  145.3763  160.2532 H   0  0  0  0  0  0  0  0  0  0  0  0
  151.8558  146.0286  159.8237 H   0  0  0  0  0  0  0  0  0  0  0  0
  152.9771  143.5330  161.7744 H   0  0  0  0  0  0  0  0  0  0  0  0
  153.7208  141.2824  161.0752 H   0  0  0  0  0  0  0  0  0  0  0  0
  152.2686  139.2531  158.7220 H   0  0  0  0  0  0  0  0  0  0  0  0
  153.8350  139.5245  159.4909 H   0  0  0  0  0  0  0  0  0  0  0  0
  153.5969  139.9701  157.8000 H   0  0  0  0  0  0  0  0  0  0  0  0
  149.9875  142.9339  156.7245 H   0  0  0  0  0  0  0  0  0  0  0  0
  151.3714  142.8474  155.6340 H   0  0  0  0  0  0  0  0  0  0  0  0
  149.2229  140.6797  155.8851 H   0  0  0  0  0  0  0  0  0  0  0  0
  149.1534  142.9791  154.7201 H   0  0  0  0  0  0  0  0  0  0  0  0
  150.3483  139.9435  153.6241 H   0  0  0  0  0  0  0  0  0  0  0  0
  151.6504  140.9992  154.0412 H   0  0  0  0  0  0  0  0  0  0  0  0
  151.5584  136.5387  159.2589 H   0  0  0  0  0  0  0  0  0  0  0  0
  149.5104  134.9596  160.2151 H   0  0  0  0  0  0  0  0  0  0  0  0
  148.3679  136.4375  156.4873 H   0  0  0  0  0  0  0  0  0  0  0  0
  152.8587  136.6186  157.5780 H   0  0  0  0  0  0  0  0  0  0  0  0
  154.3983  138.0103  156.3379 H   0  0  0  0  0  0  0  0  0  0  0  0
  150.7352  143.9572  158.1366 H   0  0  0  0  0  0  0  0  0  0  0  0
  1  2  1  0  0  0  0
  1 26  1  0  0  0  0
  1 27  1  0  0  0  0
  1 28  1  0  0  0  0
  2 25  1  0  0  0  0
  2  3  2  0  0  0  0
  3  4  1  0  0  0  0
  3 29  1  0  0  0  0
  4  5  2  0  0  0  0
  4 30  1  0  0  0  0
  5  6  1  0  0  0  0
  5  7  1  0  0  0  0
  6 31  1  0  0  0  0
  6 32  1  0  0  0  0
  6 33  1  0  0  0  0
  7  8  1  0  0  0  0
  7 25  2  0  0  0  0
  8  9  1  0  0  0  0
  9 10  1  0  0  0  0
  9 34  1  0  0  0  0
  9 35  1  0  0  0  0
 10 11  1  0  0  0  0
 10 12  1  0  0  0  0
 10 36  1  0  0  0  0
 11 37  1  0  0  0  0
 12 13  1  0  0  0  0
 12 38  1  0  0  0  0
 12 39  1  0  0  0  0
 13 23  1  0  0  0  0
 13 14  1  0  0  0  0
 14 15  2  0  0  0  0
 15 16  1  0  0  0  0
 15 21  1  0  0  0  0
 16 20  1  0  0  0  0
 16 17  1  0  0  0  0
 17 18  2  0  0  0  0
 17 40  1  0  0  0  0
 18 19  1  0  0  0  0
 18 41  1  0  0  0  0
 19 20  2  0  0  0  0
 20 42  1  0  0  0  0
 21 22  2  0  0  0  0
 21 43  1  0  0  0  0
 22 23  1  0  0  0  0
 22 44  1  0  0  0  0
 23 24  2  0  0  0  0
 25 45  1  0  0  0  0
M  END
> <s_m_source_file>
AV-unprocessed.smi

> <i_m_source_file_index>
2353

> <i_lp_mmshare_version>
43012

> <i_f3d_flags>
0

> <s_epik_input>
W0NIM11jMVtjSF1bY0hdYyhbQ0gzXSljKFtjSF0xKU9bQ0gyXVtDQEhdKFtPSF0pW0NIMl1uMm5jKFtjSF1bY0hdYzI9TyktbjNbY0hdW2NIXW5bY0hdMw==

> <s_epik_cmdline>
J2VwaWtfcHl0aG9uJywgJy1waCcsICc3LjAnLCAnLXRuJywgJzgnLCAnLW1hJywgJzIwMCcsICctbWV0YWxfYmluZGluZycsICctaW1hZScsICc8aW5maWxlLm1hZT4nLCAnLW9tYWUnLCAnPG91dGZpbGUubWFlPic=

> <r_lp_tautomer_probability>
1

> <r_epik_Ionization_Penalty>
0.03707

> <r_epik_Ionization_Penalty_Charging>
0.0370699

> <r_epik_Ionization_Penalty_Neutral>
1.17174e-07

> <r_epik_State_Penalty>
0.0310055

> <r_epik_Charging_Adjusted_Penalty>
0.0680754

> <i_epik_Tot_Q>
0

> <i_epik_Tot_abs_Q>
0

> <r_epik_Metal_State_Penalty>
0.0291724

> <b_epik_Metal_Only>
0

> <s_lp_Force_Field>
OPLS_2005

> <r_lp_Energy>
35.5456

> <b_lp_Chiralities_Consistent>
1

> <s_lp_Variant>
AV-unprocessed.smi:2353-2

> <Gold.Version>
5.8.1

> <Gold.Id.Protein>
6NUR|6NUR_protein|mol2

> <Gold.PLP.Fitness>
52.2768

> <Gold.PLP.PLP>
-47.1652

> <Gold.PLP.part.hbond>
-3.2223

> <Gold.PLP.part.metal>
0.0000

> <Gold.PLP.part.buried>
-3.0397

> <Gold.PLP.part.nonpolar>
-40.2106

> <Gold.PLP.part.repulsive>
0.0327

> <Gold.PLP.ligand.clash>
0.0000

> <Gold.PLP.ligand.torsion>
0.6743

> <Gold.PLP.Chemscore.Hbond>
2.1085

> <Gold.PLP.Chemscore.CHOScore>
0.0000

> <Gold.PLP.Chemscore.Metal>
0.0000

> <Gold.Chemscore.Hbonds>
donor molecule, donor type, donor heavy atom, donor atom, acceptor molecule, acceptor atom, score
      L1  H    11    37       P1  8028  1.00
      P1  H  7997  8009       L1    24  0.34
      P1  H  8011  8017       L1    11  0.22

> <Gold.PLP.Chemscore.Internal.Correction>
0.1347

> <Gold.Rescore>
     Score         DG    S(hbond)    S(metal)    S(lipo)     H(rot)  DE(clash)    DE(int)     intcor
     16.86     -19.18       1.96        0.00     117.89       2.60       0.07       2.25       ----

> <Gold.Chemscore.Fitness>
16.8576

> <Gold.Chemscore.DG>
-19.1773

> <Gold.Chemscore.ZeroCoef>
-5.4800

> <Gold.Chemscore.Hbond>
1.9631

> <Gold.Chemscore.Metal>
0.0000

> <Gold.Chemscore.Lipo>
117.8869

> <Gold.Chemscore.Internal_Hbond>
0.0000

> <Gold.Chemscore.DEClash>
0.0730

> <Gold.Chemscore.DEInternal>
2.2467

> <Gold.Chemscore.Rot>
2.5986

> <Gold.Chemscore.Internal.Correction>
   9.000000E+99

> <Gold.Chemscore.Hbonds>
donor molecule, donor type, donor heavy atom, donor atom, acceptor molecule, acceptor atom, score
      L1  H    11    37       P1  8028  0.98
      P1  H  7997  8009       L1    24  0.01
      P1  H  8011  8017       L1    11  0.07

> <Gold.Chemscore.Hbond.Weighted>
-6.5569

> <Gold.Chemscore.Metal.Weighted>
-0.0000

> <Gold.Chemscore.Lipo.Weighted>
-13.7928

> <Gold.Chemscore.Internal_Hbond.Weighted>
0.0000

> <Gold.Chemscore.DEClash.Weighted>
0.0730

> <Gold.Chemscore.DEInternal.Weighted>
2.2467

> <Gold.Chemscore.Rot.Weighted>
6.6524

> <Gold.Chemscore.Internal.Correction.Weighted>
   9.000000E+99

> <Gold.Protein.RotatedTorsions>
[ 6907 6896 6895 6894 ] final  -56.89 input  -60.11 | X-H torsion
[ 7974 7965 7964 7962 ] final  -82.55 input  175.53 | X-H torsion
[ 8008 7997 7996 7995 ] final -143.40 input   59.86 | X-H torsion
[ 10167 10162 10161 10158 ] final  -53.51 input  -65.29 | X-H torsion
[ 10718 10713 10712 10709 ] final -158.00 input   66.30 | X-H torsion
[ 10763 10752 10751 10750 ] final  -23.32 input  -60.55 | X-H torsion
[ 11005 11000 10999 10996 ] final  -37.19 input  -57.11 | X-H torsion

> <Gold.Protein.ActiveResidues>
 VAL166  LYS551  ARG553  GLY616  TRP617  ASP618  TYR619  PRO620  LYS621  CYS622 
 ASP623  PHE694  ASN695  SER759  ASP760  ASP761  ALA762  ILE779  LEU786  VAL792 
 PHE793  MET794  SER795  GLU796  ALA797  LYS798  CYS799  TRP800  GLU811  SER814 

> <Gold.Protein.RotatedAtoms>
  150.8130  134.7296  159.6704 H   0  0  0  0  0  0  0  0  0  0  0  0  # atno 6907 bound_to 6896
  152.4250  134.5882  159.9976 H   0  0  0  0  0  0  0  0  0  0  0  0  # atno 6908 bound_to 6896
  151.6087  133.3312  159.3099 H   0  0  0  0  0  0  0  0  0  0  0  0  # atno 6909 bound_to 6896
  145.5318  140.9520  143.1599 H   0  0  0  0  0  0  0  0  0  0  0  0  # atno 7974 bound_to 7965
  155.5100  140.0582  157.2925 H   0  0  0  0  0  0  0  0  0  0  0  0  # atno 8008 bound_to 7997
  154.4555  140.1971  156.0340 H   0  0  0  0  0  0  0  0  0  0  0  0  # atno 8009 bound_to 7997
  156.0791  140.3249  155.7675 H   0  0  0  0  0  0  0  0  0  0  0  0  # atno 8010 bound_to 7997
  140.6481  143.2548  151.4802 H   0  0  0  0  0  0  0  0  0  0  0  0  # atno 10167 bound_to 10162
  156.5481  130.8593  151.2771 H   0  0  0  0  0  0  0  0  0  0  0  0  # atno 10718 bound_to 10713
  153.6659  135.6974  153.5162 H   0  0  0  0  0  0  0  0  0  0  0  0  # atno 10763 bound_to 10752
  153.2595  135.4249  155.0879 H   0  0  0  0  0  0  0  0  0  0  0  0  # atno 10764 bound_to 10752
  154.8439  135.3551  154.6204 H   0  0  0  0  0  0  0  0  0  0  0  0  # atno 10765 bound_to 10752
  140.9933  133.6993  156.1888 H   0  0  0  0  0  0  0  0  0  0  0  0  # atno 11005 bound_to 11000
  144.7622  139.6930  143.7230 LP  0  0  0  0  0  0  0  0  0  0  0  0  # atno 17320 bound_to 7965
  146.2039  139.5350  142.9725 LP  0  0  0  0  0  0  0  0  0  0  0  0  # atno 17321 bound_to 7965
  139.5693  144.1966  152.1813 LP  0  0  0  0  0  0  0  0  0  0  0  0  # atno 17342 bound_to 10162
  140.1258  144.5333  150.6834 LP  0  0  0  0  0  0  0  0  0  0  0  0  # atno 17343 bound_to 10162
  157.7393  130.9828  150.2304 LP  0  0  0  0  0  0  0  0  0  0  0  0  # atno 17370 bound_to 10713
  156.2910  130.3745  149.7841 LP  0  0  0  0  0  0  0  0  0  0  0  0  # atno 17371 bound_to 10713
  140.7006  134.4568  157.5586 LP  0  0  0  0  0  0  0  0  0  0  0  0  # atno 17394 bound_to 11000
  139.9002  134.8573  156.1927 LP  0  0  0  0  0  0  0  0  0  0  0  0  # atno 17395 bound_to 11000

$$$$
