AV-unprocessed.smi:1695|AV-procd|sdf|6795|dock9
  -GOLD-   22720 7563D 1   1.00000     0.00000
 Structure written by MMmdl.
 52 54  0  0  0  0  0  0  0  0  3 V2000
  153.1586  142.9180  161.5269 C   0  0  0  0  0  0  0  0  0  0  0  0
  152.5533  142.5023  160.1969 C   0  0  0  0  0  0  0  0  0  0  0  0
  152.7216  141.1667  159.7677 C   0  0  0  0  0  0  0  0  0  0  0  0
  152.1601  140.8174  158.5455 C   0  0  0  0  0  0  0  0  0  0  0  0
  152.1551  139.6022  157.8579 N   0  3  0  0  0  0  0  0  0  0  0  0
  151.4758  139.7451  156.6869 C   0  0  0  0  0  0  0  0  0  0  0  0
  151.0400  141.0329  156.6184 N   0  0  0  0  0  0  0  0  0  0  0  0
  150.2736  141.7020  155.5577 C   0  0  0  0  0  0  0  0  0  0  0  0
  149.3114  140.7505  154.8200 C   0  0  2  0  0  0  0  0  0  0  0  0
  150.0844  139.9595  153.9405 O   0  0  0  0  0  0  0  0  0  0  0  0
  148.2159  141.4736  154.0062 C   0  0  0  0  0  0  0  0  0  0  0  0
  147.3498  142.3266  154.8604 N   0  3  1  0  0  0  0  0  0  0  0  0
  146.1135  142.7864  154.1739 C   0  0  0  0  0  0  0  0  0  0  0  0
  145.3392  143.7875  155.0466 C   0  0  0  0  0  0  0  0  0  0  0  0
  144.9913  143.1791  156.4190 C   0  0  2  0  0  0  0  0  0  0  0  0
  144.2764  144.2049  157.3090 C   0  0  0  0  0  0  0  0  0  0  0  0
  144.9905  145.2511  157.7308 N   0  0  0  0  0  0  0  0  0  0  0  0
  143.0945  144.0562  157.6126 O   0  0  0  0  0  0  0  0  0  0  0  0
  146.2835  142.6696  157.0866 C   0  0  0  0  0  0  0  0  0  0  0  0
  147.0398  141.6950  156.1683 C   0  0  0  0  0  0  0  0  0  0  0  0
  151.4484  141.7421  157.7557 C   0  0  0  0  0  0  0  0  0  0  0  0
  151.2712  143.0621  158.1666 C   0  0  0  0  0  0  0  0  0  0  0  0
  151.8376  143.4378  159.4059 C   0  0  0  0  0  0  0  0  0  0  0  0
  151.6651  144.8723  159.8758 C   0  0  0  0  0  0  0  0  0  0  0  0
  153.6582  142.0819  162.0170 H   0  0  0  0  0  0  0  0  0  0  0  0
  152.3860  143.2860  162.2024 H   0  0  0  0  0  0  0  0  0  0  0  0
  153.8965  143.7072  161.3811 H   0  0  0  0  0  0  0  0  0  0  0  0
  153.2666  140.4492  160.3639 H   0  0  0  0  0  0  0  0  0  0  0  0
  151.3158  138.9758  155.9447 H   0  0  0  0  0  0  0  0  0  0  0  0
  149.7435  142.5587  155.9732 H   0  0  0  0  0  0  0  0  0  0  0  0
  151.0010  142.1098  154.8540 H   0  0  0  0  0  0  0  0  0  0  0  0
  148.8599  140.0847  155.5549 H   0  0  0  0  0  0  0  0  0  0  0  0
  149.6496  139.9207  153.1019 H   0  0  0  0  0  0  0  0  0  0  0  0
  148.6515  142.0917  153.2202 H   0  0  0  0  0  0  0  0  0  0  0  0
  147.6118  140.7199  153.4987 H   0  0  0  0  0  0  0  0  0  0  0  0
  146.3582  143.2623  153.2251 H   0  0  0  0  0  0  0  0  0  0  0  0
  145.4830  141.9269  153.9408 H   0  0  0  0  0  0  0  0  0  0  0  0
  145.9388  144.6905  155.1729 H   0  0  0  0  0  0  0  0  0  0  0  0
  144.4281  144.0923  154.5298 H   0  0  0  0  0  0  0  0  0  0  0  0
  144.3255  142.3283  156.2619 H   0  0  0  0  0  0  0  0  0  0  0  0
  144.5646  145.9538  158.3173 H   0  0  0  0  0  0  0  0  0  0  0  0
  145.9595  145.3362  157.4585 H   0  0  0  0  0  0  0  0  0  0  0  0
  146.9380  143.5074  157.3342 H   0  0  0  0  0  0  0  0  0  0  0  0
  146.0481  142.1739  158.0294 H   0  0  0  0  0  0  0  0  0  0  0  0
  146.4512  140.7902  156.0085 H   0  0  0  0  0  0  0  0  0  0  0  0
  147.9645  141.3903  156.6600 H   0  0  0  0  0  0  0  0  0  0  0  0
  150.7278  143.7791  157.5698 H   0  0  0  0  0  0  0  0  0  0  0  0
  151.1206  145.4698  159.1439 H   0  0  0  0  0  0  0  0  0  0  0  0
  152.6353  145.3441  160.0328 H   0  0  0  0  0  0  0  0  0  0  0  0
  151.1086  144.9041  160.8127 H   0  0  0  0  0  0  0  0  0  0  0  0
  147.8934  143.1519  155.0718 H   0  0  0  0  0  0  0  0  0  0  0  0
  152.5888  138.7391  158.1605 H   0  0  0  0  0  0  0  0  0  0  0  0
  1  2  1  0  0  0  0
  1 25  1  0  0  0  0
  1 26  1  0  0  0  0
  1 27  1  0  0  0  0
  2 23  1  0  0  0  0
  2  3  2  0  0  0  0
  3  4  1  0  0  0  0
  3 28  1  0  0  0  0
  4 21  2  0  0  0  0
  4  5  1  0  0  0  0
  5  6  2  0  0  0  0
  5 52  1  0  0  0  0
  6  7  1  0  0  0  0
  6 29  1  0  0  0  0
  7  8  1  0  0  0  0
  7 21  1  0  0  0  0
  8  9  1  0  0  0  0
  8 30  1  0  0  0  0
  8 31  1  0  0  0  0
  9 10  1  0  0  0  0
  9 11  1  0  0  0  0
  9 32  1  0  0  0  0
 10 33  1  0  0  0  0
 11 12  1  0  0  0  0
 11 34  1  0  0  0  0
 11 35  1  0  0  0  0
 12 20  1  0  0  0  0
 12 13  1  0  0  0  0
 12 51  1  0  0  0  0
 13 14  1  0  0  0  0
 13 36  1  0  0  0  0
 13 37  1  0  0  0  0
 14 15  1  0  0  0  0
 14 38  1  0  0  0  0
 14 39  1  0  0  0  0
 15 16  1  0  0  0  0
 15 19  1  0  0  0  0
 15 40  1  0  0  0  0
 16 17  1  0  0  0  0
 16 18  2  0  0  0  0
 17 41  1  0  0  0  0
 17 42  1  0  0  0  0
 19 20  1  0  0  0  0
 19 43  1  0  0  0  0
 19 44  1  0  0  0  0
 20 45  1  0  0  0  0
 20 46  1  0  0  0  0
 21 22  1  0  0  0  0
 22 23  2  0  0  0  0
 22 47  1  0  0  0  0
 23 24  1  0  0  0  0
 24 48  1  0  0  0  0
 24 49  1  0  0  0  0
 24 50  1  0  0  0  0
M  CHG  1   5   1
M  CHG  1  12   1
M  END
> <s_m_source_file>
AV-unprocessed.smi

> <i_m_source_file_index>
1695

> <i_lp_mmshare_version>
43012

> <i_f3d_flags>
0

> <s_epik_input>
W0NIM11jKFtjSF0xKWMoW0NIM10pW2NIXWMoYzEyKW4oW2NIXW4yKVtDSDJdW0NASF0oW09IXSlbQ0gyXU4zW0NIMl1bQ0gyXVtDSF0oQyg9TylbTkgyXSlbQ0gyXVtDSDJdMw==

> <s_epik_cmdline>
J2VwaWtfcHl0aG9uJywgJy1waCcsICc3LjAnLCAnLXRuJywgJzgnLCAnLW1hJywgJzIwMCcsICctbWV0YWxfYmluZGluZycsICctaW1hZScsICc8aW5maWxlLm1hZT4nLCAnLW9tYWUnLCAnPG91dGZpbGUubWFlPic=

> <r_epik_Ionization_Penalty>
1.20173

> <r_epik_Ionization_Penalty_Charging>
1.20172

> <r_epik_Ionization_Penalty_Neutral>
1.7852e-06

> <r_epik_State_Penalty>
1.28089

> <r_epik_Charging_Adjusted_Penalty>
2.48261

> <i_epik_Tot_Q>
2

> <i_epik_Tot_abs_Q>
2

> <r_epik_Metal_State_Penalty>
1.35652

> <b_epik_Metal_Only>
0

> <s_lp_Force_Field>
OPLS_2005

> <r_lp_Energy>
30.6346

> <b_lp_Chiralities_Consistent>
1

> <s_lp_Variant>
AV-unprocessed.smi:1695-7

> <Gold.Version>
5.8.1

> <Gold.Id.Protein>
6NUR|6NUR_protein|mol2

> <Gold.PLP.Fitness>
63.5906

> <Gold.PLP.PLP>
-50.4642

> <Gold.PLP.part.hbond>
-4.0000

> <Gold.PLP.part.metal>
0.0000

> <Gold.PLP.part.buried>
-7.5742

> <Gold.PLP.part.nonpolar>
-38.4576

> <Gold.PLP.part.repulsive>
0.1933

> <Gold.PLP.ligand.clash>
0.0000

> <Gold.PLP.ligand.torsion>
0.7483

> <Gold.PLP.Chemscore.Hbond>
4.8620

> <Gold.PLP.Chemscore.CHOScore>
0.0000

> <Gold.PLP.Chemscore.Metal>
0.0000

> <Gold.Chemscore.Hbonds>
donor molecule, donor type, donor heavy atom, donor atom, acceptor molecule, acceptor atom, score
      L1  H    10    33       P1  7957  1.00
      L1  H    12    51       P1  8028  2.00
      L1  H    17    42       P1  8029  1.00
      P1  H  7989  7998       L1    10  0.91

> <Gold.PLP.Chemscore.Internal.Correction>
0.0370

> <Gold.Rescore>
     Score         DG    S(hbond)    S(metal)    S(lipo)     H(rot)  DE(clash)    DE(int)     intcor
     19.34     -20.47       2.59        0.00     117.80       2.91       0.22       0.91       ----

> <Gold.Chemscore.Fitness>
19.3350

> <Gold.Chemscore.DG>
-20.4677

> <Gold.Chemscore.ZeroCoef>
-5.4800

> <Gold.Chemscore.Hbond>
2.5933

> <Gold.Chemscore.Metal>
0.0000

> <Gold.Chemscore.Lipo>
117.8004

> <Gold.Chemscore.Internal_Hbond>
0.0000

> <Gold.Chemscore.DEClash>
0.2228

> <Gold.Chemscore.DEInternal>
0.9098

> <Gold.Chemscore.Rot>
2.9127

> <Gold.Chemscore.Internal.Correction>
   9.000000E+99

> <Gold.Chemscore.Hbonds>
donor molecule, donor type, donor heavy atom, donor atom, acceptor molecule, acceptor atom, score
      L1  H    10    33       P1  7957  0.96
      L1  H    12    51       P1  8028  0.78
      L1  H    17    42       P1  8029  0.25
      P1  H  7989  7998       L1    10  0.17

> <Gold.Chemscore.Hbond.Weighted>
-8.6616

> <Gold.Chemscore.Metal.Weighted>
-0.0000

> <Gold.Chemscore.Lipo.Weighted>
-13.7826

> <Gold.Chemscore.Internal_Hbond.Weighted>
0.0000

> <Gold.Chemscore.DEClash.Weighted>
0.2228

> <Gold.Chemscore.DEInternal.Weighted>
0.9098

> <Gold.Chemscore.Rot.Weighted>
7.4565

> <Gold.Chemscore.Internal.Correction.Weighted>
   9.000000E+99

> <Gold.Protein.RotatedTorsions>
[ 6907 6896 6895 6894 ] final   51.91 input  -60.11 | X-H torsion
[ 7974 7965 7964 7962 ] final  -57.09 input  175.53 | X-H torsion
[ 8008 7997 7996 7995 ] final  -89.07 input   59.86 | X-H torsion
[ 10167 10162 10161 10158 ] final  -82.69 input  -65.29 | X-H torsion
[ 10718 10713 10712 10709 ] final  123.39 input   66.30 | X-H torsion
[ 10763 10752 10751 10750 ] final  -95.51 input  -60.55 | X-H torsion
[ 11005 11000 10999 10996 ] final -109.25 input  -57.11 | X-H torsion

> <Gold.Protein.ActiveResidues>
 VAL166  LYS551  ARG553  GLY616  TRP617  ASP618  TYR619  PRO620  LYS621  CYS622 
 ASP623  PHE694  ASN695  SER759  ASP760  ASP761  ALA762  ILE779  LEU786  VAL792 
 PHE793  MET794  SER795  GLU796  ALA797  LYS798  CYS799  TRP800  GLU811  SER814 

> <Gold.Protein.RotatedAtoms>
  152.3176  134.7420  160.0321 H   0  0  0  0  0  0  0  0  0  0  0  0  # atno 6907 bound_to 6896
  151.7879  133.3351  159.3498 H   0  0  0  0  0  0  0  0  0  0  0  0  # atno 6908 bound_to 6896
  150.7353  134.5801  159.5978 H   0  0  0  0  0  0  0  0  0  0  0  0  # atno 6909 bound_to 6896
  145.8551  140.8325  142.9965 H   0  0  0  0  0  0  0  0  0  0  0  0  # atno 7974 bound_to 7965
  154.6822  140.0546  157.0278 H   0  0  0  0  0  0  0  0  0  0  0  0  # atno 8008 bound_to 7997
  155.0935  140.3221  155.4548 H   0  0  0  0  0  0  0  0  0  0  0  0  # atno 8009 bound_to 7997
  156.2698  140.2044  156.6062 H   0  0  0  0  0  0  0  0  0  0  0  0  # atno 8010 bound_to 7997
  140.4296  143.2553  151.8777 H   0  0  0  0  0  0  0  0  0  0  0  0  # atno 10167 bound_to 10162
  157.5668  131.1086  150.8440 H   0  0  0  0  0  0  0  0  0  0  0  0  # atno 10718 bound_to 10713
  154.7155  135.5118  153.8731 H   0  0  0  0  0  0  0  0  0  0  0  0  # atno 10763 bound_to 10752
  153.0817  135.6633  154.0041 H   0  0  0  0  0  0  0  0  0  0  0  0  # atno 10764 bound_to 10752
  153.9874  135.3023  155.3394 H   0  0  0  0  0  0  0  0  0  0  0  0  # atno 10765 bound_to 10752
  141.0858  133.9141  157.2189 H   0  0  0  0  0  0  0  0  0  0  0  0  # atno 11005 bound_to 11000
  144.6728  140.1012  143.7460 LP  0  0  0  0  0  0  0  0  0  0  0  0  # atno 17320 bound_to 7965
  145.9313  139.2608  143.1324 LP  0  0  0  0  0  0  0  0  0  0  0  0  # atno 17321 bound_to 7965
  139.4784  144.5349  151.8613 LP  0  0  0  0  0  0  0  0  0  0  0  0  # atno 17342 bound_to 10162
  140.4442  144.1945  150.5893 LP  0  0  0  0  0  0  0  0  0  0  0  0  # atno 17343 bound_to 10162
  156.8922  130.5217  149.5286 LP  0  0  0  0  0  0  0  0  0  0  0  0  # atno 17370 bound_to 10713
  156.0716  130.5747  150.9393 LP  0  0  0  0  0  0  0  0  0  0  0  0  # atno 17371 bound_to 10713
  139.9676  135.0137  156.9428 LP  0  0  0  0  0  0  0  0  0  0  0  0  # atno 17394 bound_to 11000
  140.5366  134.0761  155.7330 LP  0  0  0  0  0  0  0  0  0  0  0  0  # atno 17395 bound_to 11000

$$$$
