AV-unprocessed.smi:1764|AV-procd|sdf|7133|dock1
  -GOLD-   22720 8373D 1   1.00000     0.00000
 Structure written by MMmdl.
 31 32  0  0  0  0  0  0  0  0  1 V2000
  150.7724  140.5991  156.8089 O   0  0  0  0  0  0  0  0  0  0  0  0
  150.4262  141.7338  156.4790 C   0  0  0  0  0  0  0  0  0  0  0  0
  149.7002  141.9968  155.3828 N   0  0  0  0  0  0  0  0  0  0  0  0
  149.2219  141.0033  154.4265 C   0  0  0  0  0  0  0  0  0  0  0  0
  147.7281  141.1893  154.1107 C   0  0  1  0  0  0  0  0  0  0  0  0
  146.7826  140.9875  155.2956 C   0  0  0  0  0  0  0  0  0  0  0  0
  145.5786  141.7903  154.8606 C   0  0  0  0  0  0  0  0  0  0  0  0
  146.2328  142.9880  154.1777 C   0  0  0  0  0  0  0  0  0  0  0  0
  147.4808  142.5215  153.6697 O   0  0  0  0  0  0  0  0  0  0  0  0
  150.7219  142.8624  157.1478 N   0  0  0  0  0  0  0  0  0  0  0  0
  151.4539  143.0006  158.3573 C   0  0  0  0  0  0  0  0  0  0  0  0
  151.4956  144.3109  158.8851 C   0  0  0  0  0  0  0  0  0  0  0  0
  152.1937  144.5533  160.0840 C   0  0  0  0  0  0  0  0  0  0  0  0
  152.8322  143.4774  160.7259 C   0  0  0  0  0  0  0  0  0  0  0  0
  152.7420  142.2041  160.1340 C   0  0  0  0  0  0  0  0  0  0  0  0
  152.0741  141.9698  158.9847 N   0  0  0  0  0  0  0  0  0  0  0  0
  149.4637  142.9590  155.1896 H   0  0  0  0  0  0  0  0  0  0  0  0
  149.8122  141.0212  153.5087 H   0  0  0  0  0  0  0  0  0  0  0  0
  149.3783  140.0187  154.8672 H   0  0  0  0  0  0  0  0  0  0  0  0
  147.4335  140.5202  153.3004 H   0  0  0  0  0  0  0  0  0  0  0  0
  146.5522  139.9387  155.4856 H   0  0  0  0  0  0  0  0  0  0  0  0
  147.2068  141.4159  156.2049 H   0  0  0  0  0  0  0  0  0  0  0  0
  144.9902  141.2203  154.1404 H   0  0  0  0  0  0  0  0  0  0  0  0
  144.9275  142.0737  155.6879 H   0  0  0  0  0  0  0  0  0  0  0  0
  145.6100  143.4023  153.3846 H   0  0  0  0  0  0  0  0  0  0  0  0
  146.4289  143.7794  154.9019 H   0  0  0  0  0  0  0  0  0  0  0  0
  150.3799  143.7231  156.7473 H   0  0  0  0  0  0  0  0  0  0  0  0
  150.9990  145.1264  158.3795 H   0  0  0  0  0  0  0  0  0  0  0  0
  152.2375  145.5478  160.5029 H   0  0  0  0  0  0  0  0  0  0  0  0
  153.3764  143.6238  161.6471 H   0  0  0  0  0  0  0  0  0  0  0  0
  153.2173  141.3513  160.5954 H   0  0  0  0  0  0  0  0  0  0  0  0
  1  2  2  0  0  0  0
  2  3  1  0  0  0  0
  2 10  1  0  0  0  0
  3  4  1  0  0  0  0
  3 17  1  0  0  0  0
  4  5  1  0  0  0  0
  4 18  1  0  0  0  0
  4 19  1  0  0  0  0
  5  9  1  0  0  0  0
  5  6  1  0  0  0  0
  5 20  1  0  0  0  0
  6  7  1  0  0  0  0
  6 21  1  0  0  0  0
  6 22  1  0  0  0  0
  7  8  1  0  0  0  0
  7 23  1  0  0  0  0
  7 24  1  0  0  0  0
  8  9  1  0  0  0  0
  8 25  1  0  0  0  0
  8 26  1  0  0  0  0
 10 11  1  0  0  0  0
 10 27  1  0  0  0  0
 11 16  1  0  0  0  0
 11 12  2  0  0  0  0
 12 13  1  0  0  0  0
 12 28  1  0  0  0  0
 13 14  2  0  0  0  0
 13 29  1  0  0  0  0
 14 15  1  0  0  0  0
 14 30  1  0  0  0  0
 15 16  2  0  0  0  0
 15 31  1  0  0  0  0
M  END
> <s_m_source_file>
AV-unprocessed.smi

> <i_m_source_file_index>
1764

> <i_lp_mmshare_version>
43012

> <i_f3d_flags>
0

> <s_epik_input>
bjFbY0hdW2NIXVtjSF1bY0hdYzFbTkhdQyg9TylbTkhdW0NIMl1bQ0BASF0yW0NIMl1bQ0gyXVtDSDJdTzI=

> <s_epik_cmdline>
J2VwaWtfcHl0aG9uJywgJy1waCcsICc3LjAnLCAnLXRuJywgJzgnLCAnLW1hJywgJzIwMCcsICctbWV0YWxfYmluZGluZycsICctaW1hZScsICc8aW5maWxlLm1hZT4nLCAnLW9tYWUnLCAnPG91dGZpbGUubWFlPic=

> <r_lp_tautomer_probability>
1

> <r_epik_Ionization_Penalty>
4.47751e-05

> <r_epik_Ionization_Penalty_Charging>
0

> <r_epik_Ionization_Penalty_Neutral>
4.47751e-05

> <r_epik_State_Penalty>
-0

> <r_epik_Charging_Adjusted_Penalty>
0

> <i_epik_Tot_Q>
0

> <i_epik_Tot_abs_Q>
0

> <r_epik_Metal_State_Penalty>
-0

> <b_epik_Metal_Only>
0

> <s_lp_Force_Field>
OPLS_2005

> <r_lp_Energy>
18.9713

> <b_lp_Chiralities_Consistent>
1

> <s_lp_Variant>
AV-unprocessed.smi:1764-2

> <Gold.Version>
5.8.1

> <Gold.Id.Protein>
6NUR|6NUR_protein|mol2

> <Gold.PLP.Fitness>
39.9573

> <Gold.PLP.PLP>
-33.9126

> <Gold.PLP.part.hbond>
-3.9629

> <Gold.PLP.part.metal>
0.0000

> <Gold.PLP.part.buried>
-1.4078

> <Gold.PLP.part.nonpolar>
-29.6096

> <Gold.PLP.part.repulsive>
0.4235

> <Gold.PLP.ligand.clash>
0.0000

> <Gold.PLP.ligand.torsion>
0.0790

> <Gold.PLP.Chemscore.Hbond>
2.0672

> <Gold.PLP.Chemscore.CHOScore>
0.0000

> <Gold.PLP.Chemscore.Metal>
0.0000

> <Gold.Chemscore.Hbonds>
donor molecule, donor type, donor heavy atom, donor atom, acceptor molecule, acceptor atom, score
      L1  H     3    17       P1  8028  1.00
      L1  H    10    27       P1  8028  0.85

> <Gold.PLP.Chemscore.Internal.Correction>
0.0011

> <Gold.Rescore>
     Score         DG    S(hbond)    S(metal)    S(lipo)     H(rot)  DE(clash)    DE(int)     intcor
     15.94     -17.28       1.93        0.00      73.50       1.27       0.02       1.32       ----

> <Gold.Chemscore.Fitness>
15.9383

> <Gold.Chemscore.DG>
-17.2767

> <Gold.Chemscore.ZeroCoef>
-5.4800

> <Gold.Chemscore.Hbond>
1.9291

> <Gold.Chemscore.Metal>
0.0000

> <Gold.Chemscore.Lipo>
73.4969

> <Gold.Chemscore.Internal_Hbond>
0.0000

> <Gold.Chemscore.DEClash>
0.0203

> <Gold.Chemscore.DEInternal>
1.3182

> <Gold.Chemscore.Rot>
1.2678

> <Gold.Chemscore.Internal.Correction>
   9.000000E+99

> <Gold.Chemscore.Hbonds>
donor molecule, donor type, donor heavy atom, donor atom, acceptor molecule, acceptor atom, score
      L1  H     3    17       P1  8028  0.98
      L1  H    10    27       P1  8028  0.79

> <Gold.Chemscore.Hbond.Weighted>
-6.4431

> <Gold.Chemscore.Metal.Weighted>
-0.0000

> <Gold.Chemscore.Lipo.Weighted>
-8.5991

> <Gold.Chemscore.Internal_Hbond.Weighted>
0.0000

> <Gold.Chemscore.DEClash.Weighted>
0.0203

> <Gold.Chemscore.DEInternal.Weighted>
1.3182

> <Gold.Chemscore.Rot.Weighted>
3.2455

> <Gold.Chemscore.Internal.Correction.Weighted>
   9.000000E+99

> <Gold.Protein.RotatedTorsions>
[ 6907 6896 6895 6894 ] final   66.36 input  -60.11 | X-H torsion
[ 7974 7965 7964 7962 ] final  157.89 input  175.53 | X-H torsion
[ 8008 7997 7996 7995 ] final  -96.32 input   59.86 | X-H torsion
[ 10167 10162 10161 10158 ] final -116.39 input  -65.29 | X-H torsion
[ 10718 10713 10712 10709 ] final -139.58 input   66.30 | X-H torsion
[ 10763 10752 10751 10750 ] final  -51.61 input  -60.55 | X-H torsion
[ 11005 11000 10999 10996 ] final   40.79 input  -57.11 | X-H torsion

> <Gold.Protein.ActiveResidues>
 VAL166  LYS551  ARG553  GLY616  TRP617  ASP618  TYR619  PRO620  LYS621  CYS622 
 ASP623  PHE694  ASN695  SER759  ASP760  ASP761  ALA762  ILE779  LEU786  VAL792 
 PHE793  MET794  SER795  GLU796  ALA797  LYS798  CYS799  TRP800  GLU811  SER814 

> <Gold.Protein.RotatedAtoms>
  152.4475  134.5463  159.9853 H   0  0  0  0  0  0  0  0  0  0  0  0  # atno 6907 bound_to 6896
  151.5544  133.3407  159.2967 H   0  0  0  0  0  0  0  0  0  0  0  0  # atno 6908 bound_to 6896
  150.8395  134.7714  159.6984 H   0  0  0  0  0  0  0  0  0  0  0  0  # atno 6909 bound_to 6896
  144.7877  139.7403  143.6234 H   0  0  0  0  0  0  0  0  0  0  0  0  # atno 7974 bound_to 7965
  154.7729  140.0472  157.1065 H   0  0  0  0  0  0  0  0  0  0  0  0  # atno 8008 bound_to 7997
  154.9799  140.3100  155.4931 H   0  0  0  0  0  0  0  0  0  0  0  0  # atno 8009 bound_to 7997
  156.2924  140.2238  156.4897 H   0  0  0  0  0  0  0  0  0  0  0  0  # atno 8010 bound_to 7997
  140.0798  143.4799  152.1932 H   0  0  0  0  0  0  0  0  0  0  0  0  # atno 10167 bound_to 10162
  156.3124  130.7489  151.1568 H   0  0  0  0  0  0  0  0  0  0  0  0  # atno 10718 bound_to 10713
  154.1293  135.6522  153.4919 H   0  0  0  0  0  0  0  0  0  0  0  0  # atno 10763 bound_to 10752
  153.0200  135.5289  154.7017 H   0  0  0  0  0  0  0  0  0  0  0  0  # atno 10764 bound_to 10752
  154.6247  135.2969  155.0256 H   0  0  0  0  0  0  0  0  0  0  0  0  # atno 10765 bound_to 10752
  140.1897  134.4002  155.8153 H   0  0  0  0  0  0  0  0  0  0  0  0  # atno 11005 bound_to 11000
  146.2116  139.5476  142.9677 LP  0  0  0  0  0  0  0  0  0  0  0  0  # atno 17320 bound_to 7965
  145.5878  141.0374  143.2087 LP  0  0  0  0  0  0  0  0  0  0  0  0  # atno 17321 bound_to 7965
  139.5786  144.7500  151.3698 LP  0  0  0  0  0  0  0  0  0  0  0  0  # atno 17342 bound_to 10162
  140.7083  143.7455  150.7522 LP  0  0  0  0  0  0  0  0  0  0  0  0  # atno 17343 bound_to 10162
  157.7394  131.0530  150.5234 LP  0  0  0  0  0  0  0  0  0  0  0  0  # atno 17370 bound_to 10713
  156.5376  130.4200  149.6170 LP  0  0  0  0  0  0  0  0  0  0  0  0  # atno 17371 bound_to 10713
  141.2226  133.7040  156.8074 LP  0  0  0  0  0  0  0  0  0  0  0  0  # atno 17394 bound_to 11000
  140.2174  134.8783  157.3340 LP  0  0  0  0  0  0  0  0  0  0  0  0  # atno 17395 bound_to 11000

$$$$
