AV-unprocessed.smi:1712|AV-procd|sdf|6901|dock1
  -GOLD-   22720 8103D 1   1.00000     0.00000
 Structure written by MMmdl.
 37 38  0  0  0  0  0  0  0  0  1 V2000
  147.7759  141.4608  153.7977 C   0  0  0  0  0  0  0  0  0  0  0  0
  148.4648  140.0884  153.6235 C   0  0  2  0  0  0  0  0  0  0  0  0
  147.5489  138.9987  154.2395 C   0  0  0  0  0  0  0  0  0  0  0  0
  147.4092  137.8344  153.3668 N   0  0  0  0  0  0  0  0  0  0  0  0
  146.2509  137.3082  152.9449 C   0  0  0  0  0  0  0  0  0  0  0  0
  145.1454  137.7664  153.2351 O   0  0  0  0  0  0  0  0  0  0  0  0
  146.4592  136.2237  152.1807 N   0  0  0  0  0  0  0  0  0  0  0  0
  145.4813  135.4157  151.5477 C   0  0  0  0  0  0  0  0  0  0  0  0
  145.6488  134.0397  151.2339 C   0  0  0  0  0  0  0  0  0  0  0  0
  144.5721  133.5440  150.6406 N   0  0  0  0  0  0  0  0  0  0  0  0
  143.7192  134.5911  150.5719 N   0  0  0  0  0  0  0  0  0  0  0  0
  144.2299  135.7510  151.1121 C   0  0  0  0  0  0  0  0  0  0  0  0
  149.8567  140.0600  154.1244 N   0  0  0  0  0  0  0  0  0  0  0  0
  149.9895  140.6564  155.4570 C   0  0  0  0  0  0  0  0  0  0  0  0
  151.4349  140.6131  155.9819 C   0  0  0  0  0  0  0  0  0  0  0  0
  151.8983  139.2694  155.9977 O   0  0  0  0  0  0  0  0  0  0  0  0
  151.8500  138.6697  154.7097 C   0  0  0  0  0  0  0  0  0  0  0  0
  150.4072  138.7023  154.1764 C   0  0  0  0  0  0  0  0  0  0  0  0
  142.8024  134.5001  150.1575 H   0  0  0  0  0  0  0  0  0  0  0  0
  146.7201  141.4095  153.5303 H   0  0  0  0  0  0  0  0  0  0  0  0
  148.2143  142.2239  153.1554 H   0  0  0  0  0  0  0  0  0  0  0  0
  147.8372  141.8127  154.8281 H   0  0  0  0  0  0  0  0  0  0  0  0
  148.4913  139.8926  152.5505 H   0  0  0  0  0  0  0  0  0  0  0  0
  147.9277  138.7067  155.2204 H   0  0  0  0  0  0  0  0  0  0  0  0
  146.5543  139.3936  154.4437 H   0  0  0  0  0  0  0  0  0  0  0  0
  148.2656  137.3820  153.0822 H   0  0  0  0  0  0  0  0  0  0  0  0
  147.4190  135.9457  152.0370 H   0  0  0  0  0  0  0  0  0  0  0  0
  146.4987  133.3976  151.4130 H   0  0  0  0  0  0  0  0  0  0  0  0
  143.6714  136.6748  151.1321 H   0  0  0  0  0  0  0  0  0  0  0  0
  149.6788  141.6998  155.4432 H   0  0  0  0  0  0  0  0  0  0  0  0
  149.3336  140.1407  156.1602 H   0  0  0  0  0  0  0  0  0  0  0  0
  152.0901  141.2252  155.3599 H   0  0  0  0  0  0  0  0  0  0  0  0
  151.4835  141.0179  156.9928 H   0  0  0  0  0  0  0  0  0  0  0  0
  152.5249  139.1933  154.0305 H   0  0  0  0  0  0  0  0  0  0  0  0
  152.2033  137.6410  154.7826 H   0  0  0  0  0  0  0  0  0  0  0  0
  149.7754  138.0711  154.8032 H   0  0  0  0  0  0  0  0  0  0  0  0
  150.4154  138.2543  153.1839 H   0  0  0  0  0  0  0  0  0  0  0  0
  1  2  1  0  0  0  0
  1 20  1  0  0  0  0
  1 21  1  0  0  0  0
  1 22  1  0  0  0  0
  2  3  1  0  0  0  0
  2 13  1  0  0  0  0
  2 23  1  0  0  0  0
  3  4  1  0  0  0  0
  3 24  1  0  0  0  0
  3 25  1  0  0  0  0
  4  5  1  0  0  0  0
  4 26  1  0  0  0  0
  5  6  2  0  0  0  0
  5  7  1  0  0  0  0
  7  8  1  0  0  0  0
  7 27  1  0  0  0  0
  8 12  2  0  0  0  0
  8  9  1  0  0  0  0
  9 10  2  0  0  0  0
  9 28  1  0  0  0  0
 10 11  1  0  0  0  0
 11 19  1  0  0  0  0
 11 12  1  0  0  0  0
 12 29  1  0  0  0  0
 13 18  1  0  0  0  0
 13 14  1  0  0  0  0
 14 15  1  0  0  0  0
 14 30  1  0  0  0  0
 14 31  1  0  0  0  0
 15 16  1  0  0  0  0
 15 32  1  0  0  0  0
 15 33  1  0  0  0  0
 16 17  1  0  0  0  0
 17 18  1  0  0  0  0
 17 34  1  0  0  0  0
 17 35  1  0  0  0  0
 18 36  1  0  0  0  0
 18 37  1  0  0  0  0
M  END
> <s_m_source_file>
AV-unprocessed.smi

> <i_m_source_file_index>
1712

> <i_lp_mmshare_version>
43012

> <i_f3d_flags>
0

> <s_epik_input>
W0NIMl0xW0NIMl1PW0NIMl1bQ0gyXU4xW0NASF0oW0NIM10pW0NIMl1bTkhdQyg9TylbTkhdYzJbY0hdbltuSF1bY0hdMg==

> <s_epik_cmdline>
J2VwaWtfcHl0aG9uJywgJy1waCcsICc3LjAnLCAnLXRuJywgJzgnLCAnLW1hJywgJzIwMCcsICctbWV0YWxfYmluZGluZycsICctaW1hZScsICc8aW5maWxlLm1hZT4nLCAnLW9tYWUnLCAnPG91dGZpbGUubWFlPic=

> <r_lp_tautomer_probability>
0.5

> <r_epik_Ionization_Penalty>
0.242772

> <r_epik_Ionization_Penalty_Charging>
0

> <r_epik_Ionization_Penalty_Neutral>
0.242772

> <r_epik_State_Penalty>
0.233765

> <r_epik_Charging_Adjusted_Penalty>
0.233765

> <i_epik_Tot_Q>
0

> <i_epik_Tot_abs_Q>
0

> <r_epik_Metal_State_Penalty>
0.233764

> <b_epik_Metal_Only>
0

> <s_lp_Force_Field>
OPLS_2005

> <r_lp_Energy>
36.7302

> <b_lp_Chiralities_Consistent>
1

> <s_lp_Variant>
AV-unprocessed.smi:1712-1

> <Gold.Version>
5.8.1

> <Gold.Id.Protein>
6NUR|6NUR_protein|mol2

> <Gold.PLP.Fitness>
39.3895

> <Gold.PLP.PLP>
-28.5608

> <Gold.PLP.part.hbond>
-3.8262

> <Gold.PLP.part.metal>
0.0000

> <Gold.PLP.part.buried>
-1.8737

> <Gold.PLP.part.nonpolar>
-23.7217

> <Gold.PLP.part.repulsive>
1.5685

> <Gold.PLP.ligand.clash>
0.0000

> <Gold.PLP.ligand.torsion>
0.9704

> <Gold.PLP.Chemscore.Hbond>
3.2392

> <Gold.PLP.Chemscore.CHOScore>
1.0000

> <Gold.PLP.Chemscore.Metal>
0.0000

> <Gold.Chemscore.Hbonds>
donor molecule, donor type, donor heavy atom, donor atom, acceptor molecule, acceptor atom, score
      L1  H     4    26       P1  7948  0.86
      L1  H     7    27       P1  7948  1.00
      L1  H    11    19       P1 10186  1.00
      P1  H  7989  7998       L1    13  0.38
      L1  C    12    29       P1 10171  1.00

> <Gold.PLP.Chemscore.Internal.Correction>
0.0517

> <Gold.Rescore>
     Score         DG    S(hbond)    S(metal)    S(lipo)     H(rot)  DE(clash)    DE(int)     intcor
     16.61     -17.55       2.84        0.00      57.86       1.63       0.02       0.91       ----

> <Gold.Chemscore.Fitness>
16.6064

> <Gold.Chemscore.DG>
-17.5451

> <Gold.Chemscore.ZeroCoef>
-5.4800

> <Gold.Chemscore.Hbond>
2.8357

> <Gold.Chemscore.Metal>
0.0000

> <Gold.Chemscore.Lipo>
57.8605

> <Gold.Chemscore.Internal_Hbond>
0.0000

> <Gold.Chemscore.DEClash>
0.0249

> <Gold.Chemscore.DEInternal>
0.9139

> <Gold.Chemscore.Rot>
1.6311

> <Gold.Chemscore.Internal.Correction>
   9.000000E+99

> <Gold.Chemscore.Hbonds>
donor molecule, donor type, donor heavy atom, donor atom, acceptor molecule, acceptor atom, score
      L1  H     4    26       P1  7948  0.85
      L1  H     7    27       P1  7948  0.92
      L1  H    11    19       P1 10186  0.74

> <Gold.Chemscore.Hbond.Weighted>
-9.4712

> <Gold.Chemscore.Metal.Weighted>
-0.0000

> <Gold.Chemscore.Lipo.Weighted>
-6.7697

> <Gold.Chemscore.Internal_Hbond.Weighted>
0.0000

> <Gold.Chemscore.DEClash.Weighted>
0.0249

> <Gold.Chemscore.DEInternal.Weighted>
0.9139

> <Gold.Chemscore.Rot.Weighted>
4.1757

> <Gold.Chemscore.Internal.Correction.Weighted>
   9.000000E+99

> <Gold.Protein.RotatedTorsions>
[ 6907 6896 6895 6894 ] final   46.94 input  -60.11 | X-H torsion
[ 7974 7965 7964 7962 ] final  101.19 input  175.53 | X-H torsion
[ 8008 7997 7996 7995 ] final  -12.38 input   59.86 | X-H torsion
[ 10167 10162 10161 10158 ] final    8.71 input  -65.29 | X-H torsion
[ 10718 10713 10712 10709 ] final -125.05 input   66.30 | X-H torsion
[ 10763 10752 10751 10750 ] final -113.14 input  -60.55 | X-H torsion
[ 11005 11000 10999 10996 ] final  -26.47 input  -57.11 | X-H torsion

> <Gold.Protein.ActiveResidues>
 VAL166  LYS551  ARG553  GLY616  TRP617  ASP618  TYR619  PRO620  LYS621  CYS622 
 ASP623  PHE694  ASN695  SER759  ASP760  ASP761  ALA762  ILE779  LEU786  VAL792 
 PHE793  MET794  SER795  GLU796  ALA797  LYS798  CYS799  TRP800  GLU811  SER814 

> <Gold.Protein.RotatedAtoms>
  152.2623  134.8021  160.0428 H   0  0  0  0  0  0  0  0  0  0  0  0  # atno 6907 bound_to 6896
  151.8663  133.3462  159.3728 H   0  0  0  0  0  0  0  0  0  0  0  0  # atno 6908 bound_to 6896
  150.7121  134.5083  159.5639 H   0  0  0  0  0  0  0  0  0  0  0  0  # atno 6909 bound_to 6896
  145.3755  139.2389  143.3432 H   0  0  0  0  0  0  0  0  0  0  0  0  # atno 7974 bound_to 7965
  154.5382  140.2277  155.8686 H   0  0  0  0  0  0  0  0  0  0  0  0  # atno 8008 bound_to 7997
  156.1832  140.3095  155.9151 H   0  0  0  0  0  0  0  0  0  0  0  0  # atno 8009 bound_to 7997
  155.3311  140.0445  157.3033 H   0  0  0  0  0  0  0  0  0  0  0  0  # atno 8010 bound_to 7997
  140.6298  143.8019  150.7281 H   0  0  0  0  0  0  0  0  0  0  0  0  # atno 10167 bound_to 10162
  156.1641  130.6622  151.0090 H   0  0  0  0  0  0  0  0  0  0  0  0  # atno 10718 bound_to 10713
  154.8382  135.4465  154.1303 H   0  0  0  0  0  0  0  0  0  0  0  0  # atno 10763 bound_to 10752
  153.2515  135.6927  153.7680 H   0  0  0  0  0  0  0  0  0  0  0  0  # atno 10764 bound_to 10752
  153.6991  135.3375  155.3196 H   0  0  0  0  0  0  0  0  0  0  0  0  # atno 10765 bound_to 10752
  140.9032  133.7510  156.0571 H   0  0  0  0  0  0  0  0  0  0  0  0  # atno 11005 bound_to 11000
  146.2866  140.4414  142.8755 LP  0  0  0  0  0  0  0  0  0  0  0  0  # atno 17320 bound_to 7965
  144.8545  140.7050  143.6147 LP  0  0  0  0  0  0  0  0  0  0  0  0  # atno 17321 bound_to 7965
  140.1627  143.4261  152.2055 LP  0  0  0  0  0  0  0  0  0  0  0  0  # atno 17342 bound_to 10162
  139.5514  144.7340  151.4424 LP  0  0  0  0  0  0  0  0  0  0  0  0  # atno 17343 bound_to 10162
  157.6754  131.0851  150.7507 LP  0  0  0  0  0  0  0  0  0  0  0  0  # atno 17370 bound_to 10713
  156.7568  130.4786  149.5445 LP  0  0  0  0  0  0  0  0  0  0  0  0  # atno 17371 bound_to 10713
  140.8204  134.3296  157.5383 LP  0  0  0  0  0  0  0  0  0  0  0  0  # atno 17394 bound_to 11000
  139.8745  134.9306  156.3506 LP  0  0  0  0  0  0  0  0  0  0  0  0  # atno 17395 bound_to 11000

$$$$
