#       Name:                AV-unprocessed.smi:1543
#       Creating user name   scv26
#       Creation time:       Fri Mar 27 06:37:55 2020


#       File generated by GOLD software.
#

@<TRIPOS>MOLECULE
AV-unprocessed.smi:1543
    54    55     1
SMALL
NO_CHARGES


@<TRIPOS>ATOM
      1 ****        -3.2588   3.0535   1.2456 C.3            1 S1                 0.0000
      2 ****        -2.5988   1.6720   1.3110 C.3            1 S1                 0.0000
      3 ****        -1.0865   1.7644   1.5787 C.3            1 S1                 0.0000
      4 ****        -0.4703   0.4408   1.7089 N.3            1 S1                 0.0000
      5 ****         1.0174   0.4460   1.7994 C.3            1 S1                 0.0000
      6 ****         1.5436   1.1682   3.0630 C.3            1 S1                 0.0000
      7 ****         1.5770  -0.9992   1.8312 C.3            1 S1                 0.0000
      8 ****         1.6683   1.1408   0.5669 C.3            1 S1                 0.0000
      9 ****         1.1703   0.6132  -0.7034 N.am           1 S1                 0.0000
     10 ****         1.8711  -0.1170  -1.5816 C.2            1 S1                 0.0000
     11 ****         3.0536  -0.4178  -1.4242 O.2            1 S1                 0.0000
     12 ****         1.1078  -0.4608  -2.6336 N.am           1 S1                 0.0000
     13 ****         1.4489  -1.2086  -3.7947 C.ar           1 S1                 0.0000
     14 ****         2.6681  -1.9052  -3.9840 C.ar           1 S1                 0.0000
     15 ****         2.8695  -2.6093  -5.1870 C.ar           1 S1                 0.0000
     16 ****         1.8468  -2.5963  -6.1546 C.ar           1 S1                 0.0000
     17 ****         0.6775  -1.9445  -5.9858 N.ar           1 S1                 0.0000
     18 ****         0.4920  -1.2714  -4.8303 C.ar           1 S1                 0.0000
     19 ****        -1.1519  -0.2865   2.7859 C.3            1 S1                 0.0000
     20 ****        -2.6779  -0.3688   2.5829 C.3            1 S1                 0.0000
     21 ****        -3.0921  -1.3616   1.4835 C.3            1 S1                 0.0000
     22 ****        -3.2215   0.9314   2.3567 O.3            1 S1                 0.0000
     23 ****        -2.8218   3.6603   0.4521 H              1 S1                 0.0000
     24 ****        -3.1390   3.5935   2.1852 H              1 S1                 0.0000
     25 ****        -4.3270   2.9656   1.0459 H              1 S1                 0.0000
     26 ****        -2.7686   1.1683   0.3589 H              1 S1                 0.0000
     27 ****        -0.6422   2.3217   0.7566 H              1 S1                 0.0000
     28 ****        -0.9162   2.3481   2.4838 H              1 S1                 0.0000
     29 ****         2.6334   1.1499   3.0980 H              1 S1                 0.0000
     30 ****         1.1940   0.6986   3.9822 H              1 S1                 0.0000
     31 ****         1.2451   2.2162   3.0919 H              1 S1                 0.0000
     32 ****         2.6612  -1.0112   1.7120 H              1 S1                 0.0000
     33 ****         1.1565  -1.6116   1.0326 H              1 S1                 0.0000
     34 ****         1.3708  -1.5030   2.7752 H              1 S1                 0.0000
     35 ****         1.4809   2.2143   0.5774 H              1 S1                 0.0000
     36 ****         2.7556   1.0593   0.6198 H              1 S1                 0.0000
     37 ****         0.2016   0.8028  -0.9151 H              1 S1                 0.0000
     38 ****         0.1607  -0.1117  -2.6165 H              1 S1                 0.0000
     39 ****         3.4494  -1.9245  -3.2417 H              1 S1                 0.0000
     40 ****         3.7881  -3.1490  -5.3631 H              1 S1                 0.0000
     41 ****         1.9703  -3.1253  -7.0879 H              1 S1                 0.0000
     42 ****        -0.4553  -0.7618  -4.7316 H              1 S1                 0.0000
     43 ****        -0.7705  -1.3017   2.8787 H              1 S1                 0.0000
     44 ****        -0.9613   0.2061   3.7395 H              1 S1                 0.0000
     45 ****        -3.1195  -0.7252   3.5137 H              1 S1                 0.0000
     46 ****        -2.7752  -2.3734   1.7369 H              1 S1                 0.0000
     47 ****        -2.6482  -1.1149   0.5193 H              1 S1                 0.0000
     48 ****        -4.1752  -1.3757   1.3602 H              1 S1                 0.0000
     49 ****        -0.6077  -0.0575   0.8529 LP             1 S1                 0.0000
     50 ****         3.5421  -0.1142  -0.6061 LP             1 S1                 0.0000
     51 ****         3.5262  -0.9658  -2.1143 LP             1 S1                 0.0000
     52 ****        -0.0288  -1.9595  -6.6936 LP             1 S1                 0.0000
     53 ****        -4.1896   0.8273   2.1289 LP             1 S1                 0.0000
     54 ****        -3.1329   1.4561   3.2034 LP             1 S1                 0.0000
@<TRIPOS>BOND
    1    1    2 1     
    2    1   23 1     
    3    1   24 1     
    4    1   25 1     
    5    2   22 1     
    6    2    3 1     
    7    2   26 1     
    8    3    4 1     
    9    3   27 1     
   10    3   28 1     
   11    4    5 1     
   12    4   19 1     
   13    5    6 1     
   14    5    7 1     
   15    5    8 1     
   16    6   29 1     
   17    6   30 1     
   18    6   31 1     
   19    7   32 1     
   20    7   33 1     
   21    7   34 1     
   22    8    9 1     
   23    8   35 1     
   24    8   36 1     
   25    9   10 am    
   26    9   37 1     
   27   10   11 2     
   28   10   12 am    
   29   12   13 1     
   30   12   38 1     
   31   13   18 ar    
   32   13   14 ar    
   33   14   15 ar    
   34   14   39 1     
   35   15   16 ar    
   36   15   40 1     
   37   16   17 ar    
   38   16   41 1     
   39   17   18 ar    
   40   18   42 1     
   41   19   20 1     
   42   19   43 1     
   43   19   44 1     
   44   20   21 1     
   45   20   22 1     
   46   20   45 1     
   47   21   46 1     
   48   21   47 1     
   49   21   48 1     
   50    4   49 1     
   51   11   50 1     
   52   11   51 1     
   53   17   52 1     
   54   22   53 1     
   55   22   54 1     
@<TRIPOS>SUBSTRUCTURE
      1 S1             1
@<TRIPOS>SET
LONE_PAIRS      STATIC     ATOMS    <user>   **** ""
6 49 50 51 52 53 54
DONOR_HYDROGENS      STATIC     ATOMS    <user>   **** ""
2 37 38
ATOM$BLUE        STATIC     ATOMS    COLORGROUP SYSTEM
6 49 50 51 52 53 54
ATOM$RED        STATIC     ATOMS    COLORGROUP SYSTEM
2 37 38
