AV-unprocessed.smi:2899|AV-procd|sdf|11145|dock5
  -GOLD-   2272016 23D 1   1.00000     0.00000
 Structure written by MMmdl.
 30 32  0  0  0  0  0  0  0  0  1 V2000
  152.1345  143.4003  161.5930 C   0  0  0  0  0  0  0  0  0  0  0  0
  151.9034  143.5440  160.1039 C   0  0  0  0  0  0  0  0  0  0  0  0
  152.1918  144.7451  159.4232 C   0  0  0  0  0  0  0  0  0  0  0  0
  151.9324  144.7511  158.0377 C   0  0  0  0  0  0  0  0  0  0  0  0
  151.4343  143.6677  157.4019 N   0  0  0  0  0  0  0  0  0  0  0  0
  151.1964  142.5834  158.1443 C   0  0  0  0  0  0  0  0  0  0  0  0
  150.6846  141.4964  157.4598 N   0  0  0  0  0  0  0  0  0  0  0  0
  150.9251  141.2174  156.0486 C   0  0  2  0  0  0  0  0  0  0  0  0
  149.6406  141.1555  155.2190 C   0  0  0  0  0  0  0  0  0  0  0  0
  149.7776  139.7900  154.5297 C   0  0  2  0  0  0  0  0  0  0  0  0
  149.5022  138.6377  155.5043 C   0  0  0  0  0  0  0  0  0  0  0  0
  150.7561  138.6633  156.3764 C   0  0  0  0  0  0  0  0  0  0  0  0
  151.5451  139.8346  155.7666 C   0  0  1  0  0  0  0  0  0  0  0  0
  151.1864  139.6890  154.4027 O   0  0  0  0  0  0  0  0  0  0  0  0
  151.4061  142.4648  159.4610 N   0  0  0  0  0  0  0  0  0  0  0  0
  152.5880  144.2999  162.0100 H   0  0  0  0  0  0  0  0  0  0  0  0
  152.7985  142.5594  161.7945 H   0  0  0  0  0  0  0  0  0  0  0  0
  151.1896  143.2241  162.1077 H   0  0  0  0  0  0  0  0  0  0  0  0
  152.5889  145.6124  159.9295 H   0  0  0  0  0  0  0  0  0  0  0  0
  152.1250  145.6276  157.4372 H   0  0  0  0  0  0  0  0  0  0  0  0
  150.2039  140.7966  158.0058 H   0  0  0  0  0  0  0  0  0  0  0  0
  151.5706  141.9949  155.6373 H   0  0  0  0  0  0  0  0  0  0  0  0
  148.7280  141.2221  155.8134 H   0  0  0  0  0  0  0  0  0  0  0  0
  149.6256  141.9630  154.4862 H   0  0  0  0  0  0  0  0  0  0  0  0
  149.2332  139.7122  153.5882 H   0  0  0  0  0  0  0  0  0  0  0  0
  148.5852  138.7862  156.0756 H   0  0  0  0  0  0  0  0  0  0  0  0
  149.4254  137.6882  154.9734 H   0  0  0  0  0  0  0  0  0  0  0  0
  150.5369  138.8000  157.4355 H   0  0  0  0  0  0  0  0  0  0  0  0
  151.3114  137.7312  156.2668 H   0  0  0  0  0  0  0  0  0  0  0  0
  152.6188  139.7847  155.9498 H   0  0  0  0  0  0  0  0  0  0  0  0
  1  2  1  0  0  0  0
  1 16  1  0  0  0  0
  1 17  1  0  0  0  0
  1 18  1  0  0  0  0
  2 15  1  0  0  0  0
  2  3  2  0  0  0  0
  3  4  1  0  0  0  0
  3 19  1  0  0  0  0
  4  5  2  0  0  0  0
  4 20  1  0  0  0  0
  5  6  1  0  0  0  0
  6  7  1  0  0  0  0
  6 15  2  0  0  0  0
  7  8  1  0  0  0  0
  7 21  1  0  0  0  0
  8 13  1  0  0  0  0
  8  9  1  0  0  0  0
  8 22  1  0  0  0  0
  9 10  1  0  0  0  0
  9 23  1  0  0  0  0
  9 24  1  0  0  0  0
 10 14  1  0  0  0  0
 10 11  1  0  0  0  0
 10 25  1  0  0  0  0
 11 12  1  0  0  0  0
 11 26  1  0  0  0  0
 11 27  1  0  0  0  0
 12 13  1  0  0  0  0
 12 28  1  0  0  0  0
 12 29  1  0  0  0  0
 13 14  1  0  0  0  0
 13 30  1  0  0  0  0
M  END
> <s_m_source_file>
AV-unprocessed.smi

> <i_m_source_file_index>
2899

> <i_lp_mmshare_version>
43012

> <i_f3d_flags>
0

> <s_epik_input>
W0NIM11jMVtjSF1bY0hdbmMobjEpW05IXVtDQEhdKFtDSDJdW0NAQEhdMjMpW0NAQEhdKE8zKVtDSDJdW0NIMl0y

> <s_epik_cmdline>
J2VwaWtfcHl0aG9uJywgJy1waCcsICc3LjAnLCAnLXRuJywgJzgnLCAnLW1hJywgJzIwMCcsICctbWV0YWxfYmluZGluZycsICctaW1hZScsICc8aW5maWxlLm1hZT4nLCAnLW9tYWUnLCAnPG91dGZpbGUubWFlPic=

> <r_lp_tautomer_probability>
1

> <r_epik_Ionization_Penalty>
0.00589655

> <r_epik_Ionization_Penalty_Charging>
0

> <r_epik_Ionization_Penalty_Neutral>
0.00589655

> <r_epik_State_Penalty>
0.00375391

> <r_epik_Charging_Adjusted_Penalty>
0.00375391

> <i_epik_Tot_Q>
0

> <i_epik_Tot_abs_Q>
0

> <r_epik_Metal_State_Penalty>
-0

> <b_epik_Metal_Only>
0

> <s_lp_Force_Field>
OPLS_2005

> <r_lp_Energy>
31.8412

> <b_lp_Chiralities_Consistent>
1

> <s_lp_Variant>
AV-unprocessed.smi:2899-3

> <Gold.Version>
5.8.1

> <Gold.Id.Protein>
6NUR|6NUR_protein|mol2

> <Gold.PLP.Fitness>
36.2368

> <Gold.PLP.PLP>
-33.5744

> <Gold.PLP.part.hbond>
-1.0000

> <Gold.PLP.part.metal>
0.0000

> <Gold.PLP.part.buried>
-4.3052

> <Gold.PLP.part.nonpolar>
-28.1841

> <Gold.PLP.part.repulsive>
0.2854

> <Gold.PLP.ligand.clash>
0.0000

> <Gold.PLP.ligand.torsion>
0.1731

> <Gold.PLP.Chemscore.Hbond>
1.0000

> <Gold.PLP.Chemscore.CHOScore>
0.0000

> <Gold.PLP.Chemscore.Metal>
0.0000

> <Gold.Chemscore.Hbonds>
donor molecule, donor type, donor heavy atom, donor atom, acceptor molecule, acceptor atom, score
      P1  H  7989  7998       L1    14  1.00

> <Gold.PLP.Chemscore.Internal.Correction>
0.0086

> <Gold.Rescore>
     Score         DG    S(hbond)    S(metal)    S(lipo)     H(rot)  DE(clash)    DE(int)     intcor
     15.72     -15.88       0.91        0.00      84.84       1.00       0.01       0.15       ----

> <Gold.Chemscore.Fitness>
15.7181

> <Gold.Chemscore.DG>
-15.8779

> <Gold.Chemscore.ZeroCoef>
-5.4800

> <Gold.Chemscore.Hbond>
0.9076

> <Gold.Chemscore.Metal>
0.0000

> <Gold.Chemscore.Lipo>
84.8412

> <Gold.Chemscore.Internal_Hbond>
0.0000

> <Gold.Chemscore.DEClash>
0.0073

> <Gold.Chemscore.DEInternal>
0.1524

> <Gold.Chemscore.Rot>
1.0000

> <Gold.Chemscore.Internal.Correction>
   9.000000E+99

> <Gold.Chemscore.Hbonds>
donor molecule, donor type, donor heavy atom, donor atom, acceptor molecule, acceptor atom, score
      P1  H  7989  7998       L1    14  0.52

> <Gold.Chemscore.Hbond.Weighted>
-3.0315

> <Gold.Chemscore.Metal.Weighted>
-0.0000

> <Gold.Chemscore.Lipo.Weighted>
-9.9264

> <Gold.Chemscore.Internal_Hbond.Weighted>
0.0000

> <Gold.Chemscore.DEClash.Weighted>
0.0073

> <Gold.Chemscore.DEInternal.Weighted>
0.1524

> <Gold.Chemscore.Rot.Weighted>
2.5600

> <Gold.Chemscore.Internal.Correction.Weighted>
   9.000000E+99

> <Gold.Protein.RotatedTorsions>
[ 6907 6896 6895 6894 ] final  -20.46 input  -60.11 | X-H torsion
[ 7974 7965 7964 7962 ] final   62.41 input  175.53 | X-H torsion
[ 8008 7997 7996 7995 ] final  116.51 input   59.86 | X-H torsion
[ 10167 10162 10161 10158 ] final  102.14 input  -65.29 | X-H torsion
[ 10718 10713 10712 10709 ] final   57.48 input   66.30 | X-H torsion
[ 10763 10752 10751 10750 ] final   18.72 input  -60.55 | X-H torsion
[ 11005 11000 10999 10996 ] final -105.88 input  -57.11 | X-H torsion

> <Gold.Protein.ActiveResidues>
 VAL166  LYS551  ARG553  GLY616  TRP617  ASP618  TYR619  PRO620  LYS621  CYS622 
 ASP623  PHE694  ASN695  SER759  ASP760  ASP761  ALA762  ILE779  LEU786  VAL792 
 PHE793  MET794  SER795  GLU796  ALA797  LYS798  CYS799  TRP800  GLU811  SER814 

> <Gold.Protein.RotatedAtoms>
  151.2478  135.0611  159.9049 H   0  0  0  0  0  0  0  0  0  0  0  0  # atno 6907 bound_to 6896
  152.5384  134.0364  159.8058 H   0  0  0  0  0  0  0  0  0  0  0  0  # atno 6908 bound_to 6896
  151.0568  133.5528  159.2669 H   0  0  0  0  0  0  0  0  0  0  0  0  # atno 6909 bound_to 6896
  145.8736  139.3395  143.0747 H   0  0  0  0  0  0  0  0  0  0  0  0  # atno 7974 bound_to 7965
  156.2443  140.2916  156.0534 H   0  0  0  0  0  0  0  0  0  0  0  0  # atno 8008 bound_to 7997
  155.1855  140.0405  157.2908 H   0  0  0  0  0  0  0  0  0  0  0  0  # atno 8009 bound_to 7997
  154.6230  140.2480  155.7533 H   0  0  0  0  0  0  0  0  0  0  0  0  # atno 8010 bound_to 7997
  139.7376  144.7020  151.0625 H   0  0  0  0  0  0  0  0  0  0  0  0  # atno 10167 bound_to 10162
  157.5518  130.8771  149.8975 H   0  0  0  0  0  0  0  0  0  0  0  0  # atno 10718 bound_to 10713
  153.1224  135.6722  153.9313 H   0  0  0  0  0  0  0  0  0  0  0  0  # atno 10763 bound_to 10752
  153.8825  135.3056  155.3447 H   0  0  0  0  0  0  0  0  0  0  0  0  # atno 10764 bound_to 10752
  154.7634  135.4976  153.9587 H   0  0  0  0  0  0  0  0  0  0  0  0  # atno 10765 bound_to 10752
  141.1032  133.8846  157.1789 H   0  0  0  0  0  0  0  0  0  0  0  0  # atno 11005 bound_to 11000
  145.9107  140.9182  143.0455 LP  0  0  0  0  0  0  0  0  0  0  0  0  # atno 17320 bound_to 7965
  144.6726  140.1156  143.7453 LP  0  0  0  0  0  0  0  0  0  0  0  0  # atno 17321 bound_to 7965
  140.7781  143.4964  150.9827 LP  0  0  0  0  0  0  0  0  0  0  0  0  # atno 17342 bound_to 10162
  139.8653  143.7262  152.3170 LP  0  0  0  0  0  0  0  0  0  0  0  0  # atno 17343 bound_to 10162
  156.0583  130.3704  150.1040 LP  0  0  0  0  0  0  0  0  0  0  0  0  # atno 17370 bound_to 10713
  156.9212  130.9683  151.3548 LP  0  0  0  0  0  0  0  0  0  0  0  0  # atno 17371 bound_to 10713
  139.9891  135.0071  156.9933 LP  0  0  0  0  0  0  0  0  0  0  0  0  # atno 17394 bound_to 11000
  140.4970  134.1136  155.7243 LP  0  0  0  0  0  0  0  0  0  0  0  0  # atno 17395 bound_to 11000

$$$$
