AV-unprocessed.smi:3120|AV-procd|sdf|11892|dock5
  -GOLD-   2272017283D 1   1.00000     0.00000
 Structure written by MMmdl.
 22 23  0  0  0  0  0  0  0  0  1 V2000
  150.3263  142.2141  158.6619 O   0  0  0  0  0  0  0  0  0  0  0  0
  151.0750  143.0959  158.2453 C   0  0  0  0  0  0  0  0  0  0  0  0
  150.7289  144.0771  157.4132 N   0  0  0  0  0  0  0  0  0  0  0  0
  151.8240  144.9682  157.0825 C   0  0  0  0  0  0  0  0  0  0  0  0
  152.9510  144.5785  158.0516 C   0  0  0  0  0  0  0  0  0  0  0  0
  152.5479  143.2077  158.6240 C   0  0  1  0  0  0  0  0  0  0  0  0
  152.7828  143.0568  160.1233 C   0  0  0  0  0  0  0  0  0  0  0  0
  153.4356  141.9265  160.6649 C   0  0  0  0  0  0  0  0  0  0  0  0
  153.6191  141.8470  162.0585 C   0  0  0  0  0  0  0  0  0  0  0  0
  153.1416  142.9038  162.8584 C   0  0  0  0  0  0  0  0  0  0  0  0
  152.5168  143.9897  162.3553 N   0  0  0  0  0  0  0  0  0  0  0  0
  152.3458  144.0581  161.0175 C   0  0  0  0  0  0  0  0  0  0  0  0
  149.7998  144.1949  157.0352 H   0  0  0  0  0  0  0  0  0  0  0  0
  152.1209  144.8026  156.0462 H   0  0  0  0  0  0  0  0  0  0  0  0
  151.5302  146.0122  157.1946 H   0  0  0  0  0  0  0  0  0  0  0  0
  153.9236  144.5466  157.5598 H   0  0  0  0  0  0  0  0  0  0  0  0
  153.0165  145.3282  158.8412 H   0  0  0  0  0  0  0  0  0  0  0  0
  153.0779  142.4198  158.0869 H   0  0  0  0  0  0  0  0  0  0  0  0
  153.7911  141.1321  160.0250 H   0  0  0  0  0  0  0  0  0  0  0  0
  154.1144  140.9968  162.5036 H   0  0  0  0  0  0  0  0  0  0  0  0
  153.2638  142.8756  163.9310 H   0  0  0  0  0  0  0  0  0  0  0  0
  151.8422  144.9407  160.6511 H   0  0  0  0  0  0  0  0  0  0  0  0
  1  2  2  0  0  0  0
  2  6  1  0  0  0  0
  2  3  1  0  0  0  0
  3  4  1  0  0  0  0
  3 13  1  0  0  0  0
  4  5  1  0  0  0  0
  4 14  1  0  0  0  0
  4 15  1  0  0  0  0
  5  6  1  0  0  0  0
  5 16  1  0  0  0  0
  5 17  1  0  0  0  0
  6  7  1  0  0  0  0
  6 18  1  0  0  0  0
  7 12  1  0  0  0  0
  7  8  2  0  0  0  0
  8  9  1  0  0  0  0
  8 19  1  0  0  0  0
  9 10  2  0  0  0  0
  9 20  1  0  0  0  0
 10 11  1  0  0  0  0
 10 21  1  0  0  0  0
 11 12  2  0  0  0  0
 12 22  1  0  0  0  0
M  END
> <s_m_source_file>
AV-unprocessed.smi

> <i_m_source_file_index>
3120

> <i_lp_mmshare_version>
43012

> <i_f3d_flags>
0

> <s_epik_input>
Tz1DMVtOSF1bQ0gyXVtDSDJdW0NASF0xYzJbY0hdW2NIXVtjSF1uW2NIXTI=

> <s_epik_cmdline>
J2VwaWtfcHl0aG9uJywgJy1waCcsICc3LjAnLCAnLXRuJywgJzgnLCAnLW1hJywgJzIwMCcsICctbWV0YWxfYmluZGluZycsICctaW1hZScsICc8aW5maWxlLm1hZT4nLCAnLW9tYWUnLCAnPG91dGZpbGUubWFlPic=

> <r_epik_Ionization_Penalty>
0.00558523

> <r_epik_Ionization_Penalty_Charging>
0

> <r_epik_Ionization_Penalty_Neutral>
0.00558523

> <r_epik_State_Penalty>
0.00409114

> <r_epik_Charging_Adjusted_Penalty>
0.00409114

> <i_epik_Tot_Q>
0

> <i_epik_Tot_abs_Q>
0

> <r_epik_Metal_State_Penalty>
-0

> <b_epik_Metal_Only>
0

> <s_lp_Force_Field>
OPLS_2005

> <r_lp_Energy>
14.9187

> <b_lp_Chiralities_Consistent>
1

> <s_lp_Variant>
AV-unprocessed.smi:3120-1

> <Gold.Version>
5.8.1

> <Gold.Id.Protein>
6NUR|6NUR_protein|mol2

> <Gold.PLP.Fitness>
35.0748

> <Gold.PLP.PLP>
-33.1251

> <Gold.PLP.part.hbond>
-1.0000

> <Gold.PLP.part.metal>
0.0000

> <Gold.PLP.part.buried>
-3.4194

> <Gold.PLP.part.nonpolar>
-28.7296

> <Gold.PLP.part.repulsive>
0.3456

> <Gold.PLP.ligand.clash>
0.0000

> <Gold.PLP.ligand.torsion>
0.2049

> <Gold.PLP.Chemscore.Hbond>
0.7840

> <Gold.PLP.Chemscore.CHOScore>
0.0000

> <Gold.PLP.Chemscore.Metal>
0.0000

> <Gold.Chemscore.Hbonds>
donor molecule, donor type, donor heavy atom, donor atom, acceptor molecule, acceptor atom, score
      L1  H     3    13       P1  8028  0.90

> <Gold.PLP.Chemscore.Internal.Correction>
0.0075

> <Gold.Rescore>
     Score         DG    S(hbond)    S(metal)    S(lipo)     H(rot)  DE(clash)    DE(int)     intcor
     16.40     -18.00       0.96        0.00     101.39       1.00       1.51       0.10       ----

> <Gold.Chemscore.Fitness>
16.3964

> <Gold.Chemscore.DG>
-18.0047

> <Gold.Chemscore.ZeroCoef>
-5.4800

> <Gold.Chemscore.Hbond>
0.9648

> <Gold.Chemscore.Metal>
0.0000

> <Gold.Chemscore.Lipo>
101.3858

> <Gold.Chemscore.Internal_Hbond>
0.0000

> <Gold.Chemscore.DEClash>
1.5051

> <Gold.Chemscore.DEInternal>
0.1032

> <Gold.Chemscore.Rot>
1.0000

> <Gold.Chemscore.Internal.Correction>
   9.000000E+99

> <Gold.Chemscore.Hbonds>
donor molecule, donor type, donor heavy atom, donor atom, acceptor molecule, acceptor atom, score
      L1  H     3    13       P1  8028  0.62

> <Gold.Chemscore.Hbond.Weighted>
-3.2225

> <Gold.Chemscore.Metal.Weighted>
-0.0000

> <Gold.Chemscore.Lipo.Weighted>
-11.8621

> <Gold.Chemscore.Internal_Hbond.Weighted>
0.0000

> <Gold.Chemscore.DEClash.Weighted>
1.5051

> <Gold.Chemscore.DEInternal.Weighted>
0.1032

> <Gold.Chemscore.Rot.Weighted>
2.5600

> <Gold.Chemscore.Internal.Correction.Weighted>
   9.000000E+99

> <Gold.Protein.RotatedTorsions>
[ 6907 6896 6895 6894 ] final -116.09 input  -60.11 | X-H torsion
[ 7974 7965 7964 7962 ] final -173.94 input  175.53 | X-H torsion
[ 8008 7997 7996 7995 ] final -146.61 input   59.86 | X-H torsion
[ 10167 10162 10161 10158 ] final -131.49 input  -65.29 | X-H torsion
[ 10718 10713 10712 10709 ] final  123.94 input   66.30 | X-H torsion
[ 10763 10752 10751 10750 ] final  -64.51 input  -60.55 | X-H torsion
[ 11005 11000 10999 10996 ] final  -58.28 input  -57.11 | X-H torsion

> <Gold.Protein.ActiveResidues>
 VAL166  LYS551  ARG553  GLY616  TRP617  ASP618  TYR619  PRO620  LYS621  CYS622 
 ASP623  PHE694  ASN695  SER759  ASP760  ASP761  ALA762  ILE779  LEU786  VAL792 
 PHE793  MET794  SER795  GLU796  ALA797  LYS798  CYS799  TRP800  GLU811  SER814 

> <Gold.Protein.RotatedAtoms>
  150.8029  133.8566  159.3219 H   0  0  0  0  0  0  0  0  0  0  0  0  # atno 6907 bound_to 6896
  151.6373  135.1015  160.0143 H   0  0  0  0  0  0  0  0  0  0  0  0  # atno 6908 bound_to 6896
  152.4117  133.6934  159.6439 H   0  0  0  0  0  0  0  0  0  0  0  0  # atno 6909 bound_to 6896
  144.7135  140.1547  143.6381 H   0  0  0  0  0  0  0  0  0  0  0  0  # atno 7974 bound_to 7965
  155.5622  140.0626  157.2826 H   0  0  0  0  0  0  0  0  0  0  0  0  # atno 8008 bound_to 7997
  154.4387  140.1884  156.0839 H   0  0  0  0  0  0  0  0  0  0  0  0  # atno 8009 bound_to 7997
  156.0438  140.3292  155.7278 H   0  0  0  0  0  0  0  0  0  0  0  0  # atno 8010 bound_to 7997
  139.9183  143.6412  152.2559 H   0  0  0  0  0  0  0  0  0  0  0  0  # atno 10167 bound_to 10162
  157.5625  131.1088  150.8513 H   0  0  0  0  0  0  0  0  0  0  0  0  # atno 10718 bound_to 10713
  154.3312  135.6176  153.5552 H   0  0  0  0  0  0  0  0  0  0  0  0  # atno 10763 bound_to 10752
  152.9811  135.5747  154.4960 H   0  0  0  0  0  0  0  0  0  0  0  0  # atno 10764 bound_to 10752
  154.4646  135.2857  155.1664 H   0  0  0  0  0  0  0  0  0  0  0  0  # atno 10765 bound_to 10752
  141.1201  133.6612  156.4897 H   0  0  0  0  0  0  0  0  0  0  0  0  # atno 11005 bound_to 11000
  145.9085  139.2472  143.1452 LP  0  0  0  0  0  0  0  0  0  0  0  0  # atno 17320 bound_to 7965
  145.9740  140.8737  143.0148 LP  0  0  0  0  0  0  0  0  0  0  0  0  # atno 17321 bound_to 7965
  139.6883  144.7649  151.1484 LP  0  0  0  0  0  0  0  0  0  0  0  0  # atno 17342 bound_to 10162
  140.7668  143.5626  150.9083 LP  0  0  0  0  0  0  0  0  0  0  0  0  # atno 17343 bound_to 10162
  156.9007  130.5246  149.5283 LP  0  0  0  0  0  0  0  0  0  0  0  0  # atno 17370 bound_to 10713
  156.0676  130.5716  150.9319 LP  0  0  0  0  0  0  0  0  0  0  0  0  # atno 17371 bound_to 10713
  140.4533  134.6908  157.5050 LP  0  0  0  0  0  0  0  0  0  0  0  0  # atno 17394 bound_to 11000
  140.0151  134.6631  155.9322 LP  0  0  0  0  0  0  0  0  0  0  0  0  # atno 17395 bound_to 11000

$$$$
