AV-unprocessed.smi:1456|AV-procd|sdf|5918|dock4
  -GOLD-   22720 6 03D 1   1.00000     0.00000
 Structure written by MMmdl.
 41 42  0  0  0  0  0  0  0  0  3 V2000
  147.4624  136.5267  155.0318 C   0  0  0  0  0  0  0  0  0  0  0  0
  148.1433  137.8943  154.8013 C   0  0  0  0  0  0  0  0  0  0  0  0
  147.3374  138.6030  153.6949 C   0  0  0  0  0  0  0  0  0  0  0  0
  148.1116  138.7943  156.0641 C   0  0  0  0  0  0  0  0  0  0  0  0
  149.1710  138.4635  157.1270 C   0  0  0  0  0  0  0  0  0  0  0  0
  148.8146  137.2713  157.8919 N   0  0  0  0  0  0  0  0  0  0  0  0
  149.3912  136.8432  159.0231 C   0  0  0  0  0  0  0  0  0  0  0  0
  150.3023  137.4954  159.5370 O   0  0  0  0  0  0  0  0  0  0  0  0
  148.8796  135.6777  159.4780 N   0  5  0  0  0  0  0  0  0  0  0  0
  148.2181  135.6452  160.6460 C   0  0  0  0  0  0  0  0  0  0  0  0
  148.1105  136.7064  161.4534 N   0  0  0  0  0  0  0  0  0  0  0  0
  147.3734  136.4501  162.6112 C   0  0  0  0  0  0  0  0  0  0  0  0
  146.9008  135.1664  162.6819 C   0  0  0  0  0  0  0  0  0  0  0  0
  147.3697  134.2355  161.2881 S   0  0  0  0  0  0  0  0  0  0  0  0
  150.5650  138.3831  156.4754 C   0  0  0  0  0  0  0  0  0  0  0  0
  150.6556  137.4705  155.2264 C   0  0  0  0  0  0  0  0  0  0  0  0
  151.9545  137.8235  154.4758 C   0  0  0  0  0  0  0  0  0  0  0  0
  150.7543  135.9732  155.5948 C   0  0  0  0  0  0  0  0  0  0  0  0
  149.5316  137.7322  154.2835 N   0  3  0  0  0  0  0  0  0  0  0  0
  146.4054  136.6549  155.2685 H   0  0  0  0  0  0  0  0  0  0  0  0
  147.8868  135.9560  155.8509 H   0  0  0  0  0  0  0  0  0  0  0  0
  147.5192  135.9014  154.1401 H   0  0  0  0  0  0  0  0  0  0  0  0
  146.3053  138.7766  154.0026 H   0  0  0  0  0  0  0  0  0  0  0  0
  147.3103  138.0117  152.7786 H   0  0  0  0  0  0  0  0  0  0  0  0
  147.7688  139.5724  153.4417 H   0  0  0  0  0  0  0  0  0  0  0  0
  148.2824  139.8281  155.7590 H   0  0  0  0  0  0  0  0  0  0  0  0
  147.1160  138.7874  156.5105 H   0  0  0  0  0  0  0  0  0  0  0  0
  149.1808  139.2915  157.8384 H   0  0  0  0  0  0  0  0  0  0  0  0
  148.0653  136.7039  157.5236 H   0  0  0  0  0  0  0  0  0  0  0  0
  147.2336  137.2420  163.3318 H   0  0  0  0  0  0  0  0  0  0  0  0
  146.3083  134.7138  163.4625 H   0  0  0  0  0  0  0  0  0  0  0  0
  150.8325  139.3994  156.1817 H   0  0  0  0  0  0  0  0  0  0  0  0
  151.3188  138.0939  157.2088 H   0  0  0  0  0  0  0  0  0  0  0  0
  152.8309  137.6867  155.1107 H   0  0  0  0  0  0  0  0  0  0  0  0
  151.9551  138.8615  154.1405 H   0  0  0  0  0  0  0  0  0  0  0  0
  152.0893  137.1972  153.5928 H   0  0  0  0  0  0  0  0  0  0  0  0
  151.6709  135.7710  156.1505 H   0  0  0  0  0  0  0  0  0  0  0  0
  150.7724  135.3461  154.7027 H   0  0  0  0  0  0  0  0  0  0  0  0
  149.9423  135.6199  156.2213 H   0  0  0  0  0  0  0  0  0  0  0  0
  149.5334  137.0212  153.5663 H   0  0  0  0  0  0  0  0  0  0  0  0
  149.7552  138.6129  153.8430 H   0  0  0  0  0  0  0  0  0  0  0  0
  1  2  1  0  0  0  0
  1 20  1  0  0  0  0
  1 21  1  0  0  0  0
  1 22  1  0  0  0  0
  2 19  1  0  0  0  0
  2  3  1  0  0  0  0
  2  4  1  0  0  0  0
  3 23  1  0  0  0  0
  3 24  1  0  0  0  0
  3 25  1  0  0  0  0
  4  5  1  0  0  0  0
  4 26  1  0  0  0  0
  4 27  1  0  0  0  0
  5  6  1  0  0  0  0
  5 15  1  0  0  0  0
  5 28  1  0  0  0  0
  6  7  1  0  0  0  0
  6 29  1  0  0  0  0
  7  8  2  0  0  0  0
  7  9  1  0  0  0  0
  9 10  1  0  0  0  0
 10 14  1  0  0  0  0
 10 11  2  0  0  0  0
 11 12  1  0  0  0  0
 12 13  2  0  0  0  0
 12 30  1  0  0  0  0
 13 14  1  0  0  0  0
 13 31  1  0  0  0  0
 15 16  1  0  0  0  0
 15 32  1  0  0  0  0
 15 33  1  0  0  0  0
 16 17  1  0  0  0  0
 16 18  1  0  0  0  0
 16 19  1  0  0  0  0
 17 34  1  0  0  0  0
 17 35  1  0  0  0  0
 17 36  1  0  0  0  0
 18 37  1  0  0  0  0
 18 38  1  0  0  0  0
 18 39  1  0  0  0  0
 19 40  1  0  0  0  0
 19 41  1  0  0  0  0
M  CHG  1   9  -1
M  CHG  1  19   1
M  END
> <s_m_source_file>
AV-unprocessed.smi

> <i_m_source_file_index>
1456

> <i_lp_mmshare_version>
43012

> <i_f3d_flags>
0

> <s_epik_input>
W0NIM11DMShbQ0gzXSlbQ0gyXVtDSF0oW0NIMl1DKFtDSDNdKShbQ0gzXSlbTkhdMSlbTkhdQyg9TylbTkhdYzJuW2NIXVtjSF1zMg==

> <s_epik_cmdline>
J2VwaWtfcHl0aG9uJywgJy1waCcsICc3LjAnLCAnLXRuJywgJzgnLCAnLW1hJywgJzIwMCcsICctbWV0YWxfYmluZGluZycsICctaW1hZScsICc8aW5maWxlLm1hZT4nLCAnLW9tYWUnLCAnPG91dGZpbGUubWFlPic=

> <r_lp_tautomer_probability>
1

> <r_epik_Ionization_Penalty>
7.98581

> <r_epik_Ionization_Penalty_Charging>
6.48842

> <r_epik_Ionization_Penalty_Neutral>
1.49739

> <r_epik_State_Penalty>
6.48831

> <r_epik_Charging_Adjusted_Penalty>
12.9767

> <i_epik_Tot_Q>
0

> <i_epik_Tot_abs_Q>
2

> <r_epik_Metal_State_Penalty>
2.41622

> <b_epik_Metal_Only>
1

> <s_lp_Force_Field>
OPLS_2005

> <r_lp_Energy>
15.6093

> <b_lp_Chiralities_Consistent>
1

> <s_lp_Variant>
AV-unprocessed.smi:1456-2

> <Gold.Version>
5.8.1

> <Gold.Id.Protein>
6NUR|6NUR_protein|mol2

> <Gold.PLP.Fitness>
42.8072

> <Gold.PLP.PLP>
-29.2073

> <Gold.PLP.part.hbond>
-4.1214

> <Gold.PLP.part.metal>
0.0000

> <Gold.PLP.part.buried>
-6.0383

> <Gold.PLP.part.nonpolar>
-19.8692

> <Gold.PLP.part.repulsive>
0.0757

> <Gold.PLP.ligand.clash>
0.0000

> <Gold.PLP.ligand.torsion>
0.7164

> <Gold.PLP.Chemscore.Hbond>
5.0000

> <Gold.PLP.Chemscore.CHOScore>
0.0000

> <Gold.PLP.Chemscore.Metal>
0.0000

> <Gold.Chemscore.Hbonds>
donor molecule, donor type, donor heavy atom, donor atom, acceptor molecule, acceptor atom, score
      L1  H    19    40       P1  7948  2.00
      P1  H  6896  6909       L1     9  1.18
      P1  H  6931  6943       L1    11  1.00

> <Gold.PLP.Chemscore.Internal.Correction>
0.0326

> <Gold.Rescore>
     Score         DG    S(hbond)    S(metal)    S(lipo)     H(rot)  DE(clash)    DE(int)     intcor
     17.26     -18.17       2.67        0.00      54.18       1.00       0.02       0.89       ----

> <Gold.Chemscore.Fitness>
17.2628

> <Gold.Chemscore.DG>
-18.1706

> <Gold.Chemscore.ZeroCoef>
-5.4800

> <Gold.Chemscore.Hbond>
2.6683

> <Gold.Chemscore.Metal>
0.0000

> <Gold.Chemscore.Lipo>
54.1756

> <Gold.Chemscore.Internal_Hbond>
0.0000

> <Gold.Chemscore.DEClash>
0.0202

> <Gold.Chemscore.DEInternal>
0.8875

> <Gold.Chemscore.Rot>
1.0000

> <Gold.Chemscore.Internal.Correction>
   9.000000E+99

> <Gold.Chemscore.Hbonds>
donor molecule, donor type, donor heavy atom, donor atom, acceptor molecule, acceptor atom, score
      L1  H    19    40       P1  7948  0.83
      P1  H  6896  6909       L1     9  0.04
      P1  H  6931  6943       L1    11  0.35

> <Gold.Chemscore.Hbond.Weighted>
-8.9120

> <Gold.Chemscore.Metal.Weighted>
-0.0000

> <Gold.Chemscore.Lipo.Weighted>
-6.3385

> <Gold.Chemscore.Internal_Hbond.Weighted>
0.0000

> <Gold.Chemscore.DEClash.Weighted>
0.0202

> <Gold.Chemscore.DEInternal.Weighted>
0.8875

> <Gold.Chemscore.Rot.Weighted>
2.5600

> <Gold.Chemscore.Internal.Correction.Weighted>
   9.000000E+99

> <Gold.Protein.RotatedTorsions>
[ 6907 6896 6895 6894 ] final   63.87 input  -60.11 | X-H torsion
[ 7974 7965 7964 7962 ] final   -7.48 input  175.53 | X-H torsion
[ 8008 7997 7996 7995 ] final   88.31 input   59.86 | X-H torsion
[ 10167 10162 10161 10158 ] final -170.62 input  -65.29 | X-H torsion
[ 10718 10713 10712 10709 ] final  -57.63 input   66.30 | X-H torsion
[ 10763 10752 10751 10750 ] final   22.17 input  -60.55 | X-H torsion
[ 11005 11000 10999 10996 ] final  -92.60 input  -57.11 | X-H torsion

> <Gold.Protein.ActiveResidues>
 VAL166  LYS551  ARG553  GLY616  TRP617  ASP618  TYR619  PRO620  LYS621  CYS622 
 ASP623  PHE694  ASN695  SER759  ASP760  ASP761  ALA762  ILE779  LEU786  VAL792 
 PHE793  MET794  SER795  GLU796  ALA797  LYS798  CYS799  TRP800  GLU811  SER814 

> <Gold.Protein.RotatedAtoms>
  152.4287  134.5819  159.9949 H   0  0  0  0  0  0  0  0  0  0  0  0  # atno 6907 bound_to 6896
  151.5948  133.3357  159.3043 H   0  0  0  0  0  0  0  0  0  0  0  0  # atno 6908 bound_to 6896
  150.8178  134.7406  159.6811 H   0  0  0  0  0  0  0  0  0  0  0  0  # atno 6909 bound_to 6896
  146.2306  140.2325  142.8340 H   0  0  0  0  0  0  0  0  0  0  0  0  # atno 7974 bound_to 7965
  155.9862  140.3373  155.6710 H   0  0  0  0  0  0  0  0  0  0  0  0  # atno 8008 bound_to 7997
  155.6482  140.0702  157.2614 H   0  0  0  0  0  0  0  0  0  0  0  0  # atno 8009 bound_to 7997
  154.4206  140.1730  156.1633 H   0  0  0  0  0  0  0  0  0  0  0  0  # atno 8010 bound_to 7997
  139.5851  144.1336  152.1565 H   0  0  0  0  0  0  0  0  0  0  0  0  # atno 10167 bound_to 10162
  156.1196  130.4167  150.0467 H   0  0  0  0  0  0  0  0  0  0  0  0  # atno 10718 bound_to 10713
  153.0937  135.6654  153.9805 H   0  0  0  0  0  0  0  0  0  0  0  0  # atno 10763 bound_to 10752
  153.9395  135.2995  155.3444 H   0  0  0  0  0  0  0  0  0  0  0  0  # atno 10764 bound_to 10752
  154.7353  135.5104  153.9105 H   0  0  0  0  0  0  0  0  0  0  0  0  # atno 10765 bound_to 10752
  141.1518  133.7832  157.0043 H   0  0  0  0  0  0  0  0  0  0  0  0  # atno 11005 bound_to 11000
  144.9547  140.8214  143.5550 LP  0  0  0  0  0  0  0  0  0  0  0  0  # atno 17320 bound_to 7965
  145.2290  139.2124  143.5053 LP  0  0  0  0  0  0  0  0  0  0  0  0  # atno 17321 bound_to 7965
  140.0898  144.5630  150.7063 LP  0  0  0  0  0  0  0  0  0  0  0  0  # atno 17342 bound_to 10162
  140.7124  143.2516  151.4540 LP  0  0  0  0  0  0  0  0  0  0  0  0  # atno 17343 bound_to 10162
  156.8409  130.9425  151.3632 LP  0  0  0  0  0  0  0  0  0  0  0  0  # atno 17370 bound_to 10713
  157.6379  130.8782  149.9394 LP  0  0  0  0  0  0  0  0  0  0  0  0  # atno 17371 bound_to 10713
  140.0920  134.9587  157.1790 LP  0  0  0  0  0  0  0  0  0  0  0  0  # atno 17394 bound_to 11000
  140.3434  134.2679  155.7209 LP  0  0  0  0  0  0  0  0  0  0  0  0  # atno 17395 bound_to 11000

$$$$
