AV-unprocessed.smi:2624|AV-procd|sdf|10233|dock4
  -GOLD-   2272014243D 1   1.00000     0.00000
 Structure written by MMmdl.
 39 40  0  0  0  0  0  0  0  0  1 V2000
  148.7671  140.7223  152.8244 C   0  0  0  0  0  0  0  0  0  0  0  0
  149.8646  141.4469  153.3519 O   0  0  0  0  0  0  0  0  0  0  0  0
  150.4992  140.7681  154.4219 C   0  0  0  0  0  0  0  0  0  0  0  0
  149.5336  140.7110  155.6149 C   0  0  0  0  0  0  0  0  0  0  0  0
  150.1216  139.9856  156.7489 N   0  0  0  0  0  0  0  0  0  0  0  0
  151.2319  140.5806  157.3786 C   0  0  0  0  0  0  0  0  0  0  0  0
  151.8490  140.0120  158.4312 C   0  0  0  0  0  0  0  0  0  0  0  0
  153.0137  140.6722  159.0681 C   0  0  0  0  0  0  0  0  0  0  0  0
  154.1198  140.1305  159.0864 O   0  0  0  0  0  0  0  0  0  0  0  0
  152.8140  142.0048  159.7092 C   0  0  0  0  0  0  0  0  0  0  0  0
  152.8323  142.0678  161.1210 C   0  0  0  0  0  0  0  0  0  0  0  0
  152.6359  143.2915  161.7917 C   0  0  0  0  0  0  0  0  0  0  0  0
  152.6457  143.3343  163.3057 C   0  0  0  0  0  0  0  0  0  0  0  0
  152.4240  144.4689  161.0490 C   0  0  0  0  0  0  0  0  0  0  0  0
  152.4199  144.4222  159.6430 C   0  0  0  0  0  0  0  0  0  0  0  0
  152.6186  143.2013  158.9675 C   0  0  0  0  0  0  0  0  0  0  0  0
  152.6442  143.2190  157.6002 O   0  0  0  0  0  0  0  0  0  0  0  0
  151.3437  138.7366  158.9002 C   0  0  0  0  0  0  0  0  0  0  0  0
  150.2871  138.1578  158.2961 C   0  0  0  0  0  0  0  0  0  0  0  0
  149.7763  136.9030  158.7395 C   0  0  0  0  0  0  0  0  0  0  0  0
  149.3508  135.8959  159.1193 N   0  0  0  0  0  0  0  0  0  0  0  0
  149.6105  138.7822  157.1505 C   0  0  0  0  0  0  0  0  0  0  0  0
  148.6493  138.2616  156.5818 O   0  0  0  0  0  0  0  0  0  0  0  0
  148.3179  141.2827  152.0047 H   0  0  0  0  0  0  0  0  0  0  0  0
  147.9995  140.5621  153.5826 H   0  0  0  0  0  0  0  0  0  0  0  0
  149.0837  139.7537  152.4359 H   0  0  0  0  0  0  0  0  0  0  0  0
  150.7772  139.7603  154.1090 H   0  0  0  0  0  0  0  0  0  0  0  0
  151.4146  141.2911  154.7041 H   0  0  0  0  0  0  0  0  0  0  0  0
  149.2662  141.7254  155.9146 H   0  0  0  0  0  0  0  0  0  0  0  0
  148.5922  140.2505  155.3099 H   0  0  0  0  0  0  0  0  0  0  0  0
  151.5396  141.5248  156.9508 H   0  0  0  0  0  0  0  0  0  0  0  0
  152.9870  141.1684  161.7007 H   0  0  0  0  0  0  0  0  0  0  0  0
  152.8115  144.3484  163.6708 H   0  0  0  0  0  0  0  0  0  0  0  0
  153.4383  142.6990  163.7023 H   0  0  0  0  0  0  0  0  0  0  0  0
  151.6921  142.9801  163.6978 H   0  0  0  0  0  0  0  0  0  0  0  0
  152.2704  145.4118  161.5534 H   0  0  0  0  0  0  0  0  0  0  0  0
  152.2705  145.3333  159.0817 H   0  0  0  0  0  0  0  0  0  0  0  0
  151.8564  142.8721  157.2103 H   0  0  0  0  0  0  0  0  0  0  0  0
  151.8134  138.2345  159.7338 H   0  0  0  0  0  0  0  0  0  0  0  0
  1  2  1  0  0  0  0
  1 24  1  0  0  0  0
  1 25  1  0  0  0  0
  1 26  1  0  0  0  0
  2  3  1  0  0  0  0
  3  4  1  0  0  0  0
  3 27  1  0  0  0  0
  3 28  1  0  0  0  0
  4  5  1  0  0  0  0
  4 29  1  0  0  0  0
  4 30  1  0  0  0  0
  5 22  1  0  0  0  0
  5  6  1  0  0  0  0
  6  7  2  0  0  0  0
  6 31  1  0  0  0  0
  7  8  1  0  0  0  0
  7 18  1  0  0  0  0
  8  9  2  0  0  0  0
  8 10  1  0  0  0  0
 10 16  1  0  0  0  0
 10 11  2  0  0  0  0
 11 12  1  0  0  0  0
 11 32  1  0  0  0  0
 12 13  1  0  0  0  0
 12 14  2  0  0  0  0
 13 33  1  0  0  0  0
 13 34  1  0  0  0  0
 13 35  1  0  0  0  0
 14 15  1  0  0  0  0
 14 36  1  0  0  0  0
 15 16  2  0  0  0  0
 15 37  1  0  0  0  0
 16 17  1  0  0  0  0
 17 38  1  0  0  0  0
 18 19  2  0  0  0  0
 18 39  1  0  0  0  0
 19 20  1  0  0  0  0
 19 22  1  0  0  0  0
 20 21  3  0  0  0  0
 22 23  2  0  0  0  0
M  END
> <s_m_source_file>
AV-unprocessed.smi

> <i_m_source_file_index>
2624

> <i_lp_mmshare_version>
43012

> <i_f3d_flags>
0

> <s_epik_input>
W0NIM11PW0NIMl1bQ0gyXW4xW2NIXWMoW2NIXWMoQyNOKWMxPU8pQyg9TyljMltjSF1jKFtDSDNdKVtjSF1bY0hdYzJbT0hd

> <s_epik_cmdline>
J2VwaWtfcHl0aG9uJywgJy1waCcsICc3LjAnLCAnLXRuJywgJzgnLCAnLW1hJywgJzIwMCcsICctbWV0YWxfYmluZGluZycsICctaW1hZScsICc8aW5maWxlLm1hZT4nLCAnLW9tYWUnLCAnPG91dGZpbGUubWFlPic=

> <r_epik_Ionization_Penalty>
0.124493

> <r_epik_Ionization_Penalty_Charging>
5.62591e-11

> <r_epik_Ionization_Penalty_Neutral>
0.124493

> <r_epik_State_Penalty>
0.113971

> <r_epik_Charging_Adjusted_Penalty>
0.113971

> <i_epik_Tot_Q>
0

> <i_epik_Tot_abs_Q>
0

> <r_epik_Metal_State_Penalty>
0.113971

> <b_epik_Metal_Only>
0

> <s_lp_Force_Field>
OPLS_2005

> <r_lp_Energy>
23.5595

> <b_lp_Chiralities_Consistent>
1

> <s_lp_Variant>
AV-unprocessed.smi:2624-1

> <Gold.Version>
5.8.1

> <Gold.Id.Protein>
6NUR|6NUR_protein|mol2

> <Gold.PLP.Fitness>
47.8798

> <Gold.PLP.PLP>
-44.2082

> <Gold.PLP.part.hbond>
-3.0000

> <Gold.PLP.part.metal>
0.0000

> <Gold.PLP.part.buried>
-2.2879

> <Gold.PLP.part.nonpolar>
-38.5512

> <Gold.PLP.part.repulsive>
0.1904

> <Gold.PLP.ligand.clash>
0.0000

> <Gold.PLP.ligand.torsion>
2.5905

> <Gold.PLP.Chemscore.Hbond>
2.3760

> <Gold.PLP.Chemscore.CHOScore>
0.0000

> <Gold.PLP.Chemscore.Metal>
0.0000

> <Gold.Chemscore.Hbonds>
donor molecule, donor type, donor heavy atom, donor atom, acceptor molecule, acceptor atom, score
      P1  H  6896  6908       L1    21  1.00
      P1  H  7997  8008       L1     9  0.94
      P1  H  8011  8017       L1     2  0.39

> <Gold.PLP.Chemscore.Internal.Correction>
1.7246

> <Gold.Rescore>
     Score         DG    S(hbond)    S(metal)    S(lipo)     H(rot)  DE(clash)    DE(int)     intcor
     16.99     -21.07       2.09        0.00     116.11       1.94       0.23       3.85       ----

> <Gold.Chemscore.Fitness>
16.9946

> <Gold.Chemscore.DG>
-21.0700

> <Gold.Chemscore.ZeroCoef>
-5.4800

> <Gold.Chemscore.Hbond>
2.0879

> <Gold.Chemscore.Metal>
0.0000

> <Gold.Chemscore.Lipo>
116.1075

> <Gold.Chemscore.Internal_Hbond>
0.0000

> <Gold.Chemscore.DEClash>
0.2251

> <Gold.Chemscore.DEInternal>
3.8503

> <Gold.Chemscore.Rot>
1.9407

> <Gold.Chemscore.Internal.Correction>
   9.000000E+99

> <Gold.Chemscore.Hbonds>
donor molecule, donor type, donor heavy atom, donor atom, acceptor molecule, acceptor atom, score
      P1  H  6896  6908       L1    21  0.82
      P1  H  7997  8008       L1     9  0.62
      P1  H  8011  8017       L1     2  0.03

> <Gold.Chemscore.Hbond.Weighted>
-6.9737

> <Gold.Chemscore.Metal.Weighted>
-0.0000

> <Gold.Chemscore.Lipo.Weighted>
-13.5846

> <Gold.Chemscore.Internal_Hbond.Weighted>
0.0000

> <Gold.Chemscore.DEClash.Weighted>
0.2251

> <Gold.Chemscore.DEInternal.Weighted>
3.8503

> <Gold.Chemscore.Rot.Weighted>
4.9682

> <Gold.Chemscore.Internal.Correction.Weighted>
   9.000000E+99

> <Gold.Protein.RotatedTorsions>
[ 6907 6896 6895 6894 ] final  176.12 input  -60.11 | X-H torsion
[ 7974 7965 7964 7962 ] final  -86.56 input  175.53 | X-H torsion
[ 8008 7997 7996 7995 ] final -102.98 input   59.86 | X-H torsion
[ 10167 10162 10161 10158 ] final  100.28 input  -65.29 | X-H torsion
[ 10718 10713 10712 10709 ] final   70.00 input   66.30 | X-H torsion
[ 10763 10752 10751 10750 ] final   73.02 input  -60.55 | X-H torsion
[ 11005 11000 10999 10996 ] final    6.02 input  -57.11 | X-H torsion

> <Gold.Protein.ActiveResidues>
 VAL166  LYS551  ARG553  GLY616  TRP617  ASP618  TYR619  PRO620  LYS621  CYS622 
 ASP623  PHE694  ASN695  SER759  ASP760  ASP761  ALA762  ILE779  LEU786  VAL792 
 PHE793  MET794  SER795  GLU796  ALA797  LYS798  CYS799  TRP800  GLU811  SER814 

> <Gold.Protein.RotatedAtoms>
  151.7253  133.3316  159.3325 H   0  0  0  0  0  0  0  0  0  0  0  0  # atno 6907 bound_to 6896
  150.7635  134.6412  159.6247 H   0  0  0  0  0  0  0  0  0  0  0  0  # atno 6908 bound_to 6896
  152.3626  134.6852  160.0254 H   0  0  0  0  0  0  0  0  0  0  0  0  # atno 6909 bound_to 6896
  145.4782  140.9558  143.1879 H   0  0  0  0  0  0  0  0  0  0  0  0  # atno 7974 bound_to 7965
  154.8643  140.0425  157.1685 H   0  0  0  0  0  0  0  0  0  0  0  0  # atno 8008 bound_to 7997
  154.8806  140.2972  155.5407 H   0  0  0  0  0  0  0  0  0  0  0  0  # atno 8009 bound_to 7997
  156.2999  140.2412  156.3808 H   0  0  0  0  0  0  0  0  0  0  0  0  # atno 8010 bound_to 7997
  139.7541  144.6975  151.0388 H   0  0  0  0  0  0  0  0  0  0  0  0  # atno 10167 bound_to 10162
  157.6376  130.9455  150.0591 H   0  0  0  0  0  0  0  0  0  0  0  0  # atno 10718 bound_to 10713
  153.0495  135.5078  154.7831 H   0  0  0  0  0  0  0  0  0  0  0  0  # atno 10763 bound_to 10752
  154.6705  135.2952  154.9751 H   0  0  0  0  0  0  0  0  0  0  0  0  # atno 10764 bound_to 10752
  154.0571  135.6696  153.4860 H   0  0  0  0  0  0  0  0  0  0  0  0  # atno 10765 bound_to 10752
  140.5641  134.0164  155.7983 H   0  0  0  0  0  0  0  0  0  0  0  0  # atno 11005 bound_to 11000
  144.7904  139.6339  143.7115 LP  0  0  0  0  0  0  0  0  0  0  0  0  # atno 17320 bound_to 7965
  146.2356  139.5899  142.9526 LP  0  0  0  0  0  0  0  0  0  0  0  0  # atno 17321 bound_to 7965
  140.7801  143.4774  151.0064 LP  0  0  0  0  0  0  0  0  0  0  0  0  # atno 17342 bound_to 10162
  139.8461  143.7500  152.3179 LP  0  0  0  0  0  0  0  0  0  0  0  0  # atno 17343 bound_to 10162
  156.1629  130.3644  149.9273 LP  0  0  0  0  0  0  0  0  0  0  0  0  # atno 17370 bound_to 10713
  156.7267  130.9027  151.3622 LP  0  0  0  0  0  0  0  0  0  0  0  0  # atno 17371 bound_to 10713
  141.1096  133.9637  157.2934 LP  0  0  0  0  0  0  0  0  0  0  0  0  # atno 17394 bound_to 11000
  139.9393  135.0193  156.8658 LP  0  0  0  0  0  0  0  0  0  0  0  0  # atno 17395 bound_to 11000

$$$$
