#       Name:                AV-unprocessed.smi:686
#       Creating user name   scv26
#       Creation time:       Fri Mar 27 00:32:09 2020


#       File generated by GOLD software.
#

@<TRIPOS>MOLECULE
AV-unprocessed.smi:686
    44    45     1
SMALL
NO_CHARGES


@<TRIPOS>ATOM
      1 ****        -0.6883  -1.3283  -2.8326 C.3            1 S1                 0.0000
      2 ****        -0.1391  -1.5799  -1.4149 C.3            1 S1                 0.0000
      3 ****        -1.1085  -2.3512  -0.5170 C.3            1 S1                 0.0000
      4 ****        -0.6198  -2.1192   0.8598 N.4            1 S1                 1.0000
      5 ****        -1.6068  -2.3728   1.9479 C.3            1 S1                 0.0000
      6 ****        -0.9595  -2.2052   3.3357 C.3            1 S1                 0.0000
      7 ****        -2.2287  -3.7777   1.8362 C.3            1 S1                 0.0000
      8 ****         0.0111  -0.7753   0.8759 C.3            1 S1                 0.0000
      9 ****         0.1605  -0.3187  -0.5879 C.3            1 S1                 0.0000
     10 ****         1.4972   0.1918  -0.8674 N.pl3          1 S1                -1.0000
     11 ****         1.9693   1.6621  -0.3524 S.o2           1 S1                 0.0000
     12 ****         1.4440   2.0193   0.9769 O.2            1 S1                 0.0000
     13 ****         3.4124   1.8536  -0.5604 O.2            1 S1                 0.0000
     14 ****         1.1412   2.7885  -1.5655 C.3            1 S1                 0.0000
     15 ****         1.6359   4.1967  -1.3843 C.2            1 S1                 0.0000
     16 ****         1.4529   5.0649  -0.2720 C.2            1 S1                 0.0000
     17 ****         2.1016   6.2058  -0.6467 C.2            1 S1                 0.0000
     18 ****         2.6326   6.0648  -1.8872 O.3            1 S1                 0.0000
     19 ****         2.3272   4.7803  -2.3513 N.2            1 S1                 0.0000
     20 ****        -1.6199  -0.7593  -2.8219 H              1 S1                 0.0000
     21 ****        -0.8947  -2.2741  -3.3339 H              1 S1                 0.0000
     22 ****         0.0274  -0.7865  -3.4537 H              1 S1                 0.0000
     23 ****         0.7724  -2.1759  -1.4987 H              1 S1                 0.0000
     24 ****        -2.1310  -1.9778  -0.6227 H              1 S1                 0.0000
     25 ****        -1.1188  -3.4144  -0.7599 H              1 S1                 0.0000
     26 ****        -2.4094  -1.6396   1.8534 H              1 S1                 0.0000
     27 ****        -1.6781  -2.4126   4.1292 H              1 S1                 0.0000
     28 ****        -0.5928  -1.1919   3.4992 H              1 S1                 0.0000
     29 ****        -0.1192  -2.8882   3.4653 H              1 S1                 0.0000
     30 ****        -2.9126  -3.9679   2.6639 H              1 S1                 0.0000
     31 ****        -1.4626  -4.5536   1.8571 H              1 S1                 0.0000
     32 ****        -2.8050  -3.8985   0.9190 H              1 S1                 0.0000
     33 ****        -0.6001  -0.0516   1.4174 H              1 S1                 0.0000
     34 ****         0.9679  -0.8480   1.3956 H              1 S1                 0.0000
     35 ****        -0.6156   0.4185  -0.7979 H              1 S1                 0.0000
     36 ****         1.3557   2.4208  -2.5695 H              1 S1                 0.0000
     37 ****         0.0635   2.7377  -1.4161 H              1 S1                 0.0000
     38 ****         0.9347   4.8757   0.6564 H              1 S1                 0.0000
     39 ****         2.2646   7.1588  -0.1657 H              1 S1                 0.0000
     40 ****         0.1388  -2.7730   0.9899 H              1 S1                 0.0000
     41 ****         2.1380  -0.3735  -1.3868 LP             1 S1                 0.0000
     42 ****         3.6248   6.1827  -1.8459 LP             1 S1                 0.0000
     43 ****         2.2410   6.7489  -2.5026 LP             1 S1                 0.0000
     44 ****         2.5797   4.3838  -3.2339 LP             1 S1                 0.0000
@<TRIPOS>BOND
    1    1    2 1     
    2    1   20 1     
    3    1   21 1     
    4    1   22 1     
    5    2    9 1     
    6    2    3 1     
    7    2   23 1     
    8    3    4 1     
    9    3   24 1     
   10    3   25 1     
   11    4    5 1     
   12    4    8 1     
   13    4   40 1     
   14    5    6 1     
   15    5    7 1     
   16    5   26 1     
   17    6   27 1     
   18    6   28 1     
   19    6   29 1     
   20    7   30 1     
   21    7   31 1     
   22    7   32 1     
   23    8    9 1     
   24    8   33 1     
   25    8   34 1     
   26    9   10 1     
   27    9   35 1     
   28   10   11 1     
   29   11   12 2     
   30   11   13 2     
   31   11   14 1     
   32   14   15 1     
   33   14   36 1     
   34   14   37 1     
   35   15   19 2     
   36   15   16 1     
   37   16   17 2     
   38   16   38 1     
   39   17   18 1     
   40   17   39 1     
   41   18   19 1     
   42   10   41 1     
   43   18   42 1     
   44   18   43 1     
   45   19   44 1     
@<TRIPOS>SUBSTRUCTURE
      1 S1             1
@<TRIPOS>SET
LONE_PAIRS      STATIC     ATOMS    <user>   **** ""
6 41 12 13 42 43 44
DONOR_HYDROGENS      STATIC     ATOMS    <user>   **** ""
1 40
ATOM$BLUE        STATIC     ATOMS    COLORGROUP SYSTEM
6 41 12 13 42 43 44
ATOM$RED        STATIC     ATOMS    COLORGROUP SYSTEM
1 40
