#       Name:                AV-unprocessed.smi:2803
#       Creating user name   scv26
#       Creation time:       Fri Mar 27 15:24:30 2020


#       File generated by GOLD software.
#

@<TRIPOS>MOLECULE
AV-unprocessed.smi:2803
    48    49     1
SMALL
NO_CHARGES


@<TRIPOS>ATOM
      1 ****        -3.2035  -0.0143  -1.8872 C.3            1 S1                 0.0000
      2 ****        -2.9908   1.4556  -1.4724 C.3            1 S1                 0.0000
      3 ****        -3.3118   2.2959  -2.6408 C.1            1 S1                 0.0000
      4 ****        -3.5608   2.9550  -3.5591 N.1            1 S1                 0.0000
      5 ****        -1.5786   1.6808  -1.1534 N.am           1 S1                 0.0000
      6 ****        -0.8546   1.1357  -0.1618 C.2            1 S1                 0.0000
      7 ****        -1.3096   0.3354   0.6557 O.2            1 S1                 0.0000
      8 ****         0.6072   1.5933  -0.0752 C.3            1 S1                 0.0000
      9 ****         1.4825   0.6012   0.5517 N.am           1 S1                 0.0000
     10 ****         1.9648   0.7212   1.8320 C.2            1 S1                 0.0000
     11 ****         2.7114  -0.2762   2.1562 N.2            1 S1                 0.0000
     12 ****         2.7032  -1.0628   1.0385 N.am           1 S1                 0.0000
     13 ****         3.4689  -2.3355   1.0172 C.3            1 S1                 0.0000
     14 ****         2.5042  -3.5179   0.7814 C.3            1 S1                 0.0000
     15 ****         4.2114  -2.5872   2.3533 C.3            1 S1                 0.0000
     16 ****         4.5252  -2.2880  -0.1083 C.3            1 S1                 0.0000
     17 ****         1.9527  -0.5370   0.0506 C.2            1 S1                 0.0000
     18 ****         1.7398  -0.9922  -1.0731 O.2            1 S1                 0.0000
     19 ****        -3.9344   1.8072  -0.3173 C.3            1 S1                 0.0000
     20 ****        -5.3815   2.1895  -0.5369 C.3            1 S1                 0.0000
     21 ****        -4.3923   3.2214  -0.0410 C.3            1 S1                 0.0000
     22 ****        -4.2243  -0.1766  -2.2354 H              1 S1                 0.0000
     23 ****        -3.0337  -0.7041  -1.0605 H              1 S1                 0.0000
     24 ****        -2.5333  -0.2981  -2.6992 H              1 S1                 0.0000
     25 ****        -1.0977   2.3298  -1.7596 H              1 S1                 0.0000
     26 ****         0.9823   1.8043  -1.0783 H              1 S1                 0.0000
     27 ****         0.6435   2.5374   0.4708 H              1 S1                 0.0000
     28 ****         1.6956   1.5910   2.4337 H              1 S1                 0.0000
     29 ****         3.0335  -4.4708   0.8134 H              1 S1                 0.0000
     30 ****         2.0113  -3.4625  -0.1889 H              1 S1                 0.0000
     31 ****         1.7260  -3.5500   1.5448 H              1 S1                 0.0000
     32 ****         3.5198  -2.6552   3.1941 H              1 S1                 0.0000
     33 ****         4.9294  -1.7956   2.5720 H              1 S1                 0.0000
     34 ****         4.7693  -3.5238   2.3238 H              1 S1                 0.0000
     35 ****         5.1390  -3.1892  -0.1111 H              1 S1                 0.0000
     36 ****         5.1954  -1.4366   0.0151 H              1 S1                 0.0000
     37 ****         4.0730  -2.2108  -1.0969 H              1 S1                 0.0000
     38 ****        -3.7699   1.1966   0.5681 H              1 S1                 0.0000
     39 ****        -5.7429   2.2901  -1.5581 H              1 S1                 0.0000
     40 ****        -6.1118   1.8121   0.1760 H              1 S1                 0.0000
     41 ****        -4.4646   3.5272   1.0005 H              1 S1                 0.0000
     42 ****        -4.0937   4.0057  -0.7334 H              1 S1                 0.0000
     43 ****        -3.7759   3.5244  -4.3525 LP             1 S1                 0.0000
     44 ****        -2.2687   0.0574   0.6027 LP             1 S1                 0.0000
     45 ****        -0.7200  -0.0367   1.3726 LP             1 S1                 0.0000
     46 ****         3.1856  -0.4375   3.0217 LP             1 S1                 0.0000
     47 ****         1.1585  -0.4907  -1.7139 LP             1 S1                 0.0000
     48 ****         2.1482  -1.8636  -1.3453 LP             1 S1                 0.0000
@<TRIPOS>BOND
    1    1    2 1     
    2    1   22 1     
    3    1   23 1     
    4    1   24 1     
    5    2    3 1     
    6    2    5 1     
    7    2   19 1     
    8    3    4 3     
    9    5    6 am    
   10    5   25 1     
   11    6    7 2     
   12    6    8 1     
   13    8    9 1     
   14    8   26 1     
   15    8   27 1     
   16    9   17 am    
   17    9   10 1     
   18   10   11 2     
   19   10   28 1     
   20   11   12 1     
   21   12   13 1     
   22   12   17 am    
   23   13   14 1     
   24   13   15 1     
   25   13   16 1     
   26   14   29 1     
   27   14   30 1     
   28   14   31 1     
   29   15   32 1     
   30   15   33 1     
   31   15   34 1     
   32   16   35 1     
   33   16   36 1     
   34   16   37 1     
   35   17   18 2     
   36   19   21 1     
   37   19   20 1     
   38   19   38 1     
   39   20   21 1     
   40   20   39 1     
   41   20   40 1     
   42   21   41 1     
   43   21   42 1     
   44    4   43 1     
   45    7   44 1     
   46    7   45 1     
   47   11   46 1     
   48   18   47 1     
   49   18   48 1     
@<TRIPOS>SUBSTRUCTURE
      1 S1             1
@<TRIPOS>SET
LONE_PAIRS      STATIC     ATOMS    <user>   **** ""
6 43 44 45 46 47 48
DONOR_HYDROGENS      STATIC     ATOMS    <user>   **** ""
1 25
ATOM$BLUE        STATIC     ATOMS    COLORGROUP SYSTEM
6 43 44 45 46 47 48
ATOM$RED        STATIC     ATOMS    COLORGROUP SYSTEM
1 25
