AV-unprocessed.smi:3068|AV-procd|sdf|11699|dock6
  -GOLD-   2272017103D 1   1.00000     0.00000
 Structure written by MMmdl.
 40 42  0  0  0  0  0  0  0  0  2 V2000
  153.2962  138.8337  154.9520 N   0  0  0  0  0  0  0  0  0  0  0  0
  152.1872  139.1394  154.8261 C   0  0  0  0  0  0  0  0  0  0  0  0
  150.7905  139.5246  154.6693 C   0  0  0  0  0  0  0  0  0  0  0  0
  150.4783  140.8100  154.9540 N   0  0  0  0  0  0  0  0  0  0  0  0
  149.1882  141.1800  154.8085 C   0  0  0  0  0  0  0  0  0  0  0  0
  148.2037  140.2693  154.3782 C   0  0  0  0  0  0  0  0  0  0  0  0
  148.5055  138.9847  154.0922 N   0  0  0  0  0  0  0  0  0  0  0  0
  149.7988  138.6004  154.2339 C   0  0  0  0  0  0  0  0  0  0  0  0
  150.1269  137.2657  153.9369 N   0  0  0  0  0  0  0  0  0  0  0  0
  150.8678  136.4452  154.8845 C   0  0  0  0  0  0  0  0  0  0  0  0
  149.9211  135.6735  155.8251 C   0  0  1  0  0  0  0  0  0  0  0  0
  148.5072  135.4911  155.2420 C   0  0  0  0  0  0  0  0  0  0  0  0
  148.5040  134.5137  154.1279 N   0  3  2  0  0  0  0  0  0  0  0  0
  147.1547  134.3526  153.5283 C   0  0  0  0  0  0  0  0  0  0  0  0
  147.1923  133.4020  152.3213 C   0  0  0  0  0  0  0  0  0  0  0  0
  147.7825  132.0429  152.7170 C   0  0  0  0  0  0  0  0  0  0  0  0
  149.1646  132.2385  153.3539 C   0  0  0  0  0  0  0  0  0  0  0  0
  149.1027  133.2166  154.5446 C   0  0  1  0  0  0  0  0  0  0  0  0
  150.5036  133.4484  155.1421 C   0  0  0  0  0  0  0  0  0  0  0  0
  150.4426  134.3984  156.2007 O   0  0  0  0  0  0  0  0  0  0  0  0
  148.9410  142.2065  155.0353 H   0  0  0  0  0  0  0  0  0  0  0  0
  147.1735  140.5717  154.2625 H   0  0  0  0  0  0  0  0  0  0  0  0
  149.7504  136.8307  153.1062 H   0  0  0  0  0  0  0  0  0  0  0  0
  151.4734  135.7356  154.3194 H   0  0  0  0  0  0  0  0  0  0  0  0
  151.5632  137.0647  155.4508 H   0  0  0  0  0  0  0  0  0  0  0  0
  149.8262  136.2545  156.7434 H   0  0  0  0  0  0  0  0  0  0  0  0
  147.8333  135.1395  156.0248 H   0  0  0  0  0  0  0  0  0  0  0  0
  148.1168  136.4497  154.8979 H   0  0  0  0  0  0  0  0  0  0  0  0
  146.4625  133.9727  154.2819 H   0  0  0  0  0  0  0  0  0  0  0  0
  146.7768  135.3259  153.2131 H   0  0  0  0  0  0  0  0  0  0  0  0
  146.1871  133.2687  151.9204 H   0  0  0  0  0  0  0  0  0  0  0  0
  147.7891  133.8446  151.5226 H   0  0  0  0  0  0  0  0  0  0  0  0
  147.1179  131.5410  153.4214 H   0  0  0  0  0  0  0  0  0  0  0  0
  147.8583  131.3955  151.8427 H   0  0  0  0  0  0  0  0  0  0  0  0
  149.5574  131.2751  153.6809 H   0  0  0  0  0  0  0  0  0  0  0  0
  149.8591  132.6154  152.6015 H   0  0  0  0  0  0  0  0  0  0  0  0
  148.4661  132.7847  155.3193 H   0  0  0  0  0  0  0  0  0  0  0  0
  150.8955  132.5142  155.5451 H   0  0  0  0  0  0  0  0  0  0  0  0
  151.2116  133.7711  154.3785 H   0  0  0  0  0  0  0  0  0  0  0  0
  149.1008  134.8913  153.4057 H   0  0  0  0  0  0  0  0  0  0  0  0
  1  2  3  0  0  0  0
  2  3  1  0  0  0  0
  3  8  1  0  0  0  0
  3  4  2  0  0  0  0
  4  5  1  0  0  0  0
  5  6  2  0  0  0  0
  5 21  1  0  0  0  0
  6  7  1  0  0  0  0
  6 22  1  0  0  0  0
  7  8  2  0  0  0  0
  8  9  1  0  0  0  0
  9 10  1  0  0  0  0
  9 23  1  0  0  0  0
 10 11  1  0  0  0  0
 10 24  1  0  0  0  0
 10 25  1  0  0  0  0
 11 20  1  0  0  0  0
 11 12  1  0  0  0  0
 11 26  1  0  0  0  0
 12 13  1  0  0  0  0
 12 27  1  0  0  0  0
 12 28  1  0  0  0  0
 13 18  1  0  0  0  0
 13 14  1  0  0  0  0
 13 40  1  0  0  0  0
 14 15  1  0  0  0  0
 14 29  1  0  0  0  0
 14 30  1  0  0  0  0
 15 16  1  0  0  0  0
 15 31  1  0  0  0  0
 15 32  1  0  0  0  0
 16 17  1  0  0  0  0
 16 33  1  0  0  0  0
 16 34  1  0  0  0  0
 17 18  1  0  0  0  0
 17 35  1  0  0  0  0
 17 36  1  0  0  0  0
 18 19  1  0  0  0  0
 18 37  1  0  0  0  0
 19 20  1  0  0  0  0
 19 38  1  0  0  0  0
 19 39  1  0  0  0  0
M  CHG  1  13   1
M  END
> <s_m_source_file>
AV-unprocessed.smi

> <i_m_source_file_index>
3068

> <i_lp_mmshare_version>
43012

> <i_f3d_flags>
0

> <s_epik_input>
TiNDYzFuW2NIXVtjSF1uYzFbTkhdW0NIMl1bQ0BIXShbQ0gyXTIpT1tDSDJdW0NAQEhdKE4yMylbQ0gyXVtDSDJdW0NIMl1bQ0gyXTM=

> <s_epik_cmdline>
J2VwaWtfcHl0aG9uJywgJy1waCcsICc3LjAnLCAnLXRuJywgJzgnLCAnLW1hJywgJzIwMCcsICctbWV0YWxfYmluZGluZycsICctaW1hZScsICc8aW5maWxlLm1hZT4nLCAnLW9tYWUnLCAnPG91dGZpbGUubWFlPic=

> <r_epik_Ionization_Penalty>
0.0804321

> <r_epik_Ionization_Penalty_Charging>
0.0803403

> <r_epik_Ionization_Penalty_Neutral>
9.17277e-05

> <r_epik_State_Penalty>
0.0711481

> <r_epik_Charging_Adjusted_Penalty>
0.151488

> <i_epik_Tot_Q>
1

> <i_epik_Tot_abs_Q>
1

> <r_epik_Metal_State_Penalty>
0.0711481

> <b_epik_Metal_Only>
0

> <s_lp_Force_Field>
OPLS_2005

> <r_lp_Energy>
40.024

> <b_lp_Chiralities_Consistent>
1

> <s_lp_Variant>
AV-unprocessed.smi:3068-2

> <Gold.Version>
5.8.1

> <Gold.Id.Protein>
6NUR|6NUR_protein|mol2

> <Gold.PLP.Fitness>
45.2162

> <Gold.PLP.PLP>
-33.7396

> <Gold.PLP.part.hbond>
-4.6082

> <Gold.PLP.part.metal>
0.0000

> <Gold.PLP.part.buried>
-1.6727

> <Gold.PLP.part.nonpolar>
-27.7123

> <Gold.PLP.part.repulsive>
0.2546

> <Gold.PLP.ligand.clash>
0.5705

> <Gold.PLP.ligand.torsion>
1.1232

> <Gold.PLP.Chemscore.Hbond>
3.7624

> <Gold.PLP.Chemscore.CHOScore>
1.0000

> <Gold.PLP.Chemscore.Metal>
0.0000

> <Gold.Chemscore.Hbonds>
donor molecule, donor type, donor heavy atom, donor atom, acceptor molecule, acceptor atom, score
      L1  H     9    23       P1  7948  1.00
      L1  H    13    40       P1  7948  1.33
      P1  H  7997  8010       L1     1  1.00
      L1  C     5    21       P1  8028  0.88

> <Gold.PLP.Chemscore.Internal.Correction>
0.0063

> <Gold.Rescore>
     Score         DG    S(hbond)    S(metal)    S(lipo)     H(rot)  DE(clash)    DE(int)     intcor
     15.99     -18.13       2.73        0.00      58.99       1.32       0.00       2.14       ----

> <Gold.Chemscore.Fitness>
15.9932

> <Gold.Chemscore.DG>
-18.1340

> <Gold.Chemscore.ZeroCoef>
-5.4800

> <Gold.Chemscore.Hbond>
2.7336

> <Gold.Chemscore.Metal>
0.0000

> <Gold.Chemscore.Lipo>
58.9857

> <Gold.Chemscore.Internal_Hbond>
0.0000

> <Gold.Chemscore.DEClash>
0.0019

> <Gold.Chemscore.DEInternal>
2.1389

> <Gold.Chemscore.Rot>
1.3193

> <Gold.Chemscore.Internal.Correction>
   9.000000E+99

> <Gold.Chemscore.Hbonds>
donor molecule, donor type, donor heavy atom, donor atom, acceptor molecule, acceptor atom, score
      L1  H     9    23       P1  7948  0.29
      L1  H    13    40       P1  7948  0.11
      P1  H  7997  8010       L1     1  0.79

> <Gold.Chemscore.Hbond.Weighted>
-9.1301

> <Gold.Chemscore.Metal.Weighted>
-0.0000

> <Gold.Chemscore.Lipo.Weighted>
-6.9013

> <Gold.Chemscore.Internal_Hbond.Weighted>
0.0000

> <Gold.Chemscore.DEClash.Weighted>
0.0019

> <Gold.Chemscore.DEInternal.Weighted>
2.1389

> <Gold.Chemscore.Rot.Weighted>
3.3774

> <Gold.Chemscore.Internal.Correction.Weighted>
   9.000000E+99

> <Gold.Protein.RotatedTorsions>
[ 6907 6896 6895 6894 ] final  125.88 input  -60.11 | X-H torsion
[ 7974 7965 7964 7962 ] final  157.25 input  175.53 | X-H torsion
[ 8008 7997 7996 7995 ] final   94.09 input   59.86 | X-H torsion
[ 10167 10162 10161 10158 ] final   69.69 input  -65.29 | X-H torsion
[ 10718 10713 10712 10709 ] final  114.15 input   66.30 | X-H torsion
[ 10763 10752 10751 10750 ] final  -78.30 input  -60.55 | X-H torsion
[ 11005 11000 10999 10996 ] final -164.56 input  -57.11 | X-H torsion

> <Gold.Protein.ActiveResidues>
 VAL166  LYS551  ARG553  GLY616  TRP617  ASP618  TYR619  PRO620  LYS621  CYS622 
 ASP623  PHE694  ASN695  SER759  ASP760  ASP761  ALA762  ILE779  LEU786  VAL792 
 PHE793  MET794  SER795  GLU796  ALA797  LYS798  CYS799  TRP800  GLU811  SER814 

> <Gold.Protein.RotatedAtoms>
  152.3953  133.6738  159.6271 H   0  0  0  0  0  0  0  0  0  0  0  0  # atno 6907 bound_to 6896
  150.7853  133.8884  159.3315 H   0  0  0  0  0  0  0  0  0  0  0  0  # atno 6908 bound_to 6896
  151.6662  135.0984  160.0240 H   0  0  0  0  0  0  0  0  0  0  0  0  # atno 6909 bound_to 6896
  144.7914  139.7314  143.6219 H   0  0  0  0  0  0  0  0  0  0  0  0  # atno 7974 bound_to 7965
  156.0540  140.3304  155.7384 H   0  0  0  0  0  0  0  0  0  0  0  0  # atno 8008 bound_to 7997
  155.5557  140.0614  157.2857 H   0  0  0  0  0  0  0  0  0  0  0  0  # atno 8009 bound_to 7997
  154.4449  140.1886  156.0719 H   0  0  0  0  0  0  0  0  0  0  0  0  # atno 8010 bound_to 7997
  140.0651  144.5200  150.7267 H   0  0  0  0  0  0  0  0  0  0  0  0  # atno 10167 bound_to 10162
  157.6298  131.0994  150.7144 H   0  0  0  0  0  0  0  0  0  0  0  0  # atno 10718 bound_to 10713
  154.5241  135.5734  153.6705 H   0  0  0  0  0  0  0  0  0  0  0  0  # atno 10763 bound_to 10752
  152.9924  135.6189  154.2716 H   0  0  0  0  0  0  0  0  0  0  0  0  # atno 10764 bound_to 10752
  154.2638  135.2855  155.2746 H   0  0  0  0  0  0  0  0  0  0  0  0  # atno 10765 bound_to 10752
  140.5856  134.5097  157.5185 H   0  0  0  0  0  0  0  0  0  0  0  0  # atno 11005 bound_to 11000
  146.2168  139.5563  142.9645 LP  0  0  0  0  0  0  0  0  0  0  0  0  # atno 17320 bound_to 7965
  145.5783  141.0385  143.2136 LP  0  0  0  0  0  0  0  0  0  0  0  0  # atno 17321 bound_to 7965
  140.7153  143.2539  151.4453 LP  0  0  0  0  0  0  0  0  0  0  0  0  # atno 17342 bound_to 10162
  139.5870  144.1582  152.2041 LP  0  0  0  0  0  0  0  0  0  0  0  0  # atno 17343 bound_to 10162
  156.7486  130.4761  149.5461 LP  0  0  0  0  0  0  0  0  0  0  0  0  # atno 17370 bound_to 10713
  156.1493  130.6299  151.0574 LP  0  0  0  0  0  0  0  0  0  0  0  0  # atno 17371 bound_to 10713
  139.9297  134.7987  156.0965 LP  0  0  0  0  0  0  0  0  0  0  0  0  # atno 17394 bound_to 11000
  141.0968  133.6692  156.2664 LP  0  0  0  0  0  0  0  0  0  0  0  0  # atno 17395 bound_to 11000

$$$$
