AV-unprocessed.smi:877|AV-procd|sdf|4027|dock8
  -GOLD-   22720 1513D 1   1.00000     0.00000
 Structure written by MMmdl.
 43 45  0  0  0  0  0  0  0  0  1 V2000
  144.8659  142.6593  156.1518 C   0  0  0  0  0  0  0  0  0  0  0  0
  145.7130  142.3272  155.0616 O   0  0  0  0  0  0  0  0  0  0  0  0
  146.9977  141.9132  155.3413 C   0  0  0  0  0  0  0  0  0  0  0  0
  147.5251  141.7808  156.6507 C   0  0  0  0  0  0  0  0  0  0  0  0
  148.8513  141.3486  156.8455 C   0  0  0  0  0  0  0  0  0  0  0  0
  149.6703  141.0435  155.7398 C   0  0  0  0  0  0  0  0  0  0  0  0
  151.1009  140.5775  155.9490 C   0  0  0  0  0  0  0  0  0  0  0  0
  151.6676  140.9900  157.2796 C   0  0  0  0  0  0  0  0  0  0  0  0
  151.5314  142.2336  157.7449 N   0  0  0  0  0  0  0  0  0  0  0  0
  152.1790  142.1798  158.9628 C   0  0  0  0  0  0  0  0  0  0  0  0
  152.3761  143.1786  159.9431 C   0  0  0  0  0  0  0  0  0  0  0  0
  153.0794  142.8852  161.1297 C   0  0  0  0  0  0  0  0  0  0  0  0
  153.5950  141.5920  161.3521 C   0  0  0  0  0  0  0  0  0  0  0  0
  153.4115  140.5832  160.3869 C   0  0  0  0  0  0  0  0  0  0  0  0
  152.7080  140.8810  159.2041 C   0  0  0  0  0  0  0  0  0  0  0  0
  152.3583  140.1372  158.0805 N   0  0  0  0  0  0  0  0  0  0  0  0
  152.6888  138.7372  157.8453 C   0  0  0  0  0  0  0  0  0  0  0  0
  152.0935  137.7941  158.9100 C   0  0  2  0  0  0  0  0  0  0  0  0
  152.7180  136.5284  158.8098 O   0  0  0  0  0  0  0  0  0  0  0  0
  150.5780  137.6117  158.7241 C   0  0  0  0  0  0  0  0  0  0  0  0
  150.1097  136.5590  159.5398 O   0  0  0  0  0  0  0  0  0  0  0  0
  149.1518  141.1752  154.4360 C   0  0  0  0  0  0  0  0  0  0  0  0
  147.8256  141.6058  154.2423 C   0  0  0  0  0  0  0  0  0  0  0  0
  143.8901  142.9596  155.7703 H   0  0  0  0  0  0  0  0  0  0  0  0
  145.2661  143.4949  156.7278 H   0  0  0  0  0  0  0  0  0  0  0  0
  144.7129  141.8046  156.8121 H   0  0  0  0  0  0  0  0  0  0  0  0
  146.9315  142.0041  157.5240 H   0  0  0  0  0  0  0  0  0  0  0  0
  149.2359  141.2510  157.8502 H   0  0  0  0  0  0  0  0  0  0  0  0
  151.1157  139.4955  155.8320 H   0  0  0  0  0  0  0  0  0  0  0  0
  151.7421  140.9792  155.1639 H   0  0  0  0  0  0  0  0  0  0  0  0
  151.9843  144.1720  159.7822 H   0  0  0  0  0  0  0  0  0  0  0  0
  153.2233  143.6558  161.8728 H   0  0  0  0  0  0  0  0  0  0  0  0
  154.1318  141.3744  162.2640 H   0  0  0  0  0  0  0  0  0  0  0  0
  153.8045  139.5917  160.5564 H   0  0  0  0  0  0  0  0  0  0  0  0
  152.3480  138.4590  156.8478 H   0  0  0  0  0  0  0  0  0  0  0  0
  153.7746  138.6362  157.8220 H   0  0  0  0  0  0  0  0  0  0  0  0
  152.2915  138.2011  159.9017 H   0  0  0  0  0  0  0  0  0  0  0  0
  153.6543  136.6568  158.7939 H   0  0  0  0  0  0  0  0  0  0  0  0
  150.0496  138.5178  159.0224 H   0  0  0  0  0  0  0  0  0  0  0  0
  150.3239  137.4198  157.6808 H   0  0  0  0  0  0  0  0  0  0  0  0
  149.4587  136.9090  160.1293 H   0  0  0  0  0  0  0  0  0  0  0  0
  149.7675  140.9421  153.5800 H   0  0  0  0  0  0  0  0  0  0  0  0
  147.4386  141.7003  153.2383 H   0  0  0  0  0  0  0  0  0  0  0  0
  1  2  1  0  0  0  0
  1 24  1  0  0  0  0
  1 25  1  0  0  0  0
  1 26  1  0  0  0  0
  2  3  1  0  0  0  0
  3 23  1  0  0  0  0
  3  4  2  0  0  0  0
  4  5  1  0  0  0  0
  4 27  1  0  0  0  0
  5  6  2  0  0  0  0
  5 28  1  0  0  0  0
  6  7  1  0  0  0  0
  6 22  1  0  0  0  0
  7  8  1  0  0  0  0
  7 29  1  0  0  0  0
  7 30  1  0  0  0  0
  8 16  1  0  0  0  0
  8  9  2  0  0  0  0
  9 10  1  0  0  0  0
 10 15  2  0  0  0  0
 10 11  1  0  0  0  0
 11 12  2  0  0  0  0
 11 31  1  0  0  0  0
 12 13  1  0  0  0  0
 12 32  1  0  0  0  0
 13 14  2  0  0  0  0
 13 33  1  0  0  0  0
 14 15  1  0  0  0  0
 14 34  1  0  0  0  0
 15 16  1  0  0  0  0
 16 17  1  0  0  0  0
 17 18  1  0  0  0  0
 17 35  1  0  0  0  0
 17 36  1  0  0  0  0
 18 19  1  0  0  0  0
 18 20  1  0  0  0  0
 18 37  1  0  0  0  0
 19 38  1  0  0  0  0
 20 21  1  0  0  0  0
 20 39  1  0  0  0  0
 20 40  1  0  0  0  0
 21 41  1  0  0  0  0
 22 23  2  0  0  0  0
 22 42  1  0  0  0  0
 23 43  1  0  0  0  0
M  END
> <s_m_source_file>
AV-unprocessed.smi

> <i_m_source_file_index>
877

> <i_lp_mmshare_version>
43012

> <i_f3d_flags>
0

> <s_epik_input>
W0NIM11PYzFbY0hdW2NIXWMoW2NIXVtjSF0xKVtDSDJdYyhuMiluKFtDSDJdW0NASF0oW09IXSlbQ0gyXVtPSF0pYyhjMjMpW2NIXVtjSF1bY0hdW2NIXTM=

> <s_epik_cmdline>
J2VwaWtfcHl0aG9uJywgJy1waCcsICc3LjAnLCAnLXRuJywgJzgnLCAnLW1hJywgJzIwMCcsICctbWV0YWxfYmluZGluZycsICctaW1hZScsICc8aW5maWxlLm1hZT4nLCAnLW9tYWUnLCAnPG91dGZpbGUubWFlPic=

> <r_lp_tautomer_probability>
1

> <r_epik_Ionization_Penalty>
0.0616669

> <r_epik_Ionization_Penalty_Charging>
0

> <r_epik_Ionization_Penalty_Neutral>
0.0616669

> <r_epik_State_Penalty>
0.0535415

> <r_epik_Charging_Adjusted_Penalty>
0.0535415

> <i_epik_Tot_Q>
0

> <i_epik_Tot_abs_Q>
0

> <r_epik_Metal_State_Penalty>
5.60326e-05

> <b_epik_Metal_Only>
0

> <s_lp_Force_Field>
OPLS_2005

> <r_lp_Energy>
20.6154

> <b_lp_Chiralities_Consistent>
1

> <s_lp_Variant>
AV-unprocessed.smi:877-1

> <Gold.Version>
5.8.1

> <Gold.Id.Protein>
6NUR|6NUR_protein|mol2

> <Gold.PLP.Fitness>
48.2595

> <Gold.PLP.PLP>
-45.9424

> <Gold.PLP.part.hbond>
-2.0000

> <Gold.PLP.part.metal>
0.0000

> <Gold.PLP.part.buried>
-4.9973

> <Gold.PLP.part.nonpolar>
-37.9768

> <Gold.PLP.part.repulsive>
0.2230

> <Gold.PLP.ligand.clash>
0.0000

> <Gold.PLP.ligand.torsion>
0.6533

> <Gold.PLP.Chemscore.Hbond>
1.1934

> <Gold.PLP.Chemscore.CHOScore>
0.0000

> <Gold.PLP.Chemscore.Metal>
0.0000

> <Gold.Chemscore.Hbonds>
donor molecule, donor type, donor heavy atom, donor atom, acceptor molecule, acceptor atom, score
      P1  H  6896  6907       L1    21  0.98
      P1  H  6896  6908       L1    19  0.22

> <Gold.PLP.Chemscore.Internal.Correction>
0.0434

> <Gold.Rescore>
     Score         DG    S(hbond)    S(metal)    S(lipo)     H(rot)  DE(clash)    DE(int)     intcor
     13.55     -14.24       1.05        0.00     113.89       3.15       0.01       0.68       ----

> <Gold.Chemscore.Fitness>
13.5510

> <Gold.Chemscore.DG>
-14.2438

> <Gold.Chemscore.ZeroCoef>
-5.4800

> <Gold.Chemscore.Hbond>
1.0477

> <Gold.Chemscore.Metal>
0.0000

> <Gold.Chemscore.Lipo>
113.8918

> <Gold.Chemscore.Internal_Hbond>
0.0000

> <Gold.Chemscore.DEClash>
0.0144

> <Gold.Chemscore.DEInternal>
0.6784

> <Gold.Chemscore.Rot>
3.1488

> <Gold.Chemscore.Internal.Correction>
   9.000000E+99

> <Gold.Chemscore.Hbonds>
donor molecule, donor type, donor heavy atom, donor atom, acceptor molecule, acceptor atom, score
      P1  H  6896  6907       L1    21  0.93
      P1  H  6896  6908       L1    19  0.11

> <Gold.Chemscore.Hbond.Weighted>
-3.4993

> <Gold.Chemscore.Metal.Weighted>
-0.0000

> <Gold.Chemscore.Lipo.Weighted>
-13.3253

> <Gold.Chemscore.Internal_Hbond.Weighted>
0.0000

> <Gold.Chemscore.DEClash.Weighted>
0.0144

> <Gold.Chemscore.DEInternal.Weighted>
0.6784

> <Gold.Chemscore.Rot.Weighted>
8.0608

> <Gold.Chemscore.Internal.Correction.Weighted>
   9.000000E+99

> <Gold.Protein.RotatedTorsions>
[ 6907 6896 6895 6894 ] final  -57.13 input  -60.11 | X-H torsion
[ 7974 7965 7964 7962 ] final   78.97 input  175.53 | X-H torsion
[ 8008 7997 7996 7995 ] final  -35.90 input   59.86 | X-H torsion
[ 10167 10162 10161 10158 ] final  156.91 input  -65.29 | X-H torsion
[ 10718 10713 10712 10709 ] final   64.26 input   66.30 | X-H torsion
[ 10763 10752 10751 10750 ] final -156.94 input  -60.55 | X-H torsion
[ 11005 11000 10999 10996 ] final -151.35 input  -57.11 | X-H torsion

> <Gold.Protein.ActiveResidues>
 VAL166  LYS551  ARG553  GLY616  TRP617  ASP618  TYR619  PRO620  LYS621  CYS622 
 ASP623  PHE694  ASN695  SER759  ASP760  ASP761  ALA762  ILE779  LEU786  VAL792 
 PHE793  MET794  SER795  GLU796  ALA797  LYS798  CYS799  TRP800  GLU811  SER814 

> <Gold.Protein.RotatedAtoms>
  150.8111  134.7265  159.6687 H   0  0  0  0  0  0  0  0  0  0  0  0  # atno 6907 bound_to 6896
  152.4230  134.5916  159.9985 H   0  0  0  0  0  0  0  0  0  0  0  0  # atno 6908 bound_to 6896
  151.6126  133.3308  159.3107 H   0  0  0  0  0  0  0  0  0  0  0  0  # atno 6909 bound_to 6896
  145.6703  139.2495  143.1872 H   0  0  0  0  0  0  0  0  0  0  0  0  # atno 7974 bound_to 7965
  154.4085  140.1645  156.2287 H   0  0  0  0  0  0  0  0  0  0  0  0  # atno 8008 bound_to 7997
  155.9301  140.3415  155.6219 H   0  0  0  0  0  0  0  0  0  0  0  0  # atno 8009 bound_to 7997
  155.7116  140.0757  157.2359 H   0  0  0  0  0  0  0  0  0  0  0  0  # atno 8010 bound_to 7997
  139.4822  144.4965  151.8231 H   0  0  0  0  0  0  0  0  0  0  0  0  # atno 10167 bound_to 10162
  157.6028  130.9150  149.9823 H   0  0  0  0  0  0  0  0  0  0  0  0  # atno 10718 bound_to 10713
  154.7675  135.3135  154.8257 H   0  0  0  0  0  0  0  0  0  0  0  0  # atno 10763 bound_to 10752
  153.9002  135.6816  153.4760 H   0  0  0  0  0  0  0  0  0  0  0  0  # atno 10764 bound_to 10752
  153.1283  135.4791  154.9241 H   0  0  0  0  0  0  0  0  0  0  0  0  # atno 10765 bound_to 10752
  140.7305  134.3626  157.5167 H   0  0  0  0  0  0  0  0  0  0  0  0  # atno 11005 bound_to 11000
  146.1051  140.7497  142.9530 LP  0  0  0  0  0  0  0  0  0  0  0  0  # atno 17320 bound_to 7965
  144.7059  140.3849  143.7118 LP  0  0  0  0  0  0  0  0  0  0  0  0  # atno 17321 bound_to 7965
  140.4454  144.1928  150.5894 LP  0  0  0  0  0  0  0  0  0  0  0  0  # atno 17342 bound_to 10162
  140.4640  143.2438  151.9181 LP  0  0  0  0  0  0  0  0  0  0  0  0  # atno 17343 bound_to 10162
  156.1105  130.3650  150.0057 LP  0  0  0  0  0  0  0  0  0  0  0  0  # atno 17370 bound_to 10713
  156.8156  130.9340  151.3643 LP  0  0  0  0  0  0  0  0  0  0  0  0  # atno 17371 bound_to 10713
  139.8827  134.9015  156.2812 LP  0  0  0  0  0  0  0  0  0  0  0  0  # atno 17394 bound_to 11000
  140.9925  133.7200  156.0835 LP  0  0  0  0  0  0  0  0  0  0  0  0  # atno 17395 bound_to 11000

$$$$
