#       Name:                AV-unprocessed.smi:2336
#       Creating user name   scv26
#       Creation time:       Fri Mar 27 12:54:59 2020


#       File generated by GOLD software.
#

@<TRIPOS>MOLECULE
AV-unprocessed.smi:2336
    54    55     1
SMALL
NO_CHARGES


@<TRIPOS>ATOM
      1 ****        -4.0354   0.2122  -2.4268 C.3            1 S1                 0.0000
      2 ****        -3.4035   0.7787  -1.1409 C.3            1 S1                 0.0000
      3 ****        -3.8606   2.2410  -0.9667 C.3            1 S1                 0.0000
      4 ****        -1.8519   0.6481  -1.1127 C.3            1 S1                 0.0000
      5 ****        -1.3668  -0.8109  -1.3553 C.3            1 S1                 0.0000
      6 ****         0.0875  -0.9327  -1.4171 N.am           1 S1                 0.0000
      7 ****         0.8324  -1.7977  -0.7136 C.2            1 S1                 0.0000
      8 ****         0.3613  -2.6112   0.0804 O.2            1 S1                 0.0000
      9 ****         2.1405  -1.6266  -0.9689 N.am           1 S1                 0.0000
     10 ****         3.2518  -2.3264  -0.4246 C.ar           1 S1                 0.0000
     11 ****         3.1744  -3.6201   0.1459 C.ar           1 S1                 0.0000
     12 ****         4.3565  -4.2146   0.6316 C.ar           1 S1                 0.0000
     13 ****         5.5663  -3.6186   0.5762 N.ar           1 S1                 0.0000
     14 ****         5.6382  -2.3905   0.0205 C.ar           1 S1                 0.0000
     15 ****         4.5179  -1.7079  -0.4950 C.ar           1 S1                 0.0000
     16 ****         4.6590  -0.4768  -1.0436 F              1 S1                 0.0000
     17 ****        -1.3144   1.2697   0.1395 N.4            1 S1                 1.0000
     18 ****         0.0052   1.9374   0.0059 C.3            1 S1                 0.0000
     19 ****         0.3184   2.7566   1.2750 C.3            1 S1                 0.0000
     20 ****         0.2779   1.9352   2.4865 N.3            1 S1                 0.0000
     21 ****         1.3940   1.0000   2.5839 C.3            1 S1                 0.0000
     22 ****        -1.0291   1.2856   2.6063 C.3            1 S1                 0.0000
     23 ****        -1.3701   0.4341   1.3665 C.3            1 S1                 0.0000
     24 ****        -3.5959   0.6616  -3.3180 H              1 S1                 0.0000
     25 ****        -5.1080   0.4065  -2.4552 H              1 S1                 0.0000
     26 ****        -3.9179  -0.8688  -2.4984 H              1 S1                 0.0000
     27 ****        -3.8164   0.2073  -0.3090 H              1 S1                 0.0000
     28 ****        -3.4547   2.8791  -1.7525 H              1 S1                 0.0000
     29 ****        -3.5538   2.6560  -0.0066 H              1 S1                 0.0000
     30 ****        -4.9474   2.3199  -1.0082 H              1 S1                 0.0000
     31 ****        -1.4862   1.2468  -1.9485 H              1 S1                 0.0000
     32 ****        -1.7984  -1.4800  -0.6095 H              1 S1                 0.0000
     33 ****        -1.7246  -1.1712  -2.3185 H              1 S1                 0.0000
     34 ****         0.5658  -0.3077  -2.0498 H              1 S1                 0.0000
     35 ****         2.3782  -0.8620  -1.5837 H              1 S1                 0.0000
     36 ****         2.2480  -4.1697   0.2082 H              1 S1                 0.0000
     37 ****         4.3295  -5.2009   1.0710 H              1 S1                 0.0000
     38 ****         6.6188  -1.9392  -0.0163 H              1 S1                 0.0000
     39 ****         0.7992   1.2177  -0.1820 H              1 S1                 0.0000
     40 ****        -0.0129   2.6108  -0.8514 H              1 S1                 0.0000
     41 ****         1.2952   3.2340   1.1884 H              1 S1                 0.0000
     42 ****        -0.4102   3.5621   1.3779 H              1 S1                 0.0000
     43 ****         1.3530   0.4621   3.5317 H              1 S1                 0.0000
     44 ****         2.3416   1.5387   2.5514 H              1 S1                 0.0000
     45 ****         1.3988   0.2639   1.7807 H              1 S1                 0.0000
     46 ****        -1.0517   0.6715   3.5073 H              1 S1                 0.0000
     47 ****        -1.7892   2.0569   2.7389 H              1 S1                 0.0000
     48 ****        -2.3704   0.0188   1.4856 H              1 S1                 0.0000
     49 ****        -0.6912  -0.4128   1.2959 H              1 S1                 0.0000
     50 ****        -1.9507   2.0332   0.3191 H              1 S1                 0.0000
     51 ****        -0.6269  -2.6509   0.2282 LP             1 S1                 0.0000
     52 ****         0.9667  -3.2326   0.5778 LP             1 S1                 0.0000
     53 ****         6.3824  -4.0718   0.9349 LP             1 S1                 0.0000
     54 ****         0.3939   2.5417   3.2730 LP             1 S1                 0.0000
@<TRIPOS>BOND
    1    1    2 1     
    2    1   24 1     
    3    1   25 1     
    4    1   26 1     
    5    2    3 1     
    6    2    4 1     
    7    2   27 1     
    8    3   28 1     
    9    3   29 1     
   10    3   30 1     
   11    4    5 1     
   12    4   17 1     
   13    4   31 1     
   14    5    6 1     
   15    5   32 1     
   16    5   33 1     
   17    6    7 am    
   18    6   34 1     
   19    7    8 2     
   20    7    9 am    
   21    9   10 1     
   22    9   35 1     
   23   10   15 ar    
   24   10   11 ar    
   25   11   12 ar    
   26   11   36 1     
   27   12   13 ar    
   28   12   37 1     
   29   13   14 ar    
   30   14   15 ar    
   31   14   38 1     
   32   15   16 1     
   33   17   23 1     
   34   17   18 1     
   35   17   50 1     
   36   18   19 1     
   37   18   39 1     
   38   18   40 1     
   39   19   20 1     
   40   19   41 1     
   41   19   42 1     
   42   20   21 1     
   43   20   22 1     
   44   21   43 1     
   45   21   44 1     
   46   21   45 1     
   47   22   23 1     
   48   22   46 1     
   49   22   47 1     
   50   23   48 1     
   51   23   49 1     
   52    8   51 1     
   53    8   52 1     
   54   13   53 1     
   55   20   54 1     
@<TRIPOS>SUBSTRUCTURE
      1 S1             1
@<TRIPOS>SET
LONE_PAIRS      STATIC     ATOMS    <user>   **** ""
4 51 52 53 54
DONOR_HYDROGENS      STATIC     ATOMS    <user>   **** ""
3 34 35 50
ATOM$BLUE        STATIC     ATOMS    COLORGROUP SYSTEM
4 51 52 53 54
ATOM$RED        STATIC     ATOMS    COLORGROUP SYSTEM
3 34 35 50
