#       Name:                AV-unprocessed.smi:1199
#       Creating user name   scv26
#       Creation time:       Fri Mar 27 04:03:55 2020


#       File generated by GOLD software.
#

@<TRIPOS>MOLECULE
AV-unprocessed.smi:1199
    51    52     1
SMALL
NO_CHARGES


@<TRIPOS>ATOM
      1 ****        -2.2690  -0.5473  -3.2106 C.3            1 S1                 0.0000
      2 ****        -1.6274  -0.2288  -1.8517 C.3            1 S1                 0.0000
      3 ****        -2.2986  -1.0157  -0.7041 C.3            1 S1                 0.0000
      4 ****        -2.3150  -0.3467   0.5998 N.3            1 S1                 0.0000
      5 ****        -0.9800  -0.1734   1.1712 C.3            1 S1                 0.0000
      6 ****        -1.0226   0.4881   2.5593 C.3            1 S1                 0.0000
      7 ****        -1.8552  -0.2716   3.4283 O.3            1 S1                 0.0000
      8 ****        -3.1820  -0.4081   2.9308 C.3            1 S1                 0.0000
      9 ****        -3.1436  -1.0833   1.5490 C.3            1 S1                 0.0000
     10 ****        -0.2071  -0.5656  -1.9111 N.am           1 S1                 0.0000
     11 ****         0.7981   0.3124  -2.0472 C.2            1 S1                 0.0000
     12 ****         0.6266   1.5157  -2.2428 O.2            1 S1                 0.0000
     13 ****         2.2153  -0.2613  -1.9350 C.3            1 S1                 0.0000
     14 ****         2.9949   0.4366  -0.9038 N.am           1 S1                 0.0000
     15 ****         2.8084  -0.0716   0.3740 N.2            1 S1                 0.0000
     16 ****         3.3968   0.4802   1.3804 C.2            1 S1                 0.0000
     17 ****         3.1771  -0.0512   2.6274 O.3            1 S1                 0.0000
     18 ****         4.2636   1.6242   1.2051 C.2            1 S1                 0.0000
     19 ****         4.4441   2.1086  -0.0432 C.2            1 S1                 0.0000
     20 ****         3.7868   1.5110  -1.2070 C.2            1 S1                 0.0000
     21 ****         3.9272   1.9391  -2.3522 O.2            1 S1                 0.0000
     22 ****         2.5980  -0.7850   2.4893 H              1 S1                 0.0000
     23 ****        -3.3274  -0.2849  -3.2155 H              1 S1                 0.0000
     24 ****        -2.1875  -1.6076  -3.4516 H              1 S1                 0.0000
     25 ****        -1.7904   0.0158  -4.0125 H              1 S1                 0.0000
     26 ****        -1.7654   0.8381  -1.6659 H              1 S1                 0.0000
     27 ****        -3.3355  -1.1911  -0.9940 H              1 S1                 0.0000
     28 ****        -1.8540  -2.0085  -0.6152 H              1 S1                 0.0000
     29 ****        -0.4785  -1.1397   1.2445 H              1 S1                 0.0000
     30 ****        -0.3702   0.4511   0.5211 H              1 S1                 0.0000
     31 ****        -0.0193   0.5440   2.9824 H              1 S1                 0.0000
     32 ****        -1.3974   1.5104   2.4878 H              1 S1                 0.0000
     33 ****        -3.7651  -1.0073   3.6302 H              1 S1                 0.0000
     34 ****        -3.6597   0.5711   2.8702 H              1 S1                 0.0000
     35 ****        -4.1603  -1.1698   1.1638 H              1 S1                 0.0000
     36 ****        -2.7644  -2.1006   1.6582 H              1 S1                 0.0000
     37 ****         0.0328  -1.5359  -1.7686 H              1 S1                 0.0000
     38 ****         2.1702  -1.3266  -1.6987 H              1 S1                 0.0000
     39 ****         2.6971  -0.2019  -2.9122 H              1 S1                 0.0000
     40 ****         4.7510   2.0735   2.0577 H              1 S1                 0.0000
     41 ****         5.0883   2.9633  -0.1881 H              1 S1                 0.0000
     42 ****        -2.6992   0.5620   0.4365 LP             1 S1                 0.0000
     43 ****        -1.8915   0.1845   4.3175 LP             1 S1                 0.0000
     44 ****        -1.4582  -1.1829   3.5371 LP             1 S1                 0.0000
     45 ****        -0.3006   1.8845  -2.3079 LP             1 S1                 0.0000
     46 ****         1.4145   2.1243  -2.3366 LP             1 S1                 0.0000
     47 ****         2.2175  -0.8660   0.5146 LP             1 S1                 0.0000
     48 ****         2.7477   0.6256   3.2254 LP             1 S1                 0.0000
     49 ****         4.0380  -0.3567   3.0341 LP             1 S1                 0.0000
     50 ****         3.4508   1.4980  -3.1128 LP             1 S1                 0.0000
     51 ****         4.5177   2.7280  -2.5222 LP             1 S1                 0.0000
@<TRIPOS>BOND
    1    1    2 1     
    2    1   23 1     
    3    1   24 1     
    4    1   25 1     
    5    2    3 1     
    6    2   10 1     
    7    2   26 1     
    8    3    4 1     
    9    3   27 1     
   10    3   28 1     
   11    4    9 1     
   12    4    5 1     
   13    5    6 1     
   14    5   29 1     
   15    5   30 1     
   16    6    7 1     
   17    6   31 1     
   18    6   32 1     
   19    7    8 1     
   20    8    9 1     
   21    8   33 1     
   22    8   34 1     
   23    9   35 1     
   24    9   36 1     
   25   10   11 am    
   26   10   37 1     
   27   11   12 2     
   28   11   13 1     
   29   13   38 1     
   30   13   39 1     
   31   13   14 1     
   32   14   15 1     
   33   14   20 am    
   34   15   16 2     
   35   16   17 1     
   36   16   18 1     
   37   17   22 1     
   38   18   40 1     
   39   18   19 2     
   40   19   41 1     
   41   19   20 1     
   42   20   21 2     
   43    4   42 1     
   44    7   43 1     
   45    7   44 1     
   46   12   45 1     
   47   12   46 1     
   48   15   47 1     
   49   17   48 1     
   50   17   49 1     
   51   21   50 1     
   52   21   51 1     
@<TRIPOS>SUBSTRUCTURE
      1 S1             1
@<TRIPOS>SET
LONE_PAIRS      STATIC     ATOMS    <user>   **** ""
10 42 43 44 45 46 47 48 49 50 51
DONOR_HYDROGENS      STATIC     ATOMS    <user>   **** ""
2 37 22
ATOM$BLUE        STATIC     ATOMS    COLORGROUP SYSTEM
10 42 43 44 45 46 47 48 49 50 51
ATOM$RED        STATIC     ATOMS    COLORGROUP SYSTEM
2 37 22
