AV-unprocessed.smi:39|AV-procd|sdf|356|dock2
  -GOLD-   2262016193D 1   1.00000     0.00000
 Structure written by MMmdl.
 32 33  0  0  0  0  0  0  0  0  3 V2000
  152.8767  141.8800  159.0140 C   0  0  0  0  0  0  0  0  0  0  0  0
  151.9541  141.7394  157.8143 C   0  0  0  0  0  0  0  0  0  0  0  0
  151.6671  140.5362  157.2544 C   0  0  0  0  0  0  0  0  0  0  0  0
  150.8228  140.3733  156.1615 N   0  0  0  0  0  0  0  0  0  0  0  0
  150.5387  139.0175  155.5419 C   0  0  2  0  0  0  0  0  0  0  0  0
  151.1755  137.8794  156.3573 C   0  0  0  0  0  0  0  0  0  0  0  0
  151.7126  136.9771  155.2662 C   0  0  2  0  0  0  0  0  0  0  0  0
  152.7653  136.0745  155.7406 N   0  0  0  0  0  0  0  0  0  0  0  0
  153.7530  136.6072  156.2638 N   0  3  0  0  0  0  0  0  0  0  0  0
  154.5902  137.1064  156.8510 N   0  5  0  0  0  0  0  0  0  0  0  0
  152.1564  137.9917  154.2013 C   0  0  2  0  0  0  0  0  0  0  0  0
  153.5111  138.6866  154.4708 C   0  0  0  0  0  0  0  0  0  0  0  0
  154.5632  137.8975  153.9586 O   0  0  0  0  0  0  0  0  0  0  0  0
  151.0989  138.9497  154.2584 O   0  0  0  0  0  0  0  0  0  0  0  0
  150.2671  141.5172  155.5505 C   0  0  0  0  0  0  0  0  0  0  0  0
  149.5560  141.4585  154.5480 O   0  0  0  0  0  0  0  0  0  0  0  0
  150.5567  142.7519  156.1277 N   0  0  0  0  0  0  0  0  0  0  0  0
  151.3684  142.9559  157.2455 C   0  0  0  0  0  0  0  0  0  0  0  0
  151.5443  144.0972  157.6686 O   0  0  0  0  0  0  0  0  0  0  0  0
  149.4514  138.9540  155.4674 H   0  0  0  0  0  0  0  0  0  0  0  0
  150.8741  136.4018  154.8674 H   0  0  0  0  0  0  0  0  0  0  0  0
  152.1766  137.5147  153.2204 H   0  0  0  0  0  0  0  0  0  0  0  0
  150.1508  143.5700  155.6972 H   0  0  0  0  0  0  0  0  0  0  0  0
  153.2483  140.9135  159.3560 H   0  0  0  0  0  0  0  0  0  0  0  0
  152.3506  142.3479  159.8468 H   0  0  0  0  0  0  0  0  0  0  0  0
  153.7382  142.4990  158.7610 H   0  0  0  0  0  0  0  0  0  0  0  0
  152.1326  139.6690  157.6971 H   0  0  0  0  0  0  0  0  0  0  0  0
  151.9864  138.2689  156.9754 H   0  0  0  0  0  0  0  0  0  0  0  0
  150.4401  137.3931  156.9990 H   0  0  0  0  0  0  0  0  0  0  0  0
  153.5532  139.6915  154.0526 H   0  0  0  0  0  0  0  0  0  0  0  0
  153.6902  138.7829  155.5411 H   0  0  0  0  0  0  0  0  0  0  0  0
  154.5280  137.9259  153.0146 H   0  0  0  0  0  0  0  0  0  0  0  0
  1  2  1  0  0  0  0
  1 24  1  0  0  0  0
  1 25  1  0  0  0  0
  1 26  1  0  0  0  0
  2 18  1  0  0  0  0
  2  3  2  0  0  0  0
  3  4  1  0  0  0  0
  3 27  1  0  0  0  0
  4  5  1  0  0  0  0
  4 15  1  0  0  0  0
  5 20  1  0  0  0  0
  5 14  1  0  0  0  0
  5  6  1  0  0  0  0
  6  7  1  0  0  0  0
  6 28  1  0  0  0  0
  6 29  1  0  0  0  0
  7 21  1  0  0  0  0
  7  8  1  0  0  0  0
  7 11  1  0  0  0  0
  8  9  2  0  0  0  0
  9 10  2  0  0  0  0
 11 22  1  0  0  0  0
 11 12  1  0  0  0  0
 11 14  1  0  0  0  0
 12 13  1  0  0  0  0
 12 30  1  0  0  0  0
 12 31  1  0  0  0  0
 13 32  1  0  0  0  0
 15 16  2  0  0  0  0
 15 17  1  0  0  0  0
 17 23  1  0  0  0  0
 17 18  1  0  0  0  0
 18 19  2  0  0  0  0
M  CHG  1   9   1
M  CHG  1  10  -1
M  END
> <s_m_source_file>
AV-unprocessed.smi

> <i_m_source_file_index>
39

> <i_lp_mmshare_version>
43012

> <i_f3d_flags>
0

> <s_epik_input>
Tz1jMVtuSF1jKD1PKW4oW2NIXWMxW0NIM10pW0NASF0yW0NIMl1bQ0BIXShOPVtOK109W04tXSlbQ0BIXShPMilbQ0gyXVtPSF0=

> <s_epik_cmdline>
J2VwaWtfcHl0aG9uJywgJy1waCcsICc3LjAnLCAnLXRuJywgJzgnLCAnLW1hJywgJzIwMCcsICctbWV0YWxfYmluZGluZycsICctaW1hZScsICc8aW5maWxlLm1hZT4nLCAnLW9tYWUnLCAnPG91dGZpbGUubWFlPic=

> <r_lp_tautomer_probability>
0.999537

> <r_epik_Ionization_Penalty>
0.00127512

> <r_epik_Ionization_Penalty_Charging>
0.00127507

> <r_epik_Ionization_Penalty_Neutral>
5.43433e-08

> <r_epik_State_Penalty>
0.000844892

> <r_epik_Charging_Adjusted_Penalty>
0.00211996

> <i_epik_Tot_Q>
0

> <i_epik_Tot_abs_Q>
2

> <r_epik_Metal_State_Penalty>
0.680636

> <b_epik_Metal_Only>
0

> <s_epik_Chemistry_Notes>
This compound contains an acetal/aminal-like group ( X-CH(R)-Y where X, Y are N, S, or O) that may be acid/base labile, releasing an aldehyde.

> <s_lp_Force_Field>
OPLS_2005

> <r_lp_Energy>
27.6629

> <b_lp_Chiralities_Consistent>
1

> <s_lp_Variant>
AV-unprocessed.smi:39-6

> <Gold.Version>
5.8.1

> <Gold.Id.Protein>
6NUR|6NUR_protein|mol2

> <Gold.PLP.Fitness>
37.4757

> <Gold.PLP.PLP>
-29.9592

> <Gold.PLP.part.hbond>
-6.2176

> <Gold.PLP.part.metal>
0.0000

> <Gold.PLP.part.buried>
-3.2223

> <Gold.PLP.part.nonpolar>
-20.8092

> <Gold.PLP.part.repulsive>
0.6467

> <Gold.PLP.ligand.clash>
0.0000

> <Gold.PLP.ligand.torsion>
0.3198

> <Gold.PLP.Chemscore.Hbond>
2.7073

> <Gold.PLP.Chemscore.CHOScore>
0.0000

> <Gold.PLP.Chemscore.Metal>
0.0000

> <Gold.Chemscore.Hbonds>
donor molecule, donor type, donor heavy atom, donor atom, acceptor molecule, acceptor atom, score
      L1  H    17    23       P1  8028  0.99
      P1  H  7989  7998       L1    14  0.78
      P1  H  8011  8017       L1    16  0.02
      P1  H 10752 10763       L1    13  0.01
      P1  H 10752 10764       L1     8  0.07

> <Gold.PLP.Chemscore.Internal.Correction>
0.0344

> <Gold.Rescore>
     Score         DG    S(hbond)    S(metal)    S(lipo)     H(rot)  DE(clash)    DE(int)     intcor
      7.30     -10.72       1.90        0.00      50.84       2.75       1.20       2.23       ----

> <Gold.Chemscore.Fitness>
7.3023

> <Gold.Chemscore.DG>
-10.7245

> <Gold.Chemscore.ZeroCoef>
-5.4800

> <Gold.Chemscore.Hbond>
1.8989

> <Gold.Chemscore.Metal>
0.0000

> <Gold.Chemscore.Lipo>
50.8389

> <Gold.Chemscore.Internal_Hbond>
0.0000

> <Gold.Chemscore.DEClash>
1.1955

> <Gold.Chemscore.DEInternal>
2.2266

> <Gold.Chemscore.Rot>
2.7524

> <Gold.Chemscore.Internal.Correction>
   9.000000E+99

> <Gold.Chemscore.Hbonds>
donor molecule, donor type, donor heavy atom, donor atom, acceptor molecule, acceptor atom, score
      L1  H    17    23       P1  8028  0.93
      P1  H  7989  7998       L1    14  0.57
      P1  H  8011  8017       L1    16  0.05

> <Gold.Chemscore.Hbond.Weighted>
-6.3424

> <Gold.Chemscore.Metal.Weighted>
-0.0000

> <Gold.Chemscore.Lipo.Weighted>
-5.9481

> <Gold.Chemscore.Internal_Hbond.Weighted>
0.0000

> <Gold.Chemscore.DEClash.Weighted>
1.1955

> <Gold.Chemscore.DEInternal.Weighted>
2.2266

> <Gold.Chemscore.Rot.Weighted>
7.0461

> <Gold.Chemscore.Internal.Correction.Weighted>
   9.000000E+99

> <Gold.Protein.RotatedTorsions>
[ 6907 6896 6895 6894 ] final  -79.57 input  -60.11 | X-H torsion
[ 7974 7965 7964 7962 ] final -108.21 input  175.53 | X-H torsion
[ 8008 7997 7996 7995 ] final  -45.33 input   59.86 | X-H torsion
[ 10167 10162 10161 10158 ] final   36.73 input  -65.29 | X-H torsion
[ 10718 10713 10712 10709 ] final  154.76 input   66.30 | X-H torsion
[ 10763 10752 10751 10750 ] final  -64.84 input  -60.55 | X-H torsion
[ 11005 11000 10999 10996 ] final  -17.92 input  -57.11 | X-H torsion

> <Gold.Protein.ActiveResidues>
 VAL166  LYS551  ARG553  GLY616  TRP617  ASP618  TYR619  PRO620  LYS621  CYS622 
 ASP623  PHE694  ASN695  SER759  ASP760  ASP761  ALA762  ILE779  LEU786  VAL792 
 PHE793  MET794  SER795  GLU796  ALA797  LYS798  CYS799  TRP800  GLU811  SER814 

> <Gold.Protein.RotatedAtoms>
  150.6947  134.4101  159.5157 H   0  0  0  0  0  0  0  0  0  0  0  0  # atno 6907 bound_to 6896
  152.1861  134.8710  160.0531 H   0  0  0  0  0  0  0  0  0  0  0  0  # atno 6908 bound_to 6896
  151.9682  133.3682  159.4098 H   0  0  0  0  0  0  0  0  0  0  0  0  # atno 6909 bound_to 6896
  145.1957  140.9034  143.3399 H   0  0  0  0  0  0  0  0  0  0  0  0  # atno 7974 bound_to 7965
  154.4000  140.1399  156.3829 H   0  0  0  0  0  0  0  0  0  0  0  0  # atno 8008 bound_to 7997
  155.7987  140.3476  155.5369 H   0  0  0  0  0  0  0  0  0  0  0  0  # atno 8009 bound_to 7997
  155.8506  140.0941  157.1667 H   0  0  0  0  0  0  0  0  0  0  0  0  # atno 8010 bound_to 7997
  140.4100  144.1606  150.6139 H   0  0  0  0  0  0  0  0  0  0  0  0  # atno 10167 bound_to 10162
  157.2274  131.0731  151.1875 H   0  0  0  0  0  0  0  0  0  0  0  0  # atno 10718 bound_to 10713
  154.3361  135.6166  153.5574 H   0  0  0  0  0  0  0  0  0  0  0  0  # atno 10763 bound_to 10752
  152.9807  135.5758  154.4906 H   0  0  0  0  0  0  0  0  0  0  0  0  # atno 10764 bound_to 10752
  154.4602  135.2855  155.1695 H   0  0  0  0  0  0  0  0  0  0  0  0  # atno 10765 bound_to 10752
  140.8217  133.8063  155.9666 H   0  0  0  0  0  0  0  0  0  0  0  0  # atno 11005 bound_to 11000
  144.9997  139.3610  143.6173 LP  0  0  0  0  0  0  0  0  0  0  0  0  # atno 17320 bound_to 7965
  146.3427  139.9215  142.8766 LP  0  0  0  0  0  0  0  0  0  0  0  0  # atno 17321 bound_to 7965
  140.4648  143.2435  151.9170 LP  0  0  0  0  0  0  0  0  0  0  0  0  # atno 17342 bound_to 10162
  139.4783  144.5430  151.8500 LP  0  0  0  0  0  0  0  0  0  0  0  0  # atno 17343 bound_to 10162
  157.3514  130.7084  149.6443 LP  0  0  0  0  0  0  0  0  0  0  0  0  # atno 17370 bound_to 10713
  155.9678  130.4251  150.4641 LP  0  0  0  0  0  0  0  0  0  0  0  0  # atno 17371 bound_to 10713
  140.9092  134.2282  157.4996 LP  0  0  0  0  0  0  0  0  0  0  0  0  # atno 17394 bound_to 11000
  139.8708  134.9742  156.4838 LP  0  0  0  0  0  0  0  0  0  0  0  0  # atno 17395 bound_to 11000

$$$$
