AV-unprocessed.smi:1893|AV-procd|sdf|7672|dock8
  -GOLD-   22720 9413D 1   1.00000     0.00000
 Structure written by MMmdl.
 43 44  0  0  0  0  0  0  0  0  2 V2000
  146.9554  133.1612  152.0184 C   0  0  0  0  0  0  0  0  0  0  0  0
  146.4663  133.3543  150.5664 C   0  0  1  0  0  0  0  0  0  0  0  0
  145.9898  132.0333  149.9262 C   0  0  0  0  0  0  0  0  0  0  0  0
  144.6375  131.5723  150.4898 C   0  0  0  0  0  0  0  0  0  0  0  0
  143.6015  132.6950  150.3550 C   0  0  0  0  0  0  0  0  0  0  0  0
  144.1037  133.9955  151.0027 C   0  0  0  0  0  0  0  0  0  0  0  0
  145.4148  134.4063  150.4291 N   0  3  1  0  0  0  0  0  0  0  0  0
  145.8562  135.7557  150.8651 C   0  0  0  0  0  0  0  0  0  0  0  0
  145.7722  135.9260  152.3942 C   0  0  0  0  0  0  0  0  0  0  0  0
  146.5091  137.0994  152.8475 N   0  0  0  0  0  0  0  0  0  0  0  0
  146.0144  138.0527  153.6533 C   0  0  0  0  0  0  0  0  0  0  0  0
  144.8759  138.0091  154.1209 O   0  0  0  0  0  0  0  0  0  0  0  0
  146.9481  139.2312  153.9689 C   0  0  2  0  0  0  0  0  0  0  0  0
  147.1123  140.1918  152.7735 C   0  0  0  0  0  0  0  0  0  0  0  0
  148.2273  138.7361  154.4637 N   0  0  0  0  0  0  0  0  0  0  0  0
  149.4699  139.0402  154.0820 C   0  0  0  0  0  0  0  0  0  0  0  0
  150.4146  138.4373  154.7897 N   0  0  0  0  0  0  0  0  0  0  0  0
  149.6324  137.7340  155.6612 C   0  0  0  0  0  0  0  0  0  0  0  0
  148.3161  137.8878  155.5185 N   0  0  0  0  0  0  0  0  0  0  0  0
  147.7383  132.4038  152.0620 H   0  0  0  0  0  0  0  0  0  0  0  0
  146.1582  132.8389  152.6873 H   0  0  0  0  0  0  0  0  0  0  0  0
  147.3796  134.0778  152.4278 H   0  0  0  0  0  0  0  0  0  0  0  0
  147.3269  133.6884  149.9851 H   0  0  0  0  0  0  0  0  0  0  0  0
  145.8944  132.1722  148.8483 H   0  0  0  0  0  0  0  0  0  0  0  0
  146.7386  131.2526  150.0646 H   0  0  0  0  0  0  0  0  0  0  0  0
  144.2958  130.6815  149.9617 H   0  0  0  0  0  0  0  0  0  0  0  0
  144.7430  131.2881  151.5371 H   0  0  0  0  0  0  0  0  0  0  0  0
  143.3904  132.8717  149.2993 H   0  0  0  0  0  0  0  0  0  0  0  0
  142.6593  132.3900  150.8116 H   0  0  0  0  0  0  0  0  0  0  0  0
  143.3603  134.7747  150.8392 H   0  0  0  0  0  0  0  0  0  0  0  0
  144.1865  133.8749  152.0832 H   0  0  0  0  0  0  0  0  0  0  0  0
  146.8680  135.9439  150.5025 H   0  0  0  0  0  0  0  0  0  0  0  0
  145.2176  136.5129  150.4075 H   0  0  0  0  0  0  0  0  0  0  0  0
  144.7314  136.0434  152.6972 H   0  0  0  0  0  0  0  0  0  0  0  0
  146.1485  135.0461  152.9168 H   0  0  0  0  0  0  0  0  0  0  0  0
  147.4530  137.2089  152.5052 H   0  0  0  0  0  0  0  0  0  0  0  0
  146.4930  139.8036  154.7791 H   0  0  0  0  0  0  0  0  0  0  0  0
  146.1478  140.5839  152.4497 H   0  0  0  0  0  0  0  0  0  0  0  0
  147.5749  139.7053  151.9137 H   0  0  0  0  0  0  0  0  0  0  0  0
  147.7361  141.0440  153.0444 H   0  0  0  0  0  0  0  0  0  0  0  0
  149.6885  139.7215  153.2728 H   0  0  0  0  0  0  0  0  0  0  0  0
  150.0453  137.0967  156.4292 H   0  0  0  0  0  0  0  0  0  0  0  0
  145.2628  134.4872  149.4339 H   0  0  0  0  0  0  0  0  0  0  0  0
  1  2  1  0  0  0  0
  1 20  1  0  0  0  0
  1 21  1  0  0  0  0
  1 22  1  0  0  0  0
  2  7  1  0  0  0  0
  2  3  1  0  0  0  0
  2 23  1  0  0  0  0
  3  4  1  0  0  0  0
  3 24  1  0  0  0  0
  3 25  1  0  0  0  0
  4  5  1  0  0  0  0
  4 26  1  0  0  0  0
  4 27  1  0  0  0  0
  5  6  1  0  0  0  0
  5 28  1  0  0  0  0
  5 29  1  0  0  0  0
  6  7  1  0  0  0  0
  6 30  1  0  0  0  0
  6 31  1  0  0  0  0
  7  8  1  0  0  0  0
  7 43  1  0  0  0  0
  8  9  1  0  0  0  0
  8 32  1  0  0  0  0
  8 33  1  0  0  0  0
  9 10  1  0  0  0  0
  9 34  1  0  0  0  0
  9 35  1  0  0  0  0
 10 11  1  0  0  0  0
 10 36  1  0  0  0  0
 11 12  2  0  0  0  0
 11 13  1  0  0  0  0
 13 14  1  0  0  0  0
 13 15  1  0  0  0  0
 13 37  1  0  0  0  0
 14 38  1  0  0  0  0
 14 39  1  0  0  0  0
 14 40  1  0  0  0  0
 15 19  1  0  0  0  0
 15 16  1  0  0  0  0
 16 17  2  0  0  0  0
 16 41  1  0  0  0  0
 17 18  1  0  0  0  0
 18 19  2  0  0  0  0
 18 42  1  0  0  0  0
M  CHG  1   7   1
M  END
> <s_m_source_file>
AV-unprocessed.smi

> <i_m_source_file_index>
1893

> <i_lp_mmshare_version>
43012

> <i_f3d_flags>
0

> <s_epik_input>
W0NIM11bQ0BASF0xW0NIMl1bQ0gyXVtDSDJdW0NIMl1OMVtDSDJdW0NIMl1bTkhdQyg9TylbQ0BIXShbQ0gzXSluMltjSF1uW2NIXW4y

> <s_epik_cmdline>
J2VwaWtfcHl0aG9uJywgJy1waCcsICc3LjAnLCAnLXRuJywgJzgnLCAnLW1hJywgJzIwMCcsICctbWV0YWxfYmluZGluZycsICctaW1hZScsICc8aW5maWxlLm1hZT4nLCAnLW9tYWUnLCAnPG91dGZpbGUubWFlPic=

> <r_lp_tautomer_probability>
1

> <r_epik_Ionization_Penalty>
0.00266409

> <r_epik_Ionization_Penalty_Charging>
0.00265606

> <r_epik_Ionization_Penalty_Neutral>
8.02794e-06

> <r_epik_State_Penalty>
0.00184955

> <r_epik_Charging_Adjusted_Penalty>
0.00450561

> <i_epik_Tot_Q>
1

> <i_epik_Tot_abs_Q>
1

> <r_epik_Metal_State_Penalty>
-0

> <b_epik_Metal_Only>
0

> <s_lp_Force_Field>
OPLS_2005

> <r_lp_Energy>
25.286

> <b_lp_Chiralities_Consistent>
1

> <s_lp_Variant>
AV-unprocessed.smi:1893-2

> <Gold.Version>
5.8.1

> <Gold.Id.Protein>
6NUR|6NUR_protein|mol2

> <Gold.PLP.Fitness>
37.0490

> <Gold.PLP.PLP>
-29.6258

> <Gold.PLP.part.hbond>
-2.0000

> <Gold.PLP.part.metal>
0.0000

> <Gold.PLP.part.buried>
-0.7573

> <Gold.PLP.part.nonpolar>
-25.9884

> <Gold.PLP.part.repulsive>
0.3988

> <Gold.PLP.ligand.clash>
0.0000

> <Gold.PLP.ligand.torsion>
0.5093

> <Gold.PLP.Chemscore.Hbond>
1.7600

> <Gold.PLP.Chemscore.CHOScore>
1.0000

> <Gold.PLP.Chemscore.Metal>
0.0000

> <Gold.Chemscore.Hbonds>
donor molecule, donor type, donor heavy atom, donor atom, acceptor molecule, acceptor atom, score
      L1  H     7    43       P1  7921  0.91
      L1  H    10    36       P1  7948  0.86
      L1  C    16    41       P1  7957  1.00

> <Gold.PLP.Chemscore.Internal.Correction>
0.1616

> <Gold.Rescore>
     Score         DG    S(hbond)    S(metal)    S(lipo)     H(rot)  DE(clash)    DE(int)     intcor
     12.86     -13.60       1.67        0.00      77.13       2.54       0.05       0.69       ----

> <Gold.Chemscore.Fitness>
12.8611

> <Gold.Chemscore.DG>
-13.6010

> <Gold.Chemscore.ZeroCoef>
-5.4800

> <Gold.Chemscore.Hbond>
1.6746

> <Gold.Chemscore.Metal>
0.0000

> <Gold.Chemscore.Lipo>
77.1319

> <Gold.Chemscore.Internal_Hbond>
0.0000

> <Gold.Chemscore.DEClash>
0.0487

> <Gold.Chemscore.DEInternal>
0.6912

> <Gold.Chemscore.Rot>
2.5377

> <Gold.Chemscore.Internal.Correction>
   9.000000E+99

> <Gold.Chemscore.Hbonds>
donor molecule, donor type, donor heavy atom, donor atom, acceptor molecule, acceptor atom, score
      L1  H     7    43       P1  7921  0.82
      L1  H    10    36       P1  7948  0.85

> <Gold.Chemscore.Hbond.Weighted>
-5.5931

> <Gold.Chemscore.Metal.Weighted>
-0.0000

> <Gold.Chemscore.Lipo.Weighted>
-9.0244

> <Gold.Chemscore.Internal_Hbond.Weighted>
0.0000

> <Gold.Chemscore.DEClash.Weighted>
0.0487

> <Gold.Chemscore.DEInternal.Weighted>
0.6912

> <Gold.Chemscore.Rot.Weighted>
6.4966

> <Gold.Chemscore.Internal.Correction.Weighted>
   9.000000E+99

> <Gold.Protein.RotatedTorsions>
[ 6907 6896 6895 6894 ] final -179.49 input  -60.11 | X-H torsion
[ 7974 7965 7964 7962 ] final  -13.65 input  175.53 | X-H torsion
[ 8008 7997 7996 7995 ] final  -73.34 input   59.86 | X-H torsion
[ 10167 10162 10161 10158 ] final -140.64 input  -65.29 | X-H torsion
[ 10718 10713 10712 10709 ] final    3.01 input   66.30 | X-H torsion
[ 10763 10752 10751 10750 ] final   -6.40 input  -60.55 | X-H torsion
[ 11005 11000 10999 10996 ] final  -49.65 input  -57.11 | X-H torsion

> <Gold.Protein.ActiveResidues>
 VAL166  LYS551  ARG553  GLY616  TRP617  ASP618  TYR619  PRO620  LYS621  CYS622 
 ASP623  PHE694  ASN695  SER759  ASP760  ASP761  ALA762  ILE779  LEU786  VAL792 
 PHE793  MET794  SER795  GLU796  ALA797  LYS798  CYS799  TRP800  GLU811  SER814 

> <Gold.Protein.RotatedAtoms>
  151.6543  133.3319  159.3158 H   0  0  0  0  0  0  0  0  0  0  0  0  # atno 6907 bound_to 6896
  150.7945  134.6998  159.6553 H   0  0  0  0  0  0  0  0  0  0  0  0  # atno 6908 bound_to 6896
  152.4030  134.6259  160.0114 H   0  0  0  0  0  0  0  0  0  0  0  0  # atno 6909 bound_to 6896
  146.2106  140.3234  142.8392 H   0  0  0  0  0  0  0  0  0  0  0  0  # atno 7974 bound_to 7965
  154.5239  140.0781  156.8222 H   0  0  0  0  0  0  0  0  0  0  0  0  # atno 8008 bound_to 7997
  155.3517  140.3413  155.4221 H   0  0  0  0  0  0  0  0  0  0  0  0  # atno 8009 bound_to 7997
  156.1711  140.1620  156.8433 H   0  0  0  0  0  0  0  0  0  0  0  0  # atno 8010 bound_to 7997
  139.8262  143.7507  152.2666 H   0  0  0  0  0  0  0  0  0  0  0  0  # atno 10167 bound_to 10162
  156.8714  130.5621  149.5657 H   0  0  0  0  0  0  0  0  0  0  0  0  # atno 10718 bound_to 10713
  153.4119  135.7008  153.6353 H   0  0  0  0  0  0  0  0  0  0  0  0  # atno 10763 bound_to 10752
  153.4844  135.3686  155.2459 H   0  0  0  0  0  0  0  0  0  0  0  0  # atno 10764 bound_to 10752
  154.8717  135.4074  154.3472 H   0  0  0  0  0  0  0  0  0  0  0  0  # atno 10765 bound_to 10752
  141.0771  133.6663  156.3617 H   0  0  0  0  0  0  0  0  0  0  0  0  # atno 11005 bound_to 11000
  144.8904  140.7516  143.5930 LP  0  0  0  0  0  0  0  0  0  0  0  0  # atno 17320 bound_to 7965
  145.3156  139.1804  143.4615 LP  0  0  0  0  0  0  0  0  0  0  0  0  # atno 17321 bound_to 7965
  139.7701  144.7479  151.0237 LP  0  0  0  0  0  0  0  0  0  0  0  0  # atno 17342 bound_to 10162
  140.7810  143.4654  151.0219 LP  0  0  0  0  0  0  0  0  0  0  0  0  # atno 17343 bound_to 10162
  156.0724  130.5754  150.9409 LP  0  0  0  0  0  0  0  0  0  0  0  0  # atno 17370 bound_to 10713
  157.6193  131.0931  150.8652 LP  0  0  0  0  0  0  0  0  0  0  0  0  # atno 17371 bound_to 10713
  140.5549  134.5991  157.5418 LP  0  0  0  0  0  0  0  0  0  0  0  0  # atno 17394 bound_to 11000
  139.9584  134.7495  156.0291 LP  0  0  0  0  0  0  0  0  0  0  0  0  # atno 17395 bound_to 11000

$$$$
