AV-unprocessed.smi:1645|AV-procd|sdf|6618|dock2
  -GOLD-   22720 7313D 1   1.00000     0.00000
 Structure written by MMmdl.
 55 58  0  0  0  0  0  0  0  0  4 V2000
  153.7747  136.3151  160.8694 O   0  0  0  0  0  0  0  0  0  0  0  0
  154.9920  136.4773  160.7287 C   0  0  0  0  0  0  0  0  0  0  0  0
  155.4955  137.7070  160.5218 N   0  0  0  0  0  0  0  0  0  0  0  0
  154.8085  138.9453  160.4162 C   0  0  0  0  0  0  0  0  0  0  0  0
  153.4518  138.9171  160.0359 C   0  0  0  0  0  0  0  0  0  0  0  0
  152.7350  140.1241  159.9069 C   0  0  0  0  0  0  0  0  0  0  0  0
  153.3862  141.3612  160.1439 C   0  0  0  0  0  0  0  0  0  0  0  0
  152.7471  142.6177  160.0508 N   0  0  0  0  0  0  0  0  0  0  0  0
  152.8036  143.4644  161.2466 C   0  0  0  0  0  0  0  0  0  0  0  0
  151.7506  144.5846  161.1928 C   0  0  0  0  0  0  0  0  0  0  0  0
  151.8584  145.3850  159.8877 C   0  0  0  0  0  0  0  0  0  0  0  0
  151.7522  144.4366  158.6857 C   0  0  0  0  0  0  0  0  0  0  0  0
  152.8052  143.3184  158.7664 C   0  0  0  0  0  0  0  0  0  0  0  0
  154.6976  141.3358  160.4858 N   0  3  0  0  0  0  0  0  0  0  0  0
  155.4204  140.2031  160.6247 C   0  0  0  0  0  0  0  0  0  0  0  0
  155.9620  135.5243  160.7369 N   0  5  0  0  0  0  0  0  0  0  0  0
  156.0083  134.3878  161.6594 C   0  0  2  0  0  0  0  0  0  0  0  0
  155.4191  133.1208  161.0299 C   0  0  0  0  0  0  0  0  0  0  0  0
  154.8425  132.3154  162.2087 C   0  0  0  0  0  0  0  0  0  0  0  0
  154.7876  133.2247  163.3825 N   0  3  1  0  0  0  0  0  0  0  0  0
  155.6563  132.7501  164.5010 C   0  0  0  0  0  0  0  0  0  0  0  0
  155.8219  133.7969  165.6082 C   0  0  0  0  0  0  0  0  0  0  0  0
  156.4194  135.0773  165.0236 C   0  0  0  0  0  0  0  0  0  0  0  0
  155.4736  135.6279  163.9501 C   0  0  0  0  0  0  0  0  0  0  0  0
  155.0712  134.5929  162.8636 C   0  0  1  0  0  0  0  0  0  0  0  0
  156.4857  137.7388  160.3284 H   0  0  0  0  0  0  0  0  0  0  0  0
  152.9567  137.9749  159.8504 H   0  0  0  0  0  0  0  0  0  0  0  0
  151.6965  140.0748  159.6171 H   0  0  0  0  0  0  0  0  0  0  0  0
  152.6460  142.8861  162.1569 H   0  0  0  0  0  0  0  0  0  0  0  0
  153.8025  143.8967  161.3186 H   0  0  0  0  0  0  0  0  0  0  0  0
  150.7526  144.1516  161.2732 H   0  0  0  0  0  0  0  0  0  0  0  0
  151.8694  145.2485  162.0495 H   0  0  0  0  0  0  0  0  0  0  0  0
  151.0739  146.1411  159.8425 H   0  0  0  0  0  0  0  0  0  0  0  0
  152.8101  145.9170  159.8566 H   0  0  0  0  0  0  0  0  0  0  0  0
  150.7542  143.9965  158.6564 H   0  0  0  0  0  0  0  0  0  0  0  0
  151.8719  144.9939  157.7561 H   0  0  0  0  0  0  0  0  0  0  0  0
  153.8045  143.7341  158.6312 H   0  0  0  0  0  0  0  0  0  0  0  0
  152.6279  142.6202  157.9479 H   0  0  0  0  0  0  0  0  0  0  0  0
  156.4577  140.3507  160.8862 H   0  0  0  0  0  0  0  0  0  0  0  0
  157.0118  134.1741  162.0315 H   0  0  0  0  0  0  0  0  0  0  0  0
  154.6107  133.3722  160.3408 H   0  0  0  0  0  0  0  0  0  0  0  0
  156.1641  132.5578  160.4666 H   0  0  0  0  0  0  0  0  0  0  0  0
  153.8374  131.9628  161.9738 H   0  0  0  0  0  0  0  0  0  0  0  0
  155.4477  131.4288  162.4091 H   0  0  0  0  0  0  0  0  0  0  0  0
  155.2299  131.8355  164.9140 H   0  0  0  0  0  0  0  0  0  0  0  0
  156.6440  132.4867  164.1183 H   0  0  0  0  0  0  0  0  0  0  0  0
  154.8596  134.0072  166.0768 H   0  0  0  0  0  0  0  0  0  0  0  0
  156.4727  133.4078  166.3917 H   0  0  0  0  0  0  0  0  0  0  0  0
  156.5660  135.8190  165.8093 H   0  0  0  0  0  0  0  0  0  0  0  0
  157.4026  134.8759  164.5965 H   0  0  0  0  0  0  0  0  0  0  0  0
  154.5625  135.9548  164.4529 H   0  0  0  0  0  0  0  0  0  0  0  0
  155.8920  136.5339  163.5072 H   0  0  0  0  0  0  0  0  0  0  0  0
  154.1185  134.9391  162.4564 H   0  0  0  0  0  0  0  0  0  0  0  0
  153.8423  133.2350  163.7372 H   0  0  0  0  0  0  0  0  0  0  0  0
  155.1690  142.2249  160.6523 H   0  0  0  0  0  0  0  0  0  0  0  0
  1  2  2  0  0  0  0
  2  3  1  0  0  0  0
  2 16  1  0  0  0  0
  3  4  1  0  0  0  0
  3 26  1  0  0  0  0
  4 15  1  0  0  0  0
  4  5  2  0  0  0  0
  5  6  1  0  0  0  0
  5 27  1  0  0  0  0
  6  7  2  0  0  0  0
  6 28  1  0  0  0  0
  7  8  1  0  0  0  0
  7 14  1  0  0  0  0
  8 13  1  0  0  0  0
  8  9  1  0  0  0  0
  9 10  1  0  0  0  0
  9 29  1  0  0  0  0
  9 30  1  0  0  0  0
 10 11  1  0  0  0  0
 10 31  1  0  0  0  0
 10 32  1  0  0  0  0
 11 12  1  0  0  0  0
 11 33  1  0  0  0  0
 11 34  1  0  0  0  0
 12 13  1  0  0  0  0
 12 35  1  0  0  0  0
 12 36  1  0  0  0  0
 13 37  1  0  0  0  0
 13 38  1  0  0  0  0
 14 15  2  0  0  0  0
 14 55  1  0  0  0  0
 15 39  1  0  0  0  0
 16 17  1  0  0  0  0
 17 25  1  0  0  0  0
 17 18  1  0  0  0  0
 17 40  1  0  0  0  0
 18 19  1  0  0  0  0
 18 41  1  0  0  0  0
 18 42  1  0  0  0  0
 19 20  1  0  0  0  0
 19 43  1  0  0  0  0
 19 44  1  0  0  0  0
 20 25  1  0  0  0  0
 20 21  1  0  0  0  0
 20 54  1  0  0  0  0
 21 22  1  0  0  0  0
 21 45  1  0  0  0  0
 21 46  1  0  0  0  0
 22 23  1  0  0  0  0
 22 47  1  0  0  0  0
 22 48  1  0  0  0  0
 23 24  1  0  0  0  0
 23 49  1  0  0  0  0
 23 50  1  0  0  0  0
 24 25  1  0  0  0  0
 24 51  1  0  0  0  0
 24 52  1  0  0  0  0
 25 53  1  0  0  0  0
M  CHG  1  14   1
M  CHG  1  16  -1
M  CHG  1  20   1
M  END
> <s_m_source_file>
AV-unprocessed.smi

> <i_m_source_file_index>
1645

> <i_lp_mmshare_version>
43012

> <i_f3d_flags>
0

> <s_epik_input>
W0NIMl0xW0NIMl1bQ0gyXVtDSDJdW0NASF0oTjEyKVtDQEBIXShbQ0gyXVtDSDJdMilbTkhdQyg9TylbTkhdYzNbY0hdW2NIXWMobltjSF0zKU40W0NIMl1bQ0gyXVtDSDJdW0NIMl1bQ0gyXTQ=

> <s_epik_cmdline>
J2VwaWtfcHl0aG9uJywgJy1waCcsICc3LjAnLCAnLXRuJywgJzgnLCAnLW1hJywgJzIwMCcsICctbWV0YWxfYmluZGluZycsICctaW1hZScsICc8aW5maWxlLm1hZT4nLCAnLW9tYWUnLCAnPG91dGZpbGUubWFlPic=

> <r_lp_tautomer_probability>
0.999994

> <r_epik_Ionization_Penalty>
8.55589

> <r_epik_Ionization_Penalty_Charging>
8.55589

> <r_epik_Ionization_Penalty_Neutral>
3.8092e-06

> <r_epik_State_Penalty>
8.15703

> <r_epik_Charging_Adjusted_Penalty>
16.7129

> <i_epik_Tot_Q>
1

> <i_epik_Tot_abs_Q>
3

> <r_epik_Metal_State_Penalty>
4.13781

> <b_epik_Metal_Only>
1

> <s_lp_Force_Field>
OPLS_2005

> <r_lp_Energy>
57.5276

> <b_lp_Chiralities_Consistent>
1

> <s_lp_Variant>
AV-unprocessed.smi:1645-19

> <Gold.Version>
5.8.1

> <Gold.Id.Protein>
6NUR|6NUR_protein|mol2

> <Gold.PLP.Fitness>
45.6741

> <Gold.PLP.PLP>
-44.3279

> <Gold.PLP.part.hbond>
-1.6510

> <Gold.PLP.part.metal>
0.0000

> <Gold.PLP.part.buried>
-4.5099

> <Gold.PLP.part.nonpolar>
-38.8116

> <Gold.PLP.part.repulsive>
0.0841

> <Gold.PLP.ligand.clash>
0.0000

> <Gold.PLP.ligand.torsion>
1.0809

> <Gold.PLP.Chemscore.Hbond>
0.9750

> <Gold.PLP.Chemscore.CHOScore>
0.0000

> <Gold.PLP.Chemscore.Metal>
0.0000

> <Gold.Chemscore.Hbonds>
donor molecule, donor type, donor heavy atom, donor atom, acceptor molecule, acceptor atom, score
      P1  H  6896  6908       L1     1  0.49

> <Gold.PLP.Chemscore.Internal.Correction>
0.5830

> <Gold.Rescore>
     Score         DG    S(hbond)    S(metal)    S(lipo)     H(rot)  DE(clash)    DE(int)     intcor
     18.18     -20.85       0.99        0.00     128.64       1.17       0.05       2.62       ----

> <Gold.Chemscore.Fitness>
18.1823

> <Gold.Chemscore.DG>
-20.8468

> <Gold.Chemscore.ZeroCoef>
-5.4800

> <Gold.Chemscore.Hbond>
0.9937

> <Gold.Chemscore.Metal>
0.0000

> <Gold.Chemscore.Lipo>
128.6403

> <Gold.Chemscore.Internal_Hbond>
0.0000

> <Gold.Chemscore.DEClash>
0.0459

> <Gold.Chemscore.DEInternal>
2.6185

> <Gold.Chemscore.Rot>
1.1731

> <Gold.Chemscore.Internal.Correction>
   9.000000E+99

> <Gold.Chemscore.Hbonds>
donor molecule, donor type, donor heavy atom, donor atom, acceptor molecule, acceptor atom, score
      P1  H  6896  6908       L1     1  0.50

> <Gold.Chemscore.Hbond.Weighted>
-3.3191

> <Gold.Chemscore.Metal.Weighted>
-0.0000

> <Gold.Chemscore.Lipo.Weighted>
-15.0509

> <Gold.Chemscore.Internal_Hbond.Weighted>
0.0000

> <Gold.Chemscore.DEClash.Weighted>
0.0459

> <Gold.Chemscore.DEInternal.Weighted>
2.6185

> <Gold.Chemscore.Rot.Weighted>
3.0032

> <Gold.Chemscore.Internal.Correction.Weighted>
   9.000000E+99

> <Gold.Protein.RotatedTorsions>
[ 6907 6896 6895 6894 ] final  -81.75 input  -60.11 | X-H torsion
[ 7974 7965 7964 7962 ] final  -46.14 input  175.53 | X-H torsion
[ 8008 7997 7996 7995 ] final -157.44 input   59.86 | X-H torsion
[ 10167 10162 10161 10158 ] final  -83.14 input  -65.29 | X-H torsion
[ 10718 10713 10712 10709 ] final  -89.55 input   66.30 | X-H torsion
[ 10763 10752 10751 10750 ] final  161.63 input  -60.55 | X-H torsion
[ 11005 11000 10999 10996 ] final  138.70 input  -57.11 | X-H torsion

> <Gold.Protein.ActiveResidues>
 VAL166  LYS551  ARG553  GLY616  TRP617  ASP618  TYR619  PRO620  LYS621  CYS622 
 ASP623  PHE694  ASN695  SER759  ASP760  ASP761  ALA762  ILE779  LEU786  VAL792 
 PHE793  MET794  SER795  GLU796  ALA797  LYS798  CYS799  TRP800  GLU811  SER814 

> <Gold.Protein.RotatedAtoms>
  150.6907  134.3770  159.5017 H   0  0  0  0  0  0  0  0  0  0  0  0  # atno 6907 bound_to 6896
  152.1578  134.8934  160.0553 H   0  0  0  0  0  0  0  0  0  0  0  0  # atno 6908 bound_to 6896
  152.0007  133.3790  159.4217 H   0  0  0  0  0  0  0  0  0  0  0  0  # atno 6909 bound_to 6896
  145.9749  140.7345  142.9392 H   0  0  0  0  0  0  0  0  0  0  0  0  # atno 7974 bound_to 7965
  155.7324  140.0803  157.2283 H   0  0  0  0  0  0  0  0  0  0  0  0  # atno 8008 bound_to 7997
  154.4031  140.1593  156.2578 H   0  0  0  0  0  0  0  0  0  0  0  0  # atno 8009 bound_to 7997
  155.9096  140.3404  155.6091 H   0  0  0  0  0  0  0  0  0  0  0  0  # atno 8010 bound_to 7997
  140.4255  143.2568  151.8832 H   0  0  0  0  0  0  0  0  0  0  0  0  # atno 10167 bound_to 10162
  155.9985  130.4876  150.5188 H   0  0  0  0  0  0  0  0  0  0  0  0  # atno 10718 bound_to 10713
  154.2659  135.2767  155.2759 H   0  0  0  0  0  0  0  0  0  0  0  0  # atno 10763 bound_to 10752
  154.5344  135.5720  153.6789 H   0  0  0  0  0  0  0  0  0  0  0  0  # atno 10764 bound_to 10752
  152.9954  135.6235  154.2811 H   0  0  0  0  0  0  0  0  0  0  0  0  # atno 10765 bound_to 10752
  140.0202  134.9400  157.0459 H   0  0  0  0  0  0  0  0  0  0  0  0  # atno 11005 bound_to 11000
  144.6846  140.2811  143.7292 LP  0  0  0  0  0  0  0  0  0  0  0  0  # atno 17320 bound_to 7965
  145.7853  139.1906  143.2134 LP  0  0  0  0  0  0  0  0  0  0  0  0  # atno 17321 bound_to 7965
  139.4783  144.5392  151.8553 LP  0  0  0  0  0  0  0  0  0  0  0  0  # atno 17342 bound_to 10162
  140.4486  144.1886  150.5896 LP  0  0  0  0  0  0  0  0  0  0  0  0  # atno 17343 bound_to 10162
  157.3152  131.0671  151.1972 LP  0  0  0  0  0  0  0  0  0  0  0  0  # atno 17370 bound_to 10713
  157.2904  130.6793  149.6111 LP  0  0  0  0  0  0  0  0  0  0  0  0  # atno 17371 bound_to 10713
  140.4400  134.1691  155.7173 LP  0  0  0  0  0  0  0  0  0  0  0  0  # atno 17394 bound_to 11000
  141.1769  133.8495  157.1391 LP  0  0  0  0  0  0  0  0  0  0  0  0  # atno 17395 bound_to 11000

$$$$
