AV-unprocessed.smi:632|AV-procd|sdf|3129|dock6
  -GOLD-   22720 0 53D 1   1.00000     0.00000
 Structure written by MMmdl.
 41 42  0  0  0  0  0  0  0  0  2 V2000
  154.1310  130.4817  155.4857 C   0  0  0  0  0  0  0  0  0  0  0  0
  152.9498  130.7668  156.4335 C   0  0  0  0  0  0  0  0  0  0  0  0
  152.9225  129.6446  157.4948 C   0  0  0  0  0  0  0  0  0  0  0  0
  153.1602  132.1002  157.1777 C   0  0  0  0  0  0  0  0  0  0  0  0
  151.6609  130.8149  155.6460 C   0  0  0  0  0  0  0  0  0  0  0  0
  150.8876  131.9071  155.6139 N   0  0  0  0  0  0  0  0  0  0  0  0
  149.7554  131.7390  154.8311 N   0  0  0  0  0  0  0  0  0  0  0  0
  149.6842  130.5281  154.2631 C   0  0  0  0  0  0  0  0  0  0  0  0
  148.6670  130.1600  153.4667 N   0  5  0  0  0  0  0  0  0  0  0  0
  147.5387  130.9051  153.4239 C   0  0  0  0  0  0  0  0  0  0  0  0
  146.8871  131.2986  154.3942 O   0  0  0  0  0  0  0  0  0  0  0  0
  147.1442  131.2155  152.1802 N   0  0  0  0  0  0  0  0  0  0  0  0
  145.9748  132.0133  151.8190 C   0  0  2  0  0  0  0  0  0  0  0  0
  144.9585  131.1580  151.0369 C   0  0  0  0  0  0  0  0  0  0  0  0
  143.7460  131.9920  150.5861 C   0  0  0  0  0  0  0  0  0  0  0  0
  144.1587  133.2432  149.7873 C   0  0  2  0  0  0  0  0  0  0  0  0
  144.6573  132.8687  148.5182 O   0  0  0  0  0  0  0  0  0  0  0  0
  145.2113  134.0772  150.5424 C   0  0  0  0  0  0  0  0  0  0  0  0
  146.4168  133.2302  150.9865 C   0  0  0  0  0  0  0  0  0  0  0  0
  151.0326  129.4765  154.6846 S   0  0  0  0  0  0  0  0  0  0  0  0
  155.0741  130.4269  156.0302 H   0  0  0  0  0  0  0  0  0  0  0  0
  154.2364  131.2630  154.7322 H   0  0  0  0  0  0  0  0  0  0  0  0
  153.9972  129.5350  154.9606 H   0  0  0  0  0  0  0  0  0  0  0  0
  152.7970  128.6614  157.0389 H   0  0  0  0  0  0  0  0  0  0  0  0
  152.1116  129.7872  158.2103 H   0  0  0  0  0  0  0  0  0  0  0  0
  153.8517  129.6164  158.0649 H   0  0  0  0  0  0  0  0  0  0  0  0
  154.0760  132.0860  157.7696 H   0  0  0  0  0  0  0  0  0  0  0  0
  152.3321  132.3104  157.8557 H   0  0  0  0  0  0  0  0  0  0  0  0
  153.2369  132.9380  156.4837 H   0  0  0  0  0  0  0  0  0  0  0  0
  147.7085  130.8683  151.4186 H   0  0  0  0  0  0  0  0  0  0  0  0
  145.4975  132.3855  152.7275 H   0  0  0  0  0  0  0  0  0  0  0  0
  145.4420  130.7159  150.1646 H   0  0  0  0  0  0  0  0  0  0  0  0
  144.6176  130.3250  151.6528 H   0  0  0  0  0  0  0  0  0  0  0  0
  143.0642  131.3754  149.9994 H   0  0  0  0  0  0  0  0  0  0  0  0
  143.1877  132.3042  151.4695 H   0  0  0  0  0  0  0  0  0  0  0  0
  143.2765  133.8597  149.6111 H   0  0  0  0  0  0  0  0  0  0  0  0
  145.3780  133.4390  148.2984 H   0  0  0  0  0  0  0  0  0  0  0  0
  145.5461  134.9126  149.9264 H   0  0  0  0  0  0  0  0  0  0  0  0
  144.7470  134.5185  151.4253 H   0  0  0  0  0  0  0  0  0  0  0  0
  147.1030  133.8485  151.5663 H   0  0  0  0  0  0  0  0  0  0  0  0
  146.9720  132.8971  150.1084 H   0  0  0  0  0  0  0  0  0  0  0  0
  1  2  1  0  0  0  0
  1 21  1  0  0  0  0
  1 22  1  0  0  0  0
  1 23  1  0  0  0  0
  2  3  1  0  0  0  0
  2  4  1  0  0  0  0
  2  5  1  0  0  0  0
  3 24  1  0  0  0  0
  3 25  1  0  0  0  0
  3 26  1  0  0  0  0
  4 27  1  0  0  0  0
  4 28  1  0  0  0  0
  4 29  1  0  0  0  0
  5 20  1  0  0  0  0
  5  6  2  0  0  0  0
  6  7  1  0  0  0  0
  7  8  2  0  0  0  0
  8  9  1  0  0  0  0
  8 20  1  0  0  0  0
  9 10  1  0  0  0  0
 10 11  2  0  0  0  0
 10 12  1  0  0  0  0
 12 13  1  0  0  0  0
 12 30  1  0  0  0  0
 13 19  1  0  0  0  0
 13 14  1  0  0  0  0
 13 31  1  0  0  0  0
 14 15  1  0  0  0  0
 14 32  1  0  0  0  0
 14 33  1  0  0  0  0
 15 16  1  0  0  0  0
 15 34  1  0  0  0  0
 15 35  1  0  0  0  0
 16 17  1  0  0  0  0
 16 18  1  0  0  0  0
 16 36  1  0  0  0  0
 17 37  1  0  0  0  0
 18 19  1  0  0  0  0
 18 38  1  0  0  0  0
 18 39  1  0  0  0  0
 19 40  1  0  0  0  0
 19 41  1  0  0  0  0
M  CHG  1   9  -1
M  END
> <s_m_source_file>
AV-unprocessed.smi

> <i_m_source_file_index>
632

> <i_lp_mmshare_version>
43012

> <i_f3d_flags>
0

> <s_epik_input>
W0NIM11DKFtDSDNdKShbQ0gzXSljMW5uYyhzMSlbTkhdQyg9TylbTkhdW0NAQEhdMltDSDJdW0NIMl1bQ0BASF0oW09IXSlbQ0gyXVtDSDJdMg==

> <s_epik_cmdline>
J2VwaWtfcHl0aG9uJywgJy1waCcsICc3LjAnLCAnLXRuJywgJzgnLCAnLW1hJywgJzIwMCcsICctbWV0YWxfYmluZGluZycsICctaW1hZScsICc8aW5maWxlLm1hZT4nLCAnLW9tYWUnLCAnPG91dGZpbGUubWFlPic=

> <r_lp_tautomer_probability>
1

> <r_epik_Ionization_Penalty>
4.62389

> <r_epik_Ionization_Penalty_Charging>
4.45204

> <r_epik_Ionization_Penalty_Neutral>
0.171842

> <r_epik_State_Penalty>
4.45172

> <r_epik_Charging_Adjusted_Penalty>
8.90376

> <i_epik_Tot_Q>
-1

> <i_epik_Tot_abs_Q>
1

> <r_epik_Metal_State_Penalty>
0.795834

> <b_epik_Metal_Only>
1

> <s_lp_Force_Field>
OPLS_2005

> <r_lp_Energy>
3.40986

> <b_lp_Chiralities_Consistent>
1

> <s_lp_Variant>
AV-unprocessed.smi:632-4

> <Gold.Version>
5.8.1

> <Gold.Id.Protein>
6NUR|6NUR_protein|mol2

> <Gold.PLP.Fitness>
38.2927

> <Gold.PLP.PLP>
-33.2724

> <Gold.PLP.part.hbond>
-3.0000

> <Gold.PLP.part.metal>
0.0000

> <Gold.PLP.part.buried>
-4.9289

> <Gold.PLP.part.nonpolar>
-25.5777

> <Gold.PLP.part.repulsive>
0.2404

> <Gold.PLP.ligand.clash>
0.0000

> <Gold.PLP.ligand.torsion>
0.4973

> <Gold.PLP.Chemscore.Hbond>
2.0000

> <Gold.PLP.Chemscore.CHOScore>
0.0000

> <Gold.PLP.Chemscore.Metal>
0.0000

> <Gold.Chemscore.Hbonds>
donor molecule, donor type, donor heavy atom, donor atom, acceptor molecule, acceptor atom, score
      L1  H    12    30       P1 10747  1.00
      L1  H    17    37       P1  7921  1.00

> <Gold.PLP.Chemscore.Internal.Correction>
0.0148

> <Gold.Rescore>
     Score         DG    S(hbond)    S(metal)    S(lipo)     H(rot)  DE(clash)    DE(int)     intcor
     15.37     -16.08       1.97        0.00      71.10       1.67       0.04       0.67       ----

> <Gold.Chemscore.Fitness>
15.3694

> <Gold.Chemscore.DG>
-16.0787

> <Gold.Chemscore.ZeroCoef>
-5.4800

> <Gold.Chemscore.Hbond>
1.9655

> <Gold.Chemscore.Metal>
0.0000

> <Gold.Chemscore.Lipo>
71.0993

> <Gold.Chemscore.Internal_Hbond>
0.0000

> <Gold.Chemscore.DEClash>
0.0406

> <Gold.Chemscore.DEInternal>
0.6687

> <Gold.Chemscore.Rot>
1.6737

> <Gold.Chemscore.Internal.Correction>
   9.000000E+99

> <Gold.Chemscore.Hbonds>
donor molecule, donor type, donor heavy atom, donor atom, acceptor molecule, acceptor atom, score
      L1  H    12    30       P1 10747  0.99
      L1  H    17    37       P1  7921  0.25

> <Gold.Chemscore.Hbond.Weighted>
-6.5648

> <Gold.Chemscore.Metal.Weighted>
-0.0000

> <Gold.Chemscore.Lipo.Weighted>
-8.3186

> <Gold.Chemscore.Internal_Hbond.Weighted>
0.0000

> <Gold.Chemscore.DEClash.Weighted>
0.0406

> <Gold.Chemscore.DEInternal.Weighted>
0.6687

> <Gold.Chemscore.Rot.Weighted>
4.2848

> <Gold.Chemscore.Internal.Correction.Weighted>
   9.000000E+99

> <Gold.Protein.RotatedTorsions>
[ 6907 6896 6895 6894 ] final    5.49 input  -60.11 | X-H torsion
[ 7974 7965 7964 7962 ] final  -51.77 input  175.53 | X-H torsion
[ 8008 7997 7996 7995 ] final   32.95 input   59.86 | X-H torsion
[ 10167 10162 10161 10158 ] final   77.60 input  -65.29 | X-H torsion
[ 10718 10713 10712 10709 ] final  174.54 input   66.30 | X-H torsion
[ 10763 10752 10751 10750 ] final  100.29 input  -60.55 | X-H torsion
[ 11005 11000 10999 10996 ] final -124.25 input  -57.11 | X-H torsion

> <Gold.Protein.ActiveResidues>
 VAL166  LYS551  ARG553  GLY616  TRP617  ASP618  TYR619  PRO620  LYS621  CYS622 
 ASP623  PHE694  ASN695  SER759  ASP760  ASP761  ALA762  ILE779  LEU786  VAL792 
 PHE793  MET794  SER795  GLU796  ALA797  LYS798  CYS799  TRP800  GLU811  SER814 

> <Gold.Protein.RotatedAtoms>
  151.6583  135.0992  160.0174 H   0  0  0  0  0  0  0  0  0  0  0  0  # atno 6907 bound_to 6896
  152.3961  133.6745  159.6286 H   0  0  0  0  0  0  0  0  0  0  0  0  # atno 6908 bound_to 6896
  150.7868  133.8788  159.3321 H   0  0  0  0  0  0  0  0  0  0  0  0  # atno 6909 bound_to 6896
  145.9154  140.7880  142.9674 H   0  0  0  0  0  0  0  0  0  0  0  0  # atno 7974 bound_to 7965
  155.1307  140.3257  155.4475 H   0  0  0  0  0  0  0  0  0  0  0  0  # atno 8008 bound_to 7997
  156.2635  140.2011  156.6375 H   0  0  0  0  0  0  0  0  0  0  0  0  # atno 8009 bound_to 7997
  154.6614  140.0547  157.0053 H   0  0  0  0  0  0  0  0  0  0  0  0  # atno 8010 bound_to 7997
  139.9799  144.5834  150.7910 H   0  0  0  0  0  0  0  0  0  0  0  0  # atno 10167 bound_to 10162
  156.9481  131.0022  151.2954 H   0  0  0  0  0  0  0  0  0  0  0  0  # atno 10718 bound_to 10713
  153.3121  135.4084  155.1344 H   0  0  0  0  0  0  0  0  0  0  0  0  # atno 10763 bound_to 10752
  154.8578  135.3567  154.5710 H   0  0  0  0  0  0  0  0  0  0  0  0  # atno 10764 bound_to 10752
  153.6139  135.7067  153.5395 H   0  0  0  0  0  0  0  0  0  0  0  0  # atno 10765 bound_to 10752
  140.9856  134.0612  157.3715 H   0  0  0  0  0  0  0  0  0  0  0  0  # atno 11005 bound_to 11000
  144.6747  140.1891  143.7398 LP  0  0  0  0  0  0  0  0  0  0  0  0  # atno 17320 bound_to 7965
  145.8619  139.2227  143.1712 LP  0  0  0  0  0  0  0  0  0  0  0  0  # atno 17321 bound_to 7965
  140.7493  143.2936  151.3265 LP  0  0  0  0  0  0  0  0  0  0  0  0  # atno 17342 bound_to 10162
  139.6418  144.0526  152.2560 LP  0  0  0  0  0  0  0  0  0  0  0  0  # atno 17343 bound_to 10162
  157.5740  130.8330  149.8430 LP  0  0  0  0  0  0  0  0  0  0  0  0  # atno 17370 bound_to 10713
  156.0375  130.3747  150.1523 LP  0  0  0  0  0  0  0  0  0  0  0  0  # atno 17371 bound_to 10713
  139.8969  135.0148  156.7073 LP  0  0  0  0  0  0  0  0  0  0  0  0  # atno 17394 bound_to 11000
  140.7120  133.9215  155.8090 LP  0  0  0  0  0  0  0  0  0  0  0  0  # atno 17395 bound_to 11000

$$$$
