AV-unprocessed.smi:2373|AV-procd|sdf|9440|dock4
  -GOLD-   2272013 73D 1   1.00000     0.00000
 Structure written by MMmdl.
 46 47  0  0  0  0  0  0  0  0  1 V2000
  145.7059  132.7770  149.5581 C   0  0  0  0  0  0  0  0  0  0  0  0
  145.2727  132.8336  150.9507 N   0  0  0  0  0  0  0  0  0  0  0  0
  145.1541  131.6045  151.7252 C   0  0  0  0  0  0  0  0  0  0  0  0
  144.9324  134.0768  151.5316 C   0  0  0  0  0  0  0  0  0  0  0  0
  144.9539  135.2766  150.7780 C   0  0  0  0  0  0  0  0  0  0  0  0
  144.6097  136.4889  151.4055 C   0  0  0  0  0  0  0  0  0  0  0  0
  144.2603  136.4861  152.7693 C   0  0  0  0  0  0  0  0  0  0  0  0
  143.9010  137.7219  153.3719 N   0  0  0  0  0  0  0  0  0  0  0  0
  143.5358  137.9566  154.6439 C   0  0  0  0  0  0  0  0  0  0  0  0
  143.4902  137.1098  155.5350 O   0  0  0  0  0  0  0  0  0  0  0  0
  143.2447  139.2557  154.8276 N   0  0  0  0  0  0  0  0  0  0  0  0
  142.8091  139.9266  156.0621 C   0  0  0  0  0  0  0  0  0  0  0  0
  142.6113  141.4550  155.8263 C   0  0  0  0  0  0  0  0  0  0  0  0
  143.8945  142.3088  155.8278 C   0  0  0  0  0  0  0  0  0  0  0  0
  144.6053  142.0957  154.6272 O   0  0  0  0  0  0  0  0  0  0  0  0
  141.4924  139.2322  156.4922 C   0  0  0  0  0  0  0  0  0  0  0  0
  141.0707  139.5752  157.9316 C   0  0  0  0  0  0  0  0  0  0  0  0
  142.1167  139.2427  158.8338 O   0  0  0  0  0  0  0  0  0  0  0  0
  143.3031  139.9853  158.5901 C   0  0  0  0  0  0  0  0  0  0  0  0
  143.8486  139.6697  157.1859 C   0  0  0  0  0  0  0  0  0  0  0  0
  144.2515  135.2401  153.4387 C   0  0  0  0  0  0  0  0  0  0  0  0
  144.5791  134.0759  152.8402 N   0  0  0  0  0  0  0  0  0  0  0  0
  146.5815  133.4082  149.4028 H   0  0  0  0  0  0  0  0  0  0  0  0
  144.9103  133.1194  148.8954 H   0  0  0  0  0  0  0  0  0  0  0  0
  145.9731  131.7617  149.2646 H   0  0  0  0  0  0  0  0  0  0  0  0
  144.1329  131.4748  152.0854 H   0  0  0  0  0  0  0  0  0  0  0  0
  145.8280  131.6257  152.5820 H   0  0  0  0  0  0  0  0  0  0  0  0
  145.4065  130.7303  151.1248 H   0  0  0  0  0  0  0  0  0  0  0  0
  145.2249  135.2917  149.7333 H   0  0  0  0  0  0  0  0  0  0  0  0
  144.6196  137.4107  150.8420 H   0  0  0  0  0  0  0  0  0  0  0  0
  143.9753  138.5318  152.7741 H   0  0  0  0  0  0  0  0  0  0  0  0
  143.3270  139.8538  154.0186 H   0  0  0  0  0  0  0  0  0  0  0  0
  142.0891  141.6197  154.8844 H   0  0  0  0  0  0  0  0  0  0  0  0
  141.9404  141.8508  156.5894 H   0  0  0  0  0  0  0  0  0  0  0  0
  143.6649  143.3711  155.9074 H   0  0  0  0  0  0  0  0  0  0  0  0
  144.5453  142.0493  156.6619 H   0  0  0  0  0  0  0  0  0  0  0  0
  144.1905  141.3916  154.1526 H   0  0  0  0  0  0  0  0  0  0  0  0
  140.6803  139.4593  155.8023 H   0  0  0  0  0  0  0  0  0  0  0  0
  141.6242  138.1501  156.4397 H   0  0  0  0  0  0  0  0  0  0  0  0
  140.8030  140.6276  158.0313 H   0  0  0  0  0  0  0  0  0  0  0  0
  140.1842  139.0018  158.2031 H   0  0  0  0  0  0  0  0  0  0  0  0
  143.1117  141.0520  158.7114 H   0  0  0  0  0  0  0  0  0  0  0  0
  144.0429  139.7147  159.3435 H   0  0  0  0  0  0  0  0  0  0  0  0
  144.1501  138.6212  157.1699 H   0  0  0  0  0  0  0  0  0  0  0  0
  144.7579  140.2470  157.0170 H   0  0  0  0  0  0  0  0  0  0  0  0
  143.9583  135.1463  154.4724 H   0  0  0  0  0  0  0  0  0  0  0  0
  1  2  1  0  0  0  0
  1 23  1  0  0  0  0
  1 24  1  0  0  0  0
  1 25  1  0  0  0  0
  2  3  1  0  0  0  0
  2  4  1  0  0  0  0
  3 26  1  0  0  0  0
  3 27  1  0  0  0  0
  3 28  1  0  0  0  0
  4 22  1  0  0  0  0
  4  5  2  0  0  0  0
  5  6  1  0  0  0  0
  5 29  1  0  0  0  0
  6  7  2  0  0  0  0
  6 30  1  0  0  0  0
  7  8  1  0  0  0  0
  7 21  1  0  0  0  0
  8  9  1  0  0  0  0
  8 31  1  0  0  0  0
  9 10  2  0  0  0  0
  9 11  1  0  0  0  0
 11 12  1  0  0  0  0
 11 32  1  0  0  0  0
 12 20  1  0  0  0  0
 12 13  1  0  0  0  0
 12 16  1  0  0  0  0
 13 14  1  0  0  0  0
 13 33  1  0  0  0  0
 13 34  1  0  0  0  0
 14 15  1  0  0  0  0
 14 35  1  0  0  0  0
 14 36  1  0  0  0  0
 15 37  1  0  0  0  0
 16 17  1  0  0  0  0
 16 38  1  0  0  0  0
 16 39  1  0  0  0  0
 17 18  1  0  0  0  0
 17 40  1  0  0  0  0
 17 41  1  0  0  0  0
 18 19  1  0  0  0  0
 19 20  1  0  0  0  0
 19 42  1  0  0  0  0
 19 43  1  0  0  0  0
 20 44  1  0  0  0  0
 20 45  1  0  0  0  0
 21 22  2  0  0  0  0
 21 46  1  0  0  0  0
M  END
> <s_m_source_file>
AV-unprocessed.smi

> <i_m_source_file_index>
2373

> <i_lp_mmshare_version>
43012

> <i_f3d_flags>
0

> <s_epik_input>
W0NIM11OKFtDSDNdKWMxW2NIXVtjSF1jKFtjSF1uMSlbTkhdQyg9TylbTkhdQzIoW0NIMl1bQ0gyXVtPSF0pW0NIMl1bQ0gyXU9bQ0gyXVtDSDJdMg==

> <s_epik_cmdline>
J2VwaWtfcHl0aG9uJywgJy1waCcsICc3LjAnLCAnLXRuJywgJzgnLCAnLW1hJywgJzIwMCcsICctbWV0YWxfYmluZGluZycsICctaW1hZScsICc8aW5maWxlLm1hZT4nLCAnLW9tYWUnLCAnPG91dGZpbGUubWFlPic=

> <r_lp_tautomer_probability>
1

> <r_epik_Ionization_Penalty>
0.631973

> <r_epik_Ionization_Penalty_Charging>
0

> <r_epik_Ionization_Penalty_Neutral>
0.631973

> <r_epik_State_Penalty>
0.647706

> <r_epik_Charging_Adjusted_Penalty>
0.647706

> <i_epik_Tot_Q>
0

> <i_epik_Tot_abs_Q>
0

> <r_epik_Metal_State_Penalty>
0.309159

> <b_epik_Metal_Only>
0

> <s_lp_Force_Field>
OPLS_2005

> <r_lp_Energy>
18.939

> <b_lp_Chiralities_Consistent>
1

> <s_lp_Variant>
AV-unprocessed.smi:2373-2

> <Gold.Version>
5.8.1

> <Gold.Id.Protein>
6NUR|6NUR_protein|mol2

> <Gold.PLP.Fitness>
40.9974

> <Gold.PLP.PLP>
-32.6196

> <Gold.PLP.part.hbond>
-5.2604

> <Gold.PLP.part.metal>
0.0000

> <Gold.PLP.part.buried>
-1.1502

> <Gold.PLP.part.nonpolar>
-26.7358

> <Gold.PLP.part.repulsive>
0.3313

> <Gold.PLP.ligand.clash>
0.0000

> <Gold.PLP.ligand.torsion>
0.3115

> <Gold.PLP.Chemscore.Hbond>
2.9913

> <Gold.PLP.Chemscore.CHOScore>
0.0000

> <Gold.PLP.Chemscore.Metal>
0.0000

> <Gold.Chemscore.Hbonds>
donor molecule, donor type, donor heavy atom, donor atom, acceptor molecule, acceptor atom, score
      L1  H     8    31       P1 10175  0.99
      L1  H    11    32       P1 10175  1.00
      L1  H    15    37       P1 10175  1.00

> <Gold.PLP.Chemscore.Internal.Correction>
0.0269

> <Gold.Rescore>
     Score         DG    S(hbond)    S(metal)    S(lipo)     H(rot)  DE(clash)    DE(int)     intcor
     11.13     -15.14       2.21        0.00      65.13       2.09       1.66       2.35       ----

> <Gold.Chemscore.Fitness>
11.1311

> <Gold.Chemscore.DG>
-15.1353

> <Gold.Chemscore.ZeroCoef>
-5.4800

> <Gold.Chemscore.Hbond>
2.2082

> <Gold.Chemscore.Metal>
0.0000

> <Gold.Chemscore.Lipo>
65.1258

> <Gold.Chemscore.Internal_Hbond>
0.0000

> <Gold.Chemscore.DEClash>
1.6592

> <Gold.Chemscore.DEInternal>
2.3450

> <Gold.Chemscore.Rot>
2.0859

> <Gold.Chemscore.Internal.Correction>
   9.000000E+99

> <Gold.Chemscore.Hbonds>
donor molecule, donor type, donor heavy atom, donor atom, acceptor molecule, acceptor atom, score
      L1  H     8    31       P1 10175  0.93
      L1  H    11    32       P1 10175  1.00
      L1  H    15    37       P1 10175  0.33

> <Gold.Chemscore.Hbond.Weighted>
-7.3755

> <Gold.Chemscore.Metal.Weighted>
-0.0000

> <Gold.Chemscore.Lipo.Weighted>
-7.6197

> <Gold.Chemscore.Internal_Hbond.Weighted>
0.0000

> <Gold.Chemscore.DEClash.Weighted>
1.6592

> <Gold.Chemscore.DEInternal.Weighted>
2.3450

> <Gold.Chemscore.Rot.Weighted>
5.3399

> <Gold.Chemscore.Internal.Correction.Weighted>
   9.000000E+99

> <Gold.Protein.RotatedTorsions>
[ 6907 6896 6895 6894 ] final -139.77 input  -60.11 | X-H torsion
[ 7974 7965 7964 7962 ] final   46.57 input  175.53 | X-H torsion
[ 8008 7997 7996 7995 ] final  162.62 input   59.86 | X-H torsion
[ 10167 10162 10161 10158 ] final  -95.51 input  -65.29 | X-H torsion
[ 10718 10713 10712 10709 ] final   68.80 input   66.30 | X-H torsion
[ 10763 10752 10751 10750 ] final   87.65 input  -60.55 | X-H torsion
[ 11005 11000 10999 10996 ] final  178.07 input  -57.11 | X-H torsion

> <Gold.Protein.ActiveResidues>
 VAL166  LYS551  ARG553  GLY616  TRP617  ASP618  TYR619  PRO620  LYS621  CYS622 
 ASP623  PHE694  ASN695  SER759  ASP760  ASP761  ALA762  ILE779  LEU786  VAL792 
 PHE793  MET794  SER795  GLU796  ALA797  LYS798  CYS799  TRP800  GLU811  SER814 

> <Gold.Protein.RotatedAtoms>
  151.0520  133.5616  159.2641 H   0  0  0  0  0  0  0  0  0  0  0  0  # atno 6907 bound_to 6896
  151.2623  135.0657  159.9112 H   0  0  0  0  0  0  0  0  0  0  0  0  # atno 6908 bound_to 6896
  152.5383  134.0264  159.8059 H   0  0  0  0  0  0  0  0  0  0  0  0  # atno 6909 bound_to 6896
  146.0378  139.4842  142.9797 H   0  0  0  0  0  0  0  0  0  0  0  0  # atno 7974 bound_to 7965
  156.2017  140.1745  156.7884 H   0  0  0  0  0  0  0  0  0  0  0  0  # atno 8008 bound_to 7997
  154.5601  140.0701  156.8836 H   0  0  0  0  0  0  0  0  0  0  0  0  # atno 8009 bound_to 7997
  155.2864  140.3352  155.4257 H   0  0  0  0  0  0  0  0  0  0  0  0  # atno 8010 bound_to 7997
  140.3034  143.3149  152.0225 H   0  0  0  0  0  0  0  0  0  0  0  0  # atno 10167 bound_to 10162
  157.6310  130.9393  150.0427 H   0  0  0  0  0  0  0  0  0  0  0  0  # atno 10718 bound_to 10713
  153.1690  135.4535  154.9876 H   0  0  0  0  0  0  0  0  0  0  0  0  # atno 10763 bound_to 10752
  154.7952  135.3235  154.7686 H   0  0  0  0  0  0  0  0  0  0  0  0  # atno 10764 bound_to 10752
  153.8165  135.6950  153.4888 H   0  0  0  0  0  0  0  0  0  0  0  0  # atno 10765 bound_to 10752
  140.3910  134.6862  157.4507 H   0  0  0  0  0  0  0  0  0  0  0  0  # atno 11005 bound_to 11000
  145.6935  141.0157  143.1542 LP  0  0  0  0  0  0  0  0  0  0  0  0  # atno 17320 bound_to 7965
  144.7060  139.8561  143.7430 LP  0  0  0  0  0  0  0  0  0  0  0  0  # atno 17321 bound_to 7965
  139.4910  144.6439  151.6819 LP  0  0  0  0  0  0  0  0  0  0  0  0  # atno 17342 bound_to 10162
  140.5631  144.0235  150.6179 LP  0  0  0  0  0  0  0  0  0  0  0  0  # atno 17343 bound_to 10162
  156.1514  130.3642  149.9433 LP  0  0  0  0  0  0  0  0  0  0  0  0  # atno 17370 bound_to 10713
  156.7452  130.9094  151.3634 LP  0  0  0  0  0  0  0  0  0  0  0  0  # atno 17371 bound_to 10713
  140.0406  134.6272  155.8985 LP  0  0  0  0  0  0  0  0  0  0  0  0  # atno 17394 bound_to 11000
  141.1891  133.6564  156.5351 LP  0  0  0  0  0  0  0  0  0  0  0  0  # atno 17395 bound_to 11000

$$$$
