AV-unprocessed.smi:2419|AV-procd|sdf|9553|dock1
  -GOLD-   2272013183D 1   1.00000     0.00000
 Structure written by MMmdl.
 27 28  0  0  0  0  0  0  0  0  2 V2000
  149.4823  135.9097  159.0145 O   0  0  0  0  0  0  0  0  0  0  0  0
  148.9815  136.9810  159.3639 C   0  0  0  0  0  0  0  0  0  0  0  0
  149.1868  138.0828  158.6305 N   0  0  0  0  0  0  0  0  0  0  0  0
  149.9690  138.1428  157.4010 C   0  0  0  0  0  0  0  0  0  0  0  0
  149.9838  139.5626  156.8194 C   0  0  0  0  0  0  0  0  0  0  0  0
  148.6230  139.9235  156.6821 O   0  0  0  0  0  0  0  0  0  0  0  0
  150.8204  140.6207  157.5622 C   0  0  0  0  0  0  0  0  0  0  0  0
  151.2846  141.1728  156.2132 C   0  0  0  0  0  0  0  0  0  0  0  0
  150.8554  139.8478  155.5814 C   0  0  0  0  0  0  0  0  0  0  0  0
  148.2089  137.1877  160.4549 N   0  5  0  0  0  0  0  0  0  0  0  0
  147.7574  136.1418  161.1663 C   0  0  0  0  0  0  0  0  0  0  0  0
  147.4069  134.9769  160.6090 N   0  0  0  0  0  0  0  0  0  0  0  0
  146.9605  134.0311  161.5338 C   0  0  0  0  0  0  0  0  0  0  0  0
  146.9611  134.4898  162.8244 C   0  0  0  0  0  0  0  0  0  0  0  0
  147.5277  136.1330  162.9174 S   0  0  0  0  0  0  0  0  0  0  0  0
  148.7678  138.9437  158.9501 H   0  0  0  0  0  0  0  0  0  0  0  0
  150.9784  137.7706  157.5869 H   0  0  0  0  0  0  0  0  0  0  0  0
  149.5192  137.4529  156.6856 H   0  0  0  0  0  0  0  0  0  0  0  0
  148.1196  139.1257  156.7321 H   0  0  0  0  0  0  0  0  0  0  0  0
  150.2431  141.3270  158.1598 H   0  0  0  0  0  0  0  0  0  0  0  0
  151.6402  140.1917  158.1407 H   0  0  0  0  0  0  0  0  0  0  0  0
  150.6832  142.0170  155.8730 H   0  0  0  0  0  0  0  0  0  0  0  0
  152.3527  141.3823  156.1500 H   0  0  0  0  0  0  0  0  0  0  0  0
  151.6857  139.1476  155.4751 H   0  0  0  0  0  0  0  0  0  0  0  0
  150.3032  139.9536  154.6468 H   0  0  0  0  0  0  0  0  0  0  0  0
  146.6590  133.0550  161.1840 H   0  0  0  0  0  0  0  0  0  0  0  0
  146.6643  133.9662  163.7205 H   0  0  0  0  0  0  0  0  0  0  0  0
  1  2  2  0  0  0  0
  2  3  1  0  0  0  0
  2 10  1  0  0  0  0
  3  4  1  0  0  0  0
  3 16  1  0  0  0  0
  4  5  1  0  0  0  0
  4 17  1  0  0  0  0
  4 18  1  0  0  0  0
  5  9  1  0  0  0  0
  5  6  1  0  0  0  0
  5  7  1  0  0  0  0
  6 19  1  0  0  0  0
  7  8  1  0  0  0  0
  7 20  1  0  0  0  0
  7 21  1  0  0  0  0
  8  9  1  0  0  0  0
  8 22  1  0  0  0  0
  8 23  1  0  0  0  0
  9 24  1  0  0  0  0
  9 25  1  0  0  0  0
 10 11  1  0  0  0  0
 11 15  1  0  0  0  0
 11 12  2  0  0  0  0
 12 13  1  0  0  0  0
 13 14  2  0  0  0  0
 13 26  1  0  0  0  0
 14 15  1  0  0  0  0
 14 27  1  0  0  0  0
M  CHG  1  10  -1
M  END
> <s_m_source_file>
AV-unprocessed.smi

> <i_m_source_file_index>
2419

> <i_lp_mmshare_version>
43012

> <i_f3d_flags>
0

> <s_epik_input>
czFbY0hdW2NIXW5jMVtOSF1DKD1PKVtOSF1bQ0gyXUMyKFtPSF0pW0NIMl1bQ0gyXVtDSDJdMg==

> <s_epik_cmdline>
J2VwaWtfcHl0aG9uJywgJy1waCcsICc3LjAnLCAnLXRuJywgJzgnLCAnLW1hJywgJzIwMCcsICctbWV0YWxfYmluZGluZycsICctaW1hZScsICc8aW5maWxlLm1hZT4nLCAnLW9tYWUnLCAnPG91dGZpbGUubWFlPic=

> <r_lp_tautomer_probability>
0.999

> <r_epik_Ionization_Penalty>
8.31551

> <r_epik_Ionization_Penalty_Charging>
6.6872

> <r_epik_Ionization_Penalty_Neutral>
1.62831

> <r_epik_State_Penalty>
6.68737

> <r_epik_Charging_Adjusted_Penalty>
13.3746

> <i_epik_Tot_Q>
-1

> <i_epik_Tot_abs_Q>
1

> <r_epik_Metal_State_Penalty>
2.60943

> <b_epik_Metal_Only>
1

> <s_lp_Force_Field>
OPLS_2005

> <r_lp_Energy>
8.45088

> <b_lp_Chiralities_Consistent>
1

> <s_lp_Variant>
AV-unprocessed.smi:2419-2

> <Gold.Version>
5.8.1

> <Gold.Id.Protein>
6NUR|6NUR_protein|mol2

> <Gold.PLP.Fitness>
37.1523

> <Gold.PLP.PLP>
-27.0636

> <Gold.PLP.part.hbond>
-3.0000

> <Gold.PLP.part.metal>
0.0000

> <Gold.PLP.part.buried>
-3.7859

> <Gold.PLP.part.nonpolar>
-21.2241

> <Gold.PLP.part.repulsive>
0.1884

> <Gold.PLP.ligand.clash>
0.0000

> <Gold.PLP.ligand.torsion>
0.3177

> <Gold.PLP.Chemscore.Hbond>
3.5422

> <Gold.PLP.Chemscore.CHOScore>
0.0000

> <Gold.PLP.Chemscore.Metal>
0.0000

> <Gold.Chemscore.Hbonds>
donor molecule, donor type, donor heavy atom, donor atom, acceptor molecule, acceptor atom, score
      P1  H  6896  6908       L1     1  1.00
      P1  H  6931  6943       L1    10  1.47
      P1  H  6934  6947       L1    10  0.94

> <Gold.PLP.Chemscore.Internal.Correction>
0.0977

> <Gold.Rescore>
     Score         DG    S(hbond)    S(metal)    S(lipo)     H(rot)  DE(clash)    DE(int)     intcor
     11.36     -13.12       1.98        0.00      49.80       1.88       0.02       1.74       ----

> <Gold.Chemscore.Fitness>
11.3563

> <Gold.Chemscore.DG>
-13.1195

> <Gold.Chemscore.ZeroCoef>
-5.4800

> <Gold.Chemscore.Hbond>
1.9812

> <Gold.Chemscore.Metal>
0.0000

> <Gold.Chemscore.Lipo>
49.8004

> <Gold.Chemscore.Internal_Hbond>
0.0000

> <Gold.Chemscore.DEClash>
0.0231

> <Gold.Chemscore.DEInternal>
1.7401

> <Gold.Chemscore.Rot>
1.8767

> <Gold.Chemscore.Internal.Correction>
   9.000000E+99

> <Gold.Chemscore.Hbonds>
donor molecule, donor type, donor heavy atom, donor atom, acceptor molecule, acceptor atom, score
      P1  H  6896  6908       L1     1  1.00
      P1  H  6931  6943       L1    10  0.20
      P1  H  6934  6947       L1    10  0.40

> <Gold.Chemscore.Hbond.Weighted>
-6.6171

> <Gold.Chemscore.Metal.Weighted>
-0.0000

> <Gold.Chemscore.Lipo.Weighted>
-5.8267

> <Gold.Chemscore.Internal_Hbond.Weighted>
0.0000

> <Gold.Chemscore.DEClash.Weighted>
0.0231

> <Gold.Chemscore.DEInternal.Weighted>
1.7401

> <Gold.Chemscore.Rot.Weighted>
4.8043

> <Gold.Chemscore.Internal.Correction.Weighted>
   9.000000E+99

> <Gold.Protein.RotatedTorsions>
[ 6907 6896 6895 6894 ] final  174.07 input  -60.11 | X-H torsion
[ 7974 7965 7964 7962 ] final -167.11 input  175.53 | X-H torsion
[ 8008 7997 7996 7995 ] final  -57.65 input   59.86 | X-H torsion
[ 10167 10162 10161 10158 ] final -151.34 input  -65.29 | X-H torsion
[ 10718 10713 10712 10709 ] final   49.49 input   66.30 | X-H torsion
[ 10763 10752 10751 10750 ] final   19.26 input  -60.55 | X-H torsion
[ 11005 11000 10999 10996 ] final  -84.04 input  -57.11 | X-H torsion

> <Gold.Protein.ActiveResidues>
 VAL166  LYS551  ARG553  GLY616  TRP617  ASP618  TYR619  PRO620  LYS621  CYS622 
 ASP623  PHE694  ASN695  SER759  ASP760  ASP761  ALA762  ILE779  LEU786  VAL792 
 PHE793  MET794  SER795  GLU796  ALA797  LYS798  CYS799  TRP800  GLU811  SER814 

> <Gold.Protein.RotatedAtoms>
  151.7581  133.3332  159.3409 H   0  0  0  0  0  0  0  0  0  0  0  0  # atno 6907 bound_to 6896
  150.7508  134.6131  159.6106 H   0  0  0  0  0  0  0  0  0  0  0  0  # atno 6908 bound_to 6896
  152.3423  134.7119  160.0311 H   0  0  0  0  0  0  0  0  0  0  0  0  # atno 6909 bound_to 6896
  144.7230  140.2566  143.6271 H   0  0  0  0  0  0  0  0  0  0  0  0  # atno 7974 bound_to 7965
  154.4276  140.1102  156.5831 H   0  0  0  0  0  0  0  0  0  0  0  0  # atno 8008 bound_to 7997
  155.6091  140.3494  155.4598 H   0  0  0  0  0  0  0  0  0  0  0  0  # atno 8009 bound_to 7997
  156.0113  140.1220  157.0440 H   0  0  0  0  0  0  0  0  0  0  0  0  # atno 8010 bound_to 7997
  139.7276  143.8859  152.2524 H   0  0  0  0  0  0  0  0  0  0  0  0  # atno 10167 bound_to 10162
  157.4791  130.8304  149.8073 H   0  0  0  0  0  0  0  0  0  0  0  0  # atno 10718 bound_to 10713
  153.1178  135.6712  153.9388 H   0  0  0  0  0  0  0  0  0  0  0  0  # atno 10763 bound_to 10752
  153.8913  135.3046  155.3448 H   0  0  0  0  0  0  0  0  0  0  0  0  # atno 10764 bound_to 10752
  154.7592  135.4996  153.9511 H   0  0  0  0  0  0  0  0  0  0  0  0  # atno 10765 bound_to 10752
  141.1653  133.7325  156.8809 H   0  0  0  0  0  0  0  0  0  0  0  0  # atno 11005 bound_to 11000
  145.8176  139.2030  143.1956 LP  0  0  0  0  0  0  0  0  0  0  0  0  # atno 17320 bound_to 7965
  146.0542  140.8038  142.9767 LP  0  0  0  0  0  0  0  0  0  0  0  0  # atno 17321 bound_to 7965
  139.8773  144.7037  150.8918 LP  0  0  0  0  0  0  0  0  0  0  0  0  # atno 17342 bound_to 10162
  140.7765  143.3690  151.1685 LP  0  0  0  0  0  0  0  0  0  0  0  0  # atno 17343 bound_to 10162
  156.0112  130.3832  150.2258 LP  0  0  0  0  0  0  0  0  0  0  0  0  # atno 17370 bound_to 10713
  157.0444  131.0044  151.3273 LP  0  0  0  0  0  0  0  0  0  0  0  0  # atno 17371 bound_to 10713
  140.1715  134.9096  157.2839 LP  0  0  0  0  0  0  0  0  0  0  0  0  # atno 17394 bound_to 11000
  140.2496  134.3698  155.7447 LP  0  0  0  0  0  0  0  0  0  0  0  0  # atno 17395 bound_to 11000

$$$$
