AV-unprocessed.smi:103|AV-procd|sdf|981|dock2
  -GOLD-   2262017543D 1   1.00000     0.00000
 Structure written by MMmdl.
 53 55  0  0  0  0  0  0  0  0  1 V2000
  146.2771  129.3763  152.1365 C   0  0  0  0  0  0  0  0  0  0  0  0
  147.0671  130.2569  153.0954 C   0  0  0  0  0  0  0  0  0  0  0  0
  148.2456  130.0177  153.3586 O   0  0  0  0  0  0  0  0  0  0  0  0
  146.3355  131.2774  153.5758 O   0  0  0  0  0  0  0  0  0  0  0  0
  146.8932  132.1928  154.5080 C   0  0  0  0  0  0  0  0  0  0  0  0
  147.4346  133.4298  153.7738 C   0  0  2  0  0  0  0  0  0  0  0  0
  148.7033  133.8069  154.2984 O   0  0  0  0  0  0  0  0  0  0  0  0
  148.5239  134.7849  155.2622 C   0  0  1  0  0  0  0  0  0  0  0  0
  149.8507  135.4653  155.5132 N   0  0  0  0  0  0  0  0  0  0  0  0
  150.9609  134.9663  156.1806 C   0  0  0  0  0  0  0  0  0  0  0  0
  151.1548  133.3532  156.9466 S   0  0  0  0  0  0  0  0  0  0  0  0
  151.0142  132.2039  155.5172 C   0  0  0  0  0  0  0  0  0  0  0  0
  152.5117  133.2855  157.5065 O   0  0  0  0  0  0  0  0  0  0  0  0
  149.9872  133.1551  157.8204 O   0  0  0  0  0  0  0  0  0  0  0  0
  151.9763  135.7722  156.3224 N   0  0  0  0  0  0  0  0  0  0  0  0
  151.5511  136.9346  155.7071 C   0  0  0  0  0  0  0  0  0  0  0  0
  152.1497  138.2033  155.5009 C   0  0  0  0  0  0  0  0  0  0  0  0
  153.3874  138.5035  155.9179 N   0  0  0  0  0  0  0  0  0  0  0  0
  151.4404  139.1583  154.8587 N   0  0  0  0  0  0  0  0  0  0  0  0
  150.2026  138.8839  154.4415 C   0  0  0  0  0  0  0  0  0  0  0  0
  149.5168  137.7457  154.5642 N   0  0  0  0  0  0  0  0  0  0  0  0
  150.2271  136.7691  155.2046 C   0  0  0  0  0  0  0  0  0  0  0  0
  147.4175  135.6742  154.6940 C   0  0  2  0  0  0  0  0  0  0  0  0
  146.7171  136.3219  155.7490 O   0  0  0  0  0  0  0  0  0  0  0  0
  146.1976  135.6013  156.7581 C   0  0  0  0  0  0  0  0  0  0  0  0
  145.4773  136.4703  157.7801 C   0  0  0  0  0  0  0  0  0  0  0  0
  146.2649  134.3789  156.8861 O   0  0  0  0  0  0  0  0  0  0  0  0
  146.5303  134.6560  153.9878 C   0  0  1  0  0  0  0  0  0  0  0  0
  146.0851  135.2003  152.7520 O   0  0  0  0  0  0  0  0  0  0  0  0
  145.4498  134.4232  151.8595 C   0  0  0  0  0  0  0  0  0  0  0  0
  144.9674  135.2087  150.6477 C   0  0  0  0  0  0  0  0  0  0  0  0
  145.2570  133.2116  151.9608 O   0  0  0  0  0  0  0  0  0  0  0  0
  146.3905  129.7400  151.1151 H   0  0  0  0  0  0  0  0  0  0  0  0
  145.2170  129.3816  152.3912 H   0  0  0  0  0  0  0  0  0  0  0  0
  146.6368  128.3483  152.1799 H   0  0  0  0  0  0  0  0  0  0  0  0
  146.0914  132.4955  155.1819 H   0  0  0  0  0  0  0  0  0  0  0  0
  147.6685  131.7476  155.1329 H   0  0  0  0  0  0  0  0  0  0  0  0
  147.5480  133.2053  152.7122 H   0  0  0  0  0  0  0  0  0  0  0  0
  148.2503  134.3360  156.2166 H   0  0  0  0  0  0  0  0  0  0  0  0
  151.0525  131.1769  155.8790 H   0  0  0  0  0  0  0  0  0  0  0  0
  151.8356  132.3644  154.8227 H   0  0  0  0  0  0  0  0  0  0  0  0
  150.0661  132.3729  155.0077 H   0  0  0  0  0  0  0  0  0  0  0  0
  153.9369  137.8089  156.4035 H   0  0  0  0  0  0  0  0  0  0  0  0
  153.7696  139.4214  155.7424 H   0  0  0  0  0  0  0  0  0  0  0  0
  149.6880  139.6885  153.9375 H   0  0  0  0  0  0  0  0  0  0  0  0
  147.8473  136.3591  153.9627 H   0  0  0  0  0  0  0  0  0  0  0  0
  144.5731  136.8942  157.3432 H   0  0  0  0  0  0  0  0  0  0  0  0
  146.1219  137.2864  158.1067 H   0  0  0  0  0  0  0  0  0  0  0  0
  145.1967  135.8813  158.6533 H   0  0  0  0  0  0  0  0  0  0  0  0
  145.6869  134.3981  154.6313 H   0  0  0  0  0  0  0  0  0  0  0  0
  144.1772  135.9017  150.9378 H   0  0  0  0  0  0  0  0  0  0  0  0
  144.5752  134.5353  149.8855 H   0  0  0  0  0  0  0  0  0  0  0  0
  145.7882  135.7802  150.2141 H   0  0  0  0  0  0  0  0  0  0  0  0
  1  2  1  0  0  0  0
  1 33  1  0  0  0  0
  1 34  1  0  0  0  0
  1 35  1  0  0  0  0
  2  3  2  0  0  0  0
  2  4  1  0  0  0  0
  4  5  1  0  0  0  0
  5  6  1  0  0  0  0
  5 36  1  0  0  0  0
  5 37  1  0  0  0  0
  6 28  1  0  0  0  0
  6  7  1  0  0  0  0
  6 38  1  0  0  0  0
  7  8  1  0  0  0  0
  8  9  1  0  0  0  0
  8 23  1  0  0  0  0
  8 39  1  0  0  0  0
  9 22  1  0  0  0  0
  9 10  1  0  0  0  0
 10 11  1  0  0  0  0
 10 15  2  0  0  0  0
 11 12  1  0  0  0  0
 11 13  2  0  0  0  0
 11 14  2  0  0  0  0
 12 40  1  0  0  0  0
 12 41  1  0  0  0  0
 12 42  1  0  0  0  0
 15 16  1  0  0  0  0
 16 22  2  0  0  0  0
 16 17  1  0  0  0  0
 17 18  1  0  0  0  0
 17 19  2  0  0  0  0
 18 43  1  0  0  0  0
 18 44  1  0  0  0  0
 19 20  1  0  0  0  0
 20 21  2  0  0  0  0
 20 45  1  0  0  0  0
 21 22  1  0  0  0  0
 23 24  1  0  0  0  0
 23 28  1  0  0  0  0
 23 46  1  0  0  0  0
 24 25  1  0  0  0  0
 25 26  1  0  0  0  0
 25 27  2  0  0  0  0
 26 47  1  0  0  0  0
 26 48  1  0  0  0  0
 26 49  1  0  0  0  0
 28 29  1  0  0  0  0
 28 50  1  0  0  0  0
 29 30  1  0  0  0  0
 30 31  1  0  0  0  0
 30 32  2  0  0  0  0
 31 51  1  0  0  0  0
 31 52  1  0  0  0  0
 31 53  1  0  0  0  0
M  END
> <s_m_source_file>
AV-unprocessed.smi

> <i_m_source_file_index>
103

> <i_lp_mmshare_version>
43012

> <i_f3d_flags>
0

> <s_epik_input>
W0NIM11DKD1PKU9bQ0gyXVtDQEBIXTFPW0NASF0oW0NAQEhdKE9DKD1PKVtDSDNdKVtDQEhdMU9DKD1PKVtDSDNdKW4oYyhuMilTKD1PKSg9TylbQ0gzXSljKGMyMyluW2NIXW5jM1tOSDJd

> <s_epik_cmdline>
J2VwaWtfcHl0aG9uJywgJy1waCcsICc3LjAnLCAnLXRuJywgJzgnLCAnLW1hJywgJzIwMCcsICctbWV0YWxfYmluZGluZycsICctaW1hZScsICc8aW5maWxlLm1hZT4nLCAnLW9tYWUnLCAnPG91dGZpbGUubWFlPic=

> <r_lp_tautomer_probability>
1

> <r_epik_Ionization_Penalty>
1.51338e-05

> <r_epik_Ionization_Penalty_Charging>
0

> <r_epik_Ionization_Penalty_Neutral>
1.51338e-05

> <r_epik_State_Penalty>
-0

> <r_epik_Charging_Adjusted_Penalty>
0

> <i_epik_Tot_Q>
0

> <i_epik_Tot_abs_Q>
0

> <r_epik_Metal_State_Penalty>
-0

> <b_epik_Metal_Only>
0

> <s_epik_Chemistry_Notes>
This compound has an ester and may undergo hydrolysis at high or low pH. This compound contains an acetal/aminal-like group ( X-CH(R)-Y where X, Y are N, S, or O) that may be acid/base labile, releasing an aldehyde.

> <s_lp_Force_Field>
OPLS_2005

> <r_lp_Energy>
16.7775

> <b_lp_Chiralities_Consistent>
1

> <s_lp_Variant>
AV-unprocessed.smi:103-5

> <Gold.Version>
5.8.1

> <Gold.Id.Protein>
6NUR|6NUR_protein|mol2

> <Gold.PLP.Fitness>
39.1348

> <Gold.PLP.PLP>
-30.8377

> <Gold.PLP.part.hbond>
-3.9113

> <Gold.PLP.part.metal>
0.0000

> <Gold.PLP.part.buried>
-6.9145

> <Gold.PLP.part.nonpolar>
-24.3673

> <Gold.PLP.part.repulsive>
3.2919

> <Gold.PLP.ligand.clash>
0.0000

> <Gold.PLP.ligand.torsion>
2.1548

> <Gold.PLP.Chemscore.Hbond>
2.6080

> <Gold.PLP.Chemscore.CHOScore>
0.8180

> <Gold.PLP.Chemscore.Metal>
0.0000

> <Gold.Chemscore.Hbonds>
donor molecule, donor type, donor heavy atom, donor atom, acceptor molecule, acceptor atom, score
      P1  H  6896  6907       L1    13  0.28
      P1  H  7989  7998       L1    19  0.40
      P1  H 10752 10764       L1    15  0.90
      L1  C    20    45       P1  7957  0.29

> <Gold.PLP.Chemscore.Internal.Correction>
2.3289

> <Gold.Rescore>
     Score         DG    S(hbond)    S(metal)    S(lipo)     H(rot)  DE(clash)    DE(int)     intcor
     -2.74      -4.40       1.71        0.00      34.84       4.25       1.08       6.06       ----

> <Gold.Chemscore.Fitness>
-2.7418

> <Gold.Chemscore.DG>
-4.3995

> <Gold.Chemscore.ZeroCoef>
-5.4800

> <Gold.Chemscore.Hbond>
1.7101

> <Gold.Chemscore.Metal>
0.0000

> <Gold.Chemscore.Lipo>
34.8413

> <Gold.Chemscore.Internal_Hbond>
0.0000

> <Gold.Chemscore.DEClash>
1.0829

> <Gold.Chemscore.DEInternal>
6.0584

> <Gold.Chemscore.Rot>
4.2456

> <Gold.Chemscore.Internal.Correction>
   9.000000E+99

> <Gold.Chemscore.Hbonds>
donor molecule, donor type, donor heavy atom, donor atom, acceptor molecule, acceptor atom, score
      P1  H  6896  6907       L1    13  0.01
      P1  H  7989  7998       L1    19  0.03
      P1  H 10752 10764       L1    15  0.15

> <Gold.Chemscore.Hbond.Weighted>
-5.7117

> <Gold.Chemscore.Metal.Weighted>
-0.0000

> <Gold.Chemscore.Lipo.Weighted>
-4.0764

> <Gold.Chemscore.Internal_Hbond.Weighted>
0.0000

> <Gold.Chemscore.DEClash.Weighted>
1.0829

> <Gold.Chemscore.DEInternal.Weighted>
6.0584

> <Gold.Chemscore.Rot.Weighted>
10.8687

> <Gold.Chemscore.Internal.Correction.Weighted>
   9.000000E+99

> <Gold.Protein.RotatedTorsions>
[ 6907 6896 6895 6894 ] final  176.50 input  -60.11 | X-H torsion
[ 7974 7965 7964 7962 ] final -171.49 input  175.53 | X-H torsion
[ 8008 7997 7996 7995 ] final   25.89 input   59.86 | X-H torsion
[ 10167 10162 10161 10158 ] final -169.82 input  -65.29 | X-H torsion
[ 10718 10713 10712 10709 ] final  -86.68 input   66.30 | X-H torsion
[ 10763 10752 10751 10750 ] final  -14.11 input  -60.55 | X-H torsion
[ 11005 11000 10999 10996 ] final   36.17 input  -57.11 | X-H torsion

> <Gold.Protein.ActiveResidues>
 VAL166  LYS551  ARG553  GLY616  TRP617  ASP618  TYR619  PRO620  LYS621  CYS622 
 ASP623  PHE694  ASN695  SER759  ASP760  ASP761  ALA762  ILE779  LEU786  VAL792 
 PHE793  MET794  SER795  GLU796  ALA797  LYS798  CYS799  TRP800  GLU811  SER814 

> <Gold.Protein.RotatedAtoms>
  151.7191  133.3314  159.3310 H   0  0  0  0  0  0  0  0  0  0  0  0  # atno 6907 bound_to 6896
  150.7661  134.6464  159.6274 H   0  0  0  0  0  0  0  0  0  0  0  0  # atno 6908 bound_to 6896
  152.3663  134.6801  160.0242 H   0  0  0  0  0  0  0  0  0  0  0  0  # atno 6909 bound_to 6896
  144.7156  140.1914  143.6348 H   0  0  0  0  0  0  0  0  0  0  0  0  # atno 7974 bound_to 7965
  155.0188  140.3145  155.4801 H   0  0  0  0  0  0  0  0  0  0  0  0  # atno 8008 bound_to 7997
  156.2896  140.2201  156.5247 H   0  0  0  0  0  0  0  0  0  0  0  0  # atno 8009 bound_to 7997
  154.7470  140.0469  157.0849 H   0  0  0  0  0  0  0  0  0  0  0  0  # atno 8010 bound_to 7997
  139.5899  144.1236  152.1621 H   0  0  0  0  0  0  0  0  0  0  0  0  # atno 10167 bound_to 10162
  155.9988  130.4773  150.4752 H   0  0  0  0  0  0  0  0  0  0  0  0  # atno 10718 bound_to 10713
  153.5234  135.7015  153.5720 H   0  0  0  0  0  0  0  0  0  0  0  0  # atno 10763 bound_to 10752
  153.3758  135.3933  155.1822 H   0  0  0  0  0  0  0  0  0  0  0  0  # atno 10764 bound_to 10752
  154.8692  135.3823  154.4725 H   0  0  0  0  0  0  0  0  0  0  0  0  # atno 10765 bound_to 10752
  140.2353  134.3479  155.7947 H   0  0  0  0  0  0  0  0  0  0  0  0  # atno 11005 bound_to 11000
  145.8765  139.2299  143.1630 LP  0  0  0  0  0  0  0  0  0  0  0  0  # atno 17320 bound_to 7965
  146.0036  140.8499  143.0006 LP  0  0  0  0  0  0  0  0  0  0  0  0  # atno 17321 bound_to 7965
  140.0808  144.5702  150.7123 LP  0  0  0  0  0  0  0  0  0  0  0  0  # atno 17342 bound_to 10162
  140.7164  143.2548  151.4421 LP  0  0  0  0  0  0  0  0  0  0  0  0  # atno 17343 bound_to 10162
  157.2763  131.0597  151.2227 LP  0  0  0  0  0  0  0  0  0  0  0  0  # atno 17370 bound_to 10713
  157.3290  130.6975  149.6313 LP  0  0  0  0  0  0  0  0  0  0  0  0  # atno 17371 bound_to 10713
  141.2215  133.7268  156.8797 LP  0  0  0  0  0  0  0  0  0  0  0  0  # atno 17394 bound_to 11000
  140.1709  134.9101  157.2832 LP  0  0  0  0  0  0  0  0  0  0  0  0  # atno 17395 bound_to 11000

$$$$
