AV-unprocessed.smi:2105|AV-procd|sdf|8592|dock8
  -GOLD-   2272011323D 1   1.00000     0.00000
 Structure written by MMmdl.
 43 44  0  0  0  0  0  0  0  0  2 V2000
  155.3731  134.2348  162.7703 C   0  0  0  0  0  0  0  0  0  0  0  0
  154.7283  135.1472  161.7326 C   0  0  0  0  0  0  0  0  0  0  0  0
  154.6471  134.7872  160.5588 O   0  0  0  0  0  0  0  0  0  0  0  0
  154.2741  136.3275  162.1804 N   0  0  0  0  0  0  0  0  0  0  0  0
  153.6133  137.3404  161.3634 C   0  0  0  0  0  0  0  0  0  0  0  0
  154.5924  138.0414  160.4009 C   0  0  0  0  0  0  0  0  0  0  0  0
  153.9875  139.1964  159.7448 N   0  0  0  0  0  0  0  0  0  0  0  0
  153.0289  139.1382  158.8097 C   0  0  0  0  0  0  0  0  0  0  0  0
  152.5401  138.0854  158.4000 O   0  0  0  0  0  0  0  0  0  0  0  0
  152.6947  140.3652  158.3761 N   0  0  0  0  0  0  0  0  0  0  0  0
  151.7418  140.7131  157.3764 C   0  0  0  0  0  0  0  0  0  0  0  0
  151.2177  139.7375  156.4894 C   0  0  0  0  0  0  0  0  0  0  0  0
  150.2934  140.1130  155.4967 C   0  0  0  0  0  0  0  0  0  0  0  0
  149.9015  141.4593  155.4074 C   0  0  0  0  0  0  0  0  0  0  0  0
  150.4011  142.3600  156.2786 N   0  3  0  0  0  0  0  0  0  0  0  0
  151.2821  142.0581  157.2652 C   0  0  0  0  0  0  0  0  0  0  0  0
  151.7067  143.1076  158.1120 N   0  0  0  0  0  0  0  0  0  0  0  0
  151.3814  144.4925  157.7909 C   0  0  0  0  0  0  0  0  0  0  0  0
  151.6837  145.2753  159.0656 C   0  0  0  0  0  0  0  0  0  0  0  0
  151.2941  144.2844  160.1584 C   0  0  0  0  0  0  0  0  0  0  0  0
  151.6527  142.9204  159.5584 C   0  0  0  0  0  0  0  0  0  0  0  0
  156.1651  134.7604  163.3042 H   0  0  0  0  0  0  0  0  0  0  0  0
  155.8083  133.3548  162.2955 H   0  0  0  0  0  0  0  0  0  0  0  0
  154.6301  133.8996  163.4943 H   0  0  0  0  0  0  0  0  0  0  0  0
  154.3827  136.5346  163.1627 H   0  0  0  0  0  0  0  0  0  0  0  0
  152.8140  136.8679  160.7902 H   0  0  0  0  0  0  0  0  0  0  0  0
  153.1252  138.0623  162.0187 H   0  0  0  0  0  0  0  0  0  0  0  0
  155.4931  138.3622  160.9250 H   0  0  0  0  0  0  0  0  0  0  0  0
  154.9253  137.3339  159.6398 H   0  0  0  0  0  0  0  0  0  0  0  0
  154.3335  140.1039  160.0199 H   0  0  0  0  0  0  0  0  0  0  0  0
  153.2542  141.1275  158.7293 H   0  0  0  0  0  0  0  0  0  0  0  0
  151.5072  138.6999  156.5585 H   0  0  0  0  0  0  0  0  0  0  0  0
  149.8927  139.3779  154.8139 H   0  0  0  0  0  0  0  0  0  0  0  0
  149.2021  141.8400  154.6773 H   0  0  0  0  0  0  0  0  0  0  0  0
  151.9667  144.8544  156.9451 H   0  0  0  0  0  0  0  0  0  0  0  0
  150.3231  144.5889  157.5455 H   0  0  0  0  0  0  0  0  0  0  0  0
  152.7507  145.4954  159.1249 H   0  0  0  0  0  0  0  0  0  0  0  0
  151.1382  146.2174  159.1265 H   0  0  0  0  0  0  0  0  0  0  0  0
  151.7970  144.4761  161.1069 H   0  0  0  0  0  0  0  0  0  0  0  0
  150.2184  144.3374  160.3321 H   0  0  0  0  0  0  0  0  0  0  0  0
  150.9283  142.1576  159.8476 H   0  0  0  0  0  0  0  0  0  0  0  0
  152.6367  142.6074  159.9089 H   0  0  0  0  0  0  0  0  0  0  0  0
  150.0893  143.3275  156.1942 H   0  0  0  0  0  0  0  0  0  0  0  0
  1  2  1  0  0  0  0
  1 22  1  0  0  0  0
  1 23  1  0  0  0  0
  1 24  1  0  0  0  0
  2  3  2  0  0  0  0
  2  4  1  0  0  0  0
  4  5  1  0  0  0  0
  4 25  1  0  0  0  0
  5  6  1  0  0  0  0
  5 26  1  0  0  0  0
  5 27  1  0  0  0  0
  6  7  1  0  0  0  0
  6 28  1  0  0  0  0
  6 29  1  0  0  0  0
  7  8  1  0  0  0  0
  7 30  1  0  0  0  0
  8  9  2  0  0  0  0
  8 10  1  0  0  0  0
 10 11  1  0  0  0  0
 10 31  1  0  0  0  0
 11 16  1  0  0  0  0
 11 12  2  0  0  0  0
 12 13  1  0  0  0  0
 12 32  1  0  0  0  0
 13 14  2  0  0  0  0
 13 33  1  0  0  0  0
 14 15  1  0  0  0  0
 14 34  1  0  0  0  0
 15 16  2  0  0  0  0
 15 43  1  0  0  0  0
 16 17  1  0  0  0  0
 17 21  1  0  0  0  0
 17 18  1  0  0  0  0
 18 19  1  0  0  0  0
 18 35  1  0  0  0  0
 18 36  1  0  0  0  0
 19 20  1  0  0  0  0
 19 37  1  0  0  0  0
 19 38  1  0  0  0  0
 20 21  1  0  0  0  0
 20 39  1  0  0  0  0
 20 40  1  0  0  0  0
 21 41  1  0  0  0  0
 21 42  1  0  0  0  0
M  CHG  1  15   1
M  END
> <s_m_source_file>
AV-unprocessed.smi

> <i_m_source_file_index>
2105

> <i_lp_mmshare_version>
43012

> <i_f3d_flags>
0

> <s_epik_input>
W0NIM11DKD1PKVtOSF1bQ0gyXVtDSDJdW05IXUMoPU8pW05IXWMxW2NIXVtjSF1bY0hdbmMxTjJbQ0gyXVtDSDJdW0NIMl1bQ0gyXTI=

> <s_epik_cmdline>
J2VwaWtfcHl0aG9uJywgJy1waCcsICc3LjAnLCAnLXRuJywgJzgnLCAnLW1hJywgJzIwMCcsICctbWV0YWxfYmluZGluZycsICctaW1hZScsICc8aW5maWxlLm1hZT4nLCAnLW9tYWUnLCAnPG91dGZpbGUubWFlPic=

> <r_lp_tautomer_probability>
0.999994

> <r_epik_Ionization_Penalty>
1.12691

> <r_epik_Ionization_Penalty_Charging>
1.12689

> <r_epik_Ionization_Penalty_Neutral>
1.95207e-05

> <r_epik_State_Penalty>
1.18624

> <r_epik_Charging_Adjusted_Penalty>
2.31313

> <i_epik_Tot_Q>
1

> <i_epik_Tot_abs_Q>
1

> <r_epik_Metal_State_Penalty>
1.26987

> <b_epik_Metal_Only>
0

> <s_lp_Force_Field>
OPLS_2005

> <r_lp_Energy>
38.5687

> <b_lp_Chiralities_Consistent>
1

> <s_lp_Variant>
AV-unprocessed.smi:2105-2

> <Gold.Version>
5.8.1

> <Gold.Id.Protein>
6NUR|6NUR_protein|mol2

> <Gold.PLP.Fitness>
44.8020

> <Gold.PLP.PLP>
-36.1850

> <Gold.PLP.part.hbond>
-2.0000

> <Gold.PLP.part.metal>
0.0000

> <Gold.PLP.part.buried>
-5.7625

> <Gold.PLP.part.nonpolar>
-29.1946

> <Gold.PLP.part.repulsive>
0.4126

> <Gold.PLP.ligand.clash>
0.0000

> <Gold.PLP.ligand.torsion>
0.3700

> <Gold.PLP.Chemscore.Hbond>
2.9913

> <Gold.PLP.Chemscore.CHOScore>
0.0000

> <Gold.PLP.Chemscore.Metal>
0.0000

> <Gold.Chemscore.Hbonds>
donor molecule, donor type, donor heavy atom, donor atom, acceptor molecule, acceptor atom, score
      L1  H    15    43       P1  8028  2.00
      P1  H  6896  6908       L1     3  0.59

> <Gold.PLP.Chemscore.Internal.Correction>
0.3831

> <Gold.Rescore>
     Score         DG    S(hbond)    S(metal)    S(lipo)     H(rot)  DE(clash)    DE(int)     intcor
     15.44     -17.34       1.98        0.00      88.06       1.98       0.04       1.86       ----

> <Gold.Chemscore.Fitness>
15.4388

> <Gold.Chemscore.DG>
-17.3437

> <Gold.Chemscore.ZeroCoef>
-5.4800

> <Gold.Chemscore.Hbond>
1.9820

> <Gold.Chemscore.Metal>
0.0000

> <Gold.Chemscore.Lipo>
88.0554

> <Gold.Chemscore.Internal_Hbond>
0.0000

> <Gold.Chemscore.DEClash>
0.0447

> <Gold.Chemscore.DEInternal>
1.8601

> <Gold.Chemscore.Rot>
1.9760

> <Gold.Chemscore.Internal.Correction>
   9.000000E+99

> <Gold.Chemscore.Hbonds>
donor molecule, donor type, donor heavy atom, donor atom, acceptor molecule, acceptor atom, score
      L1  H    15    43       P1  8028  0.98
      P1  H  6896  6908       L1     3  0.50

> <Gold.Chemscore.Hbond.Weighted>
-6.6198

> <Gold.Chemscore.Metal.Weighted>
-0.0000

> <Gold.Chemscore.Lipo.Weighted>
-10.3025

> <Gold.Chemscore.Internal_Hbond.Weighted>
0.0000

> <Gold.Chemscore.DEClash.Weighted>
0.0447

> <Gold.Chemscore.DEInternal.Weighted>
1.8601

> <Gold.Chemscore.Rot.Weighted>
5.0585

> <Gold.Chemscore.Internal.Correction.Weighted>
   9.000000E+99

> <Gold.Protein.RotatedTorsions>
[ 6907 6896 6895 6894 ] final  -39.86 input  -60.11 | X-H torsion
[ 7974 7965 7964 7962 ] final    4.12 input  175.53 | X-H torsion
[ 8008 7997 7996 7995 ] final  -84.68 input   59.86 | X-H torsion
[ 10167 10162 10161 10158 ] final   -0.80 input  -65.29 | X-H torsion
[ 10718 10713 10712 10709 ] final -159.62 input   66.30 | X-H torsion
[ 10763 10752 10751 10750 ] final  -39.27 input  -60.55 | X-H torsion
[ 11005 11000 10999 10996 ] final  119.22 input  -57.11 | X-H torsion

> <Gold.Protein.ActiveResidues>
 VAL166  LYS551  ARG553  GLY616  TRP617  ASP618  TYR619  PRO620  LYS621  CYS622 
 ASP623  PHE694  ASN695  SER759  ASP760  ASP761  ALA762  ILE779  LEU786  VAL792 
 PHE793  MET794  SER795  GLU796  ALA797  LYS798  CYS799  TRP800  GLU811  SER814 

> <Gold.Protein.RotatedAtoms>
  150.9853  134.9200  159.7867 H   0  0  0  0  0  0  0  0  0  0  0  0  # atno 6907 bound_to 6896
  152.5234  134.3355  159.9208 H   0  0  0  0  0  0  0  0  0  0  0  0  # atno 6908 bound_to 6896
  151.3361  133.3940  159.2701 H   0  0  0  0  0  0  0  0  0  0  0  0  # atno 6909 bound_to 6896
  146.2444  140.0582  142.8370 H   0  0  0  0  0  0  0  0  0  0  0  0  # atno 7974 bound_to 7965
  154.6324  140.0602  156.9748 H   0  0  0  0  0  0  0  0  0  0  0  0  # atno 8008 bound_to 7997
  155.1644  140.3285  155.4386 H   0  0  0  0  0  0  0  0  0  0  0  0  # atno 8009 bound_to 7997
  156.2490  140.1925  156.6750 H   0  0  0  0  0  0  0  0  0  0  0  0  # atno 8010 bound_to 7997
  140.6783  143.6851  150.8074 H   0  0  0  0  0  0  0  0  0  0  0  0  # atno 10167 bound_to 10162
  156.5707  130.8687  151.2837 H   0  0  0  0  0  0  0  0  0  0  0  0  # atno 10718 bound_to 10713
  153.9265  135.6776  153.4746 H   0  0  0  0  0  0  0  0  0  0  0  0  # atno 10763 bound_to 10752
  153.1001  135.4832  154.8849 H   0  0  0  0  0  0  0  0  0  0  0  0  # atno 10764 bound_to 10752
  154.7450  135.3170  154.8617 H   0  0  0  0  0  0  0  0  0  0  0  0  # atno 10765 bound_to 10752
  139.9138  134.9627  156.7623 H   0  0  0  0  0  0  0  0  0  0  0  0  # atno 11005 bound_to 11000
  145.0923  140.9292  143.4761 LP  0  0  0  0  0  0  0  0  0  0  0  0  # atno 17320 bound_to 7965
  145.0758  139.2997  143.5809 LP  0  0  0  0  0  0  0  0  0  0  0  0  # atno 17321 bound_to 7965
  140.0547  143.5214  152.2657 LP  0  0  0  0  0  0  0  0  0  0  0  0  # atno 17342 bound_to 10162
  139.6089  144.7603  151.2998 LP  0  0  0  0  0  0  0  0  0  0  0  0  # atno 17343 bound_to 10162
  157.7349  130.9753  150.2052 LP  0  0  0  0  0  0  0  0  0  0  0  0  # atno 17370 bound_to 10713
  156.2717  130.3722  149.8025 LP  0  0  0  0  0  0  0  0  0  0  0  0  # atno 17371 bound_to 10713
  140.6688  133.9579  155.7845 LP  0  0  0  0  0  0  0  0  0  0  0  0  # atno 17394 bound_to 11000
  141.0592  134.0371  157.3681 LP  0  0  0  0  0  0  0  0  0  0  0  0  # atno 17395 bound_to 11000

$$$$
