AV-unprocessed.smi:689|AV-procd|sdf|3359|dock6
  -GOLD-   22720 0333D 1   1.00000     0.00000
 Structure written by MMmdl.
 34 35  0  0  0  0  0  0  0  0  1 V2000
  150.2883  145.3145  160.0879 C   0  0  0  0  0  0  0  0  0  0  0  0
  151.2822  144.2136  160.3234 C   0  0  0  0  0  0  0  0  0  0  0  0
  151.6158  143.8870  161.5606 N   0  0  0  0  0  0  0  0  0  0  0  0
  152.5350  142.8399  161.4457 O   0  0  0  0  0  0  0  0  0  0  0  0
  152.7200  142.5727  160.1282 C   0  0  0  0  0  0  0  0  0  0  0  0
  153.6665  141.4670  159.8033 C   0  0  0  0  0  0  0  0  0  0  0  0
  151.9569  143.4100  159.3602 C   0  0  0  0  0  0  0  0  0  0  0  0
  151.8344  143.4693  157.8594 C   0  0  0  0  0  0  0  0  0  0  0  0
  151.2907  142.1355  157.3526 C   0  0  0  0  0  0  0  0  0  0  0  0
  151.8828  141.0784  157.5647 O   0  0  0  0  0  0  0  0  0  0  0  0
  150.1176  142.2193  156.5973 N   0  0  0  0  0  0  0  0  0  0  0  0
  149.5021  140.9810  155.5604 S   0  0  0  0  0  0  0  0  0  0  0  0
  150.6427  140.2382  155.0015 O   0  0  0  0  0  0  0  0  0  0  0  0
  148.4658  140.2741  156.3281 O   0  0  0  0  0  0  0  0  0  0  0  0
  148.6563  141.9467  154.2271 C   0  0  0  0  0  0  0  0  0  0  0  0
  147.1488  141.7720  154.2244 C   0  0  0  0  0  0  0  0  0  0  0  0
  146.2408  142.8866  153.7562 C   0  0  0  0  0  0  0  0  0  0  0  0
  146.2761  142.5096  155.2152 C   0  0  0  0  0  0  0  0  0  0  0  0
  149.3474  144.9138  159.7103 H   0  0  0  0  0  0  0  0  0  0  0  0
  150.6631  146.0278  159.3541 H   0  0  0  0  0  0  0  0  0  0  0  0
  150.0721  145.8675  161.0028 H   0  0  0  0  0  0  0  0  0  0  0  0
  153.7084  141.2860  158.7295 H   0  0  0  0  0  0  0  0  0  0  0  0
  153.3574  140.5409  160.2881 H   0  0  0  0  0  0  0  0  0  0  0  0
  154.6731  141.7087  160.1440 H   0  0  0  0  0  0  0  0  0  0  0  0
  151.1583  144.2640  157.5429 H   0  0  0  0  0  0  0  0  0  0  0  0
  152.7947  143.6834  157.3883 H   0  0  0  0  0  0  0  0  0  0  0  0
  149.6579  143.1166  156.4467 H   0  0  0  0  0  0  0  0  0  0  0  0
  148.8907  142.9980  154.3955 H   0  0  0  0  0  0  0  0  0  0  0  0
  149.0741  141.6680  153.2600 H   0  0  0  0  0  0  0  0  0  0  0  0
  146.8264  140.7640  153.9724 H   0  0  0  0  0  0  0  0  0  0  0  0
  146.6977  143.8324  153.4722 H   0  0  0  0  0  0  0  0  0  0  0  0
  145.3569  142.6071  153.1864 H   0  0  0  0  0  0  0  0  0  0  0  0
  145.4194  141.9751  155.6208 H   0  0  0  0  0  0  0  0  0  0  0  0
  146.7587  143.2045  155.8999 H   0  0  0  0  0  0  0  0  0  0  0  0
  1  2  1  0  0  0  0
  1 19  1  0  0  0  0
  1 20  1  0  0  0  0
  1 21  1  0  0  0  0
  2  7  1  0  0  0  0
  2  3  2  0  0  0  0
  3  4  1  0  0  0  0
  4  5  1  0  0  0  0
  5  6  1  0  0  0  0
  5  7  2  0  0  0  0
  6 22  1  0  0  0  0
  6 23  1  0  0  0  0
  6 24  1  0  0  0  0
  7  8  1  0  0  0  0
  8  9  1  0  0  0  0
  8 25  1  0  0  0  0
  8 26  1  0  0  0  0
  9 10  2  0  0  0  0
  9 11  1  0  0  0  0
 11 12  1  0  0  0  0
 11 27  1  0  0  0  0
 12 13  2  0  0  0  0
 12 14  2  0  0  0  0
 12 15  1  0  0  0  0
 15 16  1  0  0  0  0
 15 28  1  0  0  0  0
 15 29  1  0  0  0  0
 16 18  1  0  0  0  0
 16 17  1  0  0  0  0
 16 30  1  0  0  0  0
 17 18  1  0  0  0  0
 17 31  1  0  0  0  0
 17 32  1  0  0  0  0
 18 33  1  0  0  0  0
 18 34  1  0  0  0  0
M  END
> <s_m_source_file>
AV-unprocessed.smi

> <i_m_source_file_index>
689

> <i_lp_mmshare_version>
43012

> <i_f3d_flags>
0

> <s_epik_input>
W0NIM11jMW5vYyhbQ0gzXSljMVtDSDJdQyg9TylbTkhdUyg9TykoPU8pW0NIMl1bQ0hdMltDSDJdW0NIMl0y

> <s_epik_cmdline>
J2VwaWtfcHl0aG9uJywgJy1waCcsICc3LjAnLCAnLXRuJywgJzgnLCAnLW1hJywgJzIwMCcsICctbWV0YWxfYmluZGluZycsICctaW1hZScsICc8aW5maWxlLm1hZT4nLCAnLW9tYWUnLCAnPG91dGZpbGUubWFlPic=

> <r_epik_Ionization_Penalty>
2.32728

> <r_epik_Ionization_Penalty_Charging>
0

> <r_epik_Ionization_Penalty_Neutral>
2.32728

> <r_epik_State_Penalty>
2.47991

> <r_epik_Charging_Adjusted_Penalty>
2.47991

> <i_epik_Tot_Q>
0

> <i_epik_Tot_abs_Q>
0

> <r_epik_Metal_State_Penalty>
2.4915

> <b_epik_Metal_Only>
0

> <s_lp_Force_Field>
OPLS_2005

> <r_lp_Energy>
-0.069028

> <b_lp_Chiralities_Consistent>
1

> <s_lp_Variant>
AV-unprocessed.smi:689-2

> <Gold.Version>
5.8.1

> <Gold.Id.Protein>
6NUR|6NUR_protein|mol2

> <Gold.PLP.Fitness>
43.8480

> <Gold.PLP.PLP>
-38.0942

> <Gold.PLP.part.hbond>
-2.0000

> <Gold.PLP.part.metal>
0.0000

> <Gold.PLP.part.buried>
-3.8499

> <Gold.PLP.part.nonpolar>
-32.0037

> <Gold.PLP.part.repulsive>
0.3931

> <Gold.PLP.ligand.clash>
0.0000

> <Gold.PLP.ligand.torsion>
0.9446

> <Gold.PLP.Chemscore.Hbond>
2.0000

> <Gold.PLP.Chemscore.CHOScore>
0.0000

> <Gold.PLP.Chemscore.Metal>
0.0000

> <Gold.Chemscore.Hbonds>
donor molecule, donor type, donor heavy atom, donor atom, acceptor molecule, acceptor atom, score
      L1  H    11    27       P1  8028  1.00
      P1  H  7989  7998       L1    13  1.00

> <Gold.PLP.Chemscore.Internal.Correction>
1.6429

> <Gold.Rescore>
     Score         DG    S(hbond)    S(metal)    S(lipo)     H(rot)  DE(clash)    DE(int)     intcor
     15.03     -18.45       1.97        0.00      90.82       1.65       0.19       3.22       ----

> <Gold.Chemscore.Fitness>
15.0318

> <Gold.Chemscore.DG>
-18.4458

> <Gold.Chemscore.ZeroCoef>
-5.4800

> <Gold.Chemscore.Hbond>
1.9667

> <Gold.Chemscore.Metal>
0.0000

> <Gold.Chemscore.Lipo>
90.8217

> <Gold.Chemscore.Internal_Hbond>
0.0000

> <Gold.Chemscore.DEClash>
0.1895

> <Gold.Chemscore.DEInternal>
3.2245

> <Gold.Chemscore.Rot>
1.6519

> <Gold.Chemscore.Internal.Correction>
   9.000000E+99

> <Gold.Chemscore.Hbonds>
donor molecule, donor type, donor heavy atom, donor atom, acceptor molecule, acceptor atom, score
      L1  H    11    27       P1  8028  0.99
      P1  H  7989  7998       L1    13  0.98

> <Gold.Chemscore.Hbond.Weighted>
-6.5687

> <Gold.Chemscore.Metal.Weighted>
-0.0000

> <Gold.Chemscore.Lipo.Weighted>
-10.6261

> <Gold.Chemscore.Internal_Hbond.Weighted>
0.0000

> <Gold.Chemscore.DEClash.Weighted>
0.1895

> <Gold.Chemscore.DEInternal.Weighted>
3.2245

> <Gold.Chemscore.Rot.Weighted>
4.2290

> <Gold.Chemscore.Internal.Correction.Weighted>
   9.000000E+99

> <Gold.Protein.RotatedTorsions>
[ 6907 6896 6895 6894 ] final   32.17 input  -60.11 | X-H torsion
[ 7974 7965 7964 7962 ] final  -19.13 input  175.53 | X-H torsion
[ 8008 7997 7996 7995 ] final  177.12 input   59.86 | X-H torsion
[ 10167 10162 10161 10158 ] final -139.35 input  -65.29 | X-H torsion
[ 10718 10713 10712 10709 ] final   63.91 input   66.30 | X-H torsion
[ 10763 10752 10751 10750 ] final  -51.74 input  -60.55 | X-H torsion
[ 11005 11000 10999 10996 ] final  163.92 input  -57.11 | X-H torsion

> <Gold.Protein.ActiveResidues>
 VAL166  LYS551  ARG553  GLY616  TRP617  ASP618  TYR619  PRO620  LYS621  CYS622 
 ASP623  PHE694  ASN695  SER759  ASP760  ASP761  ALA762  ILE779  LEU786  VAL792 
 PHE793  MET794  SER795  GLU796  ALA797  LYS798  CYS799  TRP800  GLU811  SER814 

> <Gold.Protein.RotatedAtoms>
  152.0707  134.9535  160.0574 H   0  0  0  0  0  0  0  0  0  0  0  0  # atno 6907 bound_to 6896
  152.0862  133.4172  159.4531 H   0  0  0  0  0  0  0  0  0  0  0  0  # atno 6908 bound_to 6896
  150.6836  134.2844  159.4684 H   0  0  0  0  0  0  0  0  0  0  0  0  # atno 6909 bound_to 6896
  146.1857  140.4019  142.8477 H   0  0  0  0  0  0  0  0  0  0  0  0  # atno 7974 bound_to 7965
  156.0691  140.1366  156.9850 H   0  0  0  0  0  0  0  0  0  0  0  0  # atno 8008 bound_to 7997
  154.4522  140.0975  156.6704 H   0  0  0  0  0  0  0  0  0  0  0  0  # atno 8009 bound_to 7997
  155.5256  140.3457  155.4418 H   0  0  0  0  0  0  0  0  0  0  0  0  # atno 8010 bound_to 7997
  139.8388  143.7349  152.2664 H   0  0  0  0  0  0  0  0  0  0  0  0  # atno 10167 bound_to 10162
  157.6003  130.9131  149.9776 H   0  0  0  0  0  0  0  0  0  0  0  0  # atno 10718 bound_to 10713
  154.1315  135.6519  153.4923 H   0  0  0  0  0  0  0  0  0  0  0  0  # atno 10763 bound_to 10752
  153.0194  135.5294  154.6997 H   0  0  0  0  0  0  0  0  0  0  0  0  # atno 10764 bound_to 10752
  154.6232  135.2967  155.0272 H   0  0  0  0  0  0  0  0  0  0  0  0  # atno 10765 bound_to 10752
  140.2407  134.8053  157.3408 H   0  0  0  0  0  0  0  0  0  0  0  0  # atno 11005 bound_to 11000
  144.8393  140.6831  143.6240 LP  0  0  0  0  0  0  0  0  0  0  0  0  # atno 17320 bound_to 7965
  145.3946  139.1609  143.4210 LP  0  0  0  0  0  0  0  0  0  0  0  0  # atno 17321 bound_to 7965
  139.7580  144.7515  151.0406 LP  0  0  0  0  0  0  0  0  0  0  0  0  # atno 17342 bound_to 10162
  140.7800  143.4783  151.0052 LP  0  0  0  0  0  0  0  0  0  0  0  0  # atno 17343 bound_to 10162
  156.1075  130.3652  150.0107 LP  0  0  0  0  0  0  0  0  0  0  0  0  # atno 17370 bound_to 10713
  156.8212  130.9359  151.3641 LP  0  0  0  0  0  0  0  0  0  0  0  0  # atno 17371 bound_to 10713
  140.1656  134.4673  155.7865 LP  0  0  0  0  0  0  0  0  0  0  0  0  # atno 17394 bound_to 11000
  141.2211  133.6920  156.7620 LP  0  0  0  0  0  0  0  0  0  0  0  0  # atno 17395 bound_to 11000

$$$$
