#       Name:                AV-unprocessed.smi:1807
#       Creating user name   scv26
#       Creation time:       Fri Mar 27 08:56:19 2020


#       File generated by GOLD software.
#

@<TRIPOS>MOLECULE
AV-unprocessed.smi:1807
    49    50     1
SMALL
NO_CHARGES


@<TRIPOS>ATOM
      1 ****        -2.4798  -0.5996   0.8240 C.3            1 S1                 0.0000
      2 ****        -2.8627  -0.3882  -0.6518 C.3            1 S1                 0.0000
      3 ****        -3.8838   0.7601  -0.7851 C.3            1 S1                 0.0000
      4 ****        -4.2929   0.9975  -2.2463 C.3            1 S1                 0.0000
      5 ****        -3.0642   1.2684  -3.1251 C.3            1 S1                 0.0000
      6 ****        -2.0458   0.1244  -3.0163 C.3            1 S1                 0.0000
      7 ****        -1.6290  -0.1292  -1.5523 C.3            1 S1                 0.0000
      8 ****        -0.7083  -1.2617  -1.4880 N.am           1 S1                 0.0000
      9 ****         0.6209  -1.1953  -1.6541 C.2            1 S1                 0.0000
     10 ****         1.2183  -0.1548  -1.9324 O.2            1 S1                 0.0000
     11 ****         1.3857  -2.5147  -1.4980 C.3            1 S1                 0.0000
     12 ****         2.6693  -2.3344  -0.8289 N.pl3          1 S1                 0.0000
     13 ****         2.7043  -2.0955   0.5514 C.2            1 S1                 0.0000
     14 ****         3.9259  -1.9090   1.2537 C.2            1 S1                 0.0000
     15 ****         3.5172  -1.6945   2.5397 C.2            1 S1                 0.0000
     16 ****         2.1374  -1.7623   2.5550 N.pl3          1 S1                 0.0000
     17 ****         1.2385  -1.5935   3.6828 C.3            1 S1                 0.0000
     18 ****         0.9639  -0.1125   3.9537 C.2            1 S1                 0.0000
     19 ****         1.5047   0.4185   5.0533 N.am           1 S1                 0.0000
     20 ****         0.2729   0.5461   3.1797 O.2            1 S1                 0.0000
     21 ****         1.6334  -2.0167   1.3274 N.2            1 S1                 0.0000
     22 ****        -1.9703   0.2763   1.2256 H              1 S1                 0.0000
     23 ****        -1.8189  -1.4569   0.9542 H              1 S1                 0.0000
     24 ****        -3.3637  -0.7785   1.4365 H              1 S1                 0.0000
     25 ****        -3.3479  -1.3020  -0.9981 H              1 S1                 0.0000
     26 ****        -4.7717   0.5403  -0.1915 H              1 S1                 0.0000
     27 ****        -3.4601   1.6780  -0.3746 H              1 S1                 0.0000
     28 ****        -4.8294   0.1260  -2.6234 H              1 S1                 0.0000
     29 ****        -4.9852   1.8378  -2.3061 H              1 S1                 0.0000
     30 ****        -3.3697   1.3967  -4.1638 H              1 S1                 0.0000
     31 ****        -2.5957   2.2056  -2.8218 H              1 S1                 0.0000
     32 ****        -2.4765  -0.7838  -3.4404 H              1 S1                 0.0000
     33 ****        -1.1695   0.3611  -3.6210 H              1 S1                 0.0000
     34 ****        -1.1216   0.7620  -1.1767 H              1 S1                 0.0000
     35 ****        -1.1107  -2.1611  -1.2680 H              1 S1                 0.0000
     36 ****         0.7827  -3.2539  -0.9676 H              1 S1                 0.0000
     37 ****         1.5725  -2.9225  -2.4914 H              1 S1                 0.0000
     38 ****         3.4696  -2.0805  -1.3897 H              1 S1                 0.0000
     39 ****         4.9375  -1.9225   0.8762 H              1 S1                 0.0000
     40 ****         4.0869  -1.4984   3.4360 H              1 S1                 0.0000
     41 ****         0.2978  -2.1076   3.4787 H              1 S1                 0.0000
     42 ****         1.6815  -2.0712   4.5580 H              1 S1                 0.0000
     43 ****         1.3558   1.3927   5.2716 H              1 S1                 0.0000
     44 ****         2.0671  -0.1591   5.6617 H              1 S1                 0.0000
     45 ****         0.7097   0.6987  -2.0460 LP             1 S1                 0.0000
     46 ****         2.2119  -0.1634  -2.0449 LP             1 S1                 0.0000
     47 ****        -0.1150   0.1148   2.3651 LP             1 S1                 0.0000
     48 ****         0.0986   1.5133   3.3645 LP             1 S1                 0.0000
     49 ****         0.6741  -2.1213   1.0653 LP             1 S1                 0.0000
@<TRIPOS>BOND
    1    1    2 1     
    2    1   22 1     
    3    1   23 1     
    4    1   24 1     
    5    2    7 1     
    6    2    3 1     
    7    2   25 1     
    8    3    4 1     
    9    3   26 1     
   10    3   27 1     
   11    4    5 1     
   12    4   28 1     
   13    4   29 1     
   14    5    6 1     
   15    5   30 1     
   16    5   31 1     
   17    6    7 1     
   18    6   32 1     
   19    6   33 1     
   20    7    8 1     
   21    7   34 1     
   22    8    9 am    
   23    8   35 1     
   24    9   10 2     
   25    9   11 1     
   26   11   12 1     
   27   11   36 1     
   28   11   37 1     
   29   12   13 1     
   30   12   38 1     
   31   13   21 2     
   32   13   14 1     
   33   14   15 2     
   34   14   39 1     
   35   15   16 1     
   36   15   40 1     
   37   16   17 1     
   38   16   21 1     
   39   17   18 1     
   40   17   41 1     
   41   17   42 1     
   42   18   19 am    
   43   18   20 2     
   44   19   43 1     
   45   19   44 1     
   46   10   45 1     
   47   10   46 1     
   48   20   47 1     
   49   20   48 1     
   50   21   49 1     
@<TRIPOS>SUBSTRUCTURE
      1 S1             1
@<TRIPOS>SET
LONE_PAIRS      STATIC     ATOMS    <user>   **** ""
5 45 46 47 48 49
DONOR_HYDROGENS      STATIC     ATOMS    <user>   **** ""
4 35 38 43 44
ATOM$BLUE        STATIC     ATOMS    COLORGROUP SYSTEM
5 45 46 47 48 49
ATOM$RED        STATIC     ATOMS    COLORGROUP SYSTEM
4 35 38 43 44
