#       Name:                AV-unprocessed.smi:166
#       Creating user name   scv26
#       Creation time:       Thu Mar 26 19:12:36 2020


#       File generated by GOLD software.
#

@<TRIPOS>MOLECULE
AV-unprocessed.smi:166
    64    68     1
SMALL
NO_CHARGES


@<TRIPOS>ATOM
      1 ****        -3.7280  -4.0957  -2.0215 O.3            1 S1                 0.0000
      2 ****        -4.5206  -3.1469  -1.3279 C.3            1 S1                 0.0000
      3 ****        -3.8933  -2.8798   0.0608 C.3            1 S1                 0.0000
      4 ****        -2.5425  -2.3409   0.0010 N.pl3          1 S1                 0.0000
      5 ****        -1.3777  -3.0576  -0.1588 C.2            1 S1                 0.0000
      6 ****        -0.2833  -2.3473  -0.1706 N.2            1 S1                 0.0000
      7 ****        -0.7242  -1.0407   0.0026 C.ar           1 S1                 0.0000
      8 ****        -0.0711   0.2205   0.0985 C.ar           1 S1                 0.0000
      9 ****         1.2759   0.3566   0.0049 N.3            1 S1                 0.0000
     10 ****         1.8452  -0.0342  -1.2841 C.3            1 S1                 0.0000
     11 ****         3.3618  -0.2550  -1.1666 C.3            1 S1                 0.0000
     12 ****         4.0503   0.9756  -0.5575 C.3            1 S1                 0.0000
     13 ****         3.4107   1.3364   0.7934 C.3            1 S1                 0.0000
     14 ****         4.0340   2.5266   1.2565 O.3            1 S1                 0.0000
     15 ****         3.8550   2.7860   2.6428 C.3            1 S1                 0.0000
     16 ****         4.6084   4.0326   3.0695 C.3            1 S1                 0.0000
     17 ****         4.7421   5.2206   2.1389 C.3            1 S1                 0.0000
     18 ****         5.9500   4.3817   2.4583 C.3            1 S1                 0.0000
     19 ****         1.8884   1.5307   0.6293 C.3            1 S1                 0.0000
     20 ****        -0.8528   1.3157   0.2971 N.ar           1 S1                 0.0000
     21 ****        -2.1799   1.1900   0.3905 C.ar           1 S1                 0.0000
     22 ****        -2.9203   0.0823   0.3186 N.ar           1 S1                 0.0000
     23 ****        -2.1430  -1.0208   0.1218 C.ar           1 S1                 0.0000
     24 ****        -5.9420  -3.6896  -1.2371 C.3            1 S1                 0.0000
     25 ****        -6.5810  -3.1798  -2.5216 C.3            1 S1                 0.0000
     26 ****        -6.0440  -1.8739  -2.6411 O.3            1 S1                 0.0000
     27 ****        -4.6834  -1.8980  -2.2201 C.3            1 S1                 0.0000
     28 ****        -2.8814  -3.7113  -2.1894 H              1 S1                 0.0000
     29 ****        -4.5153  -2.1842   0.6255 H              1 S1                 0.0000
     30 ****        -3.8647  -3.8021   0.6425 H              1 S1                 0.0000
     31 ****        -1.3649  -4.1326  -0.2671 H              1 S1                 0.0000
     32 ****         1.3780  -0.9398  -1.6695 H              1 S1                 0.0000
     33 ****         1.6404   0.7549  -2.0089 H              1 S1                 0.0000
     34 ****         3.5556  -1.1289  -0.5434 H              1 S1                 0.0000
     35 ****         3.7841  -0.4733  -2.1476 H              1 S1                 0.0000
     36 ****         5.1160   0.7832  -0.4292 H              1 S1                 0.0000
     37 ****         3.9655   1.8193  -1.2438 H              1 S1                 0.0000
     38 ****         3.6048   0.5210   1.4928 H              1 S1                 0.0000
     39 ****         2.7998   2.9247   2.8775 H              1 S1                 0.0000
     40 ****         4.2181   1.9438   3.2334 H              1 S1                 0.0000
     41 ****         4.4950   4.2676   4.1262 H              1 S1                 0.0000
     42 ****         4.3244   5.1383   1.1373 H              1 S1                 0.0000
     43 ****         4.6886   6.2125   2.5830 H              1 S1                 0.0000
     44 ****         6.7017   4.8145   3.1152 H              1 S1                 0.0000
     45 ****         6.3377   3.7392   1.6702 H              1 S1                 0.0000
     46 ****         1.6893   2.4093   0.0141 H              1 S1                 0.0000
     47 ****         1.4283   1.7050   1.6023 H              1 S1                 0.0000
     48 ****        -2.7265   2.1085   0.5457 H              1 S1                 0.0000
     49 ****        -5.9937  -4.7741  -1.1329 H              1 S1                 0.0000
     50 ****        -6.4619  -3.2497  -0.3848 H              1 S1                 0.0000
     51 ****        -6.2770  -3.7828  -3.3787 H              1 S1                 0.0000
     52 ****        -7.6701  -3.1655  -2.4765 H              1 S1                 0.0000
     53 ****        -4.4806  -0.9726  -1.6831 H              1 S1                 0.0000
     54 ****        -4.0243  -1.9220  -3.0891 H              1 S1                 0.0000
     55 ****        -4.1679  -4.3350  -2.8871 LP             1 S1                 0.0000
     56 ****        -3.6207  -4.9185  -1.4635 LP             1 S1                 0.0000
     57 ****         0.6572  -2.6692  -0.2793 LP             1 S1                 0.0000
     58 ****         1.5791  -0.3557   0.6379 LP             1 S1                 0.0000
     59 ****         3.6557   3.2971   0.7434 LP             1 S1                 0.0000
     60 ****         5.0150   2.4557   1.0763 LP             1 S1                 0.0000
     61 ****        -0.4322   2.2198   0.3736 LP             1 S1                 0.0000
     62 ****        -3.9169   0.0635   0.3987 LP             1 S1                 0.0000
     63 ****        -6.5632  -1.2427  -2.0648 LP             1 S1                 0.0000
     64 ****        -6.0960  -1.5748  -3.5939 LP             1 S1                 0.0000
@<TRIPOS>BOND
    1    1    2 1     
    2    1   28 1     
    3    2   27 1     
    4    2    3 1     
    5    2   24 1     
    6    3    4 1     
    7    3   29 1     
    8    3   30 1     
    9    4   23 1     
   10    4    5 1     
   11    5    6 2     
   12    5   31 1     
   13    6    7 1     
   14    7   23 ar    
   15    7    8 ar    
   16    8    9 1     
   17    8   20 ar    
   18    9   19 1     
   19    9   10 1     
   20   10   11 1     
   21   10   32 1     
   22   10   33 1     
   23   11   12 1     
   24   11   34 1     
   25   11   35 1     
   26   12   13 1     
   27   12   36 1     
   28   12   37 1     
   29   13   14 1     
   30   13   19 1     
   31   13   38 1     
   32   14   15 1     
   33   15   16 1     
   34   15   39 1     
   35   15   40 1     
   36   16   18 1     
   37   16   17 1     
   38   16   41 1     
   39   17   18 1     
   40   17   42 1     
   41   17   43 1     
   42   18   44 1     
   43   18   45 1     
   44   19   46 1     
   45   19   47 1     
   46   20   21 ar    
   47   21   22 ar    
   48   21   48 1     
   49   22   23 ar    
   50   24   25 1     
   51   24   49 1     
   52   24   50 1     
   53   25   26 1     
   54   25   51 1     
   55   25   52 1     
   56   26   27 1     
   57   27   53 1     
   58   27   54 1     
   59    1   55 1     
   60    1   56 1     
   61    6   57 1     
   62    9   58 1     
   63   14   59 1     
   64   14   60 1     
   65   20   61 1     
   66   22   62 1     
   67   26   63 1     
   68   26   64 1     
@<TRIPOS>SUBSTRUCTURE
      1 S1             1
@<TRIPOS>SET
LONE_PAIRS      STATIC     ATOMS    <user>   **** ""
10 55 56 57 58 59 60 61 62 63 64
DONOR_HYDROGENS      STATIC     ATOMS    <user>   **** ""
1 28
ATOM$BLUE        STATIC     ATOMS    COLORGROUP SYSTEM
10 55 56 57 58 59 60 61 62 63 64
ATOM$RED        STATIC     ATOMS    COLORGROUP SYSTEM
1 28
