AV-unprocessed.smi:1692|AV-procd|sdf|6784|dock4
  -GOLD-   22720 7543D 1   1.00000     0.00000
 Structure written by MMmdl.
 45 46  0  0  0  0  0  0  0  0  1 V2000
  152.0487  137.7450  155.6974 C   0  0  0  0  0  0  0  0  0  0  0  0
  151.5819  138.7091  154.5935 C   0  0  1  0  0  0  0  0  0  0  0  0
  150.1562  138.4121  154.0856 C   0  0  0  0  0  0  0  0  0  0  0  0
  149.1208  138.8146  155.0356 N   0  0  0  0  0  0  0  0  0  0  0  0
  147.7702  138.5657  154.5331 C   0  0  0  0  0  0  0  0  0  0  0  0
  147.3584  139.4165  153.3195 C   0  0  0  0  0  0  0  0  0  0  0  0
  146.1890  138.7891  152.5432 C   0  0  0  0  0  0  0  0  0  0  0  0
  146.4982  137.4332  152.1032 N   0  0  0  0  0  0  0  0  0  0  0  0
  145.5923  136.4647  151.9030 C   0  0  0  0  0  0  0  0  0  0  0  0
  144.3826  136.6232  152.0699 O   0  0  0  0  0  0  0  0  0  0  0  0
  146.1800  135.3230  151.5034 N   0  0  0  0  0  0  0  0  0  0  0  0
  145.5636  134.0837  151.1827 C   0  0  0  0  0  0  0  0  0  0  0  0
  146.4131  132.9564  151.2532 C   0  0  0  0  0  0  0  0  0  0  0  0
  145.8983  131.6806  150.9511 C   0  0  0  0  0  0  0  0  0  0  0  0
  144.5453  131.5645  150.5861 C   0  0  0  0  0  0  0  0  0  0  0  0
  143.7680  132.7366  150.5412 C   0  0  0  0  0  0  0  0  0  0  0  0
  144.2595  133.9602  150.8300 N   0  0  0  0  0  0  0  0  0  0  0  0
  149.3017  140.2232  155.3637 C   0  0  0  0  0  0  0  0  0  0  0  0
  150.7021  140.5072  155.9357 C   0  0  2  0  0  0  0  0  0  0  0  0
  150.9236  141.9992  156.2050 C   0  0  0  0  0  0  0  0  0  0  0  0
  151.6897  140.0735  155.0023 O   0  0  0  0  0  0  0  0  0  0  0  0
  152.0670  136.7180  155.3327 H   0  0  0  0  0  0  0  0  0  0  0  0
  151.3931  137.7691  156.5674 H   0  0  0  0  0  0  0  0  0  0  0  0
  153.0560  137.9948  156.0307 H   0  0  0  0  0  0  0  0  0  0  0  0
  152.2675  138.5858  153.7548 H   0  0  0  0  0  0  0  0  0  0  0  0
  150.0030  138.9369  153.1413 H   0  0  0  0  0  0  0  0  0  0  0  0
  150.0791  137.3486  153.8619 H   0  0  0  0  0  0  0  0  0  0  0  0
  147.6969  137.5177  154.2390 H   0  0  0  0  0  0  0  0  0  0  0  0
  147.0453  138.7022  155.3369 H   0  0  0  0  0  0  0  0  0  0  0  0
  147.0737  140.4168  153.6454 H   0  0  0  0  0  0  0  0  0  0  0  0
  148.2135  139.5371  152.6527 H   0  0  0  0  0  0  0  0  0  0  0  0
  145.3039  138.7430  153.1782 H   0  0  0  0  0  0  0  0  0  0  0  0
  145.9232  139.4088  151.6850 H   0  0  0  0  0  0  0  0  0  0  0  0
  147.4714  137.2176  151.9436 H   0  0  0  0  0  0  0  0  0  0  0  0
  147.1850  135.3429  151.4152 H   0  0  0  0  0  0  0  0  0  0  0  0
  147.4506  133.0631  151.5353 H   0  0  0  0  0  0  0  0  0  0  0  0
  146.5314  130.8069  150.9988 H   0  0  0  0  0  0  0  0  0  0  0  0
  144.1146  130.6035  150.3474 H   0  0  0  0  0  0  0  0  0  0  0  0
  142.7246  132.6912  150.2665 H   0  0  0  0  0  0  0  0  0  0  0  0
  149.1408  140.8327  154.4728 H   0  0  0  0  0  0  0  0  0  0  0  0
  148.5494  140.5314  156.0906 H   0  0  0  0  0  0  0  0  0  0  0  0
  150.8287  139.9677  156.8748 H   0  0  0  0  0  0  0  0  0  0  0  0
  150.2052  142.3771  156.9329 H   0  0  0  0  0  0  0  0  0  0  0  0
  150.8164  142.5853  155.2919 H   0  0  0  0  0  0  0  0  0  0  0  0
  151.9232  142.1789  156.6011 H   0  0  0  0  0  0  0  0  0  0  0  0
  1  2  1  0  0  0  0
  1 22  1  0  0  0  0
  1 23  1  0  0  0  0
  1 24  1  0  0  0  0
  2 21  1  0  0  0  0
  2  3  1  0  0  0  0
  2 25  1  0  0  0  0
  3  4  1  0  0  0  0
  3 26  1  0  0  0  0
  3 27  1  0  0  0  0
  4  5  1  0  0  0  0
  4 18  1  0  0  0  0
  5  6  1  0  0  0  0
  5 28  1  0  0  0  0
  5 29  1  0  0  0  0
  6  7  1  0  0  0  0
  6 30  1  0  0  0  0
  6 31  1  0  0  0  0
  7  8  1  0  0  0  0
  7 32  1  0  0  0  0
  7 33  1  0  0  0  0
  8  9  1  0  0  0  0
  8 34  1  0  0  0  0
  9 10  2  0  0  0  0
  9 11  1  0  0  0  0
 11 12  1  0  0  0  0
 11 35  1  0  0  0  0
 12 17  1  0  0  0  0
 12 13  2  0  0  0  0
 13 14  1  0  0  0  0
 13 36  1  0  0  0  0
 14 15  2  0  0  0  0
 14 37  1  0  0  0  0
 15 16  1  0  0  0  0
 15 38  1  0  0  0  0
 16 17  2  0  0  0  0
 16 39  1  0  0  0  0
 18 19  1  0  0  0  0
 18 40  1  0  0  0  0
 18 41  1  0  0  0  0
 19 20  1  0  0  0  0
 19 21  1  0  0  0  0
 19 42  1  0  0  0  0
 20 43  1  0  0  0  0
 20 44  1  0  0  0  0
 20 45  1  0  0  0  0
M  END
> <s_m_source_file>
AV-unprocessed.smi

> <i_m_source_file_index>
1692

> <i_lp_mmshare_version>
43012

> <i_f3d_flags>
0

> <s_epik_input>
W0NIM11bQ0BASF0xW0NIMl1OKFtDSDJdW0NASF0oTzEpW0NIM10pW0NIMl1bQ0gyXVtDSDJdW05IXUMoPU8pW05IXWMyW2NIXVtjSF1bY0hdW2NIXW4y

> <s_epik_cmdline>
J2VwaWtfcHl0aG9uJywgJy1waCcsICc3LjAnLCAnLXRuJywgJzgnLCAnLW1hJywgJzIwMCcsICctbWV0YWxfYmluZGluZycsICctaW1hZScsICc8aW5maWxlLm1hZT4nLCAnLW9tYWUnLCAnPG91dGZpbGUubWFlPic=

> <r_epik_Ionization_Penalty>
0.594711

> <r_epik_Ionization_Penalty_Charging>
0

> <r_epik_Ionization_Penalty_Neutral>
0.594711

> <r_epik_State_Penalty>
0.608529

> <r_epik_Charging_Adjusted_Penalty>
0.608529

> <i_epik_Tot_Q>
0

> <i_epik_Tot_abs_Q>
0

> <r_epik_Metal_State_Penalty>
0.608528

> <b_epik_Metal_Only>
0

> <s_lp_Force_Field>
OPLS_2005

> <r_lp_Energy>
25.6838

> <b_lp_Chiralities_Consistent>
1

> <s_lp_Variant>
AV-unprocessed.smi:1692-7

> <Gold.Version>
5.8.1

> <Gold.Id.Protein>
6NUR|6NUR_protein|mol2

> <Gold.PLP.Fitness>
48.3266

> <Gold.PLP.PLP>
-37.1186

> <Gold.PLP.part.hbond>
-3.0000

> <Gold.PLP.part.metal>
0.0000

> <Gold.PLP.part.buried>
-5.7391

> <Gold.PLP.part.nonpolar>
-30.8029

> <Gold.PLP.part.repulsive>
1.4678

> <Gold.PLP.ligand.clash>
0.0000

> <Gold.PLP.ligand.torsion>
0.4017

> <Gold.PLP.Chemscore.Hbond>
2.9920

> <Gold.PLP.Chemscore.CHOScore>
1.0000

> <Gold.PLP.Chemscore.Metal>
0.0000

> <Gold.Chemscore.Hbonds>
donor molecule, donor type, donor heavy atom, donor atom, acceptor molecule, acceptor atom, score
      L1  H     8    34       P1  7948  1.00
      L1  H    11    35       P1  7948  1.00
      P1  H  7989  7998       L1    21  0.99
      L1  C    16    39       P1 10186  0.98

> <Gold.PLP.Chemscore.Internal.Correction>
0.0354

> <Gold.Rescore>
     Score         DG    S(hbond)    S(metal)    S(lipo)     H(rot)  DE(clash)    DE(int)     intcor
     17.52     -19.73       2.25        0.00      95.31       1.73       0.60       1.61       ----

> <Gold.Chemscore.Fitness>
17.5182

> <Gold.Chemscore.DG>
-19.7264

> <Gold.Chemscore.ZeroCoef>
-5.4800

> <Gold.Chemscore.Hbond>
2.2502

> <Gold.Chemscore.Metal>
0.0000

> <Gold.Chemscore.Lipo>
95.3055

> <Gold.Chemscore.Internal_Hbond>
0.0000

> <Gold.Chemscore.DEClash>
0.5973

> <Gold.Chemscore.DEInternal>
1.6110

> <Gold.Chemscore.Rot>
1.7266

> <Gold.Chemscore.Internal.Correction>
   9.000000E+99

> <Gold.Chemscore.Hbonds>
donor molecule, donor type, donor heavy atom, donor atom, acceptor molecule, acceptor atom, score
      L1  H     8    34       P1  7948  0.99
      L1  H    11    35       P1  7948  0.85
      P1  H  7989  7998       L1    21  0.26

> <Gold.Chemscore.Hbond.Weighted>
-7.5157

> <Gold.Chemscore.Metal.Weighted>
-0.0000

> <Gold.Chemscore.Lipo.Weighted>
-11.1507

> <Gold.Chemscore.Internal_Hbond.Weighted>
0.0000

> <Gold.Chemscore.DEClash.Weighted>
0.5973

> <Gold.Chemscore.DEInternal.Weighted>
1.6110

> <Gold.Chemscore.Rot.Weighted>
4.4200

> <Gold.Chemscore.Internal.Correction.Weighted>
   9.000000E+99

> <Gold.Protein.RotatedTorsions>
[ 6907 6896 6895 6894 ] final -121.56 input  -60.11 | X-H torsion
[ 7974 7965 7964 7962 ] final  -79.69 input  175.53 | X-H torsion
[ 8008 7997 7996 7995 ] final   72.77 input   59.86 | X-H torsion
[ 10167 10162 10161 10158 ] final -171.86 input  -65.29 | X-H torsion
[ 10718 10713 10712 10709 ] final   75.92 input   66.30 | X-H torsion
[ 10763 10752 10751 10750 ] final  143.24 input  -60.55 | X-H torsion
[ 11005 11000 10999 10996 ] final   82.81 input  -57.11 | X-H torsion

> <Gold.Protein.ActiveResidues>
 VAL166  LYS551  ARG553  GLY616  TRP617  ASP618  TYR619  PRO620  LYS621  CYS622 
 ASP623  PHE694  ASN695  SER759  ASP760  ASP761  ALA762  ILE779  LEU786  VAL792 
 PHE793  MET794  SER795  GLU796  ALA797  LYS798  CYS799  TRP800  GLU811  SER814 

> <Gold.Protein.RotatedAtoms>
  150.8495  133.7809  159.3030 H   0  0  0  0  0  0  0  0  0  0  0  0  # atno 6907 bound_to 6896
  151.5486  135.1066  159.9953 H   0  0  0  0  0  0  0  0  0  0  0  0  # atno 6908 bound_to 6896
  152.4541  133.7644  159.6820 H   0  0  0  0  0  0  0  0  0  0  0  0  # atno 6909 bound_to 6896
  145.5699  140.9468  143.1401 H   0  0  0  0  0  0  0  0  0  0  0  0  # atno 7974 bound_to 7965
  155.7738  140.3483  155.5261 H   0  0  0  0  0  0  0  0  0  0  0  0  # atno 8008 bound_to 7997
  155.8796  140.1000  157.1515 H   0  0  0  0  0  0  0  0  0  0  0  0  # atno 8009 bound_to 7997
  154.4023  140.1325  156.4167 H   0  0  0  0  0  0  0  0  0  0  0  0  # atno 8010 bound_to 7997
  139.5778  144.1493  152.1474 H   0  0  0  0  0  0  0  0  0  0  0  0  # atno 10167 bound_to 10162
  157.6653  130.9749  150.1423 H   0  0  0  0  0  0  0  0  0  0  0  0  # atno 10718 bound_to 10713
  153.9690  135.2952  155.3428 H   0  0  0  0  0  0  0  0  0  0  0  0  # atno 10763 bound_to 10752
  154.7333  135.5058  153.9002 H   0  0  0  0  0  0  0  0  0  0  0  0  # atno 10764 bound_to 10752
  153.0909  135.6707  153.9968 H   0  0  0  0  0  0  0  0  0  0  0  0  # atno 10765 bound_to 10752
  139.9051  134.8099  156.2225 H   0  0  0  0  0  0  0  0  0  0  0  0  # atno 11005 bound_to 11000
  144.7443  139.7363  143.7298 LP  0  0  0  0  0  0  0  0  0  0  0  0  # atno 17320 bound_to 7965
  146.1792  139.4976  142.9877 LP  0  0  0  0  0  0  0  0  0  0  0  0  # atno 17321 bound_to 7965
  140.1040  144.5515  150.6970 LP  0  0  0  0  0  0  0  0  0  0  0  0  # atno 17342 bound_to 10162
  140.7059  143.2467  151.4728 LP  0  0  0  0  0  0  0  0  0  0  0  0  # atno 17343 bound_to 10162
  156.2242  130.3676  149.8520 LP  0  0  0  0  0  0  0  0  0  0  0  0  # atno 17370 bound_to 10713
  156.6364  130.8687  151.3505 LP  0  0  0  0  0  0  0  0  0  0  0  0  # atno 17371 bound_to 10713
  141.0397  133.6944  156.1575 LP  0  0  0  0  0  0  0  0  0  0  0  0  # atno 17394 bound_to 11000
  140.6974  134.4600  157.5587 LP  0  0  0  0  0  0  0  0  0  0  0  0  # atno 17395 bound_to 11000

$$$$
