AV-unprocessed.smi:723|AV-procd|sdf|3505|dock2
  -GOLD-   22720 0503D 1   1.00000     0.00000
 Structure written by MMmdl.
 42 44  0  0  0  0  0  0  0  0  1 V2000
  150.0798  132.7246  154.6540 C   0  0  0  0  0  0  0  0  0  0  0  0
  149.4970  133.8200  153.9709 O   0  0  0  0  0  0  0  0  0  0  0  0
  148.9365  134.7771  154.8552 C   0  0  0  0  0  0  0  0  0  0  0  0
  149.9880  135.2211  155.8819 C   0  0  0  0  0  0  0  0  0  0  0  0
  150.5783  136.5031  155.5433 N   0  0  0  0  0  0  0  0  0  0  0  0
  150.4893  137.6917  156.2401 C   0  0  0  0  0  0  0  0  0  0  0  0
  151.2021  138.6010  155.5181 C   0  0  0  0  0  0  0  0  0  0  0  0
  151.3672  139.9641  155.8700 N   0  0  0  0  0  0  0  0  0  0  0  0
  151.1697  140.5213  157.0758 C   0  0  0  0  0  0  0  0  0  0  0  0
  150.7685  139.9227  158.0740 O   0  0  0  0  0  0  0  0  0  0  0  0
  151.4708  141.8268  157.0620 N   0  0  0  0  0  0  0  0  0  0  0  0
  151.3935  142.7047  158.1845 C   0  0  2  0  0  0  0  0  0  0  0  0
  151.8925  144.1295  157.9917 C   0  0  1  0  0  0  0  0  0  0  0  0
  151.1505  145.2720  158.6708 C   0  0  0  0  0  0  0  0  0  0  0  0
  151.6385  145.5496  160.1019 C   0  0  0  0  0  0  0  0  0  0  0  0
  151.7788  144.2564  160.9152 C   0  0  0  0  0  0  0  0  0  0  0  0
  152.8558  143.3441  160.3072 C   0  0  0  0  0  0  0  0  0  0  0  0
  152.6956  143.1379  158.8090 C   0  0  1  0  0  0  0  0  0  0  0  0
  151.7064  137.8925  154.3910 C   0  0  0  0  0  0  0  0  0  0  0  0
  151.3220  136.6251  154.4159 N   0  0  0  0  0  0  0  0  0  0  0  0
  150.4932  132.0204  153.9320 H   0  0  0  0  0  0  0  0  0  0  0  0
  149.3391  132.1948  155.2544 H   0  0  0  0  0  0  0  0  0  0  0  0
  150.8903  133.0527  155.3061 H   0  0  0  0  0  0  0  0  0  0  0  0
  148.5869  135.6435  154.2918 H   0  0  0  0  0  0  0  0  0  0  0  0
  148.0720  134.3514  155.3675 H   0  0  0  0  0  0  0  0  0  0  0  0
  149.5420  135.2844  156.8755 H   0  0  0  0  0  0  0  0  0  0  0  0
  150.7869  134.4813  155.9436 H   0  0  0  0  0  0  0  0  0  0  0  0
  149.9365  137.7830  157.1635 H   0  0  0  0  0  0  0  0  0  0  0  0
  151.6950  140.5726  155.1344 H   0  0  0  0  0  0  0  0  0  0  0  0
  151.7909  142.2302  156.1938 H   0  0  0  0  0  0  0  0  0  0  0  0
  150.5520  142.5708  158.8626 H   0  0  0  0  0  0  0  0  0  0  0  0
  152.2817  144.3750  157.0050 H   0  0  0  0  0  0  0  0  0  0  0  0
  151.2543  146.1731  158.0657 H   0  0  0  0  0  0  0  0  0  0  0  0
  150.0867  145.0320  158.6830 H   0  0  0  0  0  0  0  0  0  0  0  0
  152.6015  146.0607  160.0675 H   0  0  0  0  0  0  0  0  0  0  0  0
  150.9473  146.2310  160.5987 H   0  0  0  0  0  0  0  0  0  0  0  0
  152.0405  144.4918  161.9472 H   0  0  0  0  0  0  0  0  0  0  0  0
  150.8204  143.7377  160.9537 H   0  0  0  0  0  0  0  0  0  0  0  0
  153.8377  143.7854  160.4817 H   0  0  0  0  0  0  0  0  0  0  0  0
  152.8575  142.3735  160.8034 H   0  0  0  0  0  0  0  0  0  0  0  0
  153.5925  142.7396  158.3374 H   0  0  0  0  0  0  0  0  0  0  0  0
  152.3197  138.2360  153.5714 H   0  0  0  0  0  0  0  0  0  0  0  0
  1  2  1  0  0  0  0
  1 21  1  0  0  0  0
  1 22  1  0  0  0  0
  1 23  1  0  0  0  0
  2  3  1  0  0  0  0
  3  4  1  0  0  0  0
  3 24  1  0  0  0  0
  3 25  1  0  0  0  0
  4  5  1  0  0  0  0
  4 26  1  0  0  0  0
  4 27  1  0  0  0  0
  5 20  1  0  0  0  0
  5  6  1  0  0  0  0
  6  7  2  0  0  0  0
  6 28  1  0  0  0  0
  7  8  1  0  0  0  0
  7 19  1  0  0  0  0
  8  9  1  0  0  0  0
  8 29  1  0  0  0  0
  9 10  2  0  0  0  0
  9 11  1  0  0  0  0
 11 12  1  0  0  0  0
 11 30  1  0  0  0  0
 12 18  1  0  0  0  0
 12 13  1  0  0  0  0
 12 31  1  0  0  0  0
 13 18  1  0  0  0  0
 13 14  1  0  0  0  0
 13 32  1  0  0  0  0
 14 15  1  0  0  0  0
 14 33  1  0  0  0  0
 14 34  1  0  0  0  0
 15 16  1  0  0  0  0
 15 35  1  0  0  0  0
 15 36  1  0  0  0  0
 16 17  1  0  0  0  0
 16 37  1  0  0  0  0
 16 38  1  0  0  0  0
 17 18  1  0  0  0  0
 17 39  1  0  0  0  0
 17 40  1  0  0  0  0
 18 41  1  0  0  0  0
 19 20  2  0  0  0  0
 19 42  1  0  0  0  0
M  END
> <s_m_source_file>
AV-unprocessed.smi

> <i_m_source_file_index>
723

> <i_lp_mmshare_version>
43012

> <i_f3d_flags>
0

> <s_epik_input>
W0NIM11PW0NIMl1bQ0gyXW4xW2NIXWMoW2NIXW4xKVtOSF1DKD1PKVtOSF1bQ0BIXTJbQ0BASF0oW0NAQEhdMjMpW0NIMl1bQ0gyXVtDSDJdW0NIMl0z

> <s_epik_cmdline>
J2VwaWtfcHl0aG9uJywgJy1waCcsICc3LjAnLCAnLXRuJywgJzgnLCAnLW1hJywgJzIwMCcsICctbWV0YWxfYmluZGluZycsICctaW1hZScsICc8aW5maWxlLm1hZT4nLCAnLW9tYWUnLCAnPG91dGZpbGUubWFlPic=

> <r_lp_tautomer_probability>
1

> <r_epik_Ionization_Penalty>
0.00031755

> <r_epik_Ionization_Penalty_Charging>
0

> <r_epik_Ionization_Penalty_Neutral>
0.00031755

> <r_epik_State_Penalty>
-0

> <r_epik_Charging_Adjusted_Penalty>
0

> <i_epik_Tot_Q>
0

> <i_epik_Tot_abs_Q>
0

> <r_epik_Metal_State_Penalty>
-0

> <b_epik_Metal_Only>
0

> <s_lp_Force_Field>
OPLS_2005

> <r_lp_Energy>
35.4859

> <b_lp_Chiralities_Consistent>
1

> <s_lp_Variant>
AV-unprocessed.smi:723-1

> <Gold.Version>
5.8.1

> <Gold.Id.Protein>
6NUR|6NUR_protein|mol2

> <Gold.PLP.Fitness>
42.9263

> <Gold.PLP.PLP>
-40.8080

> <Gold.PLP.part.hbond>
-1.0000

> <Gold.PLP.part.metal>
0.0000

> <Gold.PLP.part.buried>
-6.2067

> <Gold.PLP.part.nonpolar>
-34.1014

> <Gold.PLP.part.repulsive>
1.3177

> <Gold.PLP.ligand.clash>
0.0000

> <Gold.PLP.ligand.torsion>
0.4832

> <Gold.PLP.Chemscore.Hbond>
1.0000

> <Gold.PLP.Chemscore.CHOScore>
0.0000

> <Gold.PLP.Chemscore.Metal>
0.0000

> <Gold.Chemscore.Hbonds>
donor molecule, donor type, donor heavy atom, donor atom, acceptor molecule, acceptor atom, score
      P1  H 10752 10764       L1    20  1.00

> <Gold.PLP.Chemscore.Internal.Correction>
0.0846

> <Gold.Rescore>
     Score         DG    S(hbond)    S(metal)    S(lipo)     H(rot)  DE(clash)    DE(int)     intcor
     15.84     -17.83       0.84        0.00     115.66       1.56       0.27       1.72       ----

> <Gold.Chemscore.Fitness>
15.8436

> <Gold.Chemscore.DG>
-17.8330

> <Gold.Chemscore.ZeroCoef>
-5.4800

> <Gold.Chemscore.Hbond>
0.8447

> <Gold.Chemscore.Metal>
0.0000

> <Gold.Chemscore.Lipo>
115.6597

> <Gold.Chemscore.Internal_Hbond>
0.0000

> <Gold.Chemscore.DEClash>
0.2651

> <Gold.Chemscore.DEInternal>
1.7242

> <Gold.Chemscore.Rot>
1.5627

> <Gold.Chemscore.Internal.Correction>
   9.000000E+99

> <Gold.Chemscore.Hbonds>
donor molecule, donor type, donor heavy atom, donor atom, acceptor molecule, acceptor atom, score
      P1  H 10752 10764       L1    20  0.47

> <Gold.Chemscore.Hbond.Weighted>
-2.8212

> <Gold.Chemscore.Metal.Weighted>
-0.0000

> <Gold.Chemscore.Lipo.Weighted>
-13.5322

> <Gold.Chemscore.Internal_Hbond.Weighted>
0.0000

> <Gold.Chemscore.DEClash.Weighted>
0.2651

> <Gold.Chemscore.DEInternal.Weighted>
1.7242

> <Gold.Chemscore.Rot.Weighted>
4.0005

> <Gold.Chemscore.Internal.Correction.Weighted>
   9.000000E+99

> <Gold.Protein.RotatedTorsions>
[ 6907 6896 6895 6894 ] final  161.22 input  -60.11 | X-H torsion
[ 7974 7965 7964 7962 ] final  152.98 input  175.53 | X-H torsion
[ 8008 7997 7996 7995 ] final -169.40 input   59.86 | X-H torsion
[ 10167 10162 10161 10158 ] final  114.87 input  -65.29 | X-H torsion
[ 10718 10713 10712 10709 ] final  118.19 input   66.30 | X-H torsion
[ 10763 10752 10751 10750 ] final  -73.84 input  -60.55 | X-H torsion
[ 11005 11000 10999 10996 ] final    5.13 input  -57.11 | X-H torsion

> <Gold.Protein.ActiveResidues>
 VAL166  LYS551  ARG553  GLY616  TRP617  ASP618  TYR619  PRO620  LYS621  CYS622 
 ASP623  PHE694  ASN695  SER759  ASP760  ASP761  ALA762  ILE779  LEU786  VAL792 
 PHE793  MET794  SER795  GLU796  ALA797  LYS798  CYS799  TRP800  GLU811  SER814 

> <Gold.Protein.RotatedAtoms>
  151.9589  133.3689  159.4027 H   0  0  0  0  0  0  0  0  0  0  0  0  # atno 6907 bound_to 6896
  150.6967  134.4261  159.5236 H   0  0  0  0  0  0  0  0  0  0  0  0  # atno 6908 bound_to 6896
  152.1947  134.8641  160.0565 H   0  0  0  0  0  0  0  0  0  0  0  0  # atno 6909 bound_to 6896
  144.8185  139.6740  143.6111 H   0  0  0  0  0  0  0  0  0  0  0  0  # atno 7974 bound_to 7965
  155.9045  140.1046  157.1326 H   0  0  0  0  0  0  0  0  0  0  0  0  # atno 8008 bound_to 7997
  154.4030  140.1286  156.4542 H   0  0  0  0  0  0  0  0  0  0  0  0  # atno 8009 bound_to 7997
  155.7384  140.3467  155.5095 H   0  0  0  0  0  0  0  0  0  0  0  0  # atno 8010 bound_to 7997
  139.6357  144.7119  151.2339 H   0  0  0  0  0  0  0  0  0  0  0  0  # atno 10167 bound_to 10162
  157.6047  131.1045  150.7721 H   0  0  0  0  0  0  0  0  0  0  0  0  # atno 10718 bound_to 10713
  154.4649  135.5884  153.6281 H   0  0  0  0  0  0  0  0  0  0  0  0  # atno 10763 bound_to 10752
  152.9827  135.6053  154.3439 H   0  0  0  0  0  0  0  0  0  0  0  0  # atno 10764 bound_to 10752
  154.3315  135.2842  155.2448 H   0  0  0  0  0  0  0  0  0  0  0  0  # atno 10765 bound_to 10752
  140.5742  134.0074  155.8021 H   0  0  0  0  0  0  0  0  0  0  0  0  # atno 11005 bound_to 11000
  146.2490  139.6158  142.9440 LP  0  0  0  0  0  0  0  0  0  0  0  0  # atno 17320 bound_to 7965
  145.5159  141.0434  143.2462 LP  0  0  0  0  0  0  0  0  0  0  0  0  # atno 17321 bound_to 7965
  140.7464  143.6400  150.8343 LP  0  0  0  0  0  0  0  0  0  0  0  0  # atno 17342 bound_to 10162
  140.0031  143.5723  152.2868 LP  0  0  0  0  0  0  0  0  0  0  0  0  # atno 17343 bound_to 10162
  156.8112  130.4953  149.5355 LP  0  0  0  0  0  0  0  0  0  0  0  0  # atno 17370 bound_to 10713
  156.1129  130.6054  151.0076 LP  0  0  0  0  0  0  0  0  0  0  0  0  # atno 17371 bound_to 10713
  141.1037  133.9728  157.3034 LP  0  0  0  0  0  0  0  0  0  0  0  0  # atno 17394 bound_to 11000
  139.9347  135.0197  156.8518 LP  0  0  0  0  0  0  0  0  0  0  0  0  # atno 17395 bound_to 11000

$$$$
