AV-unprocessed.smi:3280|AV-procd|sdf|12553|dock3
  -GOLD-   2272018473D 1   1.00000     0.00000
 Structure written by MMmdl.
 39 40  0  0  0  0  0  0  0  0  2 V2000
  147.4944  140.2681  157.4193 C   0  0  0  0  0  0  0  0  0  0  0  0
  148.2720  139.8441  156.1646 C   0  0  0  0  0  0  0  0  0  0  0  0
  147.5819  138.7143  155.3856 C   0  0  0  0  0  0  0  0  0  0  0  0
  149.6974  139.5091  156.4819 C   0  0  0  0  0  0  0  0  0  0  0  0
  150.5632  139.2001  155.5230 N   0  0  0  0  0  0  0  0  0  0  0  0
  151.7558  138.9669  156.2224 O   0  0  0  0  0  0  0  0  0  0  0  0
  151.4571  139.1481  157.5305 C   0  0  0  0  0  0  0  0  0  0  0  0
  152.5447  139.0196  158.5431 C   0  0  0  0  0  0  0  0  0  0  0  0
  152.5046  140.1436  159.5859 C   0  0  0  0  0  0  0  0  0  0  0  0
  153.5515  141.1512  159.3229 N   0  3  0  0  0  0  0  0  0  0  0  0
  153.1411  142.5503  159.5715 C   0  0  1  0  0  0  0  0  0  0  0  0
  151.9981  142.9356  158.6129 C   0  0  0  0  0  0  0  0  0  0  0  0
  151.5578  144.4003  158.7719 C   0  0  0  0  0  0  0  0  0  0  0  0
  151.0340  144.7056  160.1822 C   0  0  0  0  0  0  0  0  0  0  0  0
  152.3236  144.4438  161.4296 S   0  0  0  0  0  0  0  0  0  0  0  0
  152.7275  142.7181  161.0441 C   0  0  0  0  0  0  0  0  0  0  0  0
  150.1959  139.5084  157.7506 N   0  0  0  0  0  0  0  0  0  0  0  0
  147.9726  141.1172  157.9085 H   0  0  0  0  0  0  0  0  0  0  0  0
  147.4346  139.4555  158.1440 H   0  0  0  0  0  0  0  0  0  0  0  0
  146.4753  140.5631  157.1677 H   0  0  0  0  0  0  0  0  0  0  0  0
  148.2823  140.7115  155.5022 H   0  0  0  0  0  0  0  0  0  0  0  0
  148.1188  138.4889  154.4636 H   0  0  0  0  0  0  0  0  0  0  0  0
  146.5626  138.9907  155.1151 H   0  0  0  0  0  0  0  0  0  0  0  0
  147.5314  137.7980  155.9745 H   0  0  0  0  0  0  0  0  0  0  0  0
  152.4507  138.0489  159.0318 H   0  0  0  0  0  0  0  0  0  0  0  0
  153.5042  139.0185  158.0243 H   0  0  0  0  0  0  0  0  0  0  0  0
  151.5280  140.6295  159.5738 H   0  0  0  0  0  0  0  0  0  0  0  0
  152.6493  139.7292  160.5848 H   0  0  0  0  0  0  0  0  0  0  0  0
  154.3468  140.9456  159.9108 H   0  0  0  0  0  0  0  0  0  0  0  0
  153.9879  143.2115  159.3773 H   0  0  0  0  0  0  0  0  0  0  0  0
  152.3187  142.7748  157.5828 H   0  0  0  0  0  0  0  0  0  0  0  0
  151.1416  142.2789  158.7719 H   0  0  0  0  0  0  0  0  0  0  0  0
  152.3902  145.0648  158.5367 H   0  0  0  0  0  0  0  0  0  0  0  0
  150.7768  144.6215  158.0438 H   0  0  0  0  0  0  0  0  0  0  0  0
  150.6938  145.7397  160.2431 H   0  0  0  0  0  0  0  0  0  0  0  0
  150.1773  144.0730  160.4161 H   0  0  0  0  0  0  0  0  0  0  0  0
  151.8633  142.0939  161.2750 H   0  0  0  0  0  0  0  0  0  0  0  0
  153.5355  142.4024  161.7050 H   0  0  0  0  0  0  0  0  0  0  0  0
  153.8385  141.0710  158.3577 H   0  0  0  0  0  0  0  0  0  0  0  0
  1  2  1  0  0  0  0
  1 18  1  0  0  0  0
  1 19  1  0  0  0  0
  1 20  1  0  0  0  0
  2  3  1  0  0  0  0
  2  4  1  0  0  0  0
  2 21  1  0  0  0  0
  3 22  1  0  0  0  0
  3 23  1  0  0  0  0
  3 24  1  0  0  0  0
  4 17  1  0  0  0  0
  4  5  2  0  0  0  0
  5  6  1  0  0  0  0
  6  7  1  0  0  0  0
  7  8  1  0  0  0  0
  7 17  2  0  0  0  0
  8  9  1  0  0  0  0
  8 25  1  0  0  0  0
  8 26  1  0  0  0  0
  9 10  1  0  0  0  0
  9 27  1  0  0  0  0
  9 28  1  0  0  0  0
 10 11  1  0  0  0  0
 10 29  1  0  0  0  0
 10 39  1  0  0  0  0
 11 16  1  0  0  0  0
 11 12  1  0  0  0  0
 11 30  1  0  0  0  0
 12 13  1  0  0  0  0
 12 31  1  0  0  0  0
 12 32  1  0  0  0  0
 13 14  1  0  0  0  0
 13 33  1  0  0  0  0
 13 34  1  0  0  0  0
 14 15  1  0  0  0  0
 14 35  1  0  0  0  0
 14 36  1  0  0  0  0
 15 16  1  0  0  0  0
 16 37  1  0  0  0  0
 16 38  1  0  0  0  0
M  CHG  1  10   1
M  END
> <s_m_source_file>
AV-unprocessed.smi

> <i_m_source_file_index>
3280

> <i_lp_mmshare_version>
43012

> <i_f3d_flags>
0

> <s_epik_input>
W0NIM11bQ0hdKFtDSDNdKWMxbm9jKG4xKVtDSDJdW0NIMl1bTkhdW0NAQEhdMltDSDJdW0NIMl1bQ0gyXVNbQ0gyXTI=

> <s_epik_cmdline>
J2VwaWtfcHl0aG9uJywgJy1waCcsICc3LjAnLCAnLXRuJywgJzgnLCAnLW1hJywgJzIwMCcsICctbWV0YWxfYmluZGluZycsICctaW1hZScsICc8aW5maWxlLm1hZT4nLCAnLW9tYWUnLCAnPG91dGZpbGUubWFlPic=

> <r_lp_tautomer_probability>
1

> <r_epik_Ionization_Penalty>
0.0103043

> <r_epik_Ionization_Penalty_Charging>
0.0103043

> <r_epik_Ionization_Penalty_Neutral>
2.61801e-13

> <r_epik_State_Penalty>
0.0078728

> <r_epik_Charging_Adjusted_Penalty>
0.0181771

> <i_epik_Tot_Q>
1

> <i_epik_Tot_abs_Q>
1

> <r_epik_Metal_State_Penalty>
0.0078728

> <b_epik_Metal_Only>
0

> <s_lp_Force_Field>
OPLS_2005

> <r_lp_Energy>
2.51022

> <b_lp_Chiralities_Consistent>
1

> <s_lp_Variant>
AV-unprocessed.smi:3280-2

> <Gold.Version>
5.8.1

> <Gold.Id.Protein>
6NUR|6NUR_protein|mol2

> <Gold.PLP.Fitness>
43.9618

> <Gold.PLP.PLP>
-39.5579

> <Gold.PLP.part.hbond>
-1.9426

> <Gold.PLP.part.metal>
0.0000

> <Gold.PLP.part.buried>
-3.4087

> <Gold.PLP.part.nonpolar>
-33.6952

> <Gold.PLP.part.repulsive>
0.1334

> <Gold.PLP.ligand.clash>
0.0000

> <Gold.PLP.ligand.torsion>
0.8472

> <Gold.PLP.Chemscore.Hbond>
2.0000

> <Gold.PLP.Chemscore.CHOScore>
0.0000

> <Gold.PLP.Chemscore.Metal>
0.0000

> <Gold.PLP.Chemscore.Internal.Correction>
0.0983

> <Gold.Rescore>
     Score         DG    S(hbond)    S(metal)    S(lipo)     H(rot)  DE(clash)    DE(int)     intcor
     17.66     -18.59       1.86        0.00      97.44       1.76       0.12       0.80       ----

> <Gold.Chemscore.Fitness>
17.6640

> <Gold.Chemscore.DG>
-18.5877

> <Gold.Chemscore.ZeroCoef>
-5.4800

> <Gold.Chemscore.Hbond>
1.8578

> <Gold.Chemscore.Metal>
0.0000

> <Gold.Chemscore.Lipo>
97.4433

> <Gold.Chemscore.Internal_Hbond>
0.0000

> <Gold.Chemscore.DEClash>
0.1213

> <Gold.Chemscore.DEInternal>
0.8024

> <Gold.Chemscore.Rot>
1.7572

> <Gold.Chemscore.Internal.Correction>
   9.000000E+99

> <Gold.Chemscore.Hbond.Weighted>
-6.2051

> <Gold.Chemscore.Metal.Weighted>
-0.0000

> <Gold.Chemscore.Lipo.Weighted>
-11.4009

> <Gold.Chemscore.Internal_Hbond.Weighted>
0.0000

> <Gold.Chemscore.DEClash.Weighted>
0.1213

> <Gold.Chemscore.DEInternal.Weighted>
0.8024

> <Gold.Chemscore.Rot.Weighted>
4.4984

> <Gold.Chemscore.Internal.Correction.Weighted>
   9.000000E+99

> <Gold.Protein.RotatedTorsions>
[ 6907 6896 6895 6894 ] final  162.38 input  -60.11 | X-H torsion
[ 7974 7965 7964 7962 ] final -131.32 input  175.53 | X-H torsion
[ 8008 7997 7996 7995 ] final  -31.64 input   59.86 | X-H torsion
[ 10167 10162 10161 10158 ] final -140.63 input  -65.29 | X-H torsion
[ 10718 10713 10712 10709 ] final -155.65 input   66.30 | X-H torsion
[ 10763 10752 10751 10750 ] final    7.91 input  -60.55 | X-H torsion
[ 11005 11000 10999 10996 ] final -168.69 input  -57.11 | X-H torsion

> <Gold.Protein.ActiveResidues>
 VAL166  LYS551  ARG553  GLY616  TRP617  ASP618  TYR619  PRO620  LYS621  CYS622 
 ASP623  PHE694  ASN695  SER759  ASP760  ASP761  ALA762  ILE779  LEU786  VAL792 
 PHE793  MET794  SER795  GLU796  ALA797  LYS798  CYS799  TRP800  GLU811  SER814 

> <Gold.Protein.RotatedAtoms>
  151.9413  133.3639  159.3966 H   0  0  0  0  0  0  0  0  0  0  0  0  # atno 6907 bound_to 6896
  150.6998  134.4436  159.5313 H   0  0  0  0  0  0  0  0  0  0  0  0  # atno 6908 bound_to 6896
  152.2093  134.8516  160.0550 H   0  0  0  0  0  0  0  0  0  0  0  0  # atno 6909 bound_to 6896
  144.9391  140.7217  143.4858 H   0  0  0  0  0  0  0  0  0  0  0  0  # atno 7974 bound_to 7965
  154.4207  140.1759  156.1599 H   0  0  0  0  0  0  0  0  0  0  0  0  # atno 8008 bound_to 7997
  155.9846  140.3374  155.6671 H   0  0  0  0  0  0  0  0  0  0  0  0  # atno 8009 bound_to 7997
  155.6454  140.0684  157.2595 H   0  0  0  0  0  0  0  0  0  0  0  0  # atno 8010 bound_to 7997
  139.8263  143.7506  152.2666 H   0  0  0  0  0  0  0  0  0  0  0  0  # atno 10167 bound_to 10162
  156.5157  130.8455  151.2663 H   0  0  0  0  0  0  0  0  0  0  0  0  # atno 10718 bound_to 10713
  153.2309  135.6892  153.7891 H   0  0  0  0  0  0  0  0  0  0  0  0  # atno 10763 bound_to 10752
  153.7056  135.3290  155.3235 H   0  0  0  0  0  0  0  0  0  0  0  0  # atno 10764 bound_to 10752
  154.8313  135.4578  154.1194 H   0  0  0  0  0  0  0  0  0  0  0  0  # atno 10765 bound_to 10752
  140.5392  134.5539  157.5095 H   0  0  0  0  0  0  0  0  0  0  0  0  # atno 11005 bound_to 11000
  145.3020  139.1847  143.4684 LP  0  0  0  0  0  0  0  0  0  0  0  0  # atno 17320 bound_to 7965
  146.3278  140.3013  142.8621 LP  0  0  0  0  0  0  0  0  0  0  0  0  # atno 17321 bound_to 7965
  139.7700  144.7479  151.0239 LP  0  0  0  0  0  0  0  0  0  0  0  0  # atno 17342 bound_to 10162
  140.7810  143.4656  151.0217 LP  0  0  0  0  0  0  0  0  0  0  0  0  # atno 17343 bound_to 10162
  157.7444  130.9934  150.2672 LP  0  0  0  0  0  0  0  0  0  0  0  0  # atno 17370 bound_to 10713
  156.3197  130.3784  149.7586 LP  0  0  0  0  0  0  0  0  0  0  0  0  # atno 17371 bound_to 10713
  139.9513  134.7612  156.0442 LP  0  0  0  0  0  0  0  0  0  0  0  0  # atno 17394 bound_to 11000
  141.1237  133.6605  156.3281 LP  0  0  0  0  0  0  0  0  0  0  0  0  # atno 17395 bound_to 11000

$$$$
