AV-unprocessed.smi:1633|AV-procd|sdf|6535|dock7
  -GOLD-   22720 7213D 1   1.00000     0.00000
 Structure written by MMmdl.
 52 54  0  0  0  0  0  0  0  0  3 V2000
  142.2730  142.9674  155.5128 C   0  0  0  0  0  0  0  0  0  0  0  0
  143.4134  142.4471  156.3904 C   0  0  0  0  0  0  0  0  0  0  0  0
  143.1362  141.6497  157.2860 O   0  0  0  0  0  0  0  0  0  0  0  0
  144.6781  142.8743  156.1584 N   0  0  0  0  0  0  0  0  0  0  0  0
  145.0932  143.7570  155.0636 C   0  0  0  0  0  0  0  0  0  0  0  0
  145.9960  142.9713  154.0940 C   0  0  0  0  0  0  0  0  0  0  0  0
  147.1565  142.3622  154.8021 N   0  3  0  0  0  0  0  0  0  0  0  0
  148.0609  141.5896  153.9115 C   0  0  0  0  0  0  0  0  0  0  0  0
  149.1703  140.8294  154.6737 C   0  0  1  0  0  0  0  0  0  0  0  0
  150.1620  140.4114  153.7576 O   0  0  0  0  0  0  0  0  0  0  0  0
  149.8780  141.6807  155.7476 C   0  0  0  0  0  0  0  0  0  0  0  0
  150.7544  140.8933  156.6264 N   0  0  0  0  0  0  0  0  0  0  0  0
  151.1161  139.5841  156.5398 C   0  0  0  0  0  0  0  0  0  0  0  0
  151.9517  139.3185  157.5814 N   0  3  0  0  0  0  0  0  0  0  0  0
  152.1323  140.4758  158.3416 C   0  0  0  0  0  0  0  0  0  0  0  0
  152.8865  140.7028  159.4865 C   0  0  0  0  0  0  0  0  0  0  0  0
  152.8609  142.0079  160.0277 C   0  0  0  0  0  0  0  0  0  0  0  0
  153.6728  142.2896  161.2805 C   0  0  0  0  0  0  0  0  0  0  0  0
  152.0943  143.0352  159.4195 C   0  0  0  0  0  0  0  0  0  0  0  0
  152.0718  144.4346  160.0112 C   0  0  0  0  0  0  0  0  0  0  0  0
  151.3351  142.7845  158.2542 C   0  0  0  0  0  0  0  0  0  0  0  0
  151.3699  141.4924  157.7333 C   0  0  0  0  0  0  0  0  0  0  0  0
  146.7475  141.5760  155.9969 C   0  0  0  0  0  0  0  0  0  0  0  0
  145.8316  142.3942  156.9244 C   0  0  0  0  0  0  0  0  0  0  0  0
  142.4343  142.6999  154.4681 H   0  0  0  0  0  0  0  0  0  0  0  0
  142.1863  144.0513  155.5935 H   0  0  0  0  0  0  0  0  0  0  0  0
  141.3213  142.5347  155.8231 H   0  0  0  0  0  0  0  0  0  0  0  0
  144.2614  144.1949  154.5140 H   0  0  0  0  0  0  0  0  0  0  0  0
  145.6431  144.6018  155.4809 H   0  0  0  0  0  0  0  0  0  0  0  0
  145.4158  142.1858  153.6070 H   0  0  0  0  0  0  0  0  0  0  0  0
  146.3399  143.6437  153.3094 H   0  0  0  0  0  0  0  0  0  0  0  0
  147.4758  140.8629  153.3455 H   0  0  0  0  0  0  0  0  0  0  0  0
  148.4901  142.2730  153.1781 H   0  0  0  0  0  0  0  0  0  0  0  0
  148.7627  139.9434  155.1595 H   0  0  0  0  0  0  0  0  0  0  0  0
  149.7491  140.1715  152.9423 H   0  0  0  0  0  0  0  0  0  0  0  0
  150.5053  142.4336  155.2679 H   0  0  0  0  0  0  0  0  0  0  0  0
  149.1586  142.2316  156.3535 H   0  0  0  0  0  0  0  0  0  0  0  0
  150.8002  138.8827  155.7807 H   0  0  0  0  0  0  0  0  0  0  0  0
  153.4678  139.9158  159.9444 H   0  0  0  0  0  0  0  0  0  0  0  0
  154.3844  143.0961  161.1048 H   0  0  0  0  0  0  0  0  0  0  0  0
  154.2374  141.4120  161.5966 H   0  0  0  0  0  0  0  0  0  0  0  0
  153.0177  142.5783  162.1025 H   0  0  0  0  0  0  0  0  0  0  0  0
  151.4264  145.1009  159.4383 H   0  0  0  0  0  0  0  0  0  0  0  0
  153.0735  144.8649  160.0155 H   0  0  0  0  0  0  0  0  0  0  0  0
  151.6998  144.4114  161.0357 H   0  0  0  0  0  0  0  0  0  0  0  0
  150.7539  143.5704  157.7954 H   0  0  0  0  0  0  0  0  0  0  0  0
  146.2323  140.6699  155.6736 H   0  0  0  0  0  0  0  0  0  0  0  0
  147.6332  141.2590  156.5489 H   0  0  0  0  0  0  0  0  0  0  0  0
  146.3740  143.2504  157.3279 H   0  0  0  0  0  0  0  0  0  0  0  0
  145.5480  141.7896  157.7871 H   0  0  0  0  0  0  0  0  0  0  0  0
  147.7047  143.1300  155.1631 H   0  0  0  0  0  0  0  0  0  0  0  0
  152.3725  138.4143  157.7546 H   0  0  0  0  0  0  0  0  0  0  0  0
  1  2  1  0  0  0  0
  1 25  1  0  0  0  0
  1 26  1  0  0  0  0
  1 27  1  0  0  0  0
  2  3  2  0  0  0  0
  2  4  1  0  0  0  0
  4 24  1  0  0  0  0
  4  5  1  0  0  0  0
  5  6  1  0  0  0  0
  5 28  1  0  0  0  0
  5 29  1  0  0  0  0
  6  7  1  0  0  0  0
  6 30  1  0  0  0  0
  6 31  1  0  0  0  0
  7  8  1  0  0  0  0
  7 23  1  0  0  0  0
  7 51  1  0  0  0  0
  8  9  1  0  0  0  0
  8 32  1  0  0  0  0
  8 33  1  0  0  0  0
  9 10  1  0  0  0  0
  9 11  1  0  0  0  0
  9 34  1  0  0  0  0
 10 35  1  0  0  0  0
 11 12  1  0  0  0  0
 11 36  1  0  0  0  0
 11 37  1  0  0  0  0
 12 22  1  0  0  0  0
 12 13  1  0  0  0  0
 13 14  2  0  0  0  0
 13 38  1  0  0  0  0
 14 15  1  0  0  0  0
 14 52  1  0  0  0  0
 15 22  2  0  0  0  0
 15 16  1  0  0  0  0
 16 17  2  0  0  0  0
 16 39  1  0  0  0  0
 17 18  1  0  0  0  0
 17 19  1  0  0  0  0
 18 40  1  0  0  0  0
 18 41  1  0  0  0  0
 18 42  1  0  0  0  0
 19 20  1  0  0  0  0
 19 21  2  0  0  0  0
 20 43  1  0  0  0  0
 20 44  1  0  0  0  0
 20 45  1  0  0  0  0
 21 22  1  0  0  0  0
 21 46  1  0  0  0  0
 23 24  1  0  0  0  0
 23 47  1  0  0  0  0
 23 48  1  0  0  0  0
 24 49  1  0  0  0  0
 24 50  1  0  0  0  0
M  CHG  1   7   1
M  CHG  1  14   1
M  END
> <s_m_source_file>
AV-unprocessed.smi

> <i_m_source_file_index>
1633

> <i_lp_mmshare_version>
43012

> <i_f3d_flags>
0

> <s_epik_input>
W0NIM11DKD1PKU4xW0NIMl1bQ0gyXU4oW0NIMl1bQ0gyXTEpW0NIMl1bQ0BIXShbT0hdKVtDSDJdbihbY0hdbjIpYyhjMjMpW2NIXWMoW0NIM10pYyhbY0hdMylbQ0gzXQ==

> <s_epik_cmdline>
J2VwaWtfcHl0aG9uJywgJy1waCcsICc3LjAnLCAnLXRuJywgJzgnLCAnLW1hJywgJzIwMCcsICctbWV0YWxfYmluZGluZycsICctaW1hZScsICc8aW5maWxlLm1hZT4nLCAnLW9tYWUnLCAnPG91dGZpbGUubWFlPic=

> <r_epik_Ionization_Penalty>
1.18448

> <r_epik_Ionization_Penalty_Charging>
1.18447

> <r_epik_Ionization_Penalty_Neutral>
4.53746e-06

> <r_epik_State_Penalty>
1.28566

> <r_epik_Charging_Adjusted_Penalty>
2.47013

> <i_epik_Tot_Q>
2

> <i_epik_Tot_abs_Q>
2

> <r_epik_Metal_State_Penalty>
5.30076

> <b_epik_Metal_Only>
0

> <s_lp_Force_Field>
OPLS_2005

> <r_lp_Energy>
59.1266

> <b_lp_Chiralities_Consistent>
1

> <s_lp_Variant>
AV-unprocessed.smi:1633-4

> <Gold.Version>
5.8.1

> <Gold.Id.Protein>
6NUR|6NUR_protein|mol2

> <Gold.PLP.Fitness>
58.3751

> <Gold.PLP.PLP>
-47.7080

> <Gold.PLP.part.hbond>
-2.7008

> <Gold.PLP.part.metal>
0.0000

> <Gold.PLP.part.buried>
-6.3926

> <Gold.PLP.part.nonpolar>
-38.9786

> <Gold.PLP.part.repulsive>
0.1707

> <Gold.PLP.ligand.clash>
0.0000

> <Gold.PLP.ligand.torsion>
0.2690

> <Gold.PLP.Chemscore.Hbond>
3.7200

> <Gold.PLP.Chemscore.CHOScore>
0.0000

> <Gold.PLP.Chemscore.Metal>
0.0000

> <Gold.Chemscore.Hbonds>
donor molecule, donor type, donor heavy atom, donor atom, acceptor molecule, acceptor atom, score
      L1  H     7    51       P1  8028  2.00
      L1  H    10    35       P1  7957  1.00
      P1  H  7989  7998       L1    10  0.69

> <Gold.PLP.Chemscore.Internal.Correction>
0.0451

> <Gold.Rescore>
     Score         DG    S(hbond)    S(metal)    S(lipo)     H(rot)  DE(clash)    DE(int)     intcor
     19.20     -20.53       2.11        0.00     116.80       2.22       0.08       1.24       ----

> <Gold.Chemscore.Fitness>
19.1978

> <Gold.Chemscore.DG>
-20.5267

> <Gold.Chemscore.ZeroCoef>
-5.4800

> <Gold.Chemscore.Hbond>
2.1135

> <Gold.Chemscore.Metal>
0.0000

> <Gold.Chemscore.Lipo>
116.7958

> <Gold.Chemscore.Internal_Hbond>
0.0000

> <Gold.Chemscore.DEClash>
0.0841

> <Gold.Chemscore.DEInternal>
1.2448

> <Gold.Chemscore.Rot>
2.2178

> <Gold.Chemscore.Internal.Correction>
   9.000000E+99

> <Gold.Chemscore.Hbonds>
donor molecule, donor type, donor heavy atom, donor atom, acceptor molecule, acceptor atom, score
      L1  H     7    51       P1  8028  0.53
      L1  H    10    35       P1  7957  0.98
      P1  H  7989  7998       L1    10  0.46

> <Gold.Chemscore.Hbond.Weighted>
-7.0592

> <Gold.Chemscore.Metal.Weighted>
-0.0000

> <Gold.Chemscore.Lipo.Weighted>
-13.6651

> <Gold.Chemscore.Internal_Hbond.Weighted>
0.0000

> <Gold.Chemscore.DEClash.Weighted>
0.0841

> <Gold.Chemscore.DEInternal.Weighted>
1.2448

> <Gold.Chemscore.Rot.Weighted>
5.6775

> <Gold.Chemscore.Internal.Correction.Weighted>
   9.000000E+99

> <Gold.Protein.RotatedTorsions>
[ 6907 6896 6895 6894 ] final -111.37 input  -60.11 | X-H torsion
[ 7974 7965 7964 7962 ] final   53.89 input  175.53 | X-H torsion
[ 8008 7997 7996 7995 ] final   76.58 input   59.86 | X-H torsion
[ 10167 10162 10161 10158 ] final  119.91 input  -65.29 | X-H torsion
[ 10718 10713 10712 10709 ] final -138.56 input   66.30 | X-H torsion
[ 10763 10752 10751 10750 ] final   84.13 input  -60.55 | X-H torsion
[ 11005 11000 10999 10996 ] final  -79.76 input  -57.11 | X-H torsion

> <Gold.Protein.ActiveResidues>
 VAL166  LYS551  ARG553  GLY616  TRP617  ASP618  TYR619  PRO620  LYS621  CYS622 
 ASP623  PHE694  ASN695  SER759  ASP760  ASP761  ALA762  ILE779  LEU786  VAL792 
 PHE793  MET794  SER795  GLU796  ALA797  LYS798  CYS799  TRP800  GLU811  SER814 

> <Gold.Protein.RotatedAtoms>
  150.7686  133.9246  159.3408 H   0  0  0  0  0  0  0  0  0  0  0  0  # atno 6907 bound_to 6896
  151.7137  135.0906  160.0281 H   0  0  0  0  0  0  0  0  0  0  0  0  # atno 6908 bound_to 6896
  152.3693  133.6360  159.6110 H   0  0  0  0  0  0  0  0  0  0  0  0  # atno 6909 bound_to 6896
  145.9665  139.4108  143.0216 H   0  0  0  0  0  0  0  0  0  0  0  0  # atno 7974 bound_to 7965
  155.8293  140.3467  155.5562 H   0  0  0  0  0  0  0  0  0  0  0  0  # atno 8008 bound_to 7997
  155.8259  140.0920  157.1841 H   0  0  0  0  0  0  0  0  0  0  0  0  # atno 8009 bound_to 7997
  154.4004  140.1421  156.3543 H   0  0  0  0  0  0  0  0  0  0  0  0  # atno 8010 bound_to 7997
  139.6015  144.7058  151.3050 H   0  0  0  0  0  0  0  0  0  0  0  0  # atno 10167 bound_to 10162
  156.3007  130.7427  151.1478 H   0  0  0  0  0  0  0  0  0  0  0  0  # atno 10718 bound_to 10713
  153.1353  135.4666  154.9413 H   0  0  0  0  0  0  0  0  0  0  0  0  # atno 10763 bound_to 10752
  154.7700  135.3156  154.8210 H   0  0  0  0  0  0  0  0  0  0  0  0  # atno 10764 bound_to 10752
  153.8744  135.6900  153.4826 H   0  0  0  0  0  0  0  0  0  0  0  0  # atno 10765 bound_to 10752
  141.1667  133.7120  156.8171 H   0  0  0  0  0  0  0  0  0  0  0  0  # atno 11005 bound_to 11000
  145.7966  140.9790  143.1021 LP  0  0  0  0  0  0  0  0  0  0  0  0  # atno 17320 bound_to 7965
  144.6827  139.9749  143.7482 LP  0  0  0  0  0  0  0  0  0  0  0  0  # atno 17321 bound_to 7965
  140.7253  143.7020  150.7837 LP  0  0  0  0  0  0  0  0  0  0  0  0  # atno 17342 bound_to 10162
  140.0597  143.5167  152.2633 LP  0  0  0  0  0  0  0  0  0  0  0  0  # atno 17343 bound_to 10162
  157.7367  131.0559  150.5398 LP  0  0  0  0  0  0  0  0  0  0  0  0  # atno 17370 bound_to 10713
  156.5525  130.4235  149.6101 LP  0  0  0  0  0  0  0  0  0  0  0  0  # atno 17371 bound_to 10713
  140.2146  134.8802  157.3311 LP  0  0  0  0  0  0  0  0  0  0  0  0  # atno 17394 bound_to 11000
  140.2051  134.4207  155.7642 LP  0  0  0  0  0  0  0  0  0  0  0  0  # atno 17395 bound_to 11000

$$$$
