AV-unprocessed.smi:1166|AV-procd|sdf|4937|dock4
  -GOLD-   22720 3523D 1   1.00000     0.00000
 Structure written by MMmdl.
 46 47  0  0  0  0  0  0  0  0  1 V2000
  154.8601  144.2624  165.2213 C   0  0  0  0  0  0  0  0  0  0  0  0
  154.6068  142.9569  164.6203 N   0  0  0  0  0  0  0  0  0  0  0  0
  155.0881  141.7487  165.2788 C   0  0  0  0  0  0  0  0  0  0  0  0
  153.9474  142.8726  163.3725 C   0  0  0  0  0  0  0  0  0  0  0  0
  153.0796  143.8989  162.9233 C   0  0  0  0  0  0  0  0  0  0  0  0
  152.4441  143.7695  161.6734 C   0  0  0  0  0  0  0  0  0  0  0  0
  152.6942  142.6182  160.8919 C   0  0  0  0  0  0  0  0  0  0  0  0
  152.1016  142.3578  159.6264 N   0  0  0  0  0  0  0  0  0  0  0  0
  151.8788  141.1748  159.0285 C   0  0  0  0  0  0  0  0  0  0  0  0
  152.1275  140.0712  159.5132 O   0  0  0  0  0  0  0  0  0  0  0  0
  151.3224  141.3426  157.8204 N   0  0  0  0  0  0  0  0  0  0  0  0
  150.9503  140.2671  156.9065 C   0  0  1  0  0  0  0  0  0  0  0  0
  150.5300  140.8328  155.5397 C   0  0  0  0  0  0  0  0  0  0  0  0
  150.1988  139.6821  154.5830 C   0  0  0  0  0  0  0  0  0  0  0  0
  151.3793  138.7036  154.4545 C   0  0  0  0  0  0  0  0  0  0  0  0
  151.8374  138.2245  155.7746 N   0  0  0  0  0  0  0  0  0  0  0  0
  151.3801  136.6405  156.3317 S   0  0  0  0  0  0  0  0  0  0  0  0
  150.5685  135.8661  154.8736 C   0  0  0  0  0  0  0  0  0  0  0  0
  152.6137  135.8930  156.6202 O   0  0  0  0  0  0  0  0  0  0  0  0
  150.3671  136.8089  157.3849 O   0  0  0  0  0  0  0  0  0  0  0  0
  152.1340  139.2926  156.7500 C   0  0  0  0  0  0  0  0  0  0  0  0
  153.5629  141.6465  161.4256 C   0  0  0  0  0  0  0  0  0  0  0  0
  154.1745  141.7669  162.6220 N   0  0  0  0  0  0  0  0  0  0  0  0
  153.9235  144.7934  165.3930 H   0  0  0  0  0  0  0  0  0  0  0  0
  155.4884  144.8689  164.5681 H   0  0  0  0  0  0  0  0  0  0  0  0
  155.3690  144.1679  166.1807 H   0  0  0  0  0  0  0  0  0  0  0  0
  155.8003  141.2228  164.6423 H   0  0  0  0  0  0  0  0  0  0  0  0
  154.2580  141.0786  165.5040 H   0  0  0  0  0  0  0  0  0  0  0  0
  155.5911  141.9811  166.2177 H   0  0  0  0  0  0  0  0  0  0  0  0
  152.8843  144.7814  163.5131 H   0  0  0  0  0  0  0  0  0  0  0  0
  151.7709  144.5481  161.3518 H   0  0  0  0  0  0  0  0  0  0  0  0
  151.7694  143.1729  159.1320 H   0  0  0  0  0  0  0  0  0  0  0  0
  151.1476  142.2858  157.5056 H   0  0  0  0  0  0  0  0  0  0  0  0
  150.1081  139.7237  157.3352 H   0  0  0  0  0  0  0  0  0  0  0  0
  149.6629  141.4859  155.6453 H   0  0  0  0  0  0  0  0  0  0  0  0
  151.3330  141.4413  155.1212 H   0  0  0  0  0  0  0  0  0  0  0  0
  149.3125  139.1571  154.9367 H   0  0  0  0  0  0  0  0  0  0  0  0
  149.9434  140.0806  153.6008 H   0  0  0  0  0  0  0  0  0  0  0  0
  151.1068  137.8623  153.8178 H   0  0  0  0  0  0  0  0  0  0  0  0
  152.2143  139.2030  153.9619 H   0  0  0  0  0  0  0  0  0  0  0  0
  150.2630  134.8530  155.1338 H   0  0  0  0  0  0  0  0  0  0  0  0
  151.2669  135.8209  154.0399 H   0  0  0  0  0  0  0  0  0  0  0  0
  149.6859  136.4375  154.5916 H   0  0  0  0  0  0  0  0  0  0  0  0
  153.0157  139.8336  156.4041 H   0  0  0  0  0  0  0  0  0  0  0  0
  152.4004  138.8583  157.7136 H   0  0  0  0  0  0  0  0  0  0  0  0
  153.7789  140.7425  160.8751 H   0  0  0  0  0  0  0  0  0  0  0  0
  1  2  1  0  0  0  0
  1 24  1  0  0  0  0
  1 25  1  0  0  0  0
  1 26  1  0  0  0  0
  2  3  1  0  0  0  0
  2  4  1  0  0  0  0
  3 27  1  0  0  0  0
  3 28  1  0  0  0  0
  3 29  1  0  0  0  0
  4 23  1  0  0  0  0
  4  5  2  0  0  0  0
  5  6  1  0  0  0  0
  5 30  1  0  0  0  0
  6  7  2  0  0  0  0
  6 31  1  0  0  0  0
  7  8  1  0  0  0  0
  7 22  1  0  0  0  0
  8  9  1  0  0  0  0
  8 32  1  0  0  0  0
  9 10  2  0  0  0  0
  9 11  1  0  0  0  0
 11 12  1  0  0  0  0
 11 33  1  0  0  0  0
 12 21  1  0  0  0  0
 12 13  1  0  0  0  0
 12 34  1  0  0  0  0
 13 14  1  0  0  0  0
 13 35  1  0  0  0  0
 13 36  1  0  0  0  0
 14 15  1  0  0  0  0
 14 37  1  0  0  0  0
 14 38  1  0  0  0  0
 15 16  1  0  0  0  0
 15 39  1  0  0  0  0
 15 40  1  0  0  0  0
 16 17  1  0  0  0  0
 16 21  1  0  0  0  0
 17 18  1  0  0  0  0
 17 19  2  0  0  0  0
 17 20  2  0  0  0  0
 18 41  1  0  0  0  0
 18 42  1  0  0  0  0
 18 43  1  0  0  0  0
 21 44  1  0  0  0  0
 21 45  1  0  0  0  0
 22 23  2  0  0  0  0
 22 46  1  0  0  0  0
M  END
> <s_m_source_file>
AV-unprocessed.smi

> <i_m_source_file_index>
1166

> <i_lp_mmshare_version>
43012

> <i_f3d_flags>
0

> <s_epik_input>
W0NIM11OKFtDSDNdKWMxW2NIXVtjSF1jKFtjSF1uMSlbTkhdQyg9TylbTkhdW0NAQEhdMltDSDJdW0NIMl1bQ0gyXU4oW0NIMl0yKVMoPU8pKD1PKVtDSDNd

> <s_epik_cmdline>
J2VwaWtfcHl0aG9uJywgJy1waCcsICc3LjAnLCAnLXRuJywgJzgnLCAnLW1hJywgJzIwMCcsICctbWV0YWxfYmluZGluZycsICctaW1hZScsICc8aW5maWxlLm1hZT4nLCAnLW9tYWUnLCAnPG91dGZpbGUubWFlPic=

> <r_lp_tautomer_probability>
1

> <r_epik_Ionization_Penalty>
0.585334

> <r_epik_Ionization_Penalty_Charging>
0

> <r_epik_Ionization_Penalty_Neutral>
0.585334

> <r_epik_State_Penalty>
0.597345

> <r_epik_Charging_Adjusted_Penalty>
0.597345

> <i_epik_Tot_Q>
0

> <i_epik_Tot_abs_Q>
0

> <r_epik_Metal_State_Penalty>
0.29678

> <b_epik_Metal_Only>
0

> <s_lp_Force_Field>
OPLS_2005

> <r_lp_Energy>
2.0747

> <b_lp_Chiralities_Consistent>
1

> <s_lp_Variant>
AV-unprocessed.smi:1166-4

> <Gold.Version>
5.8.1

> <Gold.Id.Protein>
6NUR|6NUR_protein|mol2

> <Gold.PLP.Fitness>
49.5198

> <Gold.PLP.PLP>
-47.8083

> <Gold.PLP.part.hbond>
-1.9988

> <Gold.PLP.part.metal>
0.0000

> <Gold.PLP.part.buried>
-2.9617

> <Gold.PLP.part.nonpolar>
-39.1765

> <Gold.PLP.part.repulsive>
0.1576

> <Gold.PLP.ligand.clash>
0.0000

> <Gold.PLP.ligand.torsion>
1.6753

> <Gold.PLP.Chemscore.Hbond>
1.0000

> <Gold.PLP.Chemscore.CHOScore>
0.0000

> <Gold.PLP.Chemscore.Metal>
0.0000

> <Gold.Chemscore.Hbonds>
donor molecule, donor type, donor heavy atom, donor atom, acceptor molecule, acceptor atom, score
      P1  H 10752 10765       L1    19  1.00

> <Gold.PLP.Chemscore.Internal.Correction>
2.0621

> <Gold.Rescore>
     Score         DG    S(hbond)    S(metal)    S(lipo)     H(rot)  DE(clash)    DE(int)     intcor
     13.63     -18.50       0.98        0.00     105.16       1.00       0.52       4.35       ----

> <Gold.Chemscore.Fitness>
13.6345

> <Gold.Chemscore.DG>
-18.4981

> <Gold.Chemscore.ZeroCoef>
-5.4800

> <Gold.Chemscore.Hbond>
0.9803

> <Gold.Chemscore.Metal>
0.0000

> <Gold.Chemscore.Lipo>
105.1620

> <Gold.Chemscore.Internal_Hbond>
0.0000

> <Gold.Chemscore.DEClash>
0.5171

> <Gold.Chemscore.DEInternal>
4.3465

> <Gold.Chemscore.Rot>
1.0000

> <Gold.Chemscore.Internal.Correction>
   9.000000E+99

> <Gold.Chemscore.Hbonds>
donor molecule, donor type, donor heavy atom, donor atom, acceptor molecule, acceptor atom, score
      P1  H 10752 10765       L1    19  0.92

> <Gold.Chemscore.Hbond.Weighted>
-3.2741

> <Gold.Chemscore.Metal.Weighted>
-0.0000

> <Gold.Chemscore.Lipo.Weighted>
-12.3040

> <Gold.Chemscore.Internal_Hbond.Weighted>
0.0000

> <Gold.Chemscore.DEClash.Weighted>
0.5171

> <Gold.Chemscore.DEInternal.Weighted>
4.3465

> <Gold.Chemscore.Rot.Weighted>
2.5600

> <Gold.Chemscore.Internal.Correction.Weighted>
   9.000000E+99

> <Gold.Protein.RotatedTorsions>
[ 6907 6896 6895 6894 ] final  -26.16 input  -60.11 | X-H torsion
[ 7974 7965 7964 7962 ] final  142.15 input  175.53 | X-H torsion
[ 8008 7997 7996 7995 ] final  108.32 input   59.86 | X-H torsion
[ 10167 10162 10161 10158 ] final   97.68 input  -65.29 | X-H torsion
[ 10718 10713 10712 10709 ] final -139.14 input   66.30 | X-H torsion
[ 10763 10752 10751 10750 ] final -124.26 input  -60.55 | X-H torsion
[ 11005 11000 10999 10996 ] final   -4.48 input  -57.11 | X-H torsion

> <Gold.Protein.ActiveResidues>
 VAL166  LYS551  ARG553  GLY616  TRP617  ASP618  TYR619  PRO620  LYS621  CYS622 
 ASP623  PHE694  ASN695  SER759  ASP760  ASP761  ALA762  ILE779  LEU786  VAL792 
 PHE793  MET794  SER795  GLU796  ALA797  LYS798  CYS799  TRP800  GLU811  SER814 

> <Gold.Protein.RotatedAtoms>
  151.1649  135.0291  159.8726 H   0  0  0  0  0  0  0  0  0  0  0  0  # atno 6907 bound_to 6896
  152.5450  134.1237  159.8420 H   0  0  0  0  0  0  0  0  0  0  0  0  # atno 6908 bound_to 6896
  151.1336  133.4973  159.2631 H   0  0  0  0  0  0  0  0  0  0  0  0  # atno 6909 bound_to 6896
  144.9033  139.5392  143.5743 H   0  0  0  0  0  0  0  0  0  0  0  0  # atno 7974 bound_to 7965
  156.1894  140.3078  155.9302 H   0  0  0  0  0  0  0  0  0  0  0  0  # atno 8008 bound_to 7997
  155.3208  140.0456  157.3056 H   0  0  0  0  0  0  0  0  0  0  0  0  # atno 8009 bound_to 7997
  154.5434  140.2268  155.8613 H   0  0  0  0  0  0  0  0  0  0  0  0  # atno 8010 bound_to 7997
  139.7778  144.6899  151.0064 H   0  0  0  0  0  0  0  0  0  0  0  0  # atno 10167 bound_to 10162
  156.3074  130.7463  151.1530 H   0  0  0  0  0  0  0  0  0  0  0  0  # atno 10718 bound_to 10713
  154.8720  135.4070  154.3077 H   0  0  0  0  0  0  0  0  0  0  0  0  # atno 10763 bound_to 10752
  153.3926  135.7015  153.6489 H   0  0  0  0  0  0  0  0  0  0  0  0  # atno 10764 bound_to 10752
  153.5265  135.3676  155.2627 H   0  0  0  0  0  0  0  0  0  0  0  0  # atno 10765 bound_to 10752
  140.6808  133.9155  155.8554 H   0  0  0  0  0  0  0  0  0  0  0  0  # atno 11005 bound_to 11000
  146.3120  139.7781  142.9012 LP  0  0  0  0  0  0  0  0  0  0  0  0  # atno 17320 bound_to 7965
  145.3579  141.0320  143.3302 LP  0  0  0  0  0  0  0  0  0  0  0  0  # atno 17321 bound_to 7965
  140.7817  143.4516  151.0405 LP  0  0  0  0  0  0  0  0  0  0  0  0  # atno 17342 bound_to 10162
  139.8197  143.7836  152.3176 LP  0  0  0  0  0  0  0  0  0  0  0  0  # atno 17343 bound_to 10162
  157.7383  131.0542  150.5304 LP  0  0  0  0  0  0  0  0  0  0  0  0  # atno 17370 bound_to 10713
  156.5439  130.4215  149.6140 LP  0  0  0  0  0  0  0  0  0  0  0  0  # atno 17371 bound_to 10713
  141.0319  134.0744  157.4004 LP  0  0  0  0  0  0  0  0  0  0  0  0  # atno 17394 bound_to 11000
  139.8952  135.0140  156.6992 LP  0  0  0  0  0  0  0  0  0  0  0  0  # atno 17395 bound_to 11000

$$$$
