AV-unprocessed.smi:255|AV-procd|sdf|1952|dock2
  -GOLD-   2262021 93D 1   1.00000     0.00000
 Structure written by MMmdl.
 44 47  0  0  0  0  0  0  0  0  1 V2000
  152.8290  139.4345  155.0367 O   0  0  0  0  0  0  0  0  0  0  0  0
  151.4366  139.2091  155.0773 C   0  0  0  0  0  0  0  0  0  0  0  0
  150.7233  140.4121  155.7327 C   0  0  1  0  0  0  0  0  0  0  0  0
  149.2082  140.4551  155.5254 C   0  0  0  0  0  0  0  0  0  0  0  0
  148.7585  141.4707  156.5777 C   0  0  1  0  0  0  0  0  0  0  0  0
  147.5987  141.1124  157.1287 F   0  0  0  0  0  0  0  0  0  0  0  0
  149.8977  141.5142  157.6116 C   0  0  0  0  0  0  0  0  0  0  0  0
  150.9107  140.5520  157.1787 N   0  0  0  0  0  0  0  0  0  0  0  0
  150.9693  139.4019  157.8974 C   0  0  0  0  0  0  0  0  0  0  0  0
  152.1563  138.9400  158.3750 N   0  0  0  0  0  0  0  0  0  0  0  0
  152.1939  137.8282  159.1149 C   0  0  0  0  0  0  0  0  0  0  0  0
  151.1835  137.0416  159.4913 N   0  0  0  0  0  0  0  0  0  0  0  0
  149.9922  137.4970  159.0070 C   0  0  0  0  0  0  0  0  0  0  0  0
  149.7991  138.6609  158.2119 C   0  0  0  0  0  0  0  0  0  0  0  0
  148.4508  138.8232  157.9232 N   0  0  0  0  0  0  0  0  0  0  0  0
  147.8770  137.8152  158.5217 C   0  0  0  0  0  0  0  0  0  0  0  0
  148.7289  136.9560  159.1806 N   0  0  0  0  0  0  0  0  0  0  0  0
  148.3581  135.7690  159.9388 C   0  0  0  0  0  0  0  0  0  0  0  0
  147.4843  136.0305  161.1933 C   0  0  1  0  0  0  0  0  0  0  0  0
  148.2455  136.8655  162.0470 O   0  0  0  0  0  0  0  0  0  0  0  0
  146.1503  136.7278  160.9261 C   0  0  0  0  0  0  0  0  0  0  0  0
  145.2622  136.2063  162.0475 C   0  0  0  0  0  0  0  0  0  0  0  0
  145.6512  134.8472  162.1349 O   0  0  0  0  0  0  0  0  0  0  0  0
  147.0662  134.7787  161.9967 C   0  0  0  0  0  0  0  0  0  0  0  0
  151.1496  141.3168  155.2959 H   0  0  0  0  0  0  0  0  0  0  0  0
  148.6143  142.4559  156.1332 H   0  0  0  0  0  0  0  0  0  0  0  0
  153.2309  138.7394  154.5381 H   0  0  0  0  0  0  0  0  0  0  0  0
  151.0787  139.0329  154.0622 H   0  0  0  0  0  0  0  0  0  0  0  0
  151.2580  138.2998  155.6521 H   0  0  0  0  0  0  0  0  0  0  0  0
  148.9250  140.7443  154.5131 H   0  0  0  0  0  0  0  0  0  0  0  0
  148.7714  139.4764  155.7296 H   0  0  0  0  0  0  0  0  0  0  0  0
  150.3492  142.5064  157.6313 H   0  0  0  0  0  0  0  0  0  0  0  0
  149.5339  141.3152  158.6209 H   0  0  0  0  0  0  0  0  0  0  0  0
  153.1733  137.5282  159.4571 H   0  0  0  0  0  0  0  0  0  0  0  0
  146.8066  137.6716  158.4988 H   0  0  0  0  0  0  0  0  0  0  0  0
  147.8379  135.0891  159.2625 H   0  0  0  0  0  0  0  0  0  0  0  0
  149.2774  135.2581  160.2283 H   0  0  0  0  0  0  0  0  0  0  0  0
  148.8037  136.3197  162.5797 H   0  0  0  0  0  0  0  0  0  0  0  0
  146.2189  137.8162  160.9046 H   0  0  0  0  0  0  0  0  0  0  0  0
  145.7177  136.4092  159.9799 H   0  0  0  0  0  0  0  0  0  0  0  0
  145.4743  136.7147  162.9894 H   0  0  0  0  0  0  0  0  0  0  0  0
  144.1992  136.3087  161.8285 H   0  0  0  0  0  0  0  0  0  0  0  0
  147.3293  133.8425  161.5103 H   0  0  0  0  0  0  0  0  0  0  0  0
  147.5222  134.7601  162.9878 H   0  0  0  0  0  0  0  0  0  0  0  0
  1  2  1  0  0  0  0
  1 27  1  0  0  0  0
  2  3  1  0  0  0  0
  2 28  1  0  0  0  0
  2 29  1  0  0  0  0
  3 25  1  0  0  0  0
  3  8  1  0  0  0  0
  3  4  1  0  0  0  0
  4  5  1  0  0  0  0
  4 30  1  0  0  0  0
  4 31  1  0  0  0  0
  5 26  1  0  0  0  0
  5  6  1  0  0  0  0
  5  7  1  0  0  0  0
  7  8  1  0  0  0  0
  7 32  1  0  0  0  0
  7 33  1  0  0  0  0
  8  9  1  0  0  0  0
  9 14  1  0  0  0  0
  9 10  2  0  0  0  0
 10 11  1  0  0  0  0
 11 12  2  0  0  0  0
 11 34  1  0  0  0  0
 12 13  1  0  0  0  0
 13 17  1  0  0  0  0
 13 14  2  0  0  0  0
 14 15  1  0  0  0  0
 15 16  2  0  0  0  0
 16 17  1  0  0  0  0
 16 35  1  0  0  0  0
 17 18  1  0  0  0  0
 18 19  1  0  0  0  0
 18 36  1  0  0  0  0
 18 37  1  0  0  0  0
 19 24  1  0  0  0  0
 19 20  1  0  0  0  0
 19 21  1  0  0  0  0
 20 38  1  0  0  0  0
 21 22  1  0  0  0  0
 21 39  1  0  0  0  0
 21 40  1  0  0  0  0
 22 23  1  0  0  0  0
 22 41  1  0  0  0  0
 22 42  1  0  0  0  0
 23 24  1  0  0  0  0
 24 43  1  0  0  0  0
 24 44  1  0  0  0  0
M  END
> <s_m_source_file>
AV-unprocessed.smi

> <i_m_source_file_index>
255

> <i_lp_mmshare_version>
43012

> <i_f3d_flags>
0

> <s_epik_input>
W09IXVtDSDJdW0NAQEhdMVtDSDJdW0NASF0oRilbQ0gyXU4xYyhuW2NIXW4yKWMoYzIzKW5bY0hdbjNbQ0gyXVtDQEBdNChbT0hdKVtDSDJdW0NIMl1PW0NIMl00

> <s_epik_cmdline>
J2VwaWtfcHl0aG9uJywgJy1waCcsICc3LjAnLCAnLXRuJywgJzgnLCAnLW1hJywgJzIwMCcsICctbWV0YWxfYmluZGluZycsICctaW1hZScsICc8aW5maWxlLm1hZT4nLCAnLW9tYWUnLCAnPG91dGZpbGUubWFlPic=

> <r_lp_tautomer_probability>
1

> <r_epik_Ionization_Penalty>
0.0058098

> <r_epik_Ionization_Penalty_Charging>
0

> <r_epik_Ionization_Penalty_Neutral>
0.0058098

> <r_epik_State_Penalty>
0.00411166

> <r_epik_Charging_Adjusted_Penalty>
0.00411166

> <i_epik_Tot_Q>
0

> <i_epik_Tot_abs_Q>
0

> <r_epik_Metal_State_Penalty>
-0

> <b_epik_Metal_Only>
0

> <s_lp_Force_Field>
OPLS_2005

> <r_lp_Energy>
52.3077

> <b_lp_Chiralities_Consistent>
1

> <s_lp_Variant>
AV-unprocessed.smi:255-4

> <Gold.Version>
5.8.1

> <Gold.Id.Protein>
6NUR|6NUR_protein|mol2

> <Gold.PLP.Fitness>
43.8112

> <Gold.PLP.PLP>
-35.6364

> <Gold.PLP.part.hbond>
-3.7987

> <Gold.PLP.part.metal>
0.0000

> <Gold.PLP.part.buried>
-8.0634

> <Gold.PLP.part.nonpolar>
-25.4592

> <Gold.PLP.part.repulsive>
0.0033

> <Gold.PLP.ligand.clash>
0.0000

> <Gold.PLP.ligand.torsion>
0.4396

> <Gold.PLP.Chemscore.Hbond>
2.9913

> <Gold.PLP.Chemscore.CHOScore>
0.0000

> <Gold.PLP.Chemscore.Metal>
0.0000

> <Gold.Chemscore.Hbonds>
donor molecule, donor type, donor heavy atom, donor atom, acceptor molecule, acceptor atom, score
      P1  H  6896  6909       L1    12  1.00
      P1  H  6931  6943       L1    20  1.00
      P1  H  7997  8008       L1     1  0.98

> <Gold.PLP.Chemscore.Internal.Correction>
0.0802

> <Gold.Rescore>
     Score         DG    S(hbond)    S(metal)    S(lipo)     H(rot)  DE(clash)    DE(int)     intcor
      9.59     -13.74       2.82        0.00      63.06       3.33       0.01       4.15       ----

> <Gold.Chemscore.Fitness>
9.5860

> <Gold.Chemscore.DG>
-13.7427

> <Gold.Chemscore.ZeroCoef>
-5.4800

> <Gold.Chemscore.Hbond>
2.8151

> <Gold.Chemscore.Metal>
0.0000

> <Gold.Chemscore.Lipo>
63.0624

> <Gold.Chemscore.Internal_Hbond>
0.0000

> <Gold.Chemscore.DEClash>
0.0060

> <Gold.Chemscore.DEInternal>
4.1507

> <Gold.Chemscore.Rot>
3.3273

> <Gold.Chemscore.Internal.Correction>
   9.000000E+99

> <Gold.Chemscore.Hbonds>
donor molecule, donor type, donor heavy atom, donor atom, acceptor molecule, acceptor atom, score
      P1  H  6896  6909       L1    12  0.92
      P1  H  6931  6943       L1    20  0.44
      P1  H  7997  8008       L1     1  0.40

> <Gold.Chemscore.Hbond.Weighted>
-9.4023

> <Gold.Chemscore.Metal.Weighted>
-0.0000

> <Gold.Chemscore.Lipo.Weighted>
-7.3783

> <Gold.Chemscore.Internal_Hbond.Weighted>
0.0000

> <Gold.Chemscore.DEClash.Weighted>
0.0060

> <Gold.Chemscore.DEInternal.Weighted>
4.1507

> <Gold.Chemscore.Rot.Weighted>
8.5179

> <Gold.Chemscore.Internal.Correction.Weighted>
   9.000000E+99

> <Gold.Protein.RotatedTorsions>
[ 6907 6896 6895 6894 ] final  122.49 input  -60.11 | X-H torsion
[ 7974 7965 7964 7962 ] final  -40.60 input  175.53 | X-H torsion
[ 8008 7997 7996 7995 ] final  -35.95 input   59.86 | X-H torsion
[ 10167 10162 10161 10158 ] final  -28.94 input  -65.29 | X-H torsion
[ 10718 10713 10712 10709 ] final -122.14 input   66.30 | X-H torsion
[ 10763 10752 10751 10750 ] final   50.36 input  -60.55 | X-H torsion
[ 11005 11000 10999 10996 ] final  128.50 input  -57.11 | X-H torsion

> <Gold.Protein.ActiveResidues>
 VAL166  LYS551  ARG553  GLY616  TRP617  ASP618  TYR619  PRO620  LYS621  CYS622 
 ASP623  PHE694  ASN695  SER759  ASP760  ASP761  ALA762  ILE779  LEU786  VAL792 
 PHE793  MET794  SER795  GLU796  ALA797  LYS798  CYS799  TRP800  GLU811  SER814 

> <Gold.Protein.RotatedAtoms>
  152.4238  133.7161  159.6506 H   0  0  0  0  0  0  0  0  0  0  0  0  # atno 6907 bound_to 6896
  150.8114  133.8403  159.3186 H   0  0  0  0  0  0  0  0  0  0  0  0  # atno 6908 bound_to 6896
  151.6112  135.1042  160.0133 H   0  0  0  0  0  0  0  0  0  0  0  0  # atno 6909 bound_to 6896
  146.0289  140.6757  142.9142 H   0  0  0  0  0  0  0  0  0  0  0  0  # atno 7974 bound_to 7965
  154.4084  140.1644  156.2294 H   0  0  0  0  0  0  0  0  0  0  0  0  # atno 8008 bound_to 7997
  155.9295  140.3415  155.6215 H   0  0  0  0  0  0  0  0  0  0  0  0  # atno 8009 bound_to 7997
  155.7123  140.0758  157.2356 H   0  0  0  0  0  0  0  0  0  0  0  0  # atno 8010 bound_to 7997
  140.7265  143.3969  151.1332 H   0  0  0  0  0  0  0  0  0  0  0  0  # atno 10167 bound_to 10162
  156.1394  130.6454  150.9747 H   0  0  0  0  0  0  0  0  0  0  0  0  # atno 10718 bound_to 10713
  152.9785  135.5881  154.4240 H   0  0  0  0  0  0  0  0  0  0  0  0  # atno 10763 bound_to 10752
  154.3861  135.2767  155.2185 H   0  0  0  0  0  0  0  0  0  0  0  0  # atno 10764 bound_to 10752
  154.4077  135.6089  153.5989 H   0  0  0  0  0  0  0  0  0  0  0  0  # atno 10765 bound_to 10752
  139.9564  134.9612  156.9012 H   0  0  0  0  0  0  0  0  0  0  0  0  # atno 11005 bound_to 11000
  144.7021  140.3699  143.7147 LP  0  0  0  0  0  0  0  0  0  0  0  0  # atno 17320 bound_to 7965
  145.7073  139.1676  143.2559 LP  0  0  0  0  0  0  0  0  0  0  0  0  # atno 17321 bound_to 7965
  139.7582  143.8675  152.3094 LP  0  0  0  0  0  0  0  0  0  0  0  0  # atno 17342 bound_to 10162
  139.8552  144.7145  150.9166 LP  0  0  0  0  0  0  0  0  0  0  0  0  # atno 17343 bound_to 10162
  157.6562  131.0889  150.7943 LP  0  0  0  0  0  0  0  0  0  0  0  0  # atno 17370 bound_to 10713
  156.8019  130.4924  149.5368 LP  0  0  0  0  0  0  0  0  0  0  0  0  # atno 17371 bound_to 10713
  140.5599  134.0545  155.7395 LP  0  0  0  0  0  0  0  0  0  0  0  0  # atno 17394 bound_to 11000
  141.1236  133.9420  157.2680 LP  0  0  0  0  0  0  0  0  0  0  0  0  # atno 17395 bound_to 11000

$$$$
