AV-unprocessed.smi:2784|AV-procd|sdf|10726|dock10
  -GOLD-   2272015163D 1   1.00000     0.00000
 Structure written by MMmdl.
 31 32  0  0  0  0  0  0  0  0  1 V2000
  153.4005  140.6800  159.5058 C   0  0  0  0  0  0  0  0  0  0  0  0
  152.0948  141.2097  159.3383 O   0  0  0  0  0  0  0  0  0  0  0  0
  152.0557  142.3891  158.5468 C   0  0  2  0  0  0  0  0  0  0  0  0
  153.0670  143.4019  159.0910 C   0  0  0  0  0  0  0  0  0  0  0  0
  152.4899  144.7591  158.7047 C   0  0  0  0  0  0  0  0  0  0  0  0
  150.9845  144.5856  158.9025 C   0  0  0  0  0  0  0  0  0  0  0  0
  150.6859  143.1051  158.5946 C   0  0  1  0  0  0  0  0  0  0  0  0
  149.9910  142.9687  157.3168 N   0  0  0  0  0  0  0  0  0  0  0  0
  149.5742  141.8106  156.7855 C   0  0  0  0  0  0  0  0  0  0  0  0
  149.7254  140.7178  157.3326 O   0  0  0  0  0  0  0  0  0  0  0  0
  148.9776  142.0058  155.5978 N   0  0  0  0  0  0  0  0  0  0  0  0
  148.4375  141.0221  154.7315 C   0  0  0  0  0  0  0  0  0  0  0  0
  148.9321  139.8042  154.5053 N   0  0  0  0  0  0  0  0  0  0  0  0
  148.0591  139.2368  153.5884 C   0  0  0  0  0  0  0  0  0  0  0  0
  147.0771  140.1523  153.3099 C   0  0  0  0  0  0  0  0  0  0  0  0
  147.3055  141.2943  154.0299 O   0  0  0  0  0  0  0  0  0  0  0  0
  153.3562  139.7990  160.1460 H   0  0  0  0  0  0  0  0  0  0  0  0
  154.0629  141.4053  159.9796 H   0  0  0  0  0  0  0  0  0  0  0  0
  153.8379  140.3775  158.5540 H   0  0  0  0  0  0  0  0  0  0  0  0
  152.3369  142.1587  157.5168 H   0  0  0  0  0  0  0  0  0  0  0  0
  153.1183  143.3303  160.1785 H   0  0  0  0  0  0  0  0  0  0  0  0
  154.0723  143.2427  158.7004 H   0  0  0  0  0  0  0  0  0  0  0  0
  152.9008  145.5761  159.2983 H   0  0  0  0  0  0  0  0  0  0  0  0
  152.7038  144.9658  157.6553 H   0  0  0  0  0  0  0  0  0  0  0  0
  150.7342  144.7915  159.9442 H   0  0  0  0  0  0  0  0  0  0  0  0
  150.4079  145.2828  158.2930 H   0  0  0  0  0  0  0  0  0  0  0  0
  150.0776  142.6908  159.4010 H   0  0  0  0  0  0  0  0  0  0  0  0
  149.8225  143.8190  156.7996 H   0  0  0  0  0  0  0  0  0  0  0  0
  148.9095  142.9589  155.2732 H   0  0  0  0  0  0  0  0  0  0  0  0
  148.2036  138.2360  153.2089 H   0  0  0  0  0  0  0  0  0  0  0  0
  146.2082  140.1479  152.6684 H   0  0  0  0  0  0  0  0  0  0  0  0
  1  2  1  0  0  0  0
  1 17  1  0  0  0  0
  1 18  1  0  0  0  0
  1 19  1  0  0  0  0
  2  3  1  0  0  0  0
  3  7  1  0  0  0  0
  3  4  1  0  0  0  0
  3 20  1  0  0  0  0
  4  5  1  0  0  0  0
  4 21  1  0  0  0  0
  4 22  1  0  0  0  0
  5  6  1  0  0  0  0
  5 23  1  0  0  0  0
  5 24  1  0  0  0  0
  6  7  1  0  0  0  0
  6 25  1  0  0  0  0
  6 26  1  0  0  0  0
  7  8  1  0  0  0  0
  7 27  1  0  0  0  0
  8  9  1  0  0  0  0
  8 28  1  0  0  0  0
  9 10  2  0  0  0  0
  9 11  1  0  0  0  0
 11 12  1  0  0  0  0
 11 29  1  0  0  0  0
 12 16  1  0  0  0  0
 12 13  2  0  0  0  0
 13 14  1  0  0  0  0
 14 15  2  0  0  0  0
 14 30  1  0  0  0  0
 15 16  1  0  0  0  0
 15 31  1  0  0  0  0
M  END
> <s_m_source_file>
AV-unprocessed.smi

> <i_m_source_file_index>
2784

> <i_lp_mmshare_version>
43012

> <i_f3d_flags>
0

> <s_epik_input>
W0NIM11PW0NAQEhdMVtDSDJdW0NIMl1bQ0gyXVtDQEhdMVtOSF1DKD1PKVtOSF1jMm5bY0hdW2NIXW8y

> <s_epik_cmdline>
J2VwaWtfcHl0aG9uJywgJy1waCcsICc3LjAnLCAnLXRuJywgJzgnLCAnLW1hJywgJzIwMCcsICctbWV0YWxfYmluZGluZycsICctaW1hZScsICc8aW5maWxlLm1hZT4nLCAnLW9tYWUnLCAnPG91dGZpbGUubWFlPic=

> <r_lp_tautomer_probability>
0.785861

> <r_epik_Ionization_Penalty>
4.58897e-05

> <r_epik_Ionization_Penalty_Charging>
0

> <r_epik_Ionization_Penalty_Neutral>
4.58897e-05

> <r_epik_State_Penalty>
0.0380021

> <r_epik_Charging_Adjusted_Penalty>
0.0380021

> <i_epik_Tot_Q>
0

> <i_epik_Tot_abs_Q>
0

> <r_epik_Metal_State_Penalty>
0.0585611

> <b_epik_Metal_Only>
0

> <s_lp_Force_Field>
OPLS_2005

> <r_lp_Energy>
17.9939

> <b_lp_Chiralities_Consistent>
1

> <s_lp_Variant>
AV-unprocessed.smi:2784-1

> <Gold.Version>
5.8.1

> <Gold.Id.Protein>
6NUR|6NUR_protein|mol2

> <Gold.PLP.Fitness>
40.0463

> <Gold.PLP.PLP>
-28.7236

> <Gold.PLP.part.hbond>
-2.0000

> <Gold.PLP.part.metal>
0.0000

> <Gold.PLP.part.buried>
-3.6740

> <Gold.PLP.part.nonpolar>
-24.3502

> <Gold.PLP.part.repulsive>
0.4385

> <Gold.PLP.ligand.clash>
0.0000

> <Gold.PLP.ligand.torsion>
0.3244

> <Gold.PLP.Chemscore.Hbond>
1.9920

> <Gold.PLP.Chemscore.CHOScore>
1.9966

> <Gold.PLP.Chemscore.Metal>
0.0000

> <Gold.Chemscore.Hbonds>
donor molecule, donor type, donor heavy atom, donor atom, acceptor molecule, acceptor atom, score
      L1  H     8    28       P1  8028  1.00
      L1  H    11    29       P1  8028  0.99
      L1  C    14    30       P1  7948  1.00
      L1  C    15    31       P1 10175  0.96

> <Gold.PLP.Chemscore.Internal.Correction>
0.0056

> <Gold.Rescore>
     Score         DG    S(hbond)    S(metal)    S(lipo)     H(rot)  DE(clash)    DE(int)     intcor
     17.42     -17.75       1.91        0.00      79.34       1.32       0.01       0.32       ----

> <Gold.Chemscore.Fitness>
17.4197

> <Gold.Chemscore.DG>
-17.7512

> <Gold.Chemscore.ZeroCoef>
-5.4800

> <Gold.Chemscore.Hbond>
1.9092

> <Gold.Chemscore.Metal>
0.0000

> <Gold.Chemscore.Lipo>
79.3392

> <Gold.Chemscore.Internal_Hbond>
0.0000

> <Gold.Chemscore.DEClash>
0.0104

> <Gold.Chemscore.DEInternal>
0.3212

> <Gold.Chemscore.Rot>
1.3235

> <Gold.Chemscore.Internal.Correction>
   9.000000E+99

> <Gold.Chemscore.Hbonds>
donor molecule, donor type, donor heavy atom, donor atom, acceptor molecule, acceptor atom, score
      L1  H     8    28       P1  8028  0.94
      L1  H    11    29       P1  8028  0.94

> <Gold.Chemscore.Hbond.Weighted>
-6.3767

> <Gold.Chemscore.Metal.Weighted>
-0.0000

> <Gold.Chemscore.Lipo.Weighted>
-9.2827

> <Gold.Chemscore.Internal_Hbond.Weighted>
0.0000

> <Gold.Chemscore.DEClash.Weighted>
0.0104

> <Gold.Chemscore.DEInternal.Weighted>
0.3212

> <Gold.Chemscore.Rot.Weighted>
3.3882

> <Gold.Chemscore.Internal.Correction.Weighted>
   9.000000E+99

> <Gold.Protein.RotatedTorsions>
[ 6907 6896 6895 6894 ] final   46.88 input  -60.11 | X-H torsion
[ 7974 7965 7964 7962 ] final  -41.86 input  175.53 | X-H torsion
[ 8008 7997 7996 7995 ] final  -21.53 input   59.86 | X-H torsion
[ 10167 10162 10161 10158 ] final   -1.54 input  -65.29 | X-H torsion
[ 10718 10713 10712 10709 ] final -136.32 input   66.30 | X-H torsion
[ 10763 10752 10751 10750 ] final  -64.92 input  -60.55 | X-H torsion
[ 11005 11000 10999 10996 ] final -169.39 input  -57.11 | X-H torsion

> <Gold.Protein.ActiveResidues>
 VAL166  LYS551  ARG553  GLY616  TRP617  ASP618  TYR619  PRO620  LYS621  CYS622 
 ASP623  PHE694  ASN695  SER759  ASP760  ASP761  ALA762  ILE779  LEU786  VAL792 
 PHE793  MET794  SER795  GLU796  ALA797  LYS798  CYS799  TRP800  GLU811  SER814 

> <Gold.Protein.RotatedAtoms>
  152.2616  134.8028  160.0429 H   0  0  0  0  0  0  0  0  0  0  0  0  # atno 6907 bound_to 6896
  151.8672  133.3463  159.3731 H   0  0  0  0  0  0  0  0  0  0  0  0  # atno 6908 bound_to 6896
  150.7119  134.5075  159.5635 H   0  0  0  0  0  0  0  0  0  0  0  0  # atno 6909 bound_to 6896
  146.0171  140.6895  142.9196 H   0  0  0  0  0  0  0  0  0  0  0  0  # atno 7974 bound_to 7965
  154.4700  140.2032  156.0020 H   0  0  0  0  0  0  0  0  0  0  0  0  # atno 8008 bound_to 7997
  156.0993  140.3246  155.7891 H   0  0  0  0  0  0  0  0  0  0  0  0  # atno 8009 bound_to 7997
  155.4824  140.0539  157.2956 H   0  0  0  0  0  0  0  0  0  0  0  0  # atno 8010 bound_to 7997
  140.6814  143.6763  150.8142 H   0  0  0  0  0  0  0  0  0  0  0  0  # atno 10167 bound_to 10162
  156.2758  130.7292  151.1273 H   0  0  0  0  0  0  0  0  0  0  0  0  # atno 10718 bound_to 10713
  154.3373  135.6164  153.5579 H   0  0  0  0  0  0  0  0  0  0  0  0  # atno 10763 bound_to 10752
  152.9807  135.5761  154.4893 H   0  0  0  0  0  0  0  0  0  0  0  0  # atno 10764 bound_to 10752
  154.4591  135.2855  155.1703 H   0  0  0  0  0  0  0  0  0  0  0  0  # atno 10765 bound_to 10752
  140.5313  134.5614  157.5075 H   0  0  0  0  0  0  0  0  0  0  0  0  # atno 11005 bound_to 11000
  144.6975  140.3500  143.7183 LP  0  0  0  0  0  0  0  0  0  0  0  0  # atno 17320 bound_to 7965
  145.7252  139.1720  143.2462 LP  0  0  0  0  0  0  0  0  0  0  0  0  # atno 17321 bound_to 7965
  140.0464  143.5294  152.2694 LP  0  0  0  0  0  0  0  0  0  0  0  0  # atno 17342 bound_to 10162
  139.6140  144.7615  151.2888 LP  0  0  0  0  0  0  0  0  0  0  0  0  # atno 17343 bound_to 10162
  157.7299  131.0621  150.5754 LP  0  0  0  0  0  0  0  0  0  0  0  0  # atno 17370 bound_to 10713
  156.5855  130.4315  149.5959 LP  0  0  0  0  0  0  0  0  0  0  0  0  # atno 17371 bound_to 10713
  139.9553  134.7546  156.0356 LP  0  0  0  0  0  0  0  0  0  0  0  0  # atno 17394 bound_to 11000
  141.1280  133.6594  156.3387 LP  0  0  0  0  0  0  0  0  0  0  0  0  # atno 17395 bound_to 11000

$$$$
