AV-unprocessed.smi:2010|AV-procd|sdf|8150|dock10
  -GOLD-   2272010393D 1   1.00000     0.00000
 Structure written by MMmdl.
 41 42  0  0  0  0  0  0  0  0  1 V2000
  151.7517  145.4527  159.9088 C   0  0  0  0  0  0  0  0  0  0  0  0
  152.1152  144.2206  159.0683 C   0  0  0  0  0  0  0  0  0  0  0  0
  150.9202  143.7188  158.2463 C   0  0  0  0  0  0  0  0  0  0  0  0
  151.2905  142.4886  157.4013 C   0  0  0  0  0  0  0  0  0  0  0  0
  151.8709  141.4137  158.2309 N   0  0  0  0  0  0  0  0  0  0  0  0
  151.9352  139.8171  157.5593 S   0  0  0  0  0  0  0  0  0  0  0  0
  153.1200  139.1224  158.0861 O   0  0  0  0  0  0  0  0  0  0  0  0
  150.6004  139.2035  157.6325 O   0  0  0  0  0  0  0  0  0  0  0  0
  152.2458  140.2366  155.9183 N   0  0  0  0  0  0  0  0  0  0  0  0
  152.2854  139.1880  154.8972 C   0  0  1  0  0  0  0  0  0  0  0  0
  153.4451  138.2257  155.1958 C   0  0  0  0  0  0  0  0  0  0  0  0
  150.9038  138.5086  154.7919 C   0  0  0  0  0  0  0  0  0  0  0  0
  149.8172  139.4381  154.5281 N   0  0  0  0  0  0  0  0  0  0  0  0
  148.5685  139.1673  154.0085 C   0  0  0  0  0  0  0  0  0  0  0  0
  147.8911  140.3506  153.9384 C   0  0  0  0  0  0  0  0  0  0  0  0
  148.8183  141.3009  154.4503 C   0  0  0  0  0  0  0  0  0  0  0  0
  149.9692  140.7519  154.8040 N   0  0  0  0  0  0  0  0  0  0  0  0
  152.9915  141.8378  159.0939 C   0  0  0  0  0  0  0  0  0  0  0  0
  152.6207  143.0649  159.9421 C   0  0  0  0  0  0  0  0  0  0  0  0
  150.9561  145.2270  160.6197 H   0  0  0  0  0  0  0  0  0  0  0  0
  151.4111  146.2723  159.2758 H   0  0  0  0  0  0  0  0  0  0  0  0
  152.6129  145.8091  160.4746 H   0  0  0  0  0  0  0  0  0  0  0  0
  152.9117  144.5073  158.3802 H   0  0  0  0  0  0  0  0  0  0  0  0
  150.0937  143.4657  158.9120 H   0  0  0  0  0  0  0  0  0  0  0  0
  150.5562  144.5121  157.5929 H   0  0  0  0  0  0  0  0  0  0  0  0
  150.3999  142.1203  156.8923 H   0  0  0  0  0  0  0  0  0  0  0  0
  152.0068  142.7642  156.6264 H   0  0  0  0  0  0  0  0  0  0  0  0
  151.7352  141.0677  155.6216 H   0  0  0  0  0  0  0  0  0  0  0  0
  152.4873  139.6602  153.9349 H   0  0  0  0  0  0  0  0  0  0  0  0
  153.4930  137.4310  154.4510 H   0  0  0  0  0  0  0  0  0  0  0  0
  153.3422  137.7585  156.1755 H   0  0  0  0  0  0  0  0  0  0  0  0
  154.4007  138.7505  155.1794 H   0  0  0  0  0  0  0  0  0  0  0  0
  150.9128  137.7578  154.0005 H   0  0  0  0  0  0  0  0  0  0  0  0
  150.6854  137.9721  155.7165 H   0  0  0  0  0  0  0  0  0  0  0  0
  148.2722  138.1662  153.7319 H   0  0  0  0  0  0  0  0  0  0  0  0
  146.8862  140.5126  153.5779 H   0  0  0  0  0  0  0  0  0  0  0  0
  148.6901  142.3660  154.5753 H   0  0  0  0  0  0  0  0  0  0  0  0
  153.2803  141.0186  159.7523 H   0  0  0  0  0  0  0  0  0  0  0  0
  153.8567  142.0594  158.4677 H   0  0  0  0  0  0  0  0  0  0  0  0
  153.4893  143.3837  160.5191 H   0  0  0  0  0  0  0  0  0  0  0  0
  151.8548  142.7864  160.6677 H   0  0  0  0  0  0  0  0  0  0  0  0
  1  2  1  0  0  0  0
  1 20  1  0  0  0  0
  1 21  1  0  0  0  0
  1 22  1  0  0  0  0
  2 19  1  0  0  0  0
  2  3  1  0  0  0  0
  2 23  1  0  0  0  0
  3  4  1  0  0  0  0
  3 24  1  0  0  0  0
  3 25  1  0  0  0  0
  4  5  1  0  0  0  0
  4 26  1  0  0  0  0
  4 27  1  0  0  0  0
  5  6  1  0  0  0  0
  5 18  1  0  0  0  0
  6  7  2  0  0  0  0
  6  8  2  0  0  0  0
  6  9  1  0  0  0  0
  9 10  1  0  0  0  0
  9 28  1  0  0  0  0
 10 11  1  0  0  0  0
 10 12  1  0  0  0  0
 10 29  1  0  0  0  0
 11 30  1  0  0  0  0
 11 31  1  0  0  0  0
 11 32  1  0  0  0  0
 12 13  1  0  0  0  0
 12 33  1  0  0  0  0
 12 34  1  0  0  0  0
 13 17  1  0  0  0  0
 13 14  1  0  0  0  0
 14 15  2  0  0  0  0
 14 35  1  0  0  0  0
 15 16  1  0  0  0  0
 15 36  1  0  0  0  0
 16 17  2  0  0  0  0
 16 37  1  0  0  0  0
 18 19  1  0  0  0  0
 18 38  1  0  0  0  0
 18 39  1  0  0  0  0
 19 40  1  0  0  0  0
 19 41  1  0  0  0  0
M  END
> <s_m_source_file>
AV-unprocessed.smi

> <i_m_source_file_index>
2010

> <i_lp_mmshare_version>
43012

> <i_f3d_flags>
0

> <s_epik_input>
W0NIM11bQ0hdMVtDSDJdW0NIMl1OKFtDSDJdW0NIMl0xKVMoPU8pKD1PKVtOSF1bQ0BIXShbQ0gzXSlbQ0gyXW4yW2NIXVtjSF1bY0hdbjI=

> <s_epik_cmdline>
J2VwaWtfcHl0aG9uJywgJy1waCcsICc3LjAnLCAnLXRuJywgJzgnLCAnLW1hJywgJzIwMCcsICctbWV0YWxfYmluZGluZycsICctaW1hZScsICc8aW5maWxlLm1hZT4nLCAnLW9tYWUnLCAnPG91dGZpbGUubWFlPic=

> <r_lp_tautomer_probability>
1

> <r_epik_Ionization_Penalty>
0.0313937

> <r_epik_Ionization_Penalty_Charging>
0

> <r_epik_Ionization_Penalty_Neutral>
0.0313937

> <r_epik_State_Penalty>
0.0259441

> <r_epik_Charging_Adjusted_Penalty>
0.0259441

> <i_epik_Tot_Q>
0

> <i_epik_Tot_abs_Q>
0

> <r_epik_Metal_State_Penalty>
0.365037

> <b_epik_Metal_Only>
0

> <s_lp_Force_Field>
OPLS_2005

> <r_lp_Energy>
7.16397

> <b_lp_Chiralities_Consistent>
1

> <s_lp_Variant>
AV-unprocessed.smi:2010-2

> <Gold.Version>
5.8.1

> <Gold.Id.Protein>
6NUR|6NUR_protein|mol2

> <Gold.PLP.Fitness>
49.7182

> <Gold.PLP.PLP>
-41.8803

> <Gold.PLP.part.hbond>
-3.1580

> <Gold.PLP.part.metal>
0.0000

> <Gold.PLP.part.buried>
2.8226

> <Gold.PLP.part.nonpolar>
-40.6295

> <Gold.PLP.part.repulsive>
0.1134

> <Gold.PLP.ligand.clash>
0.0000

> <Gold.PLP.ligand.torsion>
1.4613

> <Gold.PLP.Chemscore.Hbond>
1.3760

> <Gold.PLP.Chemscore.CHOScore>
1.5052

> <Gold.PLP.Chemscore.Metal>
0.0000

> <Gold.Chemscore.Hbonds>
donor molecule, donor type, donor heavy atom, donor atom, acceptor molecule, acceptor atom, score
      P1  H  7989  7998       L1    17  0.38
      P1  H  7997  8010       L1     7  1.00
      L1  C    14    35       P1  7948  0.42
      L1  C    16    37       P1  8028  0.88

> <Gold.PLP.Chemscore.Internal.Correction>
2.1168

> <Gold.Rescore>
     Score         DG    S(hbond)    S(metal)    S(lipo)     H(rot)  DE(clash)    DE(int)     intcor
     14.23     -18.60       1.24        0.00     111.66       1.59       0.43       3.94       ----

> <Gold.Chemscore.Fitness>
14.2291

> <Gold.Chemscore.DG>
-18.6042

> <Gold.Chemscore.ZeroCoef>
-5.4800

> <Gold.Chemscore.Hbond>
1.2369

> <Gold.Chemscore.Metal>
0.0000

> <Gold.Chemscore.Lipo>
111.6562

> <Gold.Chemscore.Internal_Hbond>
0.0000

> <Gold.Chemscore.DEClash>
0.4301

> <Gold.Chemscore.DEInternal>
3.9450

> <Gold.Chemscore.Rot>
1.5901

> <Gold.Chemscore.Internal.Correction>
   9.000000E+99

> <Gold.Chemscore.Hbonds>
donor molecule, donor type, donor heavy atom, donor atom, acceptor molecule, acceptor atom, score
      P1  H  7989  7998       L1    17  0.03
      P1  H  7997  8010       L1     7  0.24

> <Gold.Chemscore.Hbond.Weighted>
-4.1311

> <Gold.Chemscore.Metal.Weighted>
-0.0000

> <Gold.Chemscore.Lipo.Weighted>
-13.0638

> <Gold.Chemscore.Internal_Hbond.Weighted>
0.0000

> <Gold.Chemscore.DEClash.Weighted>
0.4301

> <Gold.Chemscore.DEInternal.Weighted>
3.9450

> <Gold.Chemscore.Rot.Weighted>
4.0707

> <Gold.Chemscore.Internal.Correction.Weighted>
   9.000000E+99

> <Gold.Protein.RotatedTorsions>
[ 6907 6896 6895 6894 ] final   27.20 input  -60.11 | X-H torsion
[ 7974 7965 7964 7962 ] final   70.98 input  175.53 | X-H torsion
[ 8008 7997 7996 7995 ] final   35.83 input   59.86 | X-H torsion
[ 10167 10162 10161 10158 ] final  -44.28 input  -65.29 | X-H torsion
[ 10718 10713 10712 10709 ] final   22.88 input   66.30 | X-H torsion
[ 10763 10752 10751 10750 ] final   60.35 input  -60.55 | X-H torsion
[ 11005 11000 10999 10996 ] final   44.27 input  -57.11 | X-H torsion

> <Gold.Protein.ActiveResidues>
 VAL166  LYS551  ARG553  GLY616  TRP617  ASP618  TYR619  PRO620  LYS621  CYS622 
 ASP623  PHE694  ASN695  SER759  ASP760  ASP761  ALA762  ILE779  LEU786  VAL792 
 PHE793  MET794  SER795  GLU796  ALA797  LYS798  CYS799  TRP800  GLU811  SER814 

> <Gold.Protein.RotatedAtoms>
  151.9988  134.9939  160.0564 H   0  0  0  0  0  0  0  0  0  0  0  0  # atno 6907 bound_to 6896
  152.1539  133.4534  159.4835 H   0  0  0  0  0  0  0  0  0  0  0  0  # atno 6908 bound_to 6896
  150.6879  134.2073  159.4388 H   0  0  0  0  0  0  0  0  0  0  0  0  # atno 6909 bound_to 6896
  145.7715  139.2845  143.1318 H   0  0  0  0  0  0  0  0  0  0  0  0  # atno 7974 bound_to 7965
  155.1775  140.3297  155.4381 H   0  0  0  0  0  0  0  0  0  0  0  0  # atno 8008 bound_to 7997
  156.2488  140.1932  156.6826 H   0  0  0  0  0  0  0  0  0  0  0  0  # atno 8009 bound_to 7997
  154.6294  140.0584  156.9699 H   0  0  0  0  0  0  0  0  0  0  0  0  # atno 8010 bound_to 7997
  140.6903  143.2938  151.3472 H   0  0  0  0  0  0  0  0  0  0  0  0  # atno 10167 bound_to 10162
  157.1584  130.6706  149.6035 H   0  0  0  0  0  0  0  0  0  0  0  0  # atno 10718 bound_to 10713
  152.9919  135.5539  154.5860 H   0  0  0  0  0  0  0  0  0  0  0  0  # atno 10763 bound_to 10752
  154.5232  135.2809  155.1247 H   0  0  0  0  0  0  0  0  0  0  0  0  # atno 10764 bound_to 10752
  154.2592  135.6384  153.5321 H   0  0  0  0  0  0  0  0  0  0  0  0  # atno 10765 bound_to 10752
  140.1567  134.4393  155.8345 H   0  0  0  0  0  0  0  0  0  0  0  0  # atno 11005 bound_to 11000
  146.0165  140.8387  142.9945 LP  0  0  0  0  0  0  0  0  0  0  0  0  # atno 17320 bound_to 7965
  144.6812  140.2566  143.7324 LP  0  0  0  0  0  0  0  0  0  0  0  0  # atno 17321 bound_to 7965
  139.6299  144.0741  152.2467 LP  0  0  0  0  0  0  0  0  0  0  0  0  # atno 17342 bound_to 10162
  140.0213  144.6151  150.7564 LP  0  0  0  0  0  0  0  0  0  0  0  0  # atno 17343 bound_to 10162
  155.9758  130.4720  150.6485 LP  0  0  0  0  0  0  0  0  0  0  0  0  # atno 17370 bound_to 10713
  157.4155  131.0829  151.1180 LP  0  0  0  0  0  0  0  0  0  0  0  0  # atno 17371 bound_to 10713
  141.2205  133.6895  156.7520 LP  0  0  0  0  0  0  0  0  0  0  0  0  # atno 17394 bound_to 11000
  140.2539  134.8519  157.3694 LP  0  0  0  0  0  0  0  0  0  0  0  0  # atno 17395 bound_to 11000

$$$$
