AV-unprocessed.smi:1390|AV-procd|sdf|5656|dock3
  -GOLD-   22720 5283D 1   1.00000     0.00000
 Structure written by MMmdl.
 44 45  0  0  0  0  0  0  0  0  1 V2000
  151.1024  144.8547  159.6386 C   0  0  0  0  0  0  0  0  0  0  0  0
  152.0257  143.6837  159.2875 C   0  0  2  0  0  0  0  0  0  0  0  0
  151.3681  142.7035  158.2969 C   0  0  0  0  0  0  0  0  0  0  0  0
  152.2476  141.5657  158.0629 N   0  0  0  0  0  0  0  0  0  0  0  0
  151.7738  140.6849  157.0816 C   0  0  0  0  0  0  0  0  0  0  0  0
  150.4848  140.1087  157.1620 C   0  0  0  0  0  0  0  0  0  0  0  0
  150.0753  139.2248  156.1456 C   0  0  0  0  0  0  0  0  0  0  0  0
  150.9615  138.9403  155.0871 C   0  0  0  0  0  0  0  0  0  0  0  0
  150.5403  137.9938  153.9736 C   0  0  0  0  0  0  0  0  0  0  0  0
  150.4831  136.5983  154.3915 N   0  0  0  0  0  0  0  0  0  0  0  0
  151.4998  135.9140  154.9365 C   0  0  0  0  0  0  0  0  0  0  0  0
  152.6210  136.3904  155.1117 O   0  0  0  0  0  0  0  0  0  0  0  0
  151.2152  134.4652  155.3312 C   0  0  0  0  0  0  0  0  0  0  0  0
  152.3651  133.9166  155.9574 O   0  0  0  0  0  0  0  0  0  0  0  0
  153.4330  133.6946  155.0504 C   0  0  0  0  0  0  0  0  0  0  0  0
  153.3801  132.2478  154.5445 C   0  0  0  0  0  0  0  0  0  0  0  0
  152.2647  132.0703  153.8374 F   0  0  0  0  0  0  0  0  0  0  0  0
  154.4282  131.9937  153.7618 F   0  0  0  0  0  0  0  0  0  0  0  0
  153.3736  131.4008  155.5737 F   0  0  0  0  0  0  0  0  0  0  0  0
  152.2234  139.5769  155.0939 C   0  0  0  0  0  0  0  0  0  0  0  0
  152.6238  140.4247  156.0648 N   0  0  0  0  0  0  0  0  0  0  0  0
  152.6450  140.8997  159.2962 C   0  0  0  0  0  0  0  0  0  0  0  0
  153.2634  141.9187  160.2681 C   0  0  0  0  0  0  0  0  0  0  0  0
  152.3442  142.9851  160.4894 O   0  0  0  0  0  0  0  0  0  0  0  0
  150.8458  145.4316  158.7497 H   0  0  0  0  0  0  0  0  0  0  0  0
  151.5832  145.5309  160.3458 H   0  0  0  0  0  0  0  0  0  0  0  0
  150.1741  144.5040  160.0904 H   0  0  0  0  0  0  0  0  0  0  0  0
  152.9440  144.0835  158.8536 H   0  0  0  0  0  0  0  0  0  0  0  0
  150.4134  142.3568  158.6952 H   0  0  0  0  0  0  0  0  0  0  0  0
  151.1603  143.2067  157.3515 H   0  0  0  0  0  0  0  0  0  0  0  0
  149.8216  140.3352  157.9840 H   0  0  0  0  0  0  0  0  0  0  0  0
  149.0957  138.7712  156.1828 H   0  0  0  0  0  0  0  0  0  0  0  0
  149.5580  138.2852  153.5992 H   0  0  0  0  0  0  0  0  0  0  0  0
  151.2451  138.1109  153.1488 H   0  0  0  0  0  0  0  0  0  0  0  0
  149.5996  136.1219  154.2792 H   0  0  0  0  0  0  0  0  0  0  0  0
  150.3617  134.4433  156.0102 H   0  0  0  0  0  0  0  0  0  0  0  0
  150.9539  133.8864  154.4436 H   0  0  0  0  0  0  0  0  0  0  0  0
  153.3575  134.3847  154.2085 H   0  0  0  0  0  0  0  0  0  0  0  0
  154.3878  133.8831  155.5441 H   0  0  0  0  0  0  0  0  0  0  0  0
  152.9369  139.4085  154.3007 H   0  0  0  0  0  0  0  0  0  0  0  0
  151.7776  140.4282  159.7597 H   0  0  0  0  0  0  0  0  0  0  0  0
  153.3632  140.1093  159.0739 H   0  0  0  0  0  0  0  0  0  0  0  0
  153.4895  141.4400  161.2209 H   0  0  0  0  0  0  0  0  0  0  0  0
  154.2035  142.3102  159.8766 H   0  0  0  0  0  0  0  0  0  0  0  0
  1  2  1  0  0  0  0
  1 25  1  0  0  0  0
  1 26  1  0  0  0  0
  1 27  1  0  0  0  0
  2 24  1  0  0  0  0
  2  3  1  0  0  0  0
  2 28  1  0  0  0  0
  3  4  1  0  0  0  0
  3 29  1  0  0  0  0
  3 30  1  0  0  0  0
  4  5  1  0  0  0  0
  4 22  1  0  0  0  0
  5 21  1  0  0  0  0
  5  6  2  0  0  0  0
  6  7  1  0  0  0  0
  6 31  1  0  0  0  0
  7  8  2  0  0  0  0
  7 32  1  0  0  0  0
  8  9  1  0  0  0  0
  8 20  1  0  0  0  0
  9 10  1  0  0  0  0
  9 33  1  0  0  0  0
  9 34  1  0  0  0  0
 10 11  1  0  0  0  0
 10 35  1  0  0  0  0
 11 12  2  0  0  0  0
 11 13  1  0  0  0  0
 13 14  1  0  0  0  0
 13 36  1  0  0  0  0
 13 37  1  0  0  0  0
 14 15  1  0  0  0  0
 15 16  1  0  0  0  0
 15 38  1  0  0  0  0
 15 39  1  0  0  0  0
 16 17  1  0  0  0  0
 16 18  1  0  0  0  0
 16 19  1  0  0  0  0
 20 21  2  0  0  0  0
 20 40  1  0  0  0  0
 22 23  1  0  0  0  0
 22 41  1  0  0  0  0
 22 42  1  0  0  0  0
 23 24  1  0  0  0  0
 23 43  1  0  0  0  0
 23 44  1  0  0  0  0
M  END
> <s_m_source_file>
AV-unprocessed.smi

> <i_m_source_file_index>
1390

> <i_lp_mmshare_version>
43012

> <i_f3d_flags>
0

> <s_epik_input>
W0NIM11bQ0BASF0xW0NIMl1OKFtDSDJdW0NIMl1PMSljMltjSF1bY0hdYyhbY0hdbjIpW0NIMl1bTkhdQyg9TylbQ0gyXU9bQ0gyXUMoRikoRilG

> <s_epik_cmdline>
J2VwaWtfcHl0aG9uJywgJy1waCcsICc3LjAnLCAnLXRuJywgJzgnLCAnLW1hJywgJzIwMCcsICctbWV0YWxfYmluZGluZycsICctaW1hZScsICc8aW5maWxlLm1hZT4nLCAnLW9tYWUnLCAnPG91dGZpbGUubWFlPic=

> <r_lp_tautomer_probability>
1

> <r_epik_Ionization_Penalty>
0.00481831

> <r_epik_Ionization_Penalty_Charging>
0

> <r_epik_Ionization_Penalty_Neutral>
0.00481831

> <r_epik_State_Penalty>
0.00349373

> <r_epik_Charging_Adjusted_Penalty>
0.00349373

> <i_epik_Tot_Q>
0

> <i_epik_Tot_abs_Q>
0

> <r_epik_Metal_State_Penalty>
-0

> <b_epik_Metal_Only>
0

> <s_lp_Force_Field>
OPLS_2005

> <r_lp_Energy>
18.3567

> <b_lp_Chiralities_Consistent>
1

> <s_lp_Variant>
AV-unprocessed.smi:1390-1

> <Gold.Version>
5.8.1

> <Gold.Id.Protein>
6NUR|6NUR_protein|mol2

> <Gold.PLP.Fitness>
48.5525

> <Gold.PLP.PLP>
-42.0006

> <Gold.PLP.part.hbond>
-3.8927

> <Gold.PLP.part.metal>
0.0000

> <Gold.PLP.part.buried>
-3.1077

> <Gold.PLP.part.nonpolar>
-35.1820

> <Gold.PLP.part.repulsive>
0.0996

> <Gold.PLP.ligand.clash>
0.0000

> <Gold.PLP.ligand.torsion>
0.6468

> <Gold.PLP.Chemscore.Hbond>
2.5271

> <Gold.PLP.Chemscore.CHOScore>
0.0000

> <Gold.PLP.Chemscore.Metal>
0.0000

> <Gold.Chemscore.Hbonds>
donor molecule, donor type, donor heavy atom, donor atom, acceptor molecule, acceptor atom, score
      P1  H  7997  8009       L1    21  0.98

> <Gold.PLP.Chemscore.Internal.Correction>
0.2642

> <Gold.Rescore>
     Score         DG    S(hbond)    S(metal)    S(lipo)     H(rot)  DE(clash)    DE(int)     intcor
     15.47     -18.75       2.61        0.00      95.18       2.57       0.02       3.27       ----

> <Gold.Chemscore.Fitness>
15.4660

> <Gold.Chemscore.DG>
-18.7534

> <Gold.Chemscore.ZeroCoef>
-5.4800

> <Gold.Chemscore.Hbond>
2.6065

> <Gold.Chemscore.Metal>
0.0000

> <Gold.Chemscore.Lipo>
95.1785

> <Gold.Chemscore.Internal_Hbond>
0.0000

> <Gold.Chemscore.DEClash>
0.0195

> <Gold.Chemscore.DEInternal>
3.2679

> <Gold.Chemscore.Rot>
2.5657

> <Gold.Chemscore.Internal.Correction>
   9.000000E+99

> <Gold.Chemscore.Hbonds>
donor molecule, donor type, donor heavy atom, donor atom, acceptor molecule, acceptor atom, score
      P1  H  7997  8009       L1    21  0.42

> <Gold.Chemscore.Hbond.Weighted>
-8.7057

> <Gold.Chemscore.Metal.Weighted>
-0.0000

> <Gold.Chemscore.Lipo.Weighted>
-11.1359

> <Gold.Chemscore.Internal_Hbond.Weighted>
0.0000

> <Gold.Chemscore.DEClash.Weighted>
0.0195

> <Gold.Chemscore.DEInternal.Weighted>
3.2679

> <Gold.Chemscore.Rot.Weighted>
6.5682

> <Gold.Chemscore.Internal.Correction.Weighted>
   9.000000E+99

> <Gold.Protein.RotatedTorsions>
[ 6907 6896 6895 6894 ] final -122.46 input  -60.11 | X-H torsion
[ 7974 7965 7964 7962 ] final   48.82 input  175.53 | X-H torsion
[ 8008 7997 7996 7995 ] final -151.13 input   59.86 | X-H torsion
[ 10167 10162 10161 10158 ] final  -47.22 input  -65.29 | X-H torsion
[ 10718 10713 10712 10709 ] final   55.35 input   66.30 | X-H torsion
[ 10763 10752 10751 10750 ] final  -49.43 input  -60.55 | X-H torsion
[ 11005 11000 10999 10996 ] final   93.02 input  -57.11 | X-H torsion

> <Gold.Protein.ActiveResidues>
 VAL166  LYS551  ARG553  GLY616  TRP617  ASP618  TYR619  PRO620  LYS621  CYS622 
 ASP623  PHE694  ASN695  SER759  ASP760  ASP761  ALA762  ILE779  LEU786  VAL792 
 PHE793  MET794  SER795  GLU796  ALA797  LYS798  CYS799  TRP800  GLU811  SER814 

> <Gold.Protein.RotatedAtoms>
  150.8578  133.7689  159.3002 H   0  0  0  0  0  0  0  0  0  0  0  0  # atno 6907 bound_to 6896
  151.5341  135.1067  159.9919 H   0  0  0  0  0  0  0  0  0  0  0  0  # atno 6908 bound_to 6896
  152.4603  133.7765  159.6883 H   0  0  0  0  0  0  0  0  0  0  0  0  # atno 6909 bound_to 6896
  146.0168  139.4605  142.9922 H   0  0  0  0  0  0  0  0  0  0  0  0  # atno 7974 bound_to 7965
  155.6346  140.0695  157.2638 H   0  0  0  0  0  0  0  0  0  0  0  0  # atno 8008 bound_to 7997
  154.4198  140.1761  156.1557 H   0  0  0  0  0  0  0  0  0  0  0  0  # atno 8009 bound_to 7997
  155.9905  140.3345  155.6752 H   0  0  0  0  0  0  0  0  0  0  0  0  # atno 8010 bound_to 7997
  140.6784  143.2794  151.3895 H   0  0  0  0  0  0  0  0  0  0  0  0  # atno 10167 bound_to 10162
  157.5337  130.8648  149.8723 H   0  0  0  0  0  0  0  0  0  0  0  0  # atno 10718 bound_to 10713
  154.0940  135.6573  153.4857 H   0  0  0  0  0  0  0  0  0  0  0  0  # atno 10763 bound_to 10752
  153.0312  135.5209  154.7352 H   0  0  0  0  0  0  0  0  0  0  0  0  # atno 10764 bound_to 10752
  154.6484  135.2998  154.9986 H   0  0  0  0  0  0  0  0  0  0  0  0  # atno 10765 bound_to 10752
  139.8815  134.8766  156.3657 H   0  0  0  0  0  0  0  0  0  0  0  0  # atno 11005 bound_to 11000
  145.7256  141.0060  143.1379 LP  0  0  0  0  0  0  0  0  0  0  0  0  # atno 17320 bound_to 7965
  144.6974  139.8922  143.7454 LP  0  0  0  0  0  0  0  0  0  0  0  0  # atno 17321 bound_to 7965
  139.6091  144.1136  152.2280 LP  0  0  0  0  0  0  0  0  0  0  0  0  # atno 17342 bound_to 10162
  140.0544  144.5907  150.7311 LP  0  0  0  0  0  0  0  0  0  0  0  0  # atno 17343 bound_to 10162
  156.0442  130.3732  150.1359 LP  0  0  0  0  0  0  0  0  0  0  0  0  # atno 17370 bound_to 10713
  156.9542  130.9784  151.3492 LP  0  0  0  0  0  0  0  0  0  0  0  0  # atno 17371 bound_to 10713
  140.9499  133.7458  156.0257 LP  0  0  0  0  0  0  0  0  0  0  0  0  # atno 17394 bound_to 11000
  140.8119  134.3390  157.5409 LP  0  0  0  0  0  0  0  0  0  0  0  0  # atno 17395 bound_to 11000

$$$$
