AV-unprocessed.smi:1032|AV-procd|sdf|4483|dock9
  -GOLD-   22720 2463D 1   1.00000     0.00000
 Structure written by MMmdl.
 46 47  0  0  0  0  0  0  0  0  2 V2000
  140.8313  141.7676  156.7334 C   0  0  0  0  0  0  0  0  0  0  0  0
  142.3384  141.9769  156.5310 C   0  0  2  0  0  0  0  0  0  0  0  0
  142.6297  142.9656  155.3894 C   0  0  0  0  0  0  0  0  0  0  0  0
  144.1427  143.1441  155.1755 C   0  0  0  0  0  0  0  0  0  0  0  0
  144.8061  141.8409  154.9148 N   0  3  1  0  0  0  0  0  0  0  0  0
  146.2430  141.9957  154.5689 C   0  0  0  0  0  0  0  0  0  0  0  0
  146.9664  140.6394  154.4431 C   0  0  1  0  0  0  0  0  0  0  0  0
  146.3680  139.9422  153.3676 O   0  0  0  0  0  0  0  0  0  0  0  0
  148.4670  140.8219  154.1406 C   0  0  0  0  0  0  0  0  0  0  0  0
  149.0955  141.7543  155.0710 N   0  0  0  0  0  0  0  0  0  0  0  0
  150.0208  141.4232  155.9832 C   0  0  0  0  0  0  0  0  0  0  0  0
  150.4622  140.2818  156.1114 O   0  0  0  0  0  0  0  0  0  0  0  0
  150.3909  142.4936  156.7080 N   0  0  0  0  0  0  0  0  0  0  0  0
  151.3111  142.5764  157.7899 C   0  0  0  0  0  0  0  0  0  0  0  0
  151.8150  143.8528  158.1165 C   0  0  0  0  0  0  0  0  0  0  0  0
  152.7179  143.9742  159.1915 C   0  0  0  0  0  0  0  0  0  0  0  0
  153.1279  142.9272  159.9374 N   0  0  0  0  0  0  0  0  0  0  0  0
  152.6382  141.7075  159.6305 C   0  0  0  0  0  0  0  0  0  0  0  0
  151.7310  141.4762  158.5771 C   0  0  0  0  0  0  0  0  0  0  0  0
  144.5691  140.8773  156.0224 C   0  0  0  0  0  0  0  0  0  0  0  0
  143.0650  140.6513  156.2486 C   0  0  0  0  0  0  0  0  0  0  0  0
  140.3634  141.3522  155.8403 H   0  0  0  0  0  0  0  0  0  0  0  0
  140.3316  142.7092  156.9636 H   0  0  0  0  0  0  0  0  0  0  0  0
  140.6378  141.0826  157.5595 H   0  0  0  0  0  0  0  0  0  0  0  0
  142.7412  142.3952  157.4547 H   0  0  0  0  0  0  0  0  0  0  0  0
  142.1717  142.6100  154.4652 H   0  0  0  0  0  0  0  0  0  0  0  0
  142.1743  143.9324  155.6065 H   0  0  0  0  0  0  0  0  0  0  0  0
  144.3047  143.8153  154.3311 H   0  0  0  0  0  0  0  0  0  0  0  0
  144.5953  143.6168  156.0488 H   0  0  0  0  0  0  0  0  0  0  0  0
  146.3444  142.5311  153.6233 H   0  0  0  0  0  0  0  0  0  0  0  0
  146.7246  142.6225  155.3210 H   0  0  0  0  0  0  0  0  0  0  0  0
  146.8476  140.0585  155.3575 H   0  0  0  0  0  0  0  0  0  0  0  0
  145.5645  140.3806  153.1298 H   0  0  0  0  0  0  0  0  0  0  0  0
  148.9899  139.8640  154.1104 H   0  0  0  0  0  0  0  0  0  0  0  0
  148.5855  141.2592  153.1489 H   0  0  0  0  0  0  0  0  0  0  0  0
  148.7944  142.7168  155.0260 H   0  0  0  0  0  0  0  0  0  0  0  0
  149.9754  143.3721  156.4358 H   0  0  0  0  0  0  0  0  0  0  0  0
  151.5196  144.7272  157.5552 H   0  0  0  0  0  0  0  0  0  0  0  0
  153.1198  144.9398  159.4606 H   0  0  0  0  0  0  0  0  0  0  0  0
  152.9759  140.8883  160.2479 H   0  0  0  0  0  0  0  0  0  0  0  0
  151.3770  140.4716  158.4097 H   0  0  0  0  0  0  0  0  0  0  0  0
  145.0405  139.9204  155.8018 H   0  0  0  0  0  0  0  0  0  0  0  0
  145.0312  141.2516  156.9374 H   0  0  0  0  0  0  0  0  0  0  0  0
  142.9199  139.9612  157.0804 H   0  0  0  0  0  0  0  0  0  0  0  0
  142.6326  140.1706  155.3696 H   0  0  0  0  0  0  0  0  0  0  0  0
  144.3607  141.4602  154.0915 H   0  0  0  0  0  0  0  0  0  0  0  0
  1  2  1  0  0  0  0
  1 22  1  0  0  0  0
  1 23  1  0  0  0  0
  1 24  1  0  0  0  0
  2 21  1  0  0  0  0
  2  3  1  0  0  0  0
  2 25  1  0  0  0  0
  3  4  1  0  0  0  0
  3 26  1  0  0  0  0
  3 27  1  0  0  0  0
  4  5  1  0  0  0  0
  4 28  1  0  0  0  0
  4 29  1  0  0  0  0
  5  6  1  0  0  0  0
  5 20  1  0  0  0  0
  5 46  1  0  0  0  0
  6  7  1  0  0  0  0
  6 30  1  0  0  0  0
  6 31  1  0  0  0  0
  7  8  1  0  0  0  0
  7  9  1  0  0  0  0
  7 32  1  0  0  0  0
  8 33  1  0  0  0  0
  9 10  1  0  0  0  0
  9 34  1  0  0  0  0
  9 35  1  0  0  0  0
 10 11  1  0  0  0  0
 10 36  1  0  0  0  0
 11 12  2  0  0  0  0
 11 13  1  0  0  0  0
 13 14  1  0  0  0  0
 13 37  1  0  0  0  0
 14 19  1  0  0  0  0
 14 15  2  0  0  0  0
 15 16  1  0  0  0  0
 15 38  1  0  0  0  0
 16 17  2  0  0  0  0
 16 39  1  0  0  0  0
 17 18  1  0  0  0  0
 18 19  2  0  0  0  0
 18 40  1  0  0  0  0
 19 41  1  0  0  0  0
 20 21  1  0  0  0  0
 20 42  1  0  0  0  0
 20 43  1  0  0  0  0
 21 44  1  0  0  0  0
 21 45  1  0  0  0  0
M  CHG  1   5   1
M  END
> <s_m_source_file>
AV-unprocessed.smi

> <i_m_source_file_index>
1032

> <i_lp_mmshare_version>
43012

> <i_f3d_flags>
0

> <s_epik_input>
W0NIM11bQ0hdMVtDSDJdW0NIMl1OKFtDSDJdW0NIMl0xKVtDSDJdW0NASF0oW09IXSlbQ0gyXVtOSF1DKD1PKVtOSF1jMltjSF1bY0hdbltjSF1bY0hdMg==

> <s_epik_cmdline>
J2VwaWtfcHl0aG9uJywgJy1waCcsICc3LjAnLCAnLXRuJywgJzgnLCAnLW1hJywgJzIwMCcsICctbWV0YWxfYmluZGluZycsICctaW1hZScsICc8aW5maWxlLm1hZT4nLCAnLW9tYWUnLCAnPG91dGZpbGUubWFlPic=

> <r_epik_Ionization_Penalty>
0.11743

> <r_epik_Ionization_Penalty_Charging>
0.00147689

> <r_epik_Ionization_Penalty_Neutral>
0.115954

> <r_epik_State_Penalty>
0.105552

> <r_epik_Charging_Adjusted_Penalty>
0.107029

> <i_epik_Tot_Q>
1

> <i_epik_Tot_abs_Q>
1

> <r_epik_Metal_State_Penalty>
0.0881315

> <b_epik_Metal_Only>
0

> <s_lp_Force_Field>
OPLS_2005

> <r_lp_Energy>
24.2585

> <b_lp_Chiralities_Consistent>
1

> <s_lp_Variant>
AV-unprocessed.smi:1032-2

> <Gold.Version>
5.8.1

> <Gold.Id.Protein>
6NUR|6NUR_protein|mol2

> <Gold.PLP.Fitness>
50.8349

> <Gold.PLP.PLP>
-36.2167

> <Gold.PLP.part.hbond>
-4.0000

> <Gold.PLP.part.metal>
0.0000

> <Gold.PLP.part.buried>
-6.7584

> <Gold.PLP.part.nonpolar>
-27.1552

> <Gold.PLP.part.repulsive>
0.3068

> <Gold.PLP.ligand.clash>
0.0000

> <Gold.PLP.ligand.torsion>
0.2170

> <Gold.PLP.Chemscore.Hbond>
4.9920

> <Gold.PLP.Chemscore.CHOScore>
0.0000

> <Gold.PLP.Chemscore.Metal>
0.0000

> <Gold.Chemscore.Hbonds>
donor molecule, donor type, donor heavy atom, donor atom, acceptor molecule, acceptor atom, score
      L1  H     5    46       P1 10175  2.00
      L1  H     8    33       P1 10175  1.00
      L1  H    10    36       P1  8028  0.86
      L1  H    13    37       P1  8028  1.00

> <Gold.PLP.Chemscore.Internal.Correction>
0.0762

> <Gold.Rescore>
     Score         DG    S(hbond)    S(metal)    S(lipo)     H(rot)  DE(clash)    DE(int)     intcor
     21.32     -21.61       3.71        0.00      82.15       2.29       0.03       0.27       ----

> <Gold.Chemscore.Fitness>
21.3159

> <Gold.Chemscore.DG>
-21.6134

> <Gold.Chemscore.ZeroCoef>
-5.4800

> <Gold.Chemscore.Hbond>
3.7053

> <Gold.Chemscore.Metal>
0.0000

> <Gold.Chemscore.Lipo>
82.1470

> <Gold.Chemscore.Internal_Hbond>
0.0000

> <Gold.Chemscore.DEClash>
0.0269

> <Gold.Chemscore.DEInternal>
0.2707

> <Gold.Chemscore.Rot>
2.2865

> <Gold.Chemscore.Internal.Correction>
   9.000000E+99

> <Gold.Chemscore.Hbonds>
donor molecule, donor type, donor heavy atom, donor atom, acceptor molecule, acceptor atom, score
      L1  H     5    46       P1 10175  0.29
      L1  H     8    33       P1 10175  0.91
      L1  H    10    36       P1  8028  0.81
      L1  H    13    37       P1  8028  1.00

> <Gold.Chemscore.Hbond.Weighted>
-12.3758

> <Gold.Chemscore.Metal.Weighted>
-0.0000

> <Gold.Chemscore.Lipo.Weighted>
-9.6112

> <Gold.Chemscore.Internal_Hbond.Weighted>
0.0000

> <Gold.Chemscore.DEClash.Weighted>
0.0269

> <Gold.Chemscore.DEInternal.Weighted>
0.2707

> <Gold.Chemscore.Rot.Weighted>
5.8536

> <Gold.Chemscore.Internal.Correction.Weighted>
   9.000000E+99

> <Gold.Protein.RotatedTorsions>
[ 6907 6896 6895 6894 ] final  -81.83 input  -60.11 | X-H torsion
[ 7974 7965 7964 7962 ] final  -45.56 input  175.53 | X-H torsion
[ 8008 7997 7996 7995 ] final -114.08 input   59.86 | X-H torsion
[ 10167 10162 10161 10158 ] final  -31.17 input  -65.29 | X-H torsion
[ 10718 10713 10712 10709 ] final  -56.10 input   66.30 | X-H torsion
[ 10763 10752 10751 10750 ] final  -45.23 input  -60.55 | X-H torsion
[ 11005 11000 10999 10996 ] final -141.01 input  -57.11 | X-H torsion

> <Gold.Protein.ActiveResidues>
 VAL166  LYS551  ARG553  GLY616  TRP617  ASP618  TYR619  PRO620  LYS621  CYS622 
 ASP623  PHE694  ASN695  SER759  ASP760  ASP761  ALA762  ILE779  LEU786  VAL792 
 PHE793  MET794  SER795  GLU796  ALA797  LYS798  CYS799  TRP800  GLU811  SER814 

> <Gold.Protein.RotatedAtoms>
  150.6906  134.3757  159.5011 H   0  0  0  0  0  0  0  0  0  0  0  0  # atno 6907 bound_to 6896
  152.1567  134.8942  160.0553 H   0  0  0  0  0  0  0  0  0  0  0  0  # atno 6908 bound_to 6896
  152.0020  133.3794  159.4222 H   0  0  0  0  0  0  0  0  0  0  0  0  # atno 6909 bound_to 6896
  145.9808  140.7285  142.9364 H   0  0  0  0  0  0  0  0  0  0  0  0  # atno 7974 bound_to 7965
  155.0308  140.0393  157.2473 H   0  0  0  0  0  0  0  0  0  0  0  0  # atno 8008 bound_to 7997
  154.7298  140.2728  155.6442 H   0  0  0  0  0  0  0  0  0  0  0  0  # atno 8009 bound_to 7997
  156.2838  140.2686  156.1995 H   0  0  0  0  0  0  0  0  0  0  0  0  # atno 8010 bound_to 7997
  140.7240  143.3792  151.1633 H   0  0  0  0  0  0  0  0  0  0  0  0  # atno 10167 bound_to 10162
  156.1315  130.4159  150.0260 H   0  0  0  0  0  0  0  0  0  0  0  0  # atno 10718 bound_to 10713
  154.0251  135.6664  153.4776 H   0  0  0  0  0  0  0  0  0  0  0  0  # atno 10763 bound_to 10752
  153.0564  135.5053  154.7986 H   0  0  0  0  0  0  0  0  0  0  0  0  # atno 10764 bound_to 10752
  154.6913  135.3062  154.9439 H   0  0  0  0  0  0  0  0  0  0  0  0  # atno 10765 bound_to 10752
  140.8366  134.2452  157.4831 H   0  0  0  0  0  0  0  0  0  0  0  0  # atno 11005 bound_to 11000
  144.6861  140.2905  143.7278 LP  0  0  0  0  0  0  0  0  0  0  0  0  # atno 17320 bound_to 7965
  145.7772  139.1878  143.2178 LP  0  0  0  0  0  0  0  0  0  0  0  0  # atno 17321 bound_to 7965
  139.7377  143.8972  152.3040 LP  0  0  0  0  0  0  0  0  0  0  0  0  # atno 17342 bound_to 10162
  139.8783  144.7031  150.8907 LP  0  0  0  0  0  0  0  0  0  0  0  0  # atno 17343 bound_to 10162
  156.8170  130.9345  151.3642 LP  0  0  0  0  0  0  0  0  0  0  0  0  # atno 17370 bound_to 10713
  157.6493  130.8870  149.9600 LP  0  0  0  0  0  0  0  0  0  0  0  0  # atno 17371 bound_to 10713
  139.8704  134.9614  156.4394 LP  0  0  0  0  0  0  0  0  0  0  0  0  # atno 17394 bound_to 11000
  140.8941  133.7827  155.9604 LP  0  0  0  0  0  0  0  0  0  0  0  0  # atno 17395 bound_to 11000

$$$$
