AV-unprocessed.smi:99|AV-procd|sdf|890|dock2
  -GOLD-   2262017373D 1   1.00000     0.00000
 Structure written by MMmdl.
 52 55  0  0  0  0  0  0  0  0  2 V2000
  146.1451  132.1717  158.4614 O   0  0  0  0  0  0  0  0  0  0  0  0
  147.0777  132.7238  159.0483 C   0  0  0  0  0  0  0  0  0  0  0  0
  148.3645  132.6118  158.6755 O   0  0  0  0  0  0  0  0  0  0  0  0
  148.7029  132.2198  157.3546 C   0  0  0  0  0  0  0  0  0  0  0  0
  149.0334  133.4619  156.5157 C   0  0  1  0  0  0  0  0  0  0  0  0
  149.8909  134.3355  157.2318 O   0  0  0  0  0  0  0  0  0  0  0  0
  150.6399  135.0980  156.3345 C   0  0  1  0  0  0  0  0  0  0  0  0
  152.0755  135.1216  156.8172 N   0  0  0  0  0  0  0  0  0  0  0  0
  152.6173  134.0166  157.4510 C   0  0  0  0  0  0  0  0  0  0  0  0
  153.8950  134.0092  157.8819 C   0  0  0  0  0  0  0  0  0  0  0  0
  154.7263  135.1918  157.6753 C   0  0  0  0  0  0  0  0  0  0  0  0
  155.8867  135.1824  158.0812 O   0  0  0  0  0  0  0  0  0  0  0  0
  154.1737  136.2624  157.0340 N   0  5  0  0  0  0  0  0  0  0  0  0
  152.8834  136.2682  156.5883 C   0  0  0  0  0  0  0  0  0  0  0  0
  152.3848  137.2166  155.9817 O   0  0  0  0  0  0  0  0  0  0  0  0
  150.4883  134.4827  154.9223 C   0  0  1  0  0  0  0  0  0  0  0  0
  151.7092  134.2205  154.2549 O   0  0  0  0  0  0  0  0  0  0  0  0
  149.7514  133.1790  155.1956 C   0  0  2  0  0  0  0  0  0  0  0  0
  148.7890  132.9169  154.1822 O   0  0  0  0  0  0  0  0  0  0  0  0
  148.2048  131.7042  154.0806 C   0  0  0  0  0  0  0  0  0  0  0  0
  148.5380  130.7233  154.7483 O   0  0  0  0  0  0  0  0  0  0  0  0
  147.1050  131.6756  153.0736 C   0  0  0  0  0  0  0  0  0  0  0  0
  146.0919  130.6945  153.1816 C   0  0  0  0  0  0  0  0  0  0  0  0
  145.0405  130.6429  152.2459 C   0  0  0  0  0  0  0  0  0  0  0  0
  144.9898  131.5711  151.1898 C   0  0  0  0  0  0  0  0  0  0  0  0
  145.9921  132.5515  151.0706 C   0  0  0  0  0  0  0  0  0  0  0  0
  147.0440  132.6053  152.0060 C   0  0  0  0  0  0  0  0  0  0  0  0
  146.9007  133.5960  160.2450 C   0  0  0  0  0  0  0  0  0  0  0  0
  145.8429  133.3316  161.1457 C   0  0  0  0  0  0  0  0  0  0  0  0
  145.6482  134.1425  162.2807 C   0  0  0  0  0  0  0  0  0  0  0  0
  146.5094  135.2273  162.5292 C   0  0  0  0  0  0  0  0  0  0  0  0
  147.5676  135.4988  161.6426 C   0  0  0  0  0  0  0  0  0  0  0  0
  147.7650  134.6879  160.5083 C   0  0  0  0  0  0  0  0  0  0  0  0
  149.5646  131.5520  157.3890 H   0  0  0  0  0  0  0  0  0  0  0  0
  147.8791  131.6707  156.8970 H   0  0  0  0  0  0  0  0  0  0  0  0
  148.1164  134.0200  156.3184 H   0  0  0  0  0  0  0  0  0  0  0  0
  150.2752  136.1243  156.3889 H   0  0  0  0  0  0  0  0  0  0  0  0
  152.0126  133.1366  157.6036 H   0  0  0  0  0  0  0  0  0  0  0  0
  154.3004  133.1366  158.3727 H   0  0  0  0  0  0  0  0  0  0  0  0
  149.8764  135.1623  154.3273 H   0  0  0  0  0  0  0  0  0  0  0  0
  151.5570  134.2785  153.3234 H   0  0  0  0  0  0  0  0  0  0  0  0
  150.4646  132.3643  155.3295 H   0  0  0  0  0  0  0  0  0  0  0  0
  146.1093  129.9708  153.9837 H   0  0  0  0  0  0  0  0  0  0  0  0
  144.2719  129.8897  152.3393 H   0  0  0  0  0  0  0  0  0  0  0  0
  144.1836  131.5310  150.4723 H   0  0  0  0  0  0  0  0  0  0  0  0
  145.9546  133.2642  150.2599 H   0  0  0  0  0  0  0  0  0  0  0  0
  147.7969  133.3703  151.8848 H   0  0  0  0  0  0  0  0  0  0  0  0
  145.1674  132.5059  160.9743 H   0  0  0  0  0  0  0  0  0  0  0  0
  144.8360  133.9319  162.9608 H   0  0  0  0  0  0  0  0  0  0  0  0
  146.3594  135.8495  163.3991 H   0  0  0  0  0  0  0  0  0  0  0  0
  148.2309  136.3298  161.8324 H   0  0  0  0  0  0  0  0  0  0  0  0
  148.5910  134.9215  159.8529 H   0  0  0  0  0  0  0  0  0  0  0  0
  1  2  2  0  0  0  0
  2  3  1  0  0  0  0
  2 28  1  0  0  0  0
  3  4  1  0  0  0  0
  4  5  1  0  0  0  0
  4 34  1  0  0  0  0
  4 35  1  0  0  0  0
  5 18  1  0  0  0  0
  5  6  1  0  0  0  0
  5 36  1  0  0  0  0
  6  7  1  0  0  0  0
  7  8  1  0  0  0  0
  7 16  1  0  0  0  0
  7 37  1  0  0  0  0
  8 14  1  0  0  0  0
  8  9  1  0  0  0  0
  9 10  2  0  0  0  0
  9 38  1  0  0  0  0
 10 11  1  0  0  0  0
 10 39  1  0  0  0  0
 11 12  2  0  0  0  0
 11 13  1  0  0  0  0
 13 14  1  0  0  0  0
 14 15  2  0  0  0  0
 16 17  1  0  0  0  0
 16 18  1  0  0  0  0
 16 40  1  0  0  0  0
 17 41  1  0  0  0  0
 18 19  1  0  0  0  0
 18 42  1  0  0  0  0
 19 20  1  0  0  0  0
 20 21  2  0  0  0  0
 20 22  1  0  0  0  0
 22 27  1  0  0  0  0
 22 23  2  0  0  0  0
 23 24  1  0  0  0  0
 23 43  1  0  0  0  0
 24 25  2  0  0  0  0
 24 44  1  0  0  0  0
 25 26  1  0  0  0  0
 25 45  1  0  0  0  0
 26 27  2  0  0  0  0
 26 46  1  0  0  0  0
 27 47  1  0  0  0  0
 28 33  1  0  0  0  0
 28 29  2  0  0  0  0
 29 30  1  0  0  0  0
 29 48  1  0  0  0  0
 30 31  2  0  0  0  0
 30 49  1  0  0  0  0
 31 32  1  0  0  0  0
 31 50  1  0  0  0  0
 32 33  2  0  0  0  0
 32 51  1  0  0  0  0
 33 52  1  0  0  0  0
M  CHG  1  13  -1
M  END
> <s_m_source_file>
AV-unprocessed.smi

> <i_m_source_file_index>
99

> <i_lp_mmshare_version>
43012

> <i_f3d_flags>
0

> <s_epik_input>
W2NIXTFbY0hdW2NIXVtjSF1bY0hdYzFDKD1PKU9bQ0gyXVtDQEBIXTJPW0NAQEhdKG4zW2NIXVtjSF1jKD1PKVtuSF1jMz1PKVtDQEBIXShbT0hdKVtDQEhdMk9DKD1PKWM0W2NIXVtjSF1bY0hdW2NIXVtjSF00

> <s_epik_cmdline>
J2VwaWtfcHl0aG9uJywgJy1waCcsICc3LjAnLCAnLXRuJywgJzgnLCAnLW1hJywgJzIwMCcsICctbWV0YWxfYmluZGluZycsICctaW1hZScsICc8aW5maWxlLm1hZT4nLCAnLW9tYWUnLCAnPG91dGZpbGUubWFlPic=

> <r_lp_tautomer_probability>
1

> <r_epik_Ionization_Penalty>
2.89159

> <r_epik_Ionization_Penalty_Charging>
2.1077e-08

> <r_epik_Ionization_Penalty_Neutral>
2.89159

> <r_epik_State_Penalty>
2.88671

> <r_epik_Charging_Adjusted_Penalty>
2.88671

> <i_epik_Tot_Q>
-1

> <i_epik_Tot_abs_Q>
1

> <r_epik_Metal_State_Penalty>
0.0727308

> <b_epik_Metal_Only>
1

> <s_epik_Chemistry_Notes>
This compound has an ester and may undergo hydrolysis at high or low pH. This compound contains an acetal/aminal-like group ( X-CH(R)-Y where X, Y are N, S, or O) that may be acid/base labile, releasing an aldehyde.

> <s_lp_Force_Field>
OPLS_2005

> <r_lp_Energy>
45.1404

> <b_lp_Chiralities_Consistent>
1

> <s_lp_Variant>
AV-unprocessed.smi:99-26

> <Gold.Version>
5.8.1

> <Gold.Id.Protein>
6NUR|6NUR_protein|mol2

> <Gold.PLP.Fitness>
55.3703

> <Gold.PLP.PLP>
-46.1672

> <Gold.PLP.part.hbond>
-5.0000

> <Gold.PLP.part.metal>
0.0000

> <Gold.PLP.part.buried>
-4.3451

> <Gold.PLP.part.nonpolar>
-37.9338

> <Gold.PLP.part.repulsive>
0.1910

> <Gold.PLP.ligand.clash>
0.0000

> <Gold.PLP.ligand.torsion>
2.2196

> <Gold.PLP.Chemscore.Hbond>
4.3840

> <Gold.PLP.Chemscore.CHOScore>
0.0000

> <Gold.PLP.Chemscore.Metal>
0.0000

> <Gold.Chemscore.Hbonds>
donor molecule, donor type, donor heavy atom, donor atom, acceptor molecule, acceptor atom, score
      P1  H  6896  6908       L1     6  0.39
      P1  H 10752 10763       L1    17  0.14

> <Gold.PLP.Chemscore.Internal.Correction>
0.4903

> <Gold.Rescore>
     Score         DG    S(hbond)    S(metal)    S(lipo)     H(rot)  DE(clash)    DE(int)     intcor
     14.05     -17.55       2.16        0.00     110.00       3.13       1.48       2.03       ----

> <Gold.Chemscore.Fitness>
14.0478

> <Gold.Chemscore.DG>
-17.5549

> <Gold.Chemscore.ZeroCoef>
-5.4800

> <Gold.Chemscore.Hbond>
2.1645

> <Gold.Chemscore.Metal>
0.0000

> <Gold.Chemscore.Lipo>
110.0011

> <Gold.Chemscore.Internal_Hbond>
0.0000

> <Gold.Chemscore.DEClash>
1.4814

> <Gold.Chemscore.DEInternal>
2.0256

> <Gold.Chemscore.Rot>
3.1346

> <Gold.Chemscore.Internal.Correction>
   9.000000E+99

> <Gold.Chemscore.Hbonds>
donor molecule, donor type, donor heavy atom, donor atom, acceptor molecule, acceptor atom, score
      L1  H    17    41       P1  7949  0.01
      P1  H  6896  6908       L1     6  0.37
      P1  H 10752 10763       L1    17  0.04

> <Gold.Chemscore.Hbond.Weighted>
-7.2293

> <Gold.Chemscore.Metal.Weighted>
-0.0000

> <Gold.Chemscore.Lipo.Weighted>
-12.8701

> <Gold.Chemscore.Internal_Hbond.Weighted>
0.0000

> <Gold.Chemscore.DEClash.Weighted>
1.4814

> <Gold.Chemscore.DEInternal.Weighted>
2.0256

> <Gold.Chemscore.Rot.Weighted>
8.0246

> <Gold.Chemscore.Internal.Correction.Weighted>
   9.000000E+99

> <Gold.Protein.RotatedTorsions>
[ 6907 6896 6895 6894 ] final  139.43 input  -60.11 | X-H torsion
[ 7974 7965 7964 7962 ] final  158.06 input  175.53 | X-H torsion
[ 8008 7997 7996 7995 ] final -170.91 input   59.86 | X-H torsion
[ 10167 10162 10161 10158 ] final   -9.12 input  -65.29 | X-H torsion
[ 10718 10713 10712 10709 ] final  -62.69 input   66.30 | X-H torsion
[ 10763 10752 10751 10750 ] final   53.10 input  -60.55 | X-H torsion
[ 11005 11000 10999 10996 ] final -159.74 input  -57.11 | X-H torsion

> <Gold.Protein.ActiveResidues>
 VAL166  LYS551  ARG553  GLY616  TRP617  ASP618  TYR619  PRO620  LYS621  CYS622 
 ASP623  PHE694  ASN695  SER759  ASP760  ASP761  ALA762  ILE779  LEU786  VAL792 
 PHE793  MET794  SER795  GLU796  ALA797  LYS798  CYS799  TRP800  GLU811  SER814 

> <Gold.Protein.RotatedAtoms>
  152.2550  133.5248  159.5347 H   0  0  0  0  0  0  0  0  0  0  0  0  # atno 6907 bound_to 6896
  150.7106  134.0908  159.3940 H   0  0  0  0  0  0  0  0  0  0  0  0  # atno 6908 bound_to 6896
  151.8827  135.0447  160.0541 H   0  0  0  0  0  0  0  0  0  0  0  0  # atno 6909 bound_to 6896
  144.7867  139.7426  143.6238 H   0  0  0  0  0  0  0  0  0  0  0  0  # atno 7974 bound_to 7965
  155.9245  140.1080  157.1180 H   0  0  0  0  0  0  0  0  0  0  0  0  # atno 8008 bound_to 7997
  154.4060  140.1249  156.4788 H   0  0  0  0  0  0  0  0  0  0  0  0  # atno 8009 bound_to 7997
  155.7155  140.3470  155.4995 H   0  0  0  0  0  0  0  0  0  0  0  0  # atno 8010 bound_to 7997
  140.7078  143.5892  150.8911 H   0  0  0  0  0  0  0  0  0  0  0  0  # atno 10167 bound_to 10162
  156.0839  130.4212  150.1171 H   0  0  0  0  0  0  0  0  0  0  0  0  # atno 10718 bound_to 10713
  152.9793  135.5790  154.4686 H   0  0  0  0  0  0  0  0  0  0  0  0  # atno 10763 bound_to 10752
  154.4252  135.2772  155.1951 H   0  0  0  0  0  0  0  0  0  0  0  0  # atno 10764 bound_to 10752
  154.3683  135.6173  153.5780 H   0  0  0  0  0  0  0  0  0  0  0  0  # atno 10765 bound_to 10752
  140.6392  134.4569  157.5233 H   0  0  0  0  0  0  0  0  0  0  0  0  # atno 11005 bound_to 11000
  146.2102  139.5453  142.9686 LP  0  0  0  0  0  0  0  0  0  0  0  0  # atno 17320 bound_to 7965
  145.5902  141.0370  143.2074 LP  0  0  0  0  0  0  0  0  0  0  0  0  # atno 17321 bound_to 7965
  139.9618  143.6155  152.3000 LP  0  0  0  0  0  0  0  0  0  0  0  0  # atno 17342 bound_to 10162
  139.6710  144.7661  151.1782 LP  0  0  0  0  0  0  0  0  0  0  0  0  # atno 17343 bound_to 10162
  156.9197  130.9679  151.3550 LP  0  0  0  0  0  0  0  0  0  0  0  0  # atno 17370 bound_to 10713
  157.5966  130.8482  149.8738 LP  0  0  0  0  0  0  0  0  0  0  0  0  # atno 17371 bound_to 10713
  139.9086  134.8393  156.1610 LP  0  0  0  0  0  0  0  0  0  0  0  0  # atno 17394 bound_to 11000
  141.0619  133.6837  156.1969 LP  0  0  0  0  0  0  0  0  0  0  0  0  # atno 17395 bound_to 11000

$$$$
