AV-unprocessed.smi:11|AV-procd|sdf|60|dock10
  -GOLD-   2262015183D 1   1.00000     0.00000
 Structure written by MMmdl.
 33 35  0  0  0  0  0  0  0  0  1 V2000
  147.7648  141.4145  154.3955 C   0  0  0  0  0  0  0  0  0  0  0  0
  149.1521  141.6933  154.9960 C   0  0  0  0  0  0  0  0  0  0  0  0
  150.0372  140.4411  155.2155 C   0  0  2  0  0  0  0  0  0  0  0  0
  150.3075  139.8449  153.9618 O   0  0  0  0  0  0  0  0  0  0  0  0
  149.3649  139.4244  156.1433 C   0  0  0  0  0  0  0  0  0  0  0  0
  149.7586  139.8911  157.5487 C   0  0  0  0  0  0  0  0  0  0  0  0
  150.9948  140.6541  157.3999 N   0  0  0  0  0  0  0  0  0  0  0  0
  151.0861  141.8125  158.2010 C   0  0  0  0  0  0  0  0  0  0  0  0
  150.2638  142.8655  157.9594 N   0  0  0  0  0  0  0  0  0  0  0  0
  150.3723  143.9498  158.7692 C   0  0  0  0  0  0  0  0  0  0  0  0
  151.2172  144.1286  159.8150 N   0  0  0  0  0  0  0  0  0  0  0  0
  152.0580  143.0827  160.0712 C   0  0  0  0  0  0  0  0  0  0  0  0
  152.9852  142.9899  161.0191 N   0  0  0  0  0  0  0  0  0  0  0  0
  153.5606  141.7845  160.8658 C   0  0  0  0  0  0  0  0  0  0  0  0
  153.0058  141.0191  159.7689 C   0  0  0  0  0  0  0  0  0  0  0  0
  152.0083  141.9135  159.2761 C   0  0  0  0  0  0  0  0  0  0  0  0
  151.3388  140.7187  155.9806 C   0  0  0  0  0  0  0  0  0  0  0  0
  147.1935  142.3388  154.3103 H   0  0  0  0  0  0  0  0  0  0  0  0
  147.1883  140.7301  155.0179 H   0  0  0  0  0  0  0  0  0  0  0  0
  147.8344  140.9853  153.3967 H   0  0  0  0  0  0  0  0  0  0  0  0
  149.6704  142.4031  154.3503 H   0  0  0  0  0  0  0  0  0  0  0  0
  149.0187  142.2062  155.9494 H   0  0  0  0  0  0  0  0  0  0  0  0
  149.5695  139.9991  153.3920 H   0  0  0  0  0  0  0  0  0  0  0  0
  148.2852  139.3551  156.0055 H   0  0  0  0  0  0  0  0  0  0  0  0
  149.7808  138.4297  155.9746 H   0  0  0  0  0  0  0  0  0  0  0  0
  148.9713  140.5216  157.9654 H   0  0  0  0  0  0  0  0  0  0  0  0
  149.8982  139.0423  158.2181 H   0  0  0  0  0  0  0  0  0  0  0  0
  149.7035  144.7700  158.5536 H   0  0  0  0  0  0  0  0  0  0  0  0
  154.3608  141.4581  161.5184 H   0  0  0  0  0  0  0  0  0  0  0  0
  153.2811  140.0325  159.4189 H   0  0  0  0  0  0  0  0  0  0  0  0
  152.0549  139.9164  155.7970 H   0  0  0  0  0  0  0  0  0  0  0  0
  151.8312  141.6369  155.6652 H   0  0  0  0  0  0  0  0  0  0  0  0
  151.1909  144.9950  160.3337 H   0  0  0  0  0  0  0  0  0  0  0  0
  1  2  1  0  0  0  0
  1 18  1  0  0  0  0
  1 19  1  0  0  0  0
  1 20  1  0  0  0  0
  2  3  1  0  0  0  0
  2 21  1  0  0  0  0
  2 22  1  0  0  0  0
  3 17  1  0  0  0  0
  3  4  1  0  0  0  0
  3  5  1  0  0  0  0
  4 23  1  0  0  0  0
  5  6  1  0  0  0  0
  5 24  1  0  0  0  0
  5 25  1  0  0  0  0
  6  7  1  0  0  0  0
  6 26  1  0  0  0  0
  6 27  1  0  0  0  0
  7  8  1  0  0  0  0
  7 17  1  0  0  0  0
  8 16  2  0  0  0  0
  8  9  1  0  0  0  0
  9 10  2  0  0  0  0
 10 11  1  0  0  0  0
 10 28  1  0  0  0  0
 11 12  1  0  0  0  0
 11 33  1  0  0  0  0
 12 16  1  0  0  0  0
 12 13  2  0  0  0  0
 13 14  1  0  0  0  0
 14 15  2  0  0  0  0
 14 29  1  0  0  0  0
 15 16  1  0  0  0  0
 15 30  1  0  0  0  0
 17 31  1  0  0  0  0
 17 32  1  0  0  0  0
M  END
> <s_m_source_file>
AV-unprocessed.smi

> <i_m_source_file_index>
11

> <i_lp_mmshare_version>
43012

> <i_f3d_flags>
0

> <s_epik_input>
W0NIM11bQ0gyXVtDQEBdMShbT0hdKVtDSDJdW0NIMl1OKFtDSDJdMSljKG5bY0hdbjIpYyhjMjMpW2NIXVtjSF1bbkhdMw==

> <s_epik_cmdline>
J2VwaWtfcHl0aG9uJywgJy1waCcsICc3LjAnLCAnLXRuJywgJzgnLCAnLW1hJywgJzIwMCcsICctbWV0YWxfYmluZGluZycsICctaW1hZScsICc8aW5maWxlLm1hZT4nLCAnLW9tYWUnLCAnPG91dGZpbGUubWFlPic=

> <r_lp_tautomer_probability>
1.75997e-05

> <r_epik_Ionization_Penalty>
5.31594

> <r_epik_Ionization_Penalty_Charging>
0

> <r_epik_Ionization_Penalty_Neutral>
5.31594

> <r_epik_State_Penalty>
7.79803

> <r_epik_Charging_Adjusted_Penalty>
7.79803

> <i_epik_Tot_Q>
0

> <i_epik_Tot_abs_Q>
0

> <r_epik_Metal_State_Penalty>
4.83511

> <b_epik_Metal_Only>
1

> <s_lp_Force_Field>
OPLS_2005

> <r_lp_Energy>
41.8975

> <b_lp_Chiralities_Consistent>
1

> <s_lp_Variant>
AV-unprocessed.smi:11-6

> <Gold.Version>
5.8.1

> <Gold.Id.Protein>
6NUR|6NUR_protein|mol2

> <Gold.PLP.Fitness>
38.4125

> <Gold.PLP.PLP>
-31.6770

> <Gold.PLP.part.hbond>
-2.0000

> <Gold.PLP.part.metal>
0.0000

> <Gold.PLP.part.buried>
-2.7221

> <Gold.PLP.part.nonpolar>
-26.8473

> <Gold.PLP.part.repulsive>
0.3912

> <Gold.PLP.ligand.clash>
0.0000

> <Gold.PLP.ligand.torsion>
0.1040

> <Gold.PLP.Chemscore.Hbond>
1.1867

> <Gold.PLP.Chemscore.CHOScore>
1.0689

> <Gold.PLP.Chemscore.Metal>
0.0000

> <Gold.Chemscore.Hbonds>
donor molecule, donor type, donor heavy atom, donor atom, acceptor molecule, acceptor atom, score
      L1  H     4    23       P1  7957  0.26
      P1  H  7989  7998       L1     4  0.95
      L1  C    10    28       P1  8029  1.00

> <Gold.PLP.Chemscore.Internal.Correction>
0.1767

> <Gold.Rescore>
     Score         DG    S(hbond)    S(metal)    S(lipo)     H(rot)  DE(clash)    DE(int)     intcor
      9.87     -10.45       0.67        0.00      63.34       1.83       0.35       0.23       ----

> <Gold.Chemscore.Fitness>
9.8685

> <Gold.Chemscore.DG>
-10.4509

> <Gold.Chemscore.ZeroCoef>
-5.4800

> <Gold.Chemscore.Hbond>
0.6692

> <Gold.Chemscore.Metal>
0.0000

> <Gold.Chemscore.Lipo>
63.3432

> <Gold.Chemscore.Internal_Hbond>
0.0000

> <Gold.Chemscore.DEClash>
0.3545

> <Gold.Chemscore.DEInternal>
0.2280

> <Gold.Chemscore.Rot>
1.8263

> <Gold.Chemscore.Internal.Correction>
   9.000000E+99

> <Gold.Chemscore.Hbonds>
donor molecule, donor type, donor heavy atom, donor atom, acceptor molecule, acceptor atom, score
      L1  H     4    23       P1  7957  0.26
      P1  H  7989  7998       L1     4  0.14

> <Gold.Chemscore.Hbond.Weighted>
-2.2350

> <Gold.Chemscore.Metal.Weighted>
-0.0000

> <Gold.Chemscore.Lipo.Weighted>
-7.4112

> <Gold.Chemscore.Internal_Hbond.Weighted>
0.0000

> <Gold.Chemscore.DEClash.Weighted>
0.3545

> <Gold.Chemscore.DEInternal.Weighted>
0.2280

> <Gold.Chemscore.Rot.Weighted>
4.6752

> <Gold.Chemscore.Internal.Correction.Weighted>
   9.000000E+99

> <Gold.Protein.RotatedTorsions>
[ 6907 6896 6895 6894 ] final  -75.76 input  -60.11 | X-H torsion
[ 7974 7965 7964 7962 ] final   42.15 input  175.53 | X-H torsion
[ 8008 7997 7996 7995 ] final  -17.57 input   59.86 | X-H torsion
[ 10167 10162 10161 10158 ] final  -63.74 input  -65.29 | X-H torsion
[ 10718 10713 10712 10709 ] final   -7.05 input   66.30 | X-H torsion
[ 10763 10752 10751 10750 ] final  137.94 input  -60.55 | X-H torsion
[ 11005 11000 10999 10996 ] final  150.63 input  -57.11 | X-H torsion

> <Gold.Protein.ActiveResidues>
 VAL166  LYS551  ARG553  GLY616  TRP617  ASP618  TYR619  PRO620  LYS621  CYS622 
 ASP623  PHE694  ASN695  SER759  ASP760  ASP761  ALA762  ILE779  LEU786  VAL792 
 PHE793  MET794  SER795  GLU796  ALA797  LYS798  CYS799  TRP800  GLU811  SER814 

> <Gold.Protein.RotatedAtoms>
  150.7048  134.4672  159.5408 H   0  0  0  0  0  0  0  0  0  0  0  0  # atno 6907 bound_to 6896
  152.2335  134.8295  160.0479 H   0  0  0  0  0  0  0  0  0  0  0  0  # atno 6908 bound_to 6896
  151.9103  133.3524  159.3898 H   0  0  0  0  0  0  0  0  0  0  0  0  # atno 6909 bound_to 6896
  146.0765  139.5334  142.9564 H   0  0  0  0  0  0  0  0  0  0  0  0  # atno 7974 bound_to 7965
  154.4968  140.2139  155.9429 H   0  0  0  0  0  0  0  0  0  0  0  0  # atno 8008 bound_to 7997
  156.1381  140.3184  155.8421 H   0  0  0  0  0  0  0  0  0  0  0  0  # atno 8009 bound_to 7997
  155.4171  140.0494  157.3019 H   0  0  0  0  0  0  0  0  0  0  0  0  # atno 8010 bound_to 7997
  140.5849  143.2332  151.6263 H   0  0  0  0  0  0  0  0  0  0  0  0  # atno 10167 bound_to 10162
  156.7229  130.5156  149.5864 H   0  0  0  0  0  0  0  0  0  0  0  0  # atno 10718 bound_to 10713
  153.8814  135.3044  155.3445 H   0  0  0  0  0  0  0  0  0  0  0  0  # atno 10763 bound_to 10752
  154.7759  135.4861  153.9747 H   0  0  0  0  0  0  0  0  0  0  0  0  # atno 10764 bound_to 10752
  153.1349  135.6812  153.9216 H   0  0  0  0  0  0  0  0  0  0  0  0  # atno 10765 bound_to 10752
  140.1148  134.8901  157.1988 H   0  0  0  0  0  0  0  0  0  0  0  0  # atno 11005 bound_to 11000
  145.6297  141.0306  143.1870 LP  0  0  0  0  0  0  0  0  0  0  0  0  # atno 17320 bound_to 7965
  144.7265  139.7860  143.7363 LP  0  0  0  0  0  0  0  0  0  0  0  0  # atno 17321 bound_to 7965
  139.5192  144.3261  152.0867 LP  0  0  0  0  0  0  0  0  0  0  0  0  # atno 17342 bound_to 10162
  140.2417  144.4262  150.6257 LP  0  0  0  0  0  0  0  0  0  0  0  0  # atno 17343 bound_to 10162
  156.1582  130.6356  151.0684 LP  0  0  0  0  0  0  0  0  0  0  0  0  # atno 17370 bound_to 10713
  157.6890  131.0816  150.7160 LP  0  0  0  0  0  0  0  0  0  0  0  0  # atno 17371 bound_to 10713
  140.3043  134.3096  155.7282 LP  0  0  0  0  0  0  0  0  0  0  0  0  # atno 17394 bound_to 11000
  141.2138  133.7611  156.9685 LP  0  0  0  0  0  0  0  0  0  0  0  0  # atno 17395 bound_to 11000

$$$$
