AV-unprocessed.smi:2170|AV-procd|sdf|8824|dock4
  -GOLD-   2272012 13D 1   1.00000     0.00000
 Structure written by MMmdl.
 46 47  0  0  0  0  0  0  0  0  1 V2000
  148.9670  132.8796  153.6662 C   0  0  0  0  0  0  0  0  0  0  0  0
  149.8191  133.7272  154.6262 C   0  0  0  0  0  0  0  0  0  0  0  0
  149.9422  133.0867  156.0205 C   0  0  0  0  0  0  0  0  0  0  0  0
  149.3180  135.1200  154.6994 N   0  0  0  0  0  0  0  0  0  0  0  0
  147.8734  135.2669  154.9554 C   0  0  0  0  0  0  0  0  0  0  0  0
  150.3644  136.2995  155.4288 S   0  0  0  0  0  0  0  0  0  0  0  0
  149.5416  137.2676  156.1703 O   0  0  0  0  0  0  0  0  0  0  0  0
  151.4899  135.6124  156.0812 O   0  0  0  0  0  0  0  0  0  0  0  0
  150.9690  137.0701  154.0092 N   0  0  0  0  0  0  0  0  0  0  0  0
  150.6795  138.4815  153.7640 C   0  0  0  0  0  0  0  0  0  0  0  0
  150.9708  139.3552  154.9681 C   0  0  0  0  0  0  0  0  0  0  0  0
  150.0154  140.2733  155.4446 C   0  0  0  0  0  0  0  0  0  0  0  0
  150.3349  141.0726  156.5589 C   0  0  0  0  0  0  0  0  0  0  0  0
  151.6046  140.9317  157.1691 C   0  0  0  0  0  0  0  0  0  0  0  0
  151.9464  141.7231  158.2874 N   0  0  0  0  0  0  0  0  0  0  0  0
  151.0646  142.8564  158.5563 C   0  0  0  0  0  0  0  0  0  0  0  0
  151.7078  143.8040  159.5837 C   0  0  0  0  0  0  0  0  0  0  0  0
  152.0505  143.0793  160.7603 O   0  0  0  0  0  0  0  0  0  0  0  0
  152.9979  142.0513  160.4913 C   0  0  0  0  0  0  0  0  0  0  0  0
  152.3988  141.0408  159.4985 C   0  0  0  0  0  0  0  0  0  0  0  0
  152.5226  140.0495  156.7009 N   0  0  0  0  0  0  0  0  0  0  0  0
  152.2114  139.2858  155.6326 C   0  0  0  0  0  0  0  0  0  0  0  0
  149.4292  131.9062  153.4999 H   0  0  0  0  0  0  0  0  0  0  0  0
  148.8710  133.3650  152.6944 H   0  0  0  0  0  0  0  0  0  0  0  0
  147.9644  132.6965  154.0512 H   0  0  0  0  0  0  0  0  0  0  0  0
  150.8199  133.7544  154.1958 H   0  0  0  0  0  0  0  0  0  0  0  0
  150.4225  132.1102  155.9546 H   0  0  0  0  0  0  0  0  0  0  0  0
  148.9696  132.9382  156.4899 H   0  0  0  0  0  0  0  0  0  0  0  0
  150.5469  133.7033  156.6863 H   0  0  0  0  0  0  0  0  0  0  0  0
  147.6552  135.0995  156.0105 H   0  0  0  0  0  0  0  0  0  0  0  0
  147.2865  134.5668  154.3635 H   0  0  0  0  0  0  0  0  0  0  0  0
  147.5377  136.2703  154.6971 H   0  0  0  0  0  0  0  0  0  0  0  0
  150.9705  136.4787  153.1788 H   0  0  0  0  0  0  0  0  0  0  0  0
  151.2954  138.8232  152.9320 H   0  0  0  0  0  0  0  0  0  0  0  0
  149.6406  138.5911  153.4505 H   0  0  0  0  0  0  0  0  0  0  0  0
  149.0546  140.3694  154.9609 H   0  0  0  0  0  0  0  0  0  0  0  0
  149.6141  141.7915  156.9183 H   0  0  0  0  0  0  0  0  0  0  0  0
  150.8382  143.4176  157.6509 H   0  0  0  0  0  0  0  0  0  0  0  0
  150.1160  142.4794  158.9406 H   0  0  0  0  0  0  0  0  0  0  0  0
  152.5947  144.2848  159.1675 H   0  0  0  0  0  0  0  0  0  0  0  0
  151.0101  144.5988  159.8480 H   0  0  0  0  0  0  0  0  0  0  0  0
  153.9191  142.4840  160.0977 H   0  0  0  0  0  0  0  0  0  0  0  0
  153.2547  141.5517  161.4251 H   0  0  0  0  0  0  0  0  0  0  0  0
  151.5558  140.5222  159.9569 H   0  0  0  0  0  0  0  0  0  0  0  0
  153.1501  140.2898  159.2511 H   0  0  0  0  0  0  0  0  0  0  0  0
  152.9787  138.6035  155.2974 H   0  0  0  0  0  0  0  0  0  0  0  0
  1  2  1  0  0  0  0
  1 23  1  0  0  0  0
  1 24  1  0  0  0  0
  1 25  1  0  0  0  0
  2  3  1  0  0  0  0
  2  4  1  0  0  0  0
  2 26  1  0  0  0  0
  3 27  1  0  0  0  0
  3 28  1  0  0  0  0
  3 29  1  0  0  0  0
  4  5  1  0  0  0  0
  4  6  1  0  0  0  0
  5 30  1  0  0  0  0
  5 31  1  0  0  0  0
  5 32  1  0  0  0  0
  6  7  2  0  0  0  0
  6  8  2  0  0  0  0
  6  9  1  0  0  0  0
  9 10  1  0  0  0  0
  9 33  1  0  0  0  0
 10 11  1  0  0  0  0
 10 34  1  0  0  0  0
 10 35  1  0  0  0  0
 11 22  1  0  0  0  0
 11 12  2  0  0  0  0
 12 13  1  0  0  0  0
 12 36  1  0  0  0  0
 13 14  2  0  0  0  0
 13 37  1  0  0  0  0
 14 15  1  0  0  0  0
 14 21  1  0  0  0  0
 15 20  1  0  0  0  0
 15 16  1  0  0  0  0
 16 17  1  0  0  0  0
 16 38  1  0  0  0  0
 16 39  1  0  0  0  0
 17 18  1  0  0  0  0
 17 40  1  0  0  0  0
 17 41  1  0  0  0  0
 18 19  1  0  0  0  0
 19 20  1  0  0  0  0
 19 42  1  0  0  0  0
 19 43  1  0  0  0  0
 20 44  1  0  0  0  0
 20 45  1  0  0  0  0
 21 22  2  0  0  0  0
 22 46  1  0  0  0  0
M  END
> <s_m_source_file>
AV-unprocessed.smi

> <i_m_source_file_index>
2170

> <i_lp_mmshare_version>
43012

> <i_f3d_flags>
0

> <s_epik_input>
W0NIM11bQ0hdKFtDSDNdKU4oW0NIM10pUyg9TykoPU8pW05IXVtDSDJdYzFbY0hdW2NIXWMobltjSF0xKU4yW0NIMl1bQ0gyXU9bQ0gyXVtDSDJdMg==

> <s_epik_cmdline>
J2VwaWtfcHl0aG9uJywgJy1waCcsICc3LjAnLCAnLXRuJywgJzgnLCAnLW1hJywgJzIwMCcsICctbWV0YWxfYmluZGluZycsICctaW1hZScsICc8aW5maWxlLm1hZT4nLCAnLW9tYWUnLCAnPG91dGZpbGUubWFlPic=

> <r_lp_tautomer_probability>
1

> <r_epik_Ionization_Penalty>
0.00966832

> <r_epik_Ionization_Penalty_Charging>
0

> <r_epik_Ionization_Penalty_Neutral>
0.00966832

> <r_epik_State_Penalty>
0.00558185

> <r_epik_Charging_Adjusted_Penalty>
0.00558185

> <i_epik_Tot_Q>
0

> <i_epik_Tot_abs_Q>
0

> <r_epik_Metal_State_Penalty>
0.341978

> <b_epik_Metal_Only>
0

> <s_lp_Force_Field>
OPLS_2005

> <r_lp_Energy>
19.49

> <b_lp_Chiralities_Consistent>
1

> <s_lp_Variant>
AV-unprocessed.smi:2170-1

> <Gold.Version>
5.8.1

> <Gold.Id.Protein>
6NUR|6NUR_protein|mol2

> <Gold.PLP.Fitness>
48.7638

> <Gold.PLP.PLP>
-40.0488

> <Gold.PLP.part.hbond>
-3.8135

> <Gold.PLP.part.metal>
0.0000

> <Gold.PLP.part.buried>
-5.5277

> <Gold.PLP.part.nonpolar>
-30.5607

> <Gold.PLP.part.repulsive>
0.2630

> <Gold.PLP.ligand.clash>
0.0000

> <Gold.PLP.ligand.torsion>
0.9403

> <Gold.PLP.Chemscore.Hbond>
3.0000

> <Gold.PLP.Chemscore.CHOScore>
0.0000

> <Gold.PLP.Chemscore.Metal>
0.0000

> <Gold.Chemscore.Hbonds>
donor molecule, donor type, donor heavy atom, donor atom, acceptor molecule, acceptor atom, score
      L1  H     9    33       P1  7949  0.90
      P1  H  7997  8010       L1    21  1.00
      P1  H 10752 10764       L1     8  1.00

> <Gold.PLP.Chemscore.Internal.Correction>
1.5955

> <Gold.Rescore>
     Score         DG    S(hbond)    S(metal)    S(lipo)     H(rot)  DE(clash)    DE(int)     intcor
     15.30     -18.06       1.91        0.00      96.22       1.98       0.21       2.54       ----

> <Gold.Chemscore.Fitness>
15.3020

> <Gold.Chemscore.DG>
-18.0550

> <Gold.Chemscore.ZeroCoef>
-5.4800

> <Gold.Chemscore.Hbond>
1.9122

> <Gold.Chemscore.Metal>
0.0000

> <Gold.Chemscore.Lipo>
96.2225

> <Gold.Chemscore.Internal_Hbond>
0.0000

> <Gold.Chemscore.DEClash>
0.2133

> <Gold.Chemscore.DEInternal>
2.5397

> <Gold.Chemscore.Rot>
1.9803

> <Gold.Chemscore.Internal.Correction>
   9.000000E+99

> <Gold.Chemscore.Hbonds>
donor molecule, donor type, donor heavy atom, donor atom, acceptor molecule, acceptor atom, score
      L1  H     9    33       P1  7949  0.18
      P1  H  7997  8010       L1    21  0.39
      P1  H 10752 10764       L1     8  0.85

> <Gold.Chemscore.Hbond.Weighted>
-6.3866

> <Gold.Chemscore.Metal.Weighted>
-0.0000

> <Gold.Chemscore.Lipo.Weighted>
-11.2580

> <Gold.Chemscore.Internal_Hbond.Weighted>
0.0000

> <Gold.Chemscore.DEClash.Weighted>
0.2133

> <Gold.Chemscore.DEInternal.Weighted>
2.5397

> <Gold.Chemscore.Rot.Weighted>
5.0696

> <Gold.Chemscore.Internal.Correction.Weighted>
   9.000000E+99

> <Gold.Protein.RotatedTorsions>
[ 6907 6896 6895 6894 ] final   89.58 input  -60.11 | X-H torsion
[ 7974 7965 7964 7962 ] final  115.08 input  175.53 | X-H torsion
[ 8008 7997 7996 7995 ] final   58.73 input   59.86 | X-H torsion
[ 10167 10162 10161 10158 ] final  107.43 input  -65.29 | X-H torsion
[ 10718 10713 10712 10709 ] final  -70.20 input   66.30 | X-H torsion
[ 10763 10752 10751 10750 ] final  -38.04 input  -60.55 | X-H torsion
[ 11005 11000 10999 10996 ] final -144.18 input  -57.11 | X-H torsion

> <Gold.Protein.ActiveResidues>
 VAL166  LYS551  ARG553  GLY616  TRP617  ASP618  TYR619  PRO620  LYS621  CYS622 
 ASP623  PHE694  ASN695  SER759  ASP760  ASP761  ALA762  ILE779  LEU786  VAL792 
 PHE793  MET794  SER795  GLU796  ALA797  LYS798  CYS799  TRP800  GLU811  SER814 

> <Gold.Protein.RotatedAtoms>
  152.5437  134.1945  159.8686 H   0  0  0  0  0  0  0  0  0  0  0  0  # atno 6907 bound_to 6896
  151.1938  133.4644  159.2603 H   0  0  0  0  0  0  0  0  0  0  0  0  # atno 6908 bound_to 6896
  151.1057  135.0010  159.8525 H   0  0  0  0  0  0  0  0  0  0  0  0  # atno 6909 bound_to 6896
  145.1964  139.2974  143.4341 H   0  0  0  0  0  0  0  0  0  0  0  0  # atno 7974 bound_to 7965
  155.5547  140.3487  155.4477 H   0  0  0  0  0  0  0  0  0  0  0  0  # atno 8008 bound_to 7997
  156.0557  140.1328  157.0025 H   0  0  0  0  0  0  0  0  0  0  0  0  # atno 8009 bound_to 7997
  154.4455  140.0995  156.6427 H   0  0  0  0  0  0  0  0  0  0  0  0  # atno 8010 bound_to 7997
  139.6928  144.7105  151.1319 H   0  0  0  0  0  0  0  0  0  0  0  0  # atno 10167 bound_to 10162
  156.0419  130.4327  150.2261 H   0  0  0  0  0  0  0  0  0  0  0  0  # atno 10718 bound_to 10713
  153.9062  135.6797  153.4753 H   0  0  0  0  0  0  0  0  0  0  0  0  # atno 10763 bound_to 10752
  153.1103  135.4786  154.9020 H   0  0  0  0  0  0  0  0  0  0  0  0  # atno 10764 bound_to 10752
  154.7550  135.3195  154.8441 H   0  0  0  0  0  0  0  0  0  0  0  0  # atno 10765 bound_to 10752
  140.8050  134.2812  157.4964 H   0  0  0  0  0  0  0  0  0  0  0  0  # atno 11005 bound_to 11000
  146.3426  140.2194  142.8591 LP  0  0  0  0  0  0  0  0  0  0  0  0  # atno 17320 bound_to 7965
  144.9990  140.8615  143.5293 LP  0  0  0  0  0  0  0  0  0  0  0  0  # atno 17321 bound_to 7965
  140.7687  143.5535  150.9178 LP  0  0  0  0  0  0  0  0  0  0  0  0  # atno 17342 bound_to 10162
  139.9213  143.6602  152.3096 LP  0  0  0  0  0  0  0  0  0  0  0  0  # atno 17343 bound_to 10162
  157.0355  131.0020  151.3299 LP  0  0  0  0  0  0  0  0  0  0  0  0  # atno 17370 bound_to 10713
  157.5247  130.8020  149.7848 LP  0  0  0  0  0  0  0  0  0  0  0  0  # atno 17371 bound_to 10713
  139.8718  134.9451  156.3900 LP  0  0  0  0  0  0  0  0  0  0  0  0  # atno 17394 bound_to 11000
  140.9256  133.7615  155.9960 LP  0  0  0  0  0  0  0  0  0  0  0  0  # atno 17395 bound_to 11000

$$$$
