#       Name:                AV-unprocessed.smi:2492
#       Creating user name   scv26
#       Creation time:       Fri Mar 27 13:44:33 2020


#       File generated by GOLD software.
#

@<TRIPOS>MOLECULE
AV-unprocessed.smi:2492
    39    40     1
SMALL
NO_CHARGES


@<TRIPOS>ATOM
      1 ****        -4.1671  -3.9918   0.9739 C.3            1 S1                 0.0000
      2 ****        -4.2166  -2.2786   1.5631 S.3            1 S1                 0.0000
      3 ****        -2.7711  -1.5987   0.6999 C.3            1 S1                 0.0000
      4 ****        -2.9826  -1.4453  -0.8055 C.3            1 S1                 0.0000
      5 ****        -1.9212  -0.4307  -1.2361 C.3            1 S1                 0.0000
      6 ****        -1.6533   0.4610  -0.0050 C.3            1 S1                 0.0000
      7 ****        -0.2289   0.5418   0.3086 N.am           1 S1                 0.0000
      8 ****         0.6613   1.2979  -0.3500 C.2            1 S1                 0.0000
      9 ****         0.3692   2.0142  -1.3079 O.2            1 S1                 0.0000
     10 ****         1.8926   1.1669   0.1684 N.am           1 S1                 0.0000
     11 ****         3.0757   1.8011  -0.2805 C.2            1 S1                 0.0000
     12 ****         4.2534   1.6038   0.3037 N.2            1 S1                 0.0000
     13 ****         5.0515   2.4009  -0.4602 C.2            1 S1                 0.0000
     14 ****         6.5162   2.5418  -0.2227 C.3            1 S1                 0.0000
     15 ****         4.4499   3.0525  -1.4493 N.2            1 S1                 0.0000
     16 ****         3.1101   2.6530  -1.3345 O.3            1 S1                 0.0000
     17 ****        -2.4254  -0.1813   1.1608 C.3            1 S1                 0.0000
     18 ****        -4.9690  -4.5693   1.4337 H              1 S1                 0.0000
     19 ****        -3.2153  -4.4563   1.2322 H              1 S1                 0.0000
     20 ****        -4.2926  -4.0305  -0.1081 H              1 S1                 0.0000
     21 ****        -1.9126  -2.2471   0.8810 H              1 S1                 0.0000
     22 ****        -2.8948  -2.3895  -1.3433 H              1 S1                 0.0000
     23 ****        -3.9760  -1.0399  -1.0034 H              1 S1                 0.0000
     24 ****        -1.0170  -0.9654  -1.5312 H              1 S1                 0.0000
     25 ****        -2.2448   0.1511  -2.0999 H              1 S1                 0.0000
     26 ****        -2.0412   1.4674  -0.1736 H              1 S1                 0.0000
     27 ****         0.0988  -0.0170   1.0829 H              1 S1                 0.0000
     28 ****         1.9970   0.5497   0.9598 H              1 S1                 0.0000
     29 ****         6.8489   3.5520  -0.4632 H              1 S1                 0.0000
     30 ****         7.0671   1.8369  -0.8454 H              1 S1                 0.0000
     31 ****         6.7555   2.3421   0.8221 H              1 S1                 0.0000
     32 ****        -3.3444   0.3825   1.3280 H              1 S1                 0.0000
     33 ****        -1.8736  -0.1766   2.1018 H              1 S1                 0.0000
     34 ****        -0.5756   2.0533  -1.6333 LP             1 S1                 0.0000
     35 ****         1.0767   2.5570  -1.7605 LP             1 S1                 0.0000
     36 ****         4.4886   1.0290   1.0875 LP             1 S1                 0.0000
     37 ****         4.8551   3.6781  -2.1160 LP             1 S1                 0.0000
     38 ****         2.5228   3.4442  -1.1638 LP             1 S1                 0.0000
     39 ****         2.8108   2.1895  -2.1685 LP             1 S1                 0.0000
@<TRIPOS>BOND
    1    1    2 1     
    2    1   18 1     
    3    1   19 1     
    4    1   20 1     
    5    2    3 1     
    6    3   17 1     
    7    3    4 1     
    8    3   21 1     
    9    4    5 1     
   10    4   22 1     
   11    4   23 1     
   12    5    6 1     
   13    5   24 1     
   14    5   25 1     
   15    6    7 1     
   16    6   17 1     
   17    6   26 1     
   18    7    8 am    
   19    7   27 1     
   20    8    9 2     
   21    8   10 am    
   22   10   11 1     
   23   10   28 1     
   24   11   16 1     
   25   11   12 2     
   26   12   13 1     
   27   13   14 1     
   28   13   15 2     
   29   14   29 1     
   30   14   30 1     
   31   14   31 1     
   32   15   16 1     
   33   17   32 1     
   34   17   33 1     
   35    9   34 1     
   36    9   35 1     
   37   12   36 1     
   38   15   37 1     
   39   16   38 1     
   40   16   39 1     
@<TRIPOS>SUBSTRUCTURE
      1 S1             1
@<TRIPOS>SET
LONE_PAIRS      STATIC     ATOMS    <user>   **** ""
6 34 35 36 37 38 39
DONOR_HYDROGENS      STATIC     ATOMS    <user>   **** ""
2 27 28
ATOM$BLUE        STATIC     ATOMS    COLORGROUP SYSTEM
6 34 35 36 37 38 39
ATOM$RED        STATIC     ATOMS    COLORGROUP SYSTEM
2 27 28
