AV-unprocessed.smi:69|AV-procd|sdf|644|dock6
  -GOLD-   2262016543D 1   1.00000     0.00000
 Structure written by MMmdl.
 32 34  0  0  0  0  0  0  0  0  1 V2000
  152.9513  142.5570  161.6485 N   0  0  0  0  0  0  0  0  0  0  0  0
  152.4847  142.8953  160.4388 C   0  0  0  0  0  0  0  0  0  0  0  0
  152.2247  144.2008  160.1897 N   0  0  0  0  0  0  0  0  0  0  0  0
  151.7569  144.5625  158.9900 C   0  0  0  0  0  0  0  0  0  0  0  0
  151.4872  143.7940  157.9303 N   0  0  0  0  0  0  0  0  0  0  0  0
  151.7529  142.4797  158.1866 C   0  0  0  0  0  0  0  0  0  0  0  0
  152.2497  141.9502  159.4086 C   0  0  0  0  0  0  0  0  0  0  0  0
  152.3928  140.5732  159.3024 N   0  0  0  0  0  0  0  0  0  0  0  0
  151.9990  140.3085  158.0847 C   0  0  0  0  0  0  0  0  0  0  0  0
  151.5940  141.4008  157.3450 N   0  0  0  0  0  0  0  0  0  0  0  0
  151.0914  141.4624  155.9334 C   0  0  1  0  0  0  0  0  0  0  0  0
  151.4105  140.2592  155.3000 O   0  0  0  0  0  0  0  0  0  0  0  0
  150.2505  139.4389  155.2099 C   0  0  2  0  0  0  0  0  0  0  0  0
  150.4336  138.3983  154.0952 C   0  0  0  0  0  0  0  0  0  0  0  0
  149.3351  137.5119  154.0815 O   0  0  0  0  0  0  0  0  0  0  0  0
  149.1746  140.4830  154.9129 C   0  0  1  0  0  0  0  0  0  0  0  0
  147.8598  139.9963  155.1093 O   0  0  0  0  0  0  0  0  0  0  0  0
  149.5533  141.6232  155.8553 C   0  0  1  0  0  0  0  0  0  0  0  0
  148.8989  141.5208  157.1121 O   0  0  0  0  0  0  0  0  0  0  0  0
  151.6457  142.2831  155.4762 H   0  0  0  0  0  0  0  0  0  0  0  0
  150.0484  138.9610  156.1706 H   0  0  0  0  0  0  0  0  0  0  0  0
  149.2742  140.8245  153.8813 H   0  0  0  0  0  0  0  0  0  0  0  0
  149.3108  142.5931  155.4197 H   0  0  0  0  0  0  0  0  0  0  0  0
  153.1510  141.5890  161.8555 H   0  0  0  0  0  0  0  0  0  0  0  0
  153.1033  143.2690  162.3484 H   0  0  0  0  0  0  0  0  0  0  0  0
  151.5719  145.6187  158.8609 H   0  0  0  0  0  0  0  0  0  0  0  0
  151.9964  139.3008  157.6959 H   0  0  0  0  0  0  0  0  0  0  0  0
  150.4689  138.8902  153.1227 H   0  0  0  0  0  0  0  0  0  0  0  0
  151.3667  137.8466  154.2140 H   0  0  0  0  0  0  0  0  0  0  0  0
  149.3408  137.0390  153.2634 H   0  0  0  0  0  0  0  0  0  0  0  0
  147.2493  140.6680  154.8463 H   0  0  0  0  0  0  0  0  0  0  0  0
  147.9712  141.4255  156.9584 H   0  0  0  0  0  0  0  0  0  0  0  0
  1  2  1  0  0  0  0
  1 24  1  0  0  0  0
  1 25  1  0  0  0  0
  2  7  1  0  0  0  0
  2  3  2  0  0  0  0
  3  4  1  0  0  0  0
  4  5  2  0  0  0  0
  4 26  1  0  0  0  0
  5  6  1  0  0  0  0
  6 10  1  0  0  0  0
  6  7  2  0  0  0  0
  7  8  1  0  0  0  0
  8  9  2  0  0  0  0
  9 10  1  0  0  0  0
  9 27  1  0  0  0  0
 10 11  1  0  0  0  0
 11 20  1  0  0  0  0
 11 18  1  0  0  0  0
 11 12  1  0  0  0  0
 12 13  1  0  0  0  0
 13 21  1  0  0  0  0
 13 14  1  0  0  0  0
 13 16  1  0  0  0  0
 14 15  1  0  0  0  0
 14 28  1  0  0  0  0
 14 29  1  0  0  0  0
 15 30  1  0  0  0  0
 16 22  1  0  0  0  0
 16 17  1  0  0  0  0
 16 18  1  0  0  0  0
 17 31  1  0  0  0  0
 18 23  1  0  0  0  0
 18 19  1  0  0  0  0
 19 32  1  0  0  0  0
M  END
> <s_m_source_file>
AV-unprocessed.smi

> <i_m_source_file_index>
69

> <i_lp_mmshare_version>
43012

> <i_f3d_flags>
0

> <s_epik_input>
bjFbY0hdbmMoW05IMl0pYyhjMTIpbltjSF1uMltDQEBIXTNPW0NASF0oW0NIMl1bT0hdKVtDQEBIXShbT0hdKVtDQEhdM1tPSF0=

> <s_epik_cmdline>
J2VwaWtfcHl0aG9uJywgJy1waCcsICc3LjAnLCAnLXRuJywgJzgnLCAnLW1hJywgJzIwMCcsICctbWV0YWxfYmluZGluZycsICctaW1hZScsICc8aW5maWxlLm1hZT4nLCAnLW9tYWUnLCAnPG91dGZpbGUubWFlPic=

> <r_lp_tautomer_probability>
1

> <r_epik_Ionization_Penalty>
0.000428445

> <r_epik_Ionization_Penalty_Charging>
0

> <r_epik_Ionization_Penalty_Neutral>
0.000428445

> <r_epik_State_Penalty>
-0

> <r_epik_Charging_Adjusted_Penalty>
0

> <i_epik_Tot_Q>
0

> <i_epik_Tot_abs_Q>
0

> <r_epik_Metal_State_Penalty>
-0

> <b_epik_Metal_Only>
0

> <s_epik_Chemistry_Notes>
This compound contains an acetal/aminal-like group ( X-CH(R)-Y where X, Y are N, S, or O) that may be acid/base labile, releasing an aldehyde.

> <s_lp_Force_Field>
OPLS_2005

> <r_lp_Energy>
41.389

> <b_lp_Chiralities_Consistent>
1

> <s_lp_Variant>
AV-unprocessed.smi:69-2

> <Gold.Version>
5.8.1

> <Gold.Id.Protein>
6NUR|6NUR_protein|mol2

> <Gold.PLP.Fitness>
37.6832

> <Gold.PLP.PLP>
-32.6059

> <Gold.PLP.part.hbond>
-2.0000

> <Gold.PLP.part.metal>
0.0000

> <Gold.PLP.part.buried>
-6.8064

> <Gold.PLP.part.nonpolar>
-23.3307

> <Gold.PLP.part.repulsive>
0.2541

> <Gold.PLP.ligand.clash>
0.0000

> <Gold.PLP.ligand.torsion>
0.4834

> <Gold.PLP.Chemscore.Hbond>
1.9920

> <Gold.PLP.Chemscore.CHOScore>
0.0000

> <Gold.PLP.Chemscore.Metal>
0.0000

> <Gold.Chemscore.Hbonds>
donor molecule, donor type, donor heavy atom, donor atom, acceptor molecule, acceptor atom, score
      L1  H    15    30       P1  7948  1.00
      P1  H  7989  7998       L1    12  0.99

> <Gold.PLP.Chemscore.Internal.Correction>
0.0682

> <Gold.Rescore>
     Score         DG    S(hbond)    S(metal)    S(lipo)     H(rot)  DE(clash)    DE(int)     intcor
      4.73      -5.06       1.84        0.00      32.04       4.03       0.01       0.32       ----

> <Gold.Chemscore.Fitness>
4.7262

> <Gold.Chemscore.DG>
-5.0632

> <Gold.Chemscore.ZeroCoef>
-5.4800

> <Gold.Chemscore.Hbond>
1.8400

> <Gold.Chemscore.Metal>
0.0000

> <Gold.Chemscore.Lipo>
32.0392

> <Gold.Chemscore.Internal_Hbond>
0.0000

> <Gold.Chemscore.DEClash>
0.0147

> <Gold.Chemscore.DEInternal>
0.3222

> <Gold.Chemscore.Rot>
4.0277

> <Gold.Chemscore.Internal.Correction>
   9.000000E+99

> <Gold.Chemscore.Hbonds>
donor molecule, donor type, donor heavy atom, donor atom, acceptor molecule, acceptor atom, score
      L1  H    15    30       P1  7948  0.94
      P1  H  7989  7998       L1    12  0.09

> <Gold.Chemscore.Hbond.Weighted>
-6.1456

> <Gold.Chemscore.Metal.Weighted>
-0.0000

> <Gold.Chemscore.Lipo.Weighted>
-3.7486

> <Gold.Chemscore.Internal_Hbond.Weighted>
0.0000

> <Gold.Chemscore.DEClash.Weighted>
0.0147

> <Gold.Chemscore.DEInternal.Weighted>
0.3222

> <Gold.Chemscore.Rot.Weighted>
10.3110

> <Gold.Chemscore.Internal.Correction.Weighted>
   9.000000E+99

> <Gold.Protein.RotatedTorsions>
[ 6907 6896 6895 6894 ] final   70.90 input  -60.11 | X-H torsion
[ 7974 7965 7964 7962 ] final   76.53 input  175.53 | X-H torsion
[ 8008 7997 7996 7995 ] final -126.41 input   59.86 | X-H torsion
[ 10167 10162 10161 10158 ] final    1.46 input  -65.29 | X-H torsion
[ 10718 10713 10712 10709 ] final  171.81 input   66.30 | X-H torsion
[ 10763 10752 10751 10750 ] final   34.70 input  -60.55 | X-H torsion
[ 11005 11000 10999 10996 ] final -170.50 input  -57.11 | X-H torsion

> <Gold.Protein.ActiveResidues>
 VAL166  LYS551  ARG553  GLY616  TRP617  ASP618  TYR619  PRO620  LYS621  CYS622 
 ASP623  PHE694  ASN695  SER759  ASP760  ASP761  ALA762  ILE779  LEU786  VAL792 
 PHE793  MET794  SER795  GLU796  ALA797  LYS798  CYS799  TRP800  GLU811  SER814 

> <Gold.Protein.RotatedAtoms>
  152.4777  134.4800  159.9662 H   0  0  0  0  0  0  0  0  0  0  0  0  # atno 6907 bound_to 6896
  151.4813  133.3540  159.2846 H   0  0  0  0  0  0  0  0  0  0  0  0  # atno 6908 bound_to 6896
  150.8827  134.8247  159.7298 H   0  0  0  0  0  0  0  0  0  0  0  0  # atno 6909 bound_to 6896
  145.7017  139.2585  143.1701 H   0  0  0  0  0  0  0  0  0  0  0  0  # atno 7974 bound_to 7965
  155.2292  140.0424  157.2960 H   0  0  0  0  0  0  0  0  0  0  0  0  # atno 8008 bound_to 7997
  154.5899  140.2424  155.7906 H   0  0  0  0  0  0  0  0  0  0  0  0  # atno 8009 bound_to 7997
  156.2252  140.2957  156.0058 H   0  0  0  0  0  0  0  0  0  0  0  0  # atno 8010 bound_to 7997
  140.6681  143.7123  150.7868 H   0  0  0  0  0  0  0  0  0  0  0  0  # atno 10167 bound_to 10162
  156.9880  131.0139  151.2864 H   0  0  0  0  0  0  0  0  0  0  0  0  # atno 10718 bound_to 10713
  153.0152  135.6353  154.1710 H   0  0  0  0  0  0  0  0  0  0  0  0  # atno 10763 bound_to 10752
  154.1449  135.2832  155.3152 H   0  0  0  0  0  0  0  0  0  0  0  0  # atno 10764 bound_to 10752
  154.6097  135.5560  153.7521 H   0  0  0  0  0  0  0  0  0  0  0  0  # atno 10765 bound_to 10752
  140.5188  134.5729  157.5041 H   0  0  0  0  0  0  0  0  0  0  0  0  # atno 11005 bound_to 11000
  146.0792  140.7783  142.9650 LP  0  0  0  0  0  0  0  0  0  0  0  0  # atno 17320 bound_to 7965
  144.6967  140.3462  143.7190 LP  0  0  0  0  0  0  0  0  0  0  0  0  # atno 17321 bound_to 7965
  140.0804  143.4974  152.2533 LP  0  0  0  0  0  0  0  0  0  0  0  0  # atno 17342 bound_to 10162
  139.5938  144.7560  151.3335 LP  0  0  0  0  0  0  0  0  0  0  0  0  # atno 17343 bound_to 10162
  157.5479  130.8162  149.8108 LP  0  0  0  0  0  0  0  0  0  0  0  0  # atno 17370 bound_to 10713
  156.0218  130.3793  150.1939 LP  0  0  0  0  0  0  0  0  0  0  0  0  # atno 17371 bound_to 10713
  139.9617  134.7441  156.0223 LP  0  0  0  0  0  0  0  0  0  0  0  0  # atno 17394 bound_to 11000
  141.1345  133.6578  156.3556 LP  0  0  0  0  0  0  0  0  0  0  0  0  # atno 17395 bound_to 11000

$$$$
