AV-unprocessed.smi:3314|AV-procd|sdf|12732|dock1
  -GOLD-   2272019 73D 1   1.00000     0.00000
 Structure written by MMmdl.
 38 39  0  0  0  0  0  0  0  0  2 V2000
  151.9256  145.6169  159.4767 C   0  0  0  0  0  0  0  0  0  0  0  0
  151.9871  144.1051  159.4128 C   0  0  0  0  0  0  0  0  0  0  0  0
  152.9996  143.3928  160.0833 C   0  0  0  0  0  0  0  0  0  0  0  0
  153.0029  141.9878  159.9823 C   0  0  0  0  0  0  0  0  0  0  0  0
  154.0616  141.1591  160.6790 C   0  0  0  0  0  0  0  0  0  0  0  0
  152.0833  141.2979  159.2739 N   0  0  0  0  0  0  0  0  0  0  0  0
  151.1050  141.9740  158.6222 C   0  0  0  0  0  0  0  0  0  0  0  0
  150.0930  141.3438  157.8515 N   0  0  0  0  0  0  0  0  0  0  0  0
  148.8450  141.7797  157.5974 C   0  0  0  0  0  0  0  0  0  0  0  0
  148.3715  142.8324  158.0280 O   0  0  0  0  0  0  0  0  0  0  0  0
  147.9963  140.8548  156.7037 C   0  0  1  0  0  0  0  0  0  0  0  0
  146.7758  141.5356  156.0384 C   0  0  0  0  0  0  0  0  0  0  0  0
  147.1945  142.4622  154.9594 N   0  3  2  0  0  0  0  0  0  0  0  0
  146.0533  143.1625  154.3333 C   0  0  0  0  0  0  0  0  0  0  0  0
  148.0519  141.7684  153.9725 C   0  0  0  0  0  0  0  0  0  0  0  0
  149.2601  141.1263  154.6731 C   0  0  0  0  0  0  0  0  0  0  0  0
  148.8081  140.2411  155.6980 O   0  0  0  0  0  0  0  0  0  0  0  0
  151.0272  143.3837  158.6748 C   0  0  0  0  0  0  0  0  0  0  0  0
  152.7213  146.0205  160.1036 H   0  0  0  0  0  0  0  0  0  0  0  0
  150.9696  145.9398  159.8894 H   0  0  0  0  0  0  0  0  0  0  0  0
  152.0299  146.0410  158.4779 H   0  0  0  0  0  0  0  0  0  0  0  0
  153.7538  143.9092  160.6596 H   0  0  0  0  0  0  0  0  0  0  0  0
  154.8019  141.7928  161.1682 H   0  0  0  0  0  0  0  0  0  0  0  0
  154.5806  140.5238  159.9607 H   0  0  0  0  0  0  0  0  0  0  0  0
  153.6050  140.5211  161.4361 H   0  0  0  0  0  0  0  0  0  0  0  0
  150.3460  140.4526  157.4499 H   0  0  0  0  0  0  0  0  0  0  0  0
  147.6244  140.0558  157.3465 H   0  0  0  0  0  0  0  0  0  0  0  0
  146.1168  140.7730  155.6202 H   0  0  0  0  0  0  0  0  0  0  0  0
  146.1899  142.0765  156.7832 H   0  0  0  0  0  0  0  0  0  0  0  0
  145.3896  142.4587  153.8291 H   0  0  0  0  0  0  0  0  0  0  0  0
  146.4047  143.8884  153.5994 H   0  0  0  0  0  0  0  0  0  0  0  0
  145.4748  143.7013  155.0844 H   0  0  0  0  0  0  0  0  0  0  0  0
  147.4703  141.0044  153.4542 H   0  0  0  0  0  0  0  0  0  0  0  0
  148.3950  142.4768  153.2177 H   0  0  0  0  0  0  0  0  0  0  0  0
  149.8465  140.5548  153.9535 H   0  0  0  0  0  0  0  0  0  0  0  0
  149.9261  141.8894  155.0777 H   0  0  0  0  0  0  0  0  0  0  0  0
  150.2417  143.9109  158.1524 H   0  0  0  0  0  0  0  0  0  0  0  0
  147.7668  143.1719  155.3956 H   0  0  0  0  0  0  0  0  0  0  0  0
  1  2  1  0  0  0  0
  1 19  1  0  0  0  0
  1 20  1  0  0  0  0
  1 21  1  0  0  0  0
  2 18  1  0  0  0  0
  2  3  2  0  0  0  0
  3  4  1  0  0  0  0
  3 22  1  0  0  0  0
  4  5  1  0  0  0  0
  4  6  2  0  0  0  0
  5 23  1  0  0  0  0
  5 24  1  0  0  0  0
  5 25  1  0  0  0  0
  6  7  1  0  0  0  0
  7  8  1  0  0  0  0
  7 18  2  0  0  0  0
  8  9  1  0  0  0  0
  8 26  1  0  0  0  0
  9 10  2  0  0  0  0
  9 11  1  0  0  0  0
 11 17  1  0  0  0  0
 11 12  1  0  0  0  0
 11 27  1  0  0  0  0
 12 13  1  0  0  0  0
 12 28  1  0  0  0  0
 12 29  1  0  0  0  0
 13 14  1  0  0  0  0
 13 15  1  0  0  0  0
 13 38  1  0  0  0  0
 14 30  1  0  0  0  0
 14 31  1  0  0  0  0
 14 32  1  0  0  0  0
 15 16  1  0  0  0  0
 15 33  1  0  0  0  0
 15 34  1  0  0  0  0
 16 17  1  0  0  0  0
 16 35  1  0  0  0  0
 16 36  1  0  0  0  0
 18 37  1  0  0  0  0
M  CHG  1  13   1
M  END
> <s_m_source_file>
AV-unprocessed.smi

> <i_m_source_file_index>
3314

> <i_lp_mmshare_version>
43012

> <i_f3d_flags>
0

> <s_epik_input>
W0NIM11jMVtjSF1jKFtDSDNdKW5jKFtjSF0xKVtOSF1DKD1PKVtDQEBIXTJbQ0gyXU4oW0NIM10pW0NIMl1bQ0gyXU8y

> <s_epik_cmdline>
J2VwaWtfcHl0aG9uJywgJy1waCcsICc3LjAnLCAnLXRuJywgJzgnLCAnLW1hJywgJzIwMCcsICctbWV0YWxfYmluZGluZycsICctaW1hZScsICc8aW5maWxlLm1hZT4nLCAnLW9tYWUnLCAnPG91dGZpbGUubWFlPic=

> <r_epik_Ionization_Penalty>
0.32442

> <r_epik_Ionization_Penalty_Charging>
0.314023

> <r_epik_Ionization_Penalty_Neutral>
0.0103972

> <r_epik_State_Penalty>
0.29453

> <r_epik_Charging_Adjusted_Penalty>
0.608553

> <i_epik_Tot_Q>
1

> <i_epik_Tot_abs_Q>
1

> <r_epik_Metal_State_Penalty>
0.286909

> <b_epik_Metal_Only>
0

> <s_lp_Force_Field>
OPLS_2005

> <r_lp_Energy>
14.9445

> <b_lp_Chiralities_Consistent>
1

> <s_lp_Variant>
AV-unprocessed.smi:3314-2

> <Gold.Version>
5.8.1

> <Gold.Id.Protein>
6NUR|6NUR_protein|mol2

> <Gold.PLP.Fitness>
42.5074

> <Gold.PLP.PLP>
-38.0162

> <Gold.PLP.part.hbond>
-1.0000

> <Gold.PLP.part.metal>
0.0000

> <Gold.PLP.part.buried>
-4.4093

> <Gold.PLP.part.nonpolar>
-32.7901

> <Gold.PLP.part.repulsive>
0.7368

> <Gold.PLP.ligand.clash>
0.0000

> <Gold.PLP.ligand.torsion>
0.7653

> <Gold.PLP.Chemscore.Hbond>
2.0000

> <Gold.PLP.Chemscore.CHOScore>
0.0000

> <Gold.PLP.Chemscore.Metal>
0.0000

> <Gold.Chemscore.Hbonds>
donor molecule, donor type, donor heavy atom, donor atom, acceptor molecule, acceptor atom, score
      L1  H    13    38       P1  8028  2.00

> <Gold.PLP.Chemscore.Internal.Correction>
0.0218

> <Gold.Rescore>
     Score         DG    S(hbond)    S(metal)    S(lipo)     H(rot)  DE(clash)    DE(int)     intcor
     14.69     -17.07       0.94        0.00      94.18       1.00       0.16       2.22       ----

> <Gold.Chemscore.Fitness>
14.6875

> <Gold.Chemscore.DG>
-17.0669

> <Gold.Chemscore.ZeroCoef>
-5.4800

> <Gold.Chemscore.Hbond>
0.9366

> <Gold.Chemscore.Metal>
0.0000

> <Gold.Chemscore.Lipo>
94.1761

> <Gold.Chemscore.Internal_Hbond>
0.0000

> <Gold.Chemscore.DEClash>
0.1583

> <Gold.Chemscore.DEInternal>
2.2211

> <Gold.Chemscore.Rot>
1.0000

> <Gold.Chemscore.Internal.Correction>
   9.000000E+99

> <Gold.Chemscore.Hbonds>
donor molecule, donor type, donor heavy atom, donor atom, acceptor molecule, acceptor atom, score
      L1  H    13    38       P1  8028  0.50

> <Gold.Chemscore.Hbond.Weighted>
-3.1283

> <Gold.Chemscore.Metal.Weighted>
-0.0000

> <Gold.Chemscore.Lipo.Weighted>
-11.0186

> <Gold.Chemscore.Internal_Hbond.Weighted>
0.0000

> <Gold.Chemscore.DEClash.Weighted>
0.1583

> <Gold.Chemscore.DEInternal.Weighted>
2.2211

> <Gold.Chemscore.Rot.Weighted>
2.5600

> <Gold.Chemscore.Internal.Correction.Weighted>
   9.000000E+99

> <Gold.Protein.RotatedTorsions>
[ 6907 6896 6895 6894 ] final -119.18 input  -60.11 | X-H torsion
[ 7974 7965 7964 7962 ] final  -94.81 input  175.53 | X-H torsion
[ 8008 7997 7996 7995 ] final  -33.57 input   59.86 | X-H torsion
[ 10167 10162 10161 10158 ] final    5.47 input  -65.29 | X-H torsion
[ 10718 10713 10712 10709 ] final  126.88 input   66.30 | X-H torsion
[ 10763 10752 10751 10750 ] final -122.27 input  -60.55 | X-H torsion
[ 11005 11000 10999 10996 ] final   13.10 input  -57.11 | X-H torsion

> <Gold.Protein.ActiveResidues>
 VAL166  LYS551  ARG553  GLY616  TRP617  ASP618  TYR619  PRO620  LYS621  CYS622 
 ASP623  PHE694  ASN695  SER759  ASP760  ASP761  ALA762  ILE779  LEU786  VAL792 
 PHE793  MET794  SER795  GLU796  ALA797  LYS798  CYS799  TRP800  GLU811  SER814 

> <Gold.Protein.RotatedAtoms>
  150.8283  133.8135  159.3109 H   0  0  0  0  0  0  0  0  0  0  0  0  # atno 6907 bound_to 6896
  151.5873  135.1053  160.0040 H   0  0  0  0  0  0  0  0  0  0  0  0  # atno 6908 bound_to 6896
  152.4365  133.7329  159.6654 H   0  0  0  0  0  0  0  0  0  0  0  0  # atno 6909 bound_to 6896
  145.3684  140.9502  143.2461 H   0  0  0  0  0  0  0  0  0  0  0  0  # atno 7974 bound_to 7965
  154.4145  140.1707  156.1910 H   0  0  0  0  0  0  0  0  0  0  0  0  # atno 8008 bound_to 7997
  155.9604  140.3394  155.6461 H   0  0  0  0  0  0  0  0  0  0  0  0  # atno 8009 bound_to 7997
  155.6756  140.0716  157.2494 H   0  0  0  0  0  0  0  0  0  0  0  0  # atno 8010 bound_to 7997
  140.6480  143.7615  150.7529 H   0  0  0  0  0  0  0  0  0  0  0  0  # atno 10167 bound_to 10162
  157.5381  131.1097  150.8903 H   0  0  0  0  0  0  0  0  0  0  0  0  # atno 10718 bound_to 10713
  154.8686  135.4139  154.2754 H   0  0  0  0  0  0  0  0  0  0  0  0  # atno 10763 bound_to 10752
  153.3656  135.7005  153.6683 H   0  0  0  0  0  0  0  0  0  0  0  0  # atno 10764 bound_to 10752
  153.5566  135.3618  155.2754 H   0  0  0  0  0  0  0  0  0  0  0  0  # atno 10765 bound_to 10752
  140.4845  134.0902  155.7758 H   0  0  0  0  0  0  0  0  0  0  0  0  # atno 11005 bound_to 11000
  144.8594  139.5199  143.6819 LP  0  0  0  0  0  0  0  0  0  0  0  0  # atno 17320 bound_to 7965
  146.2896  139.7102  142.9170 LP  0  0  0  0  0  0  0  0  0  0  0  0  # atno 17321 bound_to 7965
  140.1260  143.4569  152.2284 LP  0  0  0  0  0  0  0  0  0  0  0  0  # atno 17342 bound_to 10162
  139.5692  144.7453  151.3937 LP  0  0  0  0  0  0  0  0  0  0  0  0  # atno 17343 bound_to 10162
  156.9464  130.5403  149.5281 LP  0  0  0  0  0  0  0  0  0  0  0  0  # atno 17370 bound_to 10713
  156.0474  130.5549  150.8913 LP  0  0  0  0  0  0  0  0  0  0  0  0  # atno 17371 bound_to 10713
  141.1515  133.8961  157.2087 LP  0  0  0  0  0  0  0  0  0  0  0  0  # atno 17394 bound_to 11000
  139.9806  135.0099  156.9740 LP  0  0  0  0  0  0  0  0  0  0  0  0  # atno 17395 bound_to 11000

$$$$
