AV-unprocessed.smi:115|AV-procd|sdf|1123|dock6
  -GOLD-   2262018243D 1   1.00000     0.00000
 Structure written by MMmdl.
 55 57  0  0  0  0  0  0  0  0  1 V2000
  155.3467  130.5198  166.6959 C   0  0  0  0  0  0  0  0  0  0  0  0
  154.3301  131.1159  165.9051 O   0  0  0  0  0  0  0  0  0  0  0  0
  154.7977  132.1126  165.0053 C   0  0  0  0  0  0  0  0  0  0  0  0
  153.6401  132.8240  164.2707 C   0  0  2  0  0  0  0  0  0  0  0  0
  152.5070  131.8769  163.8314 C   0  0  0  0  0  0  0  0  0  0  0  0
  154.1362  133.6946  163.1916 N   0  0  0  0  0  0  0  0  0  0  0  0
  154.5660  133.2201  161.9528 C   0  0  0  0  0  0  0  0  0  0  0  0
  154.5682  131.7715  161.5768 C   0  0  0  0  0  0  0  0  0  0  0  0
  154.9654  134.2884  161.2085 C   0  0  0  0  0  0  0  0  0  0  0  0
  154.7688  135.4704  161.9702 C   0  0  0  0  0  0  0  0  0  0  0  0
  155.0922  136.8674  161.5800 C   0  0  0  0  0  0  0  0  0  0  0  0
  156.0471  137.1660  160.8614 O   0  0  0  0  0  0  0  0  0  0  0  0
  154.1387  137.9500  162.1202 C   0  0  0  0  0  0  0  0  0  0  0  0
  153.5365  138.7575  161.0656 N   0  0  0  0  0  0  0  0  0  0  0  0
  152.7482  138.0922  160.0943 C   0  0  0  0  0  0  0  0  0  0  0  0
  152.5488  136.8767  160.1320 O   0  0  0  0  0  0  0  0  0  0  0  0
  152.2011  138.9634  159.0612 C   0  0  0  0  0  0  0  0  0  0  0  0
  151.4899  138.4321  158.0523 F   0  0  0  0  0  0  0  0  0  0  0  0
  152.4114  140.2971  159.0898 C   0  0  0  0  0  0  0  0  0  0  0  0
  153.1238  140.9341  160.0936 N   0  0  0  0  0  0  0  0  0  0  0  0
  153.4126  142.4208  160.0432 C   0  0  2  0  0  0  0  0  0  0  0  0
  152.8465  143.2141  161.2340 C   0  0  0  0  0  0  0  0  0  0  0  0
  151.6561  143.9218  160.6163 C   0  0  0  0  0  0  0  0  0  0  0  0
  152.1255  144.1174  159.1801 C   0  0  0  0  0  0  0  0  0  0  0  0
  152.8311  142.9209  158.8763 O   0  0  0  0  0  0  0  0  0  0  0  0
  153.7560  140.1566  161.0913 C   0  0  0  0  0  0  0  0  0  0  0  0
  154.4594  140.6843  161.9562 O   0  0  0  0  0  0  0  0  0  0  0  0
  154.2196  135.0962  163.1769 C   0  0  0  0  0  0  0  0  0  0  0  0
  153.7651  135.9485  164.3297 C   0  0  0  0  0  0  0  0  0  0  0  0
  154.9080  129.7417  167.3203 H   0  0  0  0  0  0  0  0  0  0  0  0
  155.8277  131.2399  167.3571 H   0  0  0  0  0  0  0  0  0  0  0  0
  156.1101  130.0538  166.0721 H   0  0  0  0  0  0  0  0  0  0  0  0
  155.4229  132.8336  165.5349 H   0  0  0  0  0  0  0  0  0  0  0  0
  155.4536  131.6169  164.2930 H   0  0  0  0  0  0  0  0  0  0  0  0
  153.1575  133.4754  164.9943 H   0  0  0  0  0  0  0  0  0  0  0  0
  151.9902  131.4758  164.7036 H   0  0  0  0  0  0  0  0  0  0  0  0
  152.8593  131.0197  163.2620 H   0  0  0  0  0  0  0  0  0  0  0  0
  151.7652  132.4028  163.2297 H   0  0  0  0  0  0  0  0  0  0  0  0
  154.8352  131.6442  160.5274 H   0  0  0  0  0  0  0  0  0  0  0  0
  153.5838  131.3254  161.7221 H   0  0  0  0  0  0  0  0  0  0  0  0
  155.2920  131.2141  162.1720 H   0  0  0  0  0  0  0  0  0  0  0  0
  155.3670  134.2218  160.2080 H   0  0  0  0  0  0  0  0  0  0  0  0
  153.3359  137.5054  162.7099 H   0  0  0  0  0  0  0  0  0  0  0  0
  154.6590  138.6226  162.8040 H   0  0  0  0  0  0  0  0  0  0  0  0
  151.9990  140.8751  158.2786 H   0  0  0  0  0  0  0  0  0  0  0  0
  154.4986  142.5196  160.0098 H   0  0  0  0  0  0  0  0  0  0  0  0
  152.6164  142.5947  162.1006 H   0  0  0  0  0  0  0  0  0  0  0  0
  153.5945  143.9481  161.5368 H   0  0  0  0  0  0  0  0  0  0  0  0
  150.7720  143.2845  160.6383 H   0  0  0  0  0  0  0  0  0  0  0  0
  151.4118  144.8598  161.1152 H   0  0  0  0  0  0  0  0  0  0  0  0
  151.3026  144.2856  158.4854 H   0  0  0  0  0  0  0  0  0  0  0  0
  152.8108  144.9636  159.1120 H   0  0  0  0  0  0  0  0  0  0  0  0
  153.4183  136.9247  163.9950 H   0  0  0  0  0  0  0  0  0  0  0  0
  154.5772  136.1057  165.0396 H   0  0  0  0  0  0  0  0  0  0  0  0
  152.9219  135.5162  164.8600 H   0  0  0  0  0  0  0  0  0  0  0  0
  1  2  1  0  0  0  0
  1 30  1  0  0  0  0
  1 31  1  0  0  0  0
  1 32  1  0  0  0  0
  2  3  1  0  0  0  0
  3  4  1  0  0  0  0
  3 33  1  0  0  0  0
  3 34  1  0  0  0  0
  4  5  1  0  0  0  0
  4  6  1  0  0  0  0
  4 35  1  0  0  0  0
  5 36  1  0  0  0  0
  5 37  1  0  0  0  0
  5 38  1  0  0  0  0
  6 28  1  0  0  0  0
  6  7  1  0  0  0  0
  7  8  1  0  0  0  0
  7  9  2  0  0  0  0
  8 39  1  0  0  0  0
  8 40  1  0  0  0  0
  8 41  1  0  0  0  0
  9 10  1  0  0  0  0
  9 42  1  0  0  0  0
 10 11  1  0  0  0  0
 10 28  2  0  0  0  0
 11 12  2  0  0  0  0
 11 13  1  0  0  0  0
 13 14  1  0  0  0  0
 13 43  1  0  0  0  0
 13 44  1  0  0  0  0
 14 26  1  0  0  0  0
 14 15  1  0  0  0  0
 15 16  2  0  0  0  0
 15 17  1  0  0  0  0
 17 18  1  0  0  0  0
 17 19  2  0  0  0  0
 19 20  1  0  0  0  0
 19 45  1  0  0  0  0
 20 21  1  0  0  0  0
 20 26  1  0  0  0  0
 21 25  1  0  0  0  0
 21 22  1  0  0  0  0
 21 46  1  0  0  0  0
 22 23  1  0  0  0  0
 22 47  1  0  0  0  0
 22 48  1  0  0  0  0
 23 24  1  0  0  0  0
 23 49  1  0  0  0  0
 23 50  1  0  0  0  0
 24 25  1  0  0  0  0
 24 51  1  0  0  0  0
 24 52  1  0  0  0  0
 26 27  2  0  0  0  0
 28 29  1  0  0  0  0
 29 53  1  0  0  0  0
 29 54  1  0  0  0  0
 29 55  1  0  0  0  0
M  END
> <s_m_source_file>
AV-unprocessed.smi

> <i_m_source_file_index>
115

> <i_lp_mmshare_version>
43012

> <i_f3d_flags>
0

> <s_epik_input>
W0NIM11PW0NIMl1bQ0BIXShbQ0gzXSluMWMoW0NIM10pW2NIXWMoYzFbQ0gzXSlDKD1PKVtDSDJdbjJjKD1PKWMoRilbY0hdbihjMj1PKVtDQEBIXTNbQ0gyXVtDSDJdW0NIMl1PMw==

> <s_epik_cmdline>
J2VwaWtfcHl0aG9uJywgJy1waCcsICc3LjAnLCAnLXRuJywgJzgnLCAnLW1hJywgJzIwMCcsICctbWV0YWxfYmluZGluZycsICctaW1hZScsICc8aW5maWxlLm1hZT4nLCAnLW9tYWUnLCAnPG91dGZpbGUubWFlPic=

> <r_lp_tautomer_probability>
1

> <r_epik_Ionization_Penalty>
5.02611e-09

> <r_epik_Ionization_Penalty_Charging>
5.01743e-09

> <r_epik_Ionization_Penalty_Neutral>
8.68114e-12

> <r_epik_State_Penalty>
-0

> <r_epik_Charging_Adjusted_Penalty>
5.01743e-09

> <i_epik_Tot_Q>
0

> <i_epik_Tot_abs_Q>
0

> <r_epik_Metal_State_Penalty>
-0

> <b_epik_Metal_Only>
0

> <s_epik_Chemistry_Notes>
This compound contains an acetal/aminal-like group ( X-CH(R)-Y where X, Y are N, S, or O) that may be acid/base labile, releasing an aldehyde.

> <s_lp_Force_Field>
OPLS_2005

> <r_lp_Energy>
47.9533

> <b_lp_Chiralities_Consistent>
1

> <s_lp_Variant>
AV-unprocessed.smi:115-1

> <Gold.Version>
5.8.1

> <Gold.Id.Protein>
6NUR|6NUR_protein|mol2

> <Gold.PLP.Fitness>
51.9992

> <Gold.PLP.PLP>
-50.2959

> <Gold.PLP.part.hbond>
-1.5113

> <Gold.PLP.part.metal>
0.0000

> <Gold.PLP.part.buried>
-7.1176

> <Gold.PLP.part.nonpolar>
-42.0193

> <Gold.PLP.part.repulsive>
0.0000

> <Gold.PLP.ligand.clash>
0.0000

> <Gold.PLP.ligand.torsion>
0.9004

> <Gold.PLP.Chemscore.Hbond>
1.0000

> <Gold.PLP.Chemscore.CHOScore>
0.0000

> <Gold.PLP.Chemscore.Metal>
0.0000

> <Gold.Chemscore.Hbonds>
donor molecule, donor type, donor heavy atom, donor atom, acceptor molecule, acceptor atom, score
      P1  H  6896  6907       L1    16  1.00

> <Gold.PLP.Chemscore.Internal.Correction>
0.5040

> <Gold.Rescore>
     Score         DG    S(hbond)    S(metal)    S(lipo)     H(rot)  DE(clash)    DE(int)     intcor
     13.53     -16.09       1.00        0.00     110.24       2.19       0.35       2.20       ----

> <Gold.Chemscore.Fitness>
13.5305

> <Gold.Chemscore.DG>
-16.0859

> <Gold.Chemscore.ZeroCoef>
-5.4800

> <Gold.Chemscore.Hbond>
0.9952

> <Gold.Chemscore.Metal>
0.0000

> <Gold.Chemscore.Lipo>
110.2395

> <Gold.Chemscore.Internal_Hbond>
0.0000

> <Gold.Chemscore.DEClash>
0.3512

> <Gold.Chemscore.DEInternal>
2.2042

> <Gold.Chemscore.Rot>
2.1938

> <Gold.Chemscore.Internal.Correction>
   9.000000E+99

> <Gold.Chemscore.Hbonds>
donor molecule, donor type, donor heavy atom, donor atom, acceptor molecule, acceptor atom, score
      P1  H  6896  6907       L1    16  1.00

> <Gold.Chemscore.Hbond.Weighted>
-3.3239

> <Gold.Chemscore.Metal.Weighted>
-0.0000

> <Gold.Chemscore.Lipo.Weighted>
-12.8980

> <Gold.Chemscore.Internal_Hbond.Weighted>
0.0000

> <Gold.Chemscore.DEClash.Weighted>
0.3512

> <Gold.Chemscore.DEInternal.Weighted>
2.2042

> <Gold.Chemscore.Rot.Weighted>
5.6160

> <Gold.Chemscore.Internal.Correction.Weighted>
   9.000000E+99

> <Gold.Protein.RotatedTorsions>
[ 6907 6896 6895 6894 ] final   26.37 input  -60.11 | X-H torsion
[ 7974 7965 7964 7962 ] final -138.21 input  175.53 | X-H torsion
[ 8008 7997 7996 7995 ] final  123.77 input   59.86 | X-H torsion
[ 10167 10162 10161 10158 ] final  -86.59 input  -65.29 | X-H torsion
[ 10718 10713 10712 10709 ] final   88.62 input   66.30 | X-H torsion
[ 10763 10752 10751 10750 ] final  -50.17 input  -60.55 | X-H torsion
[ 11005 11000 10999 10996 ] final   37.97 input  -57.11 | X-H torsion

> <Gold.Protein.ActiveResidues>
 VAL166  LYS551  ARG553  GLY616  TRP617  ASP618  TYR619  PRO620  LYS621  CYS622 
 ASP623  PHE694  ASN695  SER759  ASP760  ASP761  ALA762  ILE779  LEU786  VAL792 
 PHE793  MET794  SER795  GLU796  ALA797  LYS798  CYS799  TRP800  GLU811  SER814 

> <Gold.Protein.RotatedAtoms>
  151.9865  135.0001  160.0559 H   0  0  0  0  0  0  0  0  0  0  0  0  # atno 6907 bound_to 6896
  152.1648  133.4600  159.4887 H   0  0  0  0  0  0  0  0  0  0  0  0  # atno 6908 bound_to 6896
  150.6893  134.1944  159.4341 H   0  0  0  0  0  0  0  0  0  0  0  0  # atno 6909 bound_to 6896
  144.8777  140.6462  143.5226 H   0  0  0  0  0  0  0  0  0  0  0  0  # atno 7974 bound_to 7965
  156.2778  140.2755  156.1680 H   0  0  0  0  0  0  0  0  0  0  0  0  # atno 8008 bound_to 7997
  155.0684  140.0387  157.2618 H   0  0  0  0  0  0  0  0  0  0  0  0  # atno 8009 bound_to 7997
  154.7060  140.2659  155.6679 H   0  0  0  0  0  0  0  0  0  0  0  0  # atno 8010 bound_to 7997
  140.3927  143.2697  151.9244 H   0  0  0  0  0  0  0  0  0  0  0  0  # atno 10167 bound_to 10162
  157.6950  131.0301  150.3302 H   0  0  0  0  0  0  0  0  0  0  0  0  # atno 10718 bound_to 10713
  154.1060  135.6556  153.4876 H   0  0  0  0  0  0  0  0  0  0  0  0  # atno 10763 bound_to 10752
  153.0272  135.5236  154.7239 H   0  0  0  0  0  0  0  0  0  0  0  0  # atno 10764 bound_to 10752
  154.6405  135.2988  155.0078 H   0  0  0  0  0  0  0  0  0  0  0  0  # atno 10765 bound_to 10752
  140.2172  134.3684  155.8021 H   0  0  0  0  0  0  0  0  0  0  0  0  # atno 11005 bound_to 11000
  145.4011  139.1597  143.4177 LP  0  0  0  0  0  0  0  0  0  0  0  0  # atno 17320 bound_to 7965
  146.2974  140.4108  142.8716 LP  0  0  0  0  0  0  0  0  0  0  0  0  # atno 17321 bound_to 7965
  139.4788  144.5712  151.8086 LP  0  0  0  0  0  0  0  0  0  0  0  0  # atno 17342 bound_to 10162
  140.4823  144.1432  150.5935 LP  0  0  0  0  0  0  0  0  0  0  0  0  # atno 17343 bound_to 10162
  156.3777  130.3875  149.7126 LP  0  0  0  0  0  0  0  0  0  0  0  0  # atno 17370 bound_to 10713
  156.4519  130.7911  151.2932 LP  0  0  0  0  0  0  0  0  0  0  0  0  # atno 17371 bound_to 10713
  141.2224  133.7174  156.8516 LP  0  0  0  0  0  0  0  0  0  0  0  0  # atno 17394 bound_to 11000
  140.1888  134.8981  157.3036 LP  0  0  0  0  0  0  0  0  0  0  0  0  # atno 17395 bound_to 11000

$$$$
