#       Name:                AV-unprocessed.smi:2829
#       Creating user name   scv26
#       Creation time:       Fri Mar 27 15:34:58 2020


#       File generated by GOLD software.
#

@<TRIPOS>MOLECULE
AV-unprocessed.smi:2829
    56    59     1
SMALL
NO_CHARGES


@<TRIPOS>ATOM
      1 ****        -6.1341   0.5945  -1.3667 C.3            1 S1                 0.0000
      2 ****        -5.6669   0.3951   0.0902 C.3            1 S1                 0.0000
      3 ****        -6.1485   1.5741   0.9616 C.3            1 S1                 0.0000
      4 ****        -6.3473  -0.8854   0.6251 C.3            1 S1                 0.0000
      5 ****        -4.1307   0.3084   0.1364 C.ar           1 S1                 0.0000
      6 ****        -3.4335  -0.8245   0.6139 C.ar           1 S1                 0.0000
      7 ****        -2.0291  -0.7797   0.6062 C.ar           1 S1                 0.0000
      8 ****        -1.3963   0.3847   0.1270 C.ar           1 S1                 0.0000
      9 ****         0.0224   0.3597   0.1511 N.am           1 S1                 0.0000
     10 ****         0.8803   1.3214  -0.2439 C.2            1 S1                 0.0000
     11 ****         0.5487   2.4097  -0.7101 O.2            1 S1                 0.0000
     12 ****         2.1756   0.9882  -0.1062 N.am           1 S1                 0.0000
     13 ****         3.3462   1.8024  -0.4404 C.3            1 S1                 0.0000
     14 ****         3.7772   2.7809   0.6778 C.3            1 S1                 0.0000
     15 ****         3.2260   2.7211   2.0796 C.3            1 S1                 0.0000
     16 ****         4.0412   1.6011   2.7180 C.3            1 S1                 0.0000
     17 ****         5.3056   1.6535   2.0575 O.3            1 S1                 0.0000
     18 ****         5.1452   2.1030   0.7093 C.3            1 S1                 0.0000
     19 ****         4.6724   1.0371  -0.2962 C.3            1 S1                 0.0000
     20 ****         4.7630  -0.4705   0.0209 C.3            1 S1                 0.0000
     21 ****         6.0260  -0.5246  -0.8412 C.3            1 S1                 0.0000
     22 ****         5.5330   0.7467  -1.5362 C.3            1 S1                 0.0000
     23 ****        -2.1289   1.4361  -0.3180 N.ar           1 S1                 0.0000
     24 ****        -3.4646   1.3995  -0.3143 N.ar           1 S1                 0.0000
     25 ****        -7.2217   0.6371  -1.4329 H              1 S1                 0.0000
     26 ****        -5.7976  -0.2235  -2.0051 H              1 S1                 0.0000
     27 ****        -5.7505   1.5224  -1.7928 H              1 S1                 0.0000
     28 ****        -5.7637   2.5289   0.6012 H              1 S1                 0.0000
     29 ****        -5.8242   1.4588   1.9966 H              1 S1                 0.0000
     30 ****        -7.2366   1.6479   0.9644 H              1 S1                 0.0000
     31 ****        -7.4340  -0.8016   0.5854 H              1 S1                 0.0000
     32 ****        -6.0813  -1.0790   1.6649 H              1 S1                 0.0000
     33 ****        -6.0745  -1.7625   0.0368 H              1 S1                 0.0000
     34 ****        -3.9330  -1.7082   0.9793 H              1 S1                 0.0000
     35 ****        -1.4544  -1.6225   0.9619 H              1 S1                 0.0000
     36 ****         0.4370  -0.4885   0.5078 H              1 S1                 0.0000
     37 ****         2.3700   0.0577   0.2352 H              1 S1                 0.0000
     38 ****         3.2826   2.2945  -1.4128 H              1 S1                 0.0000
     39 ****         3.8363   3.7977   0.2874 H              1 S1                 0.0000
     40 ****         3.4210   3.6606   2.5978 H              1 S1                 0.0000
     41 ****         2.1529   2.5381   2.1275 H              1 S1                 0.0000
     42 ****         4.1462   1.7182   3.7966 H              1 S1                 0.0000
     43 ****         3.5730   0.6347   2.5277 H              1 S1                 0.0000
     44 ****         5.9633   2.7287   0.3508 H              1 S1                 0.0000
     45 ****         4.9246  -0.7277   1.0674 H              1 S1                 0.0000
     46 ****         3.9490  -1.0543  -0.4118 H              1 S1                 0.0000
     47 ****         6.9378  -0.3640  -0.2635 H              1 S1                 0.0000
     48 ****         6.1026  -1.3998  -1.4871 H              1 S1                 0.0000
     49 ****         4.9348   0.5336  -2.4238 H              1 S1                 0.0000
     50 ****         6.3097   1.4831  -1.7442 H              1 S1                 0.0000
     51 ****        -0.4200   2.6327  -0.8190 LP             1 S1                 0.0000
     52 ****         1.2477   3.0717  -0.9804 LP             1 S1                 0.0000
     53 ****         5.7137   0.7405   2.0541 LP             1 S1                 0.0000
     54 ****         5.9068   2.2856   2.5463 LP             1 S1                 0.0000
     55 ****        -1.6609   2.2531  -0.6548 LP             1 S1                 0.0000
     56 ****        -3.9801   2.1883  -0.6488 LP             1 S1                 0.0000
@<TRIPOS>BOND
    1    1    2 1     
    2    1   25 1     
    3    1   26 1     
    4    1   27 1     
    5    2    3 1     
    6    2    4 1     
    7    2    5 1     
    8    3   28 1     
    9    3   29 1     
   10    3   30 1     
   11    4   31 1     
   12    4   32 1     
   13    4   33 1     
   14    5   24 ar    
   15    5    6 ar    
   16    6    7 ar    
   17    6   34 1     
   18    7    8 ar    
   19    7   35 1     
   20    8    9 1     
   21    8   23 ar    
   22    9   10 am    
   23    9   36 1     
   24   10   11 2     
   25   10   12 am    
   26   12   13 1     
   27   12   37 1     
   28   13   19 1     
   29   13   14 1     
   30   13   38 1     
   31   14   18 1     
   32   14   15 1     
   33   14   39 1     
   34   15   16 1     
   35   15   40 1     
   36   15   41 1     
   37   16   17 1     
   38   16   42 1     
   39   16   43 1     
   40   17   18 1     
   41   18   19 1     
   42   18   44 1     
   43   19   22 1     
   44   19   20 1     
   45   20   21 1     
   46   20   45 1     
   47   20   46 1     
   48   21   22 1     
   49   21   47 1     
   50   21   48 1     
   51   22   49 1     
   52   22   50 1     
   53   23   24 ar    
   54   11   51 1     
   55   11   52 1     
   56   17   53 1     
   57   17   54 1     
   58   23   55 1     
   59   24   56 1     
@<TRIPOS>SUBSTRUCTURE
      1 S1             1
@<TRIPOS>SET
LONE_PAIRS      STATIC     ATOMS    <user>   **** ""
6 51 52 53 54 55 56
DONOR_HYDROGENS      STATIC     ATOMS    <user>   **** ""
2 36 37
ATOM$BLUE        STATIC     ATOMS    COLORGROUP SYSTEM
6 51 52 53 54 55 56
ATOM$RED        STATIC     ATOMS    COLORGROUP SYSTEM
2 36 37
