AV-unprocessed.smi:2119|AV-procd|sdf|8637|dock5
  -GOLD-   2272011383D 1   1.00000     0.00000
 Structure written by MMmdl.
 48 50  0  0  0  0  0  0  0  0  2 V2000
  148.2331  133.1721  155.2853 O   0  0  0  0  0  0  0  0  0  0  0  0
  148.3696  133.8897  154.2952 C   0  0  0  0  0  0  0  0  0  0  0  0
  149.1149  135.0041  154.2918 N   0  0  0  0  0  0  0  0  0  0  0  0
  149.8944  135.4868  155.4273 C   0  0  0  0  0  0  0  0  0  0  0  0
  149.2317  136.6617  156.2020 C   0  0  1  0  0  0  0  0  0  0  0  0
  149.2679  136.4177  157.7299 C   0  0  1  0  0  0  0  0  0  0  0  0
  148.6640  137.5380  158.5593 C   0  0  0  0  0  0  0  0  0  0  0  0
  148.4101  136.8460  159.8932 C   0  0  0  0  0  0  0  0  0  0  0  0
  148.0840  135.5005  159.5660 O   0  0  0  0  0  0  0  0  0  0  0  0
  148.4240  135.2310  158.2093 C   0  0  0  0  0  0  0  0  0  0  0  0
  149.8041  138.0093  155.8961 N   0  3  0  0  0  0  0  0  0  0  0  0
  151.2367  138.2070  156.2292 C   0  0  0  0  0  0  0  0  0  0  0  0
  151.6072  139.6921  156.0790 C   0  0  0  0  0  0  0  0  0  0  0  0
  151.3093  140.1259  154.7568 O   0  0  0  0  0  0  0  0  0  0  0  0
  149.9236  140.0123  154.4525 C   0  0  0  0  0  0  0  0  0  0  0  0
  149.4922  138.5393  154.5464 C   0  0  0  0  0  0  0  0  0  0  0  0
  147.7846  133.6907  153.1018 N   0  0  0  0  0  0  0  0  0  0  0  0
  146.9572  132.6099  152.6933 C   0  0  0  0  0  0  0  0  0  0  0  0
  146.2621  132.7333  151.4725 C   0  0  0  0  0  0  0  0  0  0  0  0
  145.4517  131.6695  151.0329 C   0  0  0  0  0  0  0  0  0  0  0  0
  145.3749  130.5122  151.8315 C   0  0  0  0  0  0  0  0  0  0  0  0
  146.0443  130.3707  152.9946 N   0  0  0  0  0  0  0  0  0  0  0  0
  146.8186  131.3957  153.4114 C   0  0  0  0  0  0  0  0  0  0  0  0
  149.1697  135.5392  153.4372 H   0  0  0  0  0  0  0  0  0  0  0  0
  150.0682  134.6443  156.0981 H   0  0  0  0  0  0  0  0  0  0  0  0
  150.8814  135.7750  155.0652 H   0  0  0  0  0  0  0  0  0  0  0  0
  148.1770  136.6893  155.9245 H   0  0  0  0  0  0  0  0  0  0  0  0
  150.2964  136.2609  158.0582 H   0  0  0  0  0  0  0  0  0  0  0  0
  149.3194  138.4040  158.6568 H   0  0  0  0  0  0  0  0  0  0  0  0
  147.7194  137.8709  158.1260 H   0  0  0  0  0  0  0  0  0  0  0  0
  149.3160  136.8459  160.5006 H   0  0  0  0  0  0  0  0  0  0  0  0
  147.6152  137.3221  160.4676 H   0  0  0  0  0  0  0  0  0  0  0  0
  147.4988  135.1546  157.6363 H   0  0  0  0  0  0  0  0  0  0  0  0
  148.9528  134.2815  158.1217 H   0  0  0  0  0  0  0  0  0  0  0  0
  151.4366  137.8802  157.2496 H   0  0  0  0  0  0  0  0  0  0  0  0
  151.8650  137.6095  155.5678 H   0  0  0  0  0  0  0  0  0  0  0  0
  151.0702  140.3037  156.8059 H   0  0  0  0  0  0  0  0  0  0  0  0
  152.6714  139.8350  156.2670 H   0  0  0  0  0  0  0  0  0  0  0  0
  149.3380  140.6339  155.1319 H   0  0  0  0  0  0  0  0  0  0  0  0
  149.7501  140.3911  153.4451 H   0  0  0  0  0  0  0  0  0  0  0  0
  150.0076  137.9632  153.7793 H   0  0  0  0  0  0  0  0  0  0  0  0
  148.4228  138.4586  154.3480 H   0  0  0  0  0  0  0  0  0  0  0  0
  147.9193  134.4153  152.4121 H   0  0  0  0  0  0  0  0  0  0  0  0
  146.3441  133.6324  150.8791 H   0  0  0  0  0  0  0  0  0  0  0  0
  144.9032  131.7380  150.1049 H   0  0  0  0  0  0  0  0  0  0  0  0
  144.7640  129.6761  151.5249 H   0  0  0  0  0  0  0  0  0  0  0  0
  147.3488  131.2117  154.3326 H   0  0  0  0  0  0  0  0  0  0  0  0
  149.3028  138.6274  156.5179 H   0  0  0  0  0  0  0  0  0  0  0  0
  1  2  2  0  0  0  0
  2  3  1  0  0  0  0
  2 17  1  0  0  0  0
  3  4  1  0  0  0  0
  3 24  1  0  0  0  0
  4  5  1  0  0  0  0
  4 25  1  0  0  0  0
  4 26  1  0  0  0  0
  5  6  1  0  0  0  0
  5 11  1  0  0  0  0
  5 27  1  0  0  0  0
  6 10  1  0  0  0  0
  6  7  1  0  0  0  0
  6 28  1  0  0  0  0
  7  8  1  0  0  0  0
  7 29  1  0  0  0  0
  7 30  1  0  0  0  0
  8  9  1  0  0  0  0
  8 31  1  0  0  0  0
  8 32  1  0  0  0  0
  9 10  1  0  0  0  0
 10 33  1  0  0  0  0
 10 34  1  0  0  0  0
 11 16  1  0  0  0  0
 11 12  1  0  0  0  0
 11 48  1  0  0  0  0
 12 13  1  0  0  0  0
 12 35  1  0  0  0  0
 12 36  1  0  0  0  0
 13 14  1  0  0  0  0
 13 37  1  0  0  0  0
 13 38  1  0  0  0  0
 14 15  1  0  0  0  0
 15 16  1  0  0  0  0
 15 39  1  0  0  0  0
 15 40  1  0  0  0  0
 16 41  1  0  0  0  0
 16 42  1  0  0  0  0
 17 18  1  0  0  0  0
 17 43  1  0  0  0  0
 18 23  1  0  0  0  0
 18 19  2  0  0  0  0
 19 20  1  0  0  0  0
 19 44  1  0  0  0  0
 20 21  2  0  0  0  0
 20 45  1  0  0  0  0
 21 22  1  0  0  0  0
 21 46  1  0  0  0  0
 22 23  2  0  0  0  0
 23 47  1  0  0  0  0
M  CHG  1  11   1
M  END
> <s_m_source_file>
AV-unprocessed.smi

> <i_m_source_file_index>
2119

> <i_lp_mmshare_version>
43012

> <i_f3d_flags>
0

> <s_epik_input>
W2NIXTFuW2NIXVtjSF1bY0hdYzFbTkhdQyg9TylbTkhdW0NIMl1bQ0BIXShbQ0BASF0yW0NIMl1bQ0gyXU9bQ0gyXTIpTjNbQ0gyXVtDSDJdT1tDSDJdW0NIMl0z

> <s_epik_cmdline>
J2VwaWtfcHl0aG9uJywgJy1waCcsICc3LjAnLCAnLXRuJywgJzgnLCAnLW1hJywgJzIwMCcsICctbWV0YWxfYmluZGluZycsICctaW1hZScsICc8aW5maWxlLm1hZT4nLCAnLW9tYWUnLCAnPG91dGZpbGUubWFlPic=

> <r_epik_Ionization_Penalty>
0.987463

> <r_epik_Ionization_Penalty_Charging>
0.98326

> <r_epik_Ionization_Penalty_Neutral>
0.00420251

> <r_epik_State_Penalty>
1.01721

> <r_epik_Charging_Adjusted_Penalty>
2.00047

> <i_epik_Tot_Q>
1

> <i_epik_Tot_abs_Q>
1

> <r_epik_Metal_State_Penalty>
1.01439

> <b_epik_Metal_Only>
0

> <s_lp_Force_Field>
OPLS_2005

> <r_lp_Energy>
47.2413

> <b_lp_Chiralities_Consistent>
1

> <s_lp_Variant>
AV-unprocessed.smi:2119-8

> <Gold.Version>
5.8.1

> <Gold.Id.Protein>
6NUR|6NUR_protein|mol2

> <Gold.PLP.Fitness>
39.8280

> <Gold.PLP.PLP>
-32.7724

> <Gold.PLP.part.hbond>
-3.7896

> <Gold.PLP.part.metal>
0.0000

> <Gold.PLP.part.buried>
-3.8273

> <Gold.PLP.part.nonpolar>
-25.5727

> <Gold.PLP.part.repulsive>
0.2760

> <Gold.PLP.ligand.clash>
0.0000

> <Gold.PLP.ligand.torsion>
0.9625

> <Gold.PLP.Chemscore.Hbond>
2.9280

> <Gold.PLP.Chemscore.CHOScore>
0.0000

> <Gold.PLP.Chemscore.Metal>
0.0000

> <Gold.Chemscore.Hbonds>
donor molecule, donor type, donor heavy atom, donor atom, acceptor molecule, acceptor atom, score
      L1  H     3    24       P1  7948  1.00
      L1  H    17    43       P1  7948  0.76
      P1  H  7989  7998       L1    14  0.68

> <Gold.PLP.Chemscore.Internal.Correction>
0.1965

> <Gold.Rescore>
     Score         DG    S(hbond)    S(metal)    S(lipo)     H(rot)  DE(clash)    DE(int)     intcor
     15.91     -18.07       2.39        0.00      76.59       1.70       0.06       2.10       ----

> <Gold.Chemscore.Fitness>
15.9097

> <Gold.Chemscore.DG>
-18.0693

> <Gold.Chemscore.ZeroCoef>
-5.4800

> <Gold.Chemscore.Hbond>
2.3908

> <Gold.Chemscore.Metal>
0.0000

> <Gold.Chemscore.Lipo>
76.5935

> <Gold.Chemscore.Internal_Hbond>
0.0000

> <Gold.Chemscore.DEClash>
0.0597

> <Gold.Chemscore.DEInternal>
2.0999

> <Gold.Chemscore.Rot>
1.7021

> <Gold.Chemscore.Internal.Correction>
   9.000000E+99

> <Gold.Chemscore.Hbonds>
donor molecule, donor type, donor heavy atom, donor atom, acceptor molecule, acceptor atom, score
      L1  H     3    24       P1  7948  0.50
      L1  H    17    43       P1  7948  0.29
      P1  H  7989  7998       L1    14  0.08

> <Gold.Chemscore.Hbond.Weighted>
-7.9854

> <Gold.Chemscore.Metal.Weighted>
-0.0000

> <Gold.Chemscore.Lipo.Weighted>
-8.9614

> <Gold.Chemscore.Internal_Hbond.Weighted>
0.0000

> <Gold.Chemscore.DEClash.Weighted>
0.0597

> <Gold.Chemscore.DEInternal.Weighted>
2.0999

> <Gold.Chemscore.Rot.Weighted>
4.3575

> <Gold.Chemscore.Internal.Correction.Weighted>
   9.000000E+99

> <Gold.Protein.RotatedTorsions>
[ 6907 6896 6895 6894 ] final  -87.48 input  -60.11 | X-H torsion
[ 7974 7965 7964 7962 ] final -113.13 input  175.53 | X-H torsion
[ 8008 7997 7996 7995 ] final -146.79 input   59.86 | X-H torsion
[ 10167 10162 10161 10158 ] final -176.51 input  -65.29 | X-H torsion
[ 10718 10713 10712 10709 ] final -120.99 input   66.30 | X-H torsion
[ 10763 10752 10751 10750 ] final  -68.68 input  -60.55 | X-H torsion
[ 11005 11000 10999 10996 ] final -140.94 input  -57.11 | X-H torsion

> <Gold.Protein.ActiveResidues>
 VAL166  LYS551  ARG553  GLY616  TRP617  ASP618  TYR619  PRO620  LYS621  CYS622 
 ASP623  PHE694  ASN695  SER759  ASP760  ASP761  ALA762  ILE779  LEU786  VAL792 
 PHE793  MET794  SER795  GLU796  ALA797  LYS798  CYS799  TRP800  GLU811  SER814 

> <Gold.Protein.RotatedAtoms>
  150.6866  134.2889  159.4658 H   0  0  0  0  0  0  0  0  0  0  0  0  # atno 6907 bound_to 6896
  152.0796  134.9477  160.0583 H   0  0  0  0  0  0  0  0  0  0  0  0  # atno 6908 bound_to 6896
  152.0835  133.4130  159.4549 H   0  0  0  0  0  0  0  0  0  0  0  0  # atno 6909 bound_to 6896
  145.1357  140.8750  143.3731 H   0  0  0  0  0  0  0  0  0  0  0  0  # atno 7974 bound_to 7965
  155.5652  140.0629  157.2819 H   0  0  0  0  0  0  0  0  0  0  0  0  # atno 8008 bound_to 7997
  154.4378  140.1879  156.0868 H   0  0  0  0  0  0  0  0  0  0  0  0  # atno 8009 bound_to 7997
  156.0418  140.3295  155.7255 H   0  0  0  0  0  0  0  0  0  0  0  0  # atno 8010 bound_to 7997
  139.5526  144.2070  152.1104 H   0  0  0  0  0  0  0  0  0  0  0  0  # atno 10167 bound_to 10162
  156.1302  130.6389  150.9608 H   0  0  0  0  0  0  0  0  0  0  0  0  # atno 10718 bound_to 10713
  154.3925  135.6049  153.5851 H   0  0  0  0  0  0  0  0  0  0  0  0  # atno 10763 bound_to 10752
  152.9787  135.5887  154.4281 H   0  0  0  0  0  0  0  0  0  0  0  0  # atno 10764 bound_to 10752
  154.4067  135.2843  155.2041 H   0  0  0  0  0  0  0  0  0  0  0  0  # atno 10765 bound_to 10752
  140.8374  134.2444  157.4827 H   0  0  0  0  0  0  0  0  0  0  0  0  # atno 11005 bound_to 11000
  145.0586  139.3123  143.5892 LP  0  0  0  0  0  0  0  0  0  0  0  0  # atno 17320 bound_to 7965
  146.3510  140.0020  142.8675 LP  0  0  0  0  0  0  0  0  0  0  0  0  # atno 17321 bound_to 7965
  140.1569  144.5063  150.6655 LP  0  0  0  0  0  0  0  0  0  0  0  0  # atno 17342 bound_to 10162
  140.6792  143.2319  151.5428 LP  0  0  0  0  0  0  0  0  0  0  0  0  # atno 17343 bound_to 10162
  157.6480  131.0901  150.8111 LP  0  0  0  0  0  0  0  0  0  0  0  0  # atno 17370 bound_to 10713
  156.8197  130.4980  149.5345 LP  0  0  0  0  0  0  0  0  0  0  0  0  # atno 17371 bound_to 10713
  139.8704  134.9617  156.4407 LP  0  0  0  0  0  0  0  0  0  0  0  0  # atno 17394 bound_to 11000
  140.8933  133.7832  155.9596 LP  0  0  0  0  0  0  0  0  0  0  0  0  # atno 17395 bound_to 11000

$$$$
