AV-unprocessed.smi:2225|AV-procd|sdf|9000|dock3
  -GOLD-   2272012213D 1   1.00000     0.00000
 Structure written by MMmdl.
 33 34  0  0  0  0  0  0  0  0  1 V2000
  149.7516  140.7935  158.6410 O   0  0  0  0  0  0  0  0  0  0  0  0
  150.7441  141.0366  157.9558 C   0  0  0  0  0  0  0  0  0  0  0  0
  151.6308  142.2378  158.3277 C   0  0  0  0  0  0  0  0  0  0  0  0
  152.3494  142.1097  159.6093 N   0  0  0  0  0  0  0  0  0  0  0  0
  152.0760  143.0822  160.5877 C   0  0  0  0  0  0  0  0  0  0  0  0
  152.6704  143.0623  161.7880 C   0  0  0  0  0  0  0  0  0  0  0  0
  153.6160  142.0083  162.0633 C   0  0  0  0  0  0  0  0  0  0  0  0
  153.8965  141.0560  161.1437 C   0  0  0  0  0  0  0  0  0  0  0  0
  154.8920  139.9318  161.4206 C   0  0  0  0  0  0  0  0  0  0  0  0
  154.2768  138.7484  161.4219 F   0  0  0  0  0  0  0  0  0  0  0  0
  155.8411  139.9073  160.4843 F   0  0  0  0  0  0  0  0  0  0  0  0
  155.4896  140.0802  162.6039 F   0  0  0  0  0  0  0  0  0  0  0  0
  153.2273  141.0817  159.8270 C   0  0  0  0  0  0  0  0  0  0  0  0
  153.4365  140.2278  158.9640 O   0  0  0  0  0  0  0  0  0  0  0  0
  151.0928  140.2896  156.8946 N   0  0  0  0  0  0  0  0  0  0  0  0
  150.3700  139.1147  156.4203 C   0  0  1  0  0  0  0  0  0  0  0  0
  149.9808  139.2488  154.9497 C   0  0  0  0  0  0  0  0  0  0  0  0
  150.7416  138.1199  154.2578 C   0  0  0  0  0  0  0  0  0  0  0  0
  150.8886  137.1475  155.2779 O   0  0  0  0  0  0  0  0  0  0  0  0
  151.2408  137.8509  156.4579 C   0  0  0  0  0  0  0  0  0  0  0  0
  152.3333  142.4143  157.5114 H   0  0  0  0  0  0  0  0  0  0  0  0
  150.9984  143.1268  158.3445 H   0  0  0  0  0  0  0  0  0  0  0  0
  151.3524  143.8324  160.3031 H   0  0  0  0  0  0  0  0  0  0  0  0
  152.4460  143.8140  162.5304 H   0  0  0  0  0  0  0  0  0  0  0  0
  154.1015  141.9946  163.0277 H   0  0  0  0  0  0  0  0  0  0  0  0
  151.9228  140.5508  156.3828 H   0  0  0  0  0  0  0  0  0  0  0  0
  149.4652  138.9662  157.0127 H   0  0  0  0  0  0  0  0  0  0  0  0
  148.9071  139.0922  154.8404 H   0  0  0  0  0  0  0  0  0  0  0  0
  150.2167  140.2226  154.5179 H   0  0  0  0  0  0  0  0  0  0  0  0
  150.2113  137.7213  153.3927 H   0  0  0  0  0  0  0  0  0  0  0  0
  151.7267  138.4581  153.9322 H   0  0  0  0  0  0  0  0  0  0  0  0
  152.3041  138.0948  156.4166 H   0  0  0  0  0  0  0  0  0  0  0  0
  151.0664  137.2487  157.3497 H   0  0  0  0  0  0  0  0  0  0  0  0
  1  2  2  0  0  0  0
  2  3  1  0  0  0  0
  2 15  1  0  0  0  0
  3  4  1  0  0  0  0
  3 21  1  0  0  0  0
  3 22  1  0  0  0  0
  4 13  1  0  0  0  0
  4  5  1  0  0  0  0
  5  6  2  0  0  0  0
  5 23  1  0  0  0  0
  6  7  1  0  0  0  0
  6 24  1  0  0  0  0
  7  8  2  0  0  0  0
  7 25  1  0  0  0  0
  8  9  1  0  0  0  0
  8 13  1  0  0  0  0
  9 10  1  0  0  0  0
  9 11  1  0  0  0  0
  9 12  1  0  0  0  0
 13 14  2  0  0  0  0
 15 16  1  0  0  0  0
 15 26  1  0  0  0  0
 16 20  1  0  0  0  0
 16 17  1  0  0  0  0
 16 27  1  0  0  0  0
 17 18  1  0  0  0  0
 17 28  1  0  0  0  0
 17 29  1  0  0  0  0
 18 19  1  0  0  0  0
 18 30  1  0  0  0  0
 18 31  1  0  0  0  0
 19 20  1  0  0  0  0
 20 32  1  0  0  0  0
 20 33  1  0  0  0  0
M  END
> <s_m_source_file>
AV-unprocessed.smi

> <i_m_source_file_index>
2225

> <i_lp_mmshare_version>
43012

> <i_f3d_flags>
0

> <s_epik_input>
W0NIMl0xT1tDSDJdW0NIMl1bQ0BIXTFbTkhdQyg9TylbQ0gyXW4yW2NIXVtjSF1bY0hdYyhDKEYpKEYpRiljMj1P

> <s_epik_cmdline>
J2VwaWtfcHl0aG9uJywgJy1waCcsICc3LjAnLCAnLXRuJywgJzgnLCAnLW1hJywgJzIwMCcsICctbWV0YWxfYmluZGluZycsICctaW1hZScsICc8aW5maWxlLm1hZT4nLCAnLW9tYWUnLCAnPG91dGZpbGUubWFlPic=

> <r_lp_tautomer_probability>
1

> <r_epik_Ionization_Penalty>
3.32109e-08

> <r_epik_Ionization_Penalty_Charging>
1.91399e-09

> <r_epik_Ionization_Penalty_Neutral>
3.1297e-08

> <r_epik_State_Penalty>
-0

> <r_epik_Charging_Adjusted_Penalty>
1.91399e-09

> <i_epik_Tot_Q>
0

> <i_epik_Tot_abs_Q>
0

> <r_epik_Metal_State_Penalty>
-0

> <b_epik_Metal_Only>
0

> <s_lp_Force_Field>
OPLS_2005

> <r_lp_Energy>
24.9921

> <b_lp_Chiralities_Consistent>
1

> <s_lp_Variant>
AV-unprocessed.smi:2225-2

> <Gold.Version>
5.8.1

> <Gold.Id.Protein>
6NUR|6NUR_protein|mol2

> <Gold.PLP.Fitness>
47.3453

> <Gold.PLP.PLP>
-42.2399

> <Gold.PLP.part.hbond>
-2.0000

> <Gold.PLP.part.metal>
0.0000

> <Gold.PLP.part.buried>
-3.9821

> <Gold.PLP.part.nonpolar>
-34.6133

> <Gold.PLP.part.repulsive>
0.2131

> <Gold.PLP.ligand.clash>
0.2776

> <Gold.PLP.ligand.torsion>
0.1207

> <Gold.PLP.Chemscore.Hbond>
1.7540

> <Gold.PLP.Chemscore.CHOScore>
0.0000

> <Gold.PLP.Chemscore.Metal>
0.0000

> <Gold.Chemscore.Hbonds>
donor molecule, donor type, donor heavy atom, donor atom, acceptor molecule, acceptor atom, score
      P1  H  7997  8009       L1    14  0.40

> <Gold.PLP.Chemscore.Internal.Correction>
0.3625

> <Gold.Rescore>
     Score         DG    S(hbond)    S(metal)    S(lipo)     H(rot)  DE(clash)    DE(int)     intcor
     13.90     -17.13       1.65        0.00      88.23       1.64       0.47       2.76       ----

> <Gold.Chemscore.Fitness>
13.8975

> <Gold.Chemscore.DG>
-17.1330

> <Gold.Chemscore.ZeroCoef>
-5.4800

> <Gold.Chemscore.Hbond>
1.6545

> <Gold.Chemscore.Metal>
0.0000

> <Gold.Chemscore.Lipo>
88.2268

> <Gold.Chemscore.Internal_Hbond>
0.0000

> <Gold.Chemscore.DEClash>
0.4720

> <Gold.Chemscore.DEInternal>
2.7635

> <Gold.Chemscore.Rot>
1.6389

> <Gold.Chemscore.Internal.Correction>
   9.000000E+99

> <Gold.Chemscore.Hbonds>
donor molecule, donor type, donor heavy atom, donor atom, acceptor molecule, acceptor atom, score
      P1  H  7997  8009       L1    14  0.39

> <Gold.Chemscore.Hbond.Weighted>
-5.5260

> <Gold.Chemscore.Metal.Weighted>
-0.0000

> <Gold.Chemscore.Lipo.Weighted>
-10.3225

> <Gold.Chemscore.Internal_Hbond.Weighted>
0.0000

> <Gold.Chemscore.DEClash.Weighted>
0.4720

> <Gold.Chemscore.DEInternal.Weighted>
2.7635

> <Gold.Chemscore.Rot.Weighted>
4.1956

> <Gold.Chemscore.Internal.Correction.Weighted>
   9.000000E+99

> <Gold.Protein.RotatedTorsions>
[ 6907 6896 6895 6894 ] final  -22.52 input  -60.11 | X-H torsion
[ 7974 7965 7964 7962 ] final -156.86 input  175.53 | X-H torsion
[ 8008 7997 7996 7995 ] final  132.32 input   59.86 | X-H torsion
[ 10167 10162 10161 10158 ] final  105.65 input  -65.29 | X-H torsion
[ 10718 10713 10712 10709 ] final  -63.11 input   66.30 | X-H torsion
[ 10763 10752 10751 10750 ] final -177.73 input  -60.55 | X-H torsion
[ 11005 11000 10999 10996 ] final   10.86 input  -57.11 | X-H torsion

> <Gold.Protein.ActiveResidues>
 VAL166  LYS551  ARG553  GLY616  TRP617  ASP618  TYR619  PRO620  LYS621  CYS622 
 ASP623  PHE694  ASN695  SER759  ASP760  ASP761  ALA762  ILE779  LEU786  VAL792 
 PHE793  MET794  SER795  GLU796  ALA797  LYS798  CYS799  TRP800  GLU811  SER814 

> <Gold.Protein.RotatedAtoms>
  151.2174  135.0505  159.8935 H   0  0  0  0  0  0  0  0  0  0  0  0  # atno 6907 bound_to 6896
  152.5419  134.0678  159.8191 H   0  0  0  0  0  0  0  0  0  0  0  0  # atno 6908 bound_to 6896
  151.0839  133.5320  159.2650 H   0  0  0  0  0  0  0  0  0  0  0  0  # atno 6909 bound_to 6896
  144.7574  140.4050  143.6002 H   0  0  0  0  0  0  0  0  0  0  0  0  # atno 7974 bound_to 7965
  156.2981  140.2549  156.3071 H   0  0  0  0  0  0  0  0  0  0  0  0  # atno 8008 bound_to 7997
  154.9362  140.0397  157.2092 H   0  0  0  0  0  0  0  0  0  0  0  0  # atno 8009 bound_to 7997
  154.8170  140.2854  155.5817 H   0  0  0  0  0  0  0  0  0  0  0  0  # atno 8010 bound_to 7997
  139.7075  144.7083  151.1082 H   0  0  0  0  0  0  0  0  0  0  0  0  # atno 10167 bound_to 10162
  156.0812  130.4217  150.1231 H   0  0  0  0  0  0  0  0  0  0  0  0  # atno 10718 bound_to 10713
  154.5565  135.2817  155.0960 H   0  0  0  0  0  0  0  0  0  0  0  0  # atno 10763 bound_to 10752
  154.2385  135.6361  153.5203 H   0  0  0  0  0  0  0  0  0  0  0  0  # atno 10764 bound_to 10752
  153.0017  135.5554  154.6146 H   0  0  0  0  0  0  0  0  0  0  0  0  # atno 10765 bound_to 10752
  140.5098  134.0663  155.7815 H   0  0  0  0  0  0  0  0  0  0  0  0  # atno 11005 bound_to 11000
  145.6734  139.1603  143.2742 LP  0  0  0  0  0  0  0  0  0  0  0  0  # atno 17320 bound_to 7965
  146.1599  140.6803  142.9282 LP  0  0  0  0  0  0  0  0  0  0  0  0  # atno 17321 bound_to 7965
  140.7725  143.5338  150.9392 LP  0  0  0  0  0  0  0  0  0  0  0  0  # atno 17342 bound_to 10162
  139.9022  143.6822  152.3129 LP  0  0  0  0  0  0  0  0  0  0  0  0  # atno 17343 bound_to 10162
  156.9262  130.9699  151.3540 LP  0  0  0  0  0  0  0  0  0  0  0  0  # atno 17370 bound_to 10713
  157.5929  130.8456  149.8685 LP  0  0  0  0  0  0  0  0  0  0  0  0  # atno 17371 bound_to 10713
  141.1392  133.9169  157.2365 LP  0  0  0  0  0  0  0  0  0  0  0  0  # atno 17394 bound_to 11000
  139.9665  135.0140  156.9401 LP  0  0  0  0  0  0  0  0  0  0  0  0  # atno 17395 bound_to 11000

$$$$
