AV-unprocessed.smi:17|AV-procd|sdf|104|dock8
  -GOLD-   2262015253D 1   1.00000     0.00000
 Structure written by MMmdl.
 57 59  0  0  0  0  0  0  0  0  1 V2000
  146.8570  141.8055  154.3517 C   0  0  0  0  0  0  0  0  0  0  0  0
  148.2128  141.1791  153.9849 C   0  0  0  0  0  0  0  0  0  0  0  0
  148.5956  140.0601  154.8491 N   0  0  0  0  0  0  0  0  0  0  0  0
  147.9588  138.8869  154.5990 C   0  0  0  0  0  0  0  0  0  0  0  0
  148.0546  137.9132  155.5386 N   0  0  0  0  0  0  0  0  0  0  0  0
  147.4604  136.7321  155.3496 C   0  0  0  0  0  0  0  0  0  0  0  0
  146.7356  136.3203  154.3081 N   0  0  0  0  0  0  0  0  0  0  0  0
  146.6435  137.2910  153.3547 C   0  0  0  0  0  0  0  0  0  0  0  0
  147.2222  138.5906  153.4148 C   0  0  0  0  0  0  0  0  0  0  0  0
  146.9146  139.2956  152.2566 N   0  0  0  0  0  0  0  0  0  0  0  0
  146.1965  138.4631  151.5543 C   0  0  0  0  0  0  0  0  0  0  0  0
  145.9672  137.2432  152.1480 N   0  0  0  0  0  0  0  0  0  0  0  0
  145.2074  136.1384  151.5901 C   0  0  0  0  0  0  0  0  0  0  0  0
  145.1836  134.8636  152.4776 C   0  0  1  0  0  0  0  0  0  0  0  0
  143.8945  134.8643  153.3342 C   0  0  0  0  0  0  0  0  0  0  0  0
  144.0412  134.0561  154.4839 O   0  0  0  0  0  0  0  0  0  0  0  0
  145.3148  133.5482  151.6524 C   0  0  2  0  0  0  0  0  0  0  0  0
  146.4728  133.5198  150.6648 C   0  0  0  0  0  0  0  0  0  0  0  0
  146.0688  132.3967  149.7220 C   0  0  0  0  0  0  0  0  0  0  0  0
  144.6679  132.5561  149.5727 O   0  0  0  0  0  0  0  0  0  0  0  0
  144.1380  133.2225  150.7151 C   0  0  0  0  0  0  0  0  0  0  0  0
  148.8311  140.3819  156.2659 C   0  0  1  0  0  0  0  0  0  0  0  0
  147.5373  140.3999  157.1025 C   0  0  0  0  0  0  0  0  0  0  0  0
  149.9161  139.5097  156.9348 C   0  0  0  0  0  0  0  0  0  0  0  0
  151.4748  139.4777  155.9447 S   0  0  0  0  0  0  0  0  0  0  0  0
  151.5330  137.7251  155.3933 C   0  0  0  0  0  0  0  0  0  0  0  0
  151.3092  140.3302  154.7579 O   0  0  0  0  0  0  0  0  0  0  0  0
  152.6046  139.7185  156.8554 O   0  0  0  0  0  0  0  0  0  0  0  0
  146.5833  142.5751  153.6299 H   0  0  0  0  0  0  0  0  0  0  0  0
  146.8757  142.2753  155.3353 H   0  0  0  0  0  0  0  0  0  0  0  0
  146.0657  141.0551  154.3516 H   0  0  0  0  0  0  0  0  0  0  0  0
  148.1528  140.8127  152.9598 H   0  0  0  0  0  0  0  0  0  0  0  0
  148.9894  141.9427  153.9844 H   0  0  0  0  0  0  0  0  0  0  0  0
  147.5841  136.0150  156.1476 H   0  0  0  0  0  0  0  0  0  0  0  0
  145.8031  138.7209  150.5817 H   0  0  0  0  0  0  0  0  0  0  0  0
  144.1965  136.5118  151.4267 H   0  0  0  0  0  0  0  0  0  0  0  0
  145.6013  135.8979  150.6022 H   0  0  0  0  0  0  0  0  0  0  0  0
  146.0260  134.9054  153.1699 H   0  0  0  0  0  0  0  0  0  0  0  0
  143.6290  135.8781  153.6358 H   0  0  0  0  0  0  0  0  0  0  0  0
  143.0461  134.4614  152.7828 H   0  0  0  0  0  0  0  0  0  0  0  0
  143.8068  133.1686  154.2590 H   0  0  0  0  0  0  0  0  0  0  0  0
  145.4467  132.7108  152.3396 H   0  0  0  0  0  0  0  0  0  0  0  0
  146.5362  134.4621  150.1187 H   0  0  0  0  0  0  0  0  0  0  0  0
  147.4375  133.3283  151.1356 H   0  0  0  0  0  0  0  0  0  0  0  0
  146.5843  132.4430  148.7625 H   0  0  0  0  0  0  0  0  0  0  0  0
  146.2715  131.4249  150.1748 H   0  0  0  0  0  0  0  0  0  0  0  0
  143.3959  132.5893  151.2001 H   0  0  0  0  0  0  0  0  0  0  0  0
  143.6387  134.1283  150.3703 H   0  0  0  0  0  0  0  0  0  0  0  0
  149.2108  141.4040  156.2849 H   0  0  0  0  0  0  0  0  0  0  0  0
  147.7323  140.7679  158.1099 H   0  0  0  0  0  0  0  0  0  0  0  0
  147.1055  139.4035  157.1997 H   0  0  0  0  0  0  0  0  0  0  0  0
  146.7835  141.0529  156.6623 H   0  0  0  0  0  0  0  0  0  0  0  0
  150.1775  139.9274  157.9071 H   0  0  0  0  0  0  0  0  0  0  0  0
  149.5833  138.4887  157.1167 H   0  0  0  0  0  0  0  0  0  0  0  0
  152.4289  137.5647  154.7941 H   0  0  0  0  0  0  0  0  0  0  0  0
  150.6516  137.5034  154.7919 H   0  0  0  0  0  0  0  0  0  0  0  0
  151.5563  137.0685  156.2626 H   0  0  0  0  0  0  0  0  0  0  0  0
  1  2  1  0  0  0  0
  1 29  1  0  0  0  0
  1 30  1  0  0  0  0
  1 31  1  0  0  0  0
  2  3  1  0  0  0  0
  2 32  1  0  0  0  0
  2 33  1  0  0  0  0
  3  4  1  0  0  0  0
  3 22  1  0  0  0  0
  4  9  1  0  0  0  0
  4  5  2  0  0  0  0
  5  6  1  0  0  0  0
  6  7  2  0  0  0  0
  6 34  1  0  0  0  0
  7  8  1  0  0  0  0
  8 12  1  0  0  0  0
  8  9  2  0  0  0  0
  9 10  1  0  0  0  0
 10 11  2  0  0  0  0
 11 12  1  0  0  0  0
 11 35  1  0  0  0  0
 12 13  1  0  0  0  0
 13 14  1  0  0  0  0
 13 36  1  0  0  0  0
 13 37  1  0  0  0  0
 14 15  1  0  0  0  0
 14 17  1  0  0  0  0
 14 38  1  0  0  0  0
 15 16  1  0  0  0  0
 15 39  1  0  0  0  0
 15 40  1  0  0  0  0
 16 41  1  0  0  0  0
 17 21  1  0  0  0  0
 17 18  1  0  0  0  0
 17 42  1  0  0  0  0
 18 19  1  0  0  0  0
 18 43  1  0  0  0  0
 18 44  1  0  0  0  0
 19 20  1  0  0  0  0
 19 45  1  0  0  0  0
 19 46  1  0  0  0  0
 20 21  1  0  0  0  0
 21 47  1  0  0  0  0
 21 48  1  0  0  0  0
 22 23  1  0  0  0  0
 22 24  1  0  0  0  0
 22 49  1  0  0  0  0
 23 50  1  0  0  0  0
 23 51  1  0  0  0  0
 23 52  1  0  0  0  0
 24 25  1  0  0  0  0
 24 53  1  0  0  0  0
 24 54  1  0  0  0  0
 25 26  1  0  0  0  0
 25 27  2  0  0  0  0
 25 28  2  0  0  0  0
 26 55  1  0  0  0  0
 26 56  1  0  0  0  0
 26 57  1  0  0  0  0
M  END
> <s_m_source_file>
AV-unprocessed.smi

> <i_m_source_file_index>
17

> <i_lp_mmshare_version>
43012

> <i_f3d_flags>
0

> <s_epik_input>
W0NIM11TKD1PKSg9TylbQ0gyXVtDQEBIXShbQ0gzXSlOKFtDSDJdW0NIM10pYyhuW2NIXW4xKWMoYzEyKW5bY0hdbjJbQ0gyXVtDQEhdKFtDSDJdW09IXSlbQ0BASF0zW0NIMl1bQ0gyXU9bQ0gyXTM=

> <s_epik_cmdline>
J2VwaWtfcHl0aG9uJywgJy1waCcsICc3LjAnLCAnLXRuJywgJzgnLCAnLW1hJywgJzIwMCcsICctbWV0YWxfYmluZGluZycsICctaW1hZScsICc8aW5maWxlLm1hZT4nLCAnLW9tYWUnLCAnPG91dGZpbGUubWFlPic=

> <r_lp_tautomer_probability>
1

> <r_epik_Ionization_Penalty>
0.00119955

> <r_epik_Ionization_Penalty_Charging>
0

> <r_epik_Ionization_Penalty_Neutral>
0.00119955

> <r_epik_State_Penalty>
0.000665399

> <r_epik_Charging_Adjusted_Penalty>
0.000665399

> <i_epik_Tot_Q>
0

> <i_epik_Tot_abs_Q>
0

> <r_epik_Metal_State_Penalty>
-0

> <b_epik_Metal_Only>
0

> <s_lp_Force_Field>
OPLS_2005

> <r_lp_Energy>
33.8653

> <b_lp_Chiralities_Consistent>
1

> <s_lp_Variant>
AV-unprocessed.smi:17-6

> <Gold.Version>
5.8.1

> <Gold.Id.Protein>
6NUR|6NUR_protein|mol2

> <Gold.PLP.Fitness>
45.3020

> <Gold.PLP.PLP>
-35.7950

> <Gold.PLP.part.hbond>
-2.8551

> <Gold.PLP.part.metal>
0.0000

> <Gold.PLP.part.buried>
-3.9975

> <Gold.PLP.part.nonpolar>
-31.9881

> <Gold.PLP.part.repulsive>
1.7895

> <Gold.PLP.ligand.clash>
0.0000

> <Gold.PLP.ligand.torsion>
1.8543

> <Gold.PLP.Chemscore.Hbond>
2.9750

> <Gold.PLP.Chemscore.CHOScore>
0.9994

> <Gold.PLP.Chemscore.Metal>
0.0000

> <Gold.Chemscore.Hbonds>
donor molecule, donor type, donor heavy atom, donor atom, acceptor molecule, acceptor atom, score
      L1  H    16    41       P1 10957  0.83
      P1  H  7989  7998       L1    27  0.68
      P1  H  7997  8010       L1    28  0.94
      L1  C    11    35       P1 10171  1.00

> <Gold.PLP.Chemscore.Internal.Correction>
1.2924

> <Gold.Rescore>
     Score         DG    S(hbond)    S(metal)    S(lipo)     H(rot)  DE(clash)    DE(int)     intcor
      4.67     -14.20       2.92        0.00      74.10       3.79       1.15       8.38       ----

> <Gold.Chemscore.Fitness>
4.6701

> <Gold.Chemscore.DG>
-14.2012

> <Gold.Chemscore.ZeroCoef>
-5.4800

> <Gold.Chemscore.Hbond>
2.9198

> <Gold.Chemscore.Metal>
0.0000

> <Gold.Chemscore.Lipo>
74.1040

> <Gold.Chemscore.Internal_Hbond>
0.0000

> <Gold.Chemscore.DEClash>
1.1507

> <Gold.Chemscore.DEInternal>
8.3803

> <Gold.Chemscore.Rot>
3.7894

> <Gold.Chemscore.Internal.Correction>
   9.000000E+99

> <Gold.Chemscore.Hbonds>
donor molecule, donor type, donor heavy atom, donor atom, acceptor molecule, acceptor atom, score
      L1  H    16    41       P1 10957  0.83
      P1  H  7989  7998       L1    27  0.68
      P1  H  7997  8010       L1    28  0.91

> <Gold.Chemscore.Hbond.Weighted>
-9.7520

> <Gold.Chemscore.Metal.Weighted>
-0.0000

> <Gold.Chemscore.Lipo.Weighted>
-8.6702

> <Gold.Chemscore.Internal_Hbond.Weighted>
0.0000

> <Gold.Chemscore.DEClash.Weighted>
1.1507

> <Gold.Chemscore.DEInternal.Weighted>
8.3803

> <Gold.Chemscore.Rot.Weighted>
9.7010

> <Gold.Chemscore.Internal.Correction.Weighted>
   9.000000E+99

> <Gold.Protein.RotatedTorsions>
[ 6907 6896 6895 6894 ] final   44.16 input  -60.11 | X-H torsion
[ 7974 7965 7964 7962 ] final   84.88 input  175.53 | X-H torsion
[ 8008 7997 7996 7995 ] final   43.87 input   59.86 | X-H torsion
[ 10167 10162 10161 10158 ] final  -39.62 input  -65.29 | X-H torsion
[ 10718 10713 10712 10709 ] final  -69.21 input   66.30 | X-H torsion
[ 10763 10752 10751 10750 ] final   -4.03 input  -60.55 | X-H torsion
[ 11005 11000 10999 10996 ] final  134.21 input  -57.11 | X-H torsion

> <Gold.Protein.ActiveResidues>
 VAL166  LYS551  ARG553  GLY616  TRP617  ASP618  TYR619  PRO620  LYS621  CYS622 
 ASP623  PHE694  ASN695  SER759  ASP760  ASP761  ALA762  ILE779  LEU786  VAL792 
 PHE793  MET794  SER795  GLU796  ALA797  LYS798  CYS799  TRP800  GLU811  SER814 

> <Gold.Protein.RotatedAtoms>
  152.2291  134.8339  160.0475 H   0  0  0  0  0  0  0  0  0  0  0  0  # atno 6907 bound_to 6896
  151.9095  133.3552  159.3867 H   0  0  0  0  0  0  0  0  0  0  0  0  # atno 6908 bound_to 6896
  150.7020  134.4672  159.5452 H   0  0  0  0  0  0  0  0  0  0  0  0  # atno 6909 bound_to 6896
  145.5929  139.2340  143.2289 H   0  0  0  0  0  0  0  0  0  0  0  0  # atno 7974 bound_to 7965
  155.3098  140.3390  155.4244 H   0  0  0  0  0  0  0  0  0  0  0  0  # atno 8008 bound_to 7997
  156.1961  140.1715  156.8034 H   0  0  0  0  0  0  0  0  0  0  0  0  # atno 8009 bound_to 7997
  154.5500  140.0707  156.8636 H   0  0  0  0  0  0  0  0  0  0  0  0  # atno 8010 bound_to 7997
  140.7058  143.3203  151.2809 H   0  0  0  0  0  0  0  0  0  0  0  0  # atno 10167 bound_to 10162
  156.0466  130.4308  150.2114 H   0  0  0  0  0  0  0  0  0  0  0  0  # atno 10718 bound_to 10713
  153.3793  135.6998  153.6577 H   0  0  0  0  0  0  0  0  0  0  0  0  # atno 10763 bound_to 10752
  153.5195  135.3615  155.2626 H   0  0  0  0  0  0  0  0  0  0  0  0  # atno 10764 bound_to 10752
  154.8691  135.4154  154.3088 H   0  0  0  0  0  0  0  0  0  0  0  0  # atno 10765 bound_to 10752
  139.9901  134.9518  156.9835 H   0  0  0  0  0  0  0  0  0  0  0  0  # atno 11005 bound_to 11000
  146.1633  140.6755  142.9267 LP  0  0  0  0  0  0  0  0  0  0  0  0  # atno 17320 bound_to 7965
  144.7343  140.4764  143.6915 LP  0  0  0  0  0  0  0  0  0  0  0  0  # atno 17321 bound_to 7965
  139.6654  144.0114  152.2720 LP  0  0  0  0  0  0  0  0  0  0  0  0  # atno 17342 bound_to 10162
  139.9695  144.6503  150.8003 LP  0  0  0  0  0  0  0  0  0  0  0  0  # atno 17343 bound_to 10162
  157.0203  130.9977  151.3341 LP  0  0  0  0  0  0  0  0  0  0  0  0  # atno 17370 bound_to 10713
  157.5349  130.8082  149.7960 LP  0  0  0  0  0  0  0  0  0  0  0  0  # atno 17371 bound_to 10713
  140.4926  134.1178  155.7235 LP  0  0  0  0  0  0  0  0  0  0  0  0  # atno 17394 bound_to 11000
  141.1558  133.8885  157.1980 LP  0  0  0  0  0  0  0  0  0  0  0  0  # atno 17395 bound_to 11000

$$$$
