AV-unprocessed.smi:1360|AV-procd|sdf|5554|dock9
  -GOLD-   22720 5143D 1   1.00000     0.00000
 Structure written by MMmdl.
 36 37  0  0  0  0  0  0  0  0  1 V2000
  150.3687  137.9193  157.0565 C   0  0  0  0  0  0  0  0  0  0  0  0
  151.3150  138.9520  156.4223 C   0  0  1  0  0  0  0  0  0  0  0  0
  151.0700  139.1590  154.9119 C   0  0  0  0  0  0  0  0  0  0  0  0
  149.8160  139.8352  154.6344 N   0  0  0  0  0  0  0  0  0  0  0  0
  148.6929  139.3294  154.0148 C   0  0  0  0  0  0  0  0  0  0  0  0
  147.7640  140.3295  153.9782 C   0  0  0  0  0  0  0  0  0  0  0  0
  148.4213  141.4244  154.6058 C   0  0  0  0  0  0  0  0  0  0  0  0
  149.6504  141.1264  154.9955 N   0  0  0  0  0  0  0  0  0  0  0  0
  151.1779  140.2213  157.1306 N   0  0  0  0  0  0  0  0  0  0  0  0
  152.0723  140.7357  157.9890 C   0  0  0  0  0  0  0  0  0  0  0  0
  153.1356  140.1815  158.2699 O   0  0  0  0  0  0  0  0  0  0  0  0
  151.7111  142.0848  158.6244 C   0  0  1  0  0  0  0  0  0  0  0  0
  152.7598  142.5024  159.6803 C   0  0  0  0  0  0  0  0  0  0  0  0
  152.5620  143.9338  160.1469 C   0  0  0  0  0  0  0  0  0  0  0  0
  151.8095  144.8292  159.4848 C   0  0  0  0  0  0  0  0  0  0  0  0
  151.0767  144.5132  158.1926 C   0  0  0  0  0  0  0  0  0  0  0  0
  151.5499  143.1899  157.5608 C   0  0  0  0  0  0  0  0  0  0  0  0
  150.5024  136.9309  156.6168 H   0  0  0  0  0  0  0  0  0  0  0  0
  149.3245  138.2045  156.9242 H   0  0  0  0  0  0  0  0  0  0  0  0
  150.5553  137.8231  158.1266 H   0  0  0  0  0  0  0  0  0  0  0  0
  152.3334  138.5844  156.5609 H   0  0  0  0  0  0  0  0  0  0  0  0
  151.8867  139.7323  154.4700 H   0  0  0  0  0  0  0  0  0  0  0  0
  151.0518  138.1986  154.3951 H   0  0  0  0  0  0  0  0  0  0  0  0
  148.6493  138.3109  153.6577 H   0  0  0  0  0  0  0  0  0  0  0  0
  146.7670  140.2860  153.5655 H   0  0  0  0  0  0  0  0  0  0  0  0
  148.0455  142.4204  154.7875 H   0  0  0  0  0  0  0  0  0  0  0  0
  150.3340  140.7481  156.9571 H   0  0  0  0  0  0  0  0  0  0  0  0
  150.7493  141.9745  159.1295 H   0  0  0  0  0  0  0  0  0  0  0  0
  152.6943  141.8424  160.5460 H   0  0  0  0  0  0  0  0  0  0  0  0
  153.7746  142.4134  159.2898 H   0  0  0  0  0  0  0  0  0  0  0  0
  153.0717  144.2260  161.0533 H   0  0  0  0  0  0  0  0  0  0  0  0
  151.6966  145.8294  159.8766 H   0  0  0  0  0  0  0  0  0  0  0  0
  150.0098  144.4650  158.4126 H   0  0  0  0  0  0  0  0  0  0  0  0
  151.2194  145.3329  157.4879 H   0  0  0  0  0  0  0  0  0  0  0  0
  152.5055  143.3563  157.0605 H   0  0  0  0  0  0  0  0  0  0  0  0
  150.8470  142.8826  156.7853 H   0  0  0  0  0  0  0  0  0  0  0  0
  1  2  1  0  0  0  0
  1 18  1  0  0  0  0
  1 19  1  0  0  0  0
  1 20  1  0  0  0  0
  2  3  1  0  0  0  0
  2  9  1  0  0  0  0
  2 21  1  0  0  0  0
  3  4  1  0  0  0  0
  3 22  1  0  0  0  0
  3 23  1  0  0  0  0
  4  8  1  0  0  0  0
  4  5  1  0  0  0  0
  5  6  2  0  0  0  0
  5 24  1  0  0  0  0
  6  7  1  0  0  0  0
  6 25  1  0  0  0  0
  7  8  2  0  0  0  0
  7 26  1  0  0  0  0
  9 10  1  0  0  0  0
  9 27  1  0  0  0  0
 10 11  2  0  0  0  0
 10 12  1  0  0  0  0
 12 17  1  0  0  0  0
 12 13  1  0  0  0  0
 12 28  1  0  0  0  0
 13 14  1  0  0  0  0
 13 29  1  0  0  0  0
 13 30  1  0  0  0  0
 14 15  2  0  0  0  0
 14 31  1  0  0  0  0
 15 16  1  0  0  0  0
 15 32  1  0  0  0  0
 16 17  1  0  0  0  0
 16 33  1  0  0  0  0
 16 34  1  0  0  0  0
 17 35  1  0  0  0  0
 17 36  1  0  0  0  0
M  END
> <s_m_source_file>
AV-unprocessed.smi

> <i_m_source_file_index>
1360

> <i_lp_mmshare_version>
43012

> <i_f3d_flags>
0

> <s_epik_input>
bjFbY0hdW2NIXVtjSF1uMVtDSDJdW0NAQEhdKFtDSDNdKVtOSF1DKD1PKVtDQEBIXTJbQ0gyXVtDSF09W0NIXVtDSDJdW0NIMl0y

> <s_epik_cmdline>
J2VwaWtfcHl0aG9uJywgJy1waCcsICc3LjAnLCAnLXRuJywgJzgnLCAnLW1hJywgJzIwMCcsICctbWV0YWxfYmluZGluZycsICctaW1hZScsICc8aW5maWxlLm1hZT4nLCAnLW9tYWUnLCAnPG91dGZpbGUubWFlPic=

> <r_lp_tautomer_probability>
1

> <r_epik_Ionization_Penalty>
0.000315076

> <r_epik_Ionization_Penalty_Charging>
0

> <r_epik_Ionization_Penalty_Neutral>
0.000315076

> <r_epik_State_Penalty>
-0

> <r_epik_Charging_Adjusted_Penalty>
0

> <i_epik_Tot_Q>
0

> <i_epik_Tot_abs_Q>
0

> <r_epik_Metal_State_Penalty>
-0

> <b_epik_Metal_Only>
0

> <s_lp_Force_Field>
OPLS_2005

> <r_lp_Energy>
7.88056

> <b_lp_Chiralities_Consistent>
1

> <s_lp_Variant>
AV-unprocessed.smi:1360-4

> <Gold.Version>
5.8.1

> <Gold.Id.Protein>
6NUR|6NUR_protein|mol2

> <Gold.PLP.Fitness>
43.5728

> <Gold.PLP.PLP>
-36.1994

> <Gold.PLP.part.hbond>
-1.9069

> <Gold.PLP.part.metal>
0.0000

> <Gold.PLP.part.buried>
-0.3620

> <Gold.PLP.part.nonpolar>
-33.7437

> <Gold.PLP.part.repulsive>
0.1907

> <Gold.PLP.ligand.clash>
0.0000

> <Gold.PLP.ligand.torsion>
0.2371

> <Gold.PLP.Chemscore.Hbond>
0.9920

> <Gold.PLP.Chemscore.CHOScore>
1.6127

> <Gold.PLP.Chemscore.Metal>
0.0000

> <Gold.Chemscore.Hbonds>
donor molecule, donor type, donor heavy atom, donor atom, acceptor molecule, acceptor atom, score
      P1  H  7997  8010       L1    11  0.98
      L1  C     5    24       P1  7948  0.46
      L1  C     7    26       P1  8028  0.89

> <Gold.PLP.Chemscore.Internal.Correction>
0.0335

> <Gold.Rescore>
     Score         DG    S(hbond)    S(metal)    S(lipo)     H(rot)  DE(clash)    DE(int)     intcor
     16.51     -16.85       0.96        0.00     102.75       1.51       0.08       0.26       ----

> <Gold.Chemscore.Fitness>
16.5100

> <Gold.Chemscore.DG>
-16.8457

> <Gold.Chemscore.ZeroCoef>
-5.4800

> <Gold.Chemscore.Hbond>
0.9575

> <Gold.Chemscore.Metal>
0.0000

> <Gold.Chemscore.Lipo>
102.7540

> <Gold.Chemscore.Internal_Hbond>
0.0000

> <Gold.Chemscore.DEClash>
0.0785

> <Gold.Chemscore.DEInternal>
0.2571

> <Gold.Chemscore.Rot>
1.5057

> <Gold.Chemscore.Internal.Correction>
   9.000000E+99

> <Gold.Chemscore.Hbonds>
donor molecule, donor type, donor heavy atom, donor atom, acceptor molecule, acceptor atom, score
      P1  H  7997  8010       L1    11  0.92

> <Gold.Chemscore.Hbond.Weighted>
-3.1981

> <Gold.Chemscore.Metal.Weighted>
-0.0000

> <Gold.Chemscore.Lipo.Weighted>
-12.0222

> <Gold.Chemscore.Internal_Hbond.Weighted>
0.0000

> <Gold.Chemscore.DEClash.Weighted>
0.0785

> <Gold.Chemscore.DEInternal.Weighted>
0.2571

> <Gold.Chemscore.Rot.Weighted>
3.8546

> <Gold.Chemscore.Internal.Correction.Weighted>
   9.000000E+99

> <Gold.Protein.RotatedTorsions>
[ 6907 6896 6895 6894 ] final   73.63 input  -60.11 | X-H torsion
[ 7974 7965 7964 7962 ] final  -21.44 input  175.53 | X-H torsion
[ 8008 7997 7996 7995 ] final   36.31 input   59.86 | X-H torsion
[ 10167 10162 10161 10158 ] final  124.45 input  -65.29 | X-H torsion
[ 10718 10713 10712 10709 ] final  140.63 input   66.30 | X-H torsion
[ 10763 10752 10751 10750 ] final -152.86 input  -60.55 | X-H torsion
[ 11005 11000 10999 10996 ] final  -65.39 input  -57.11 | X-H torsion

> <Gold.Protein.ActiveResidues>
 VAL166  LYS551  ARG553  GLY616  TRP617  ASP618  TYR619  PRO620  LYS621  CYS622 
 ASP623  PHE694  ASN695  SER759  ASP760  ASP761  ALA762  ILE779  LEU786  VAL792 
 PHE793  MET794  SER795  GLU796  ALA797  LYS798  CYS799  TRP800  GLU811  SER814 

> <Gold.Protein.RotatedAtoms>
  152.4933  134.4393  159.9537 H   0  0  0  0  0  0  0  0  0  0  0  0  # atno 6907 bound_to 6896
  151.4376  133.3646  159.2785 H   0  0  0  0  0  0  0  0  0  0  0  0  # atno 6908 bound_to 6896
  150.9110  134.8550  159.7485 H   0  0  0  0  0  0  0  0  0  0  0  0  # atno 6909 bound_to 6896
  146.1733  140.4341  142.8524 H   0  0  0  0  0  0  0  0  0  0  0  0  # atno 7974 bound_to 7965
  155.1853  140.3303  155.4368 H   0  0  0  0  0  0  0  0  0  0  0  0  # atno 8008 bound_to 7997
  156.2462  140.1920  156.6899 H   0  0  0  0  0  0  0  0  0  0  0  0  # atno 8009 bound_to 7997
  154.6243  140.0591  156.9640 H   0  0  0  0  0  0  0  0  0  0  0  0  # atno 8010 bound_to 7997
  139.5741  144.6954  151.3701 H   0  0  0  0  0  0  0  0  0  0  0  0  # atno 10167 bound_to 10162
  157.4011  131.1017  151.0550 H   0  0  0  0  0  0  0  0  0  0  0  0  # atno 10718 bound_to 10713
  154.7966  135.3226  154.7651 H   0  0  0  0  0  0  0  0  0  0  0  0  # atno 10763 bound_to 10752
  153.8328  135.6878  153.4817 H   0  0  0  0  0  0  0  0  0  0  0  0  # atno 10764 bound_to 10752
  153.1661  135.4641  154.9781 H   0  0  0  0  0  0  0  0  0  0  0  0  # atno 10765 bound_to 10752
  141.1453  133.6681  156.5979 H   0  0  0  0  0  0  0  0  0  0  0  0  # atno 11005 bound_to 11000
  144.8196  140.6527  143.6362 LP  0  0  0  0  0  0  0  0  0  0  0  0  # atno 17320 bound_to 7965
  145.4282  139.1553  143.4037 LP  0  0  0  0  0  0  0  0  0  0  0  0  # atno 17321 bound_to 7965
  140.7024  143.7598  150.7425 LP  0  0  0  0  0  0  0  0  0  0  0  0  # atno 17342 bound_to 10162
  140.1113  143.4697  152.2368 LP  0  0  0  0  0  0  0  0  0  0  0  0  # atno 17343 bound_to 10162
  157.1549  130.6200  149.5593 LP  0  0  0  0  0  0  0  0  0  0  0  0  # atno 17370 bound_to 10713
  155.9823  130.4837  150.6877 LP  0  0  0  0  0  0  0  0  0  0  0  0  # atno 17371 bound_to 10713
  140.3711  134.7604  157.4599 LP  0  0  0  0  0  0  0  0  0  0  0  0  # atno 17394 bound_to 11000
  140.0710  134.5863  155.8642 LP  0  0  0  0  0  0  0  0  0  0  0  0  # atno 17395 bound_to 11000

$$$$
