#       Name:                AV-unprocessed.smi:203
#       Creating user name   scv26
#       Creation time:       Thu Mar 26 19:49:28 2020


#       File generated by GOLD software.
#

@<TRIPOS>MOLECULE
AV-unprocessed.smi:203
    67    71     1
SMALL
NO_CHARGES


@<TRIPOS>ATOM
      1 ****        -3.3930   3.0166   4.6914 O.2            1 S1                 0.0000
      2 ****        -3.1710   1.9560   4.1120 C.2            1 S1                 0.0000
      3 ****        -2.9520   1.8499   2.6119 C.3            1 S1                 0.0000
      4 ****        -2.4262   0.4116   2.4506 C.3            1 S1                 0.0000
      5 ****        -2.7627  -0.3122   1.1096 C.3            1 S1                 0.0000
      6 ****        -4.2839  -0.5437   0.9055 C.3            1 S1                 0.0000
      7 ****        -4.5795  -1.2542  -0.4222 C.3            1 S1                 0.0000
      8 ****        -3.9725  -0.4627  -1.5845 C.3            1 S1                 0.0000
      9 ****        -2.4692  -0.2578  -1.3599 C.3            1 S1                 0.0000
     10 ****        -2.2038   0.3767  -0.0688 N.3            1 S1                 0.0000
     11 ****        -0.9066   0.7535  -0.0018 C.ar           1 S1                 0.0000
     12 ****        -0.6290   2.0580  -0.2449 N.ar           1 S1                 0.0000
     13 ****         0.6340   2.4921  -0.1955 C.ar           1 S1                 0.0000
     14 ****         1.7452   1.8006   0.0667 N.ar           1 S1                 0.0000
     15 ****         1.4678   0.4857   0.3009 C.ar           1 S1                 0.0000
     16 ****         0.1806  -0.1198   0.2850 C.ar           1 S1                 0.0000
     17 ****         0.2913  -1.4777   0.5597 N.2            1 S1                 0.0000
     18 ****         1.5726  -1.6659   0.7217 C.2            1 S1                 0.0000
     19 ****         2.3526  -0.5415   0.5774 N.pl3          1 S1                 0.0000
     20 ****         3.7986  -0.4710   0.6802 C.3            1 S1                 0.0000
     21 ****         4.5153  -0.9359  -0.6053 C.3            1 S1                 0.0000
     22 ****         5.9053  -0.8270  -0.3729 O.3            1 S1                 0.0000
     23 ****         4.1474  -0.1232  -1.8672 C.3            1 S1                 0.0000
     24 ****         4.9470  -0.4854  -3.1195 C.3            1 S1                 0.0000
     25 ****         4.0632   0.0100  -4.2522 C.3            1 S1                 0.0000
     26 ****         2.6720   0.0981  -3.6187 C.3            1 S1                 0.0000
     27 ****         2.8283  -0.4172  -2.3039 O.3            1 S1                 0.0000
     28 ****        -2.8479  -0.3161   3.7429 C.3            1 S1                 0.0000
     29 ****        -3.0850   0.7573   4.6884 N.am           1 S1                 0.0000
     30 ****        -3.9004   2.0193   2.1052 H              1 S1                 0.0000
     31 ****        -2.2349   2.5915   2.2584 H              1 S1                 0.0000
     32 ****        -1.3405   0.4824   2.5296 H              1 S1                 0.0000
     33 ****        -2.2999  -1.2985   1.1511 H              1 S1                 0.0000
     34 ****        -4.7033  -1.1424   1.7116 H              1 S1                 0.0000
     35 ****        -4.8206   0.4043   0.9160 H              1 S1                 0.0000
     36 ****        -4.1639  -2.2625  -0.4034 H              1 S1                 0.0000
     37 ****        -5.6558  -1.3604  -0.5607 H              1 S1                 0.0000
     38 ****        -4.1425  -0.9860  -2.5258 H              1 S1                 0.0000
     39 ****        -4.4670   0.5057  -1.6706 H              1 S1                 0.0000
     40 ****        -1.9562  -1.2200  -1.4007 H              1 S1                 0.0000
     41 ****        -2.0625   0.3525  -2.1679 H              1 S1                 0.0000
     42 ****         0.7745   3.5438  -0.3966 H              1 S1                 0.0000
     43 ****         1.9884  -2.6381   0.9428 H              1 S1                 0.0000
     44 ****         4.0795   0.5551   0.9220 H              1 S1                 0.0000
     45 ****         4.1073  -1.0841   1.5278 H              1 S1                 0.0000
     46 ****         4.2956  -1.9896  -0.7818 H              1 S1                 0.0000
     47 ****         6.1295  -1.3709   0.3666 H              1 S1                 0.0000
     48 ****         4.2322   0.9475  -1.6699 H              1 S1                 0.0000
     49 ****         5.9417  -0.0392  -3.1330 H              1 S1                 0.0000
     50 ****         5.0611  -1.5681  -3.1908 H              1 S1                 0.0000
     51 ****         4.3845   0.9937  -4.5964 H              1 S1                 0.0000
     52 ****         4.0869  -0.6698  -5.1043 H              1 S1                 0.0000
     53 ****         2.3368   1.1349  -3.5640 H              1 S1                 0.0000
     54 ****         1.9246  -0.4740  -4.1691 H              1 S1                 0.0000
     55 ****        -3.7684  -0.8869   3.6392 H              1 S1                 0.0000
     56 ****        -2.0709  -0.9924   4.1008 H              1 S1                 0.0000
     57 ****        -3.1974   0.5961   5.6788 H              1 S1                 0.0000
     58 ****        -3.5270   3.0265   5.6823 LP             1 S1                 0.0000
     59 ****        -3.4396   3.8699   4.1720 LP             1 S1                 0.0000
     60 ****        -2.7428   1.2177  -0.0227 LP             1 S1                 0.0000
     61 ****        -1.3688   2.6951  -0.4611 LP             1 S1                 0.0000
     62 ****         2.6635   2.1959   0.0886 LP             1 S1                 0.0000
     63 ****        -0.4421  -2.1548   0.6195 LP             1 S1                 0.0000
     64 ****         6.1407   0.1246  -0.1753 LP             1 S1                 0.0000
     65 ****         6.4075  -1.1335  -1.1816 LP             1 S1                 0.0000
     66 ****         2.1650   0.0120  -1.6909 LP             1 S1                 0.0000
     67 ****         2.6859  -1.4070  -2.3089 LP             1 S1                 0.0000
@<TRIPOS>BOND
    1    1    2 2     
    2    2   29 am    
    3    2    3 1     
    4    3    4 1     
    5    3   30 1     
    6    3   31 1     
    7    4    5 1     
    8    4   28 1     
    9    4   32 1     
   10    5   10 1     
   11    5    6 1     
   12    5   33 1     
   13    6    7 1     
   14    6   34 1     
   15    6   35 1     
   16    7    8 1     
   17    7   36 1     
   18    7   37 1     
   19    8    9 1     
   20    8   38 1     
   21    8   39 1     
   22    9   10 1     
   23    9   40 1     
   24    9   41 1     
   25   10   11 1     
   26   11   16 ar    
   27   11   12 ar    
   28   12   13 ar    
   29   13   14 ar    
   30   13   42 1     
   31   14   15 ar    
   32   15   19 1     
   33   15   16 ar    
   34   16   17 1     
   35   17   18 2     
   36   18   19 1     
   37   18   43 1     
   38   19   20 1     
   39   20   21 1     
   40   20   44 1     
   41   20   45 1     
   42   21   22 1     
   43   21   23 1     
   44   21   46 1     
   45   22   47 1     
   46   23   27 1     
   47   23   24 1     
   48   23   48 1     
   49   24   25 1     
   50   24   49 1     
   51   24   50 1     
   52   25   26 1     
   53   25   51 1     
   54   25   52 1     
   55   26   27 1     
   56   26   53 1     
   57   26   54 1     
   58   28   29 1     
   59   28   55 1     
   60   28   56 1     
   61   29   57 1     
   62    1   58 1     
   63    1   59 1     
   64   10   60 1     
   65   12   61 1     
   66   14   62 1     
   67   17   63 1     
   68   22   64 1     
   69   22   65 1     
   70   27   66 1     
   71   27   67 1     
@<TRIPOS>SUBSTRUCTURE
      1 S1             1
@<TRIPOS>SET
LONE_PAIRS      STATIC     ATOMS    <user>   **** ""
10 58 59 60 61 62 63 64 65 66 67
DONOR_HYDROGENS      STATIC     ATOMS    <user>   **** ""
2 47 57
ATOM$BLUE        STATIC     ATOMS    COLORGROUP SYSTEM
10 58 59 60 61 62 63 64 65 66 67
ATOM$RED        STATIC     ATOMS    COLORGROUP SYSTEM
2 47 57
