AV-unprocessed.smi:345|AV-procd|sdf|2391|dock5
  -GOLD-   2262022323D 1   1.00000     0.00000
 Structure written by MMmdl.
 34 36  0  0  0  0  0  0  0  0  1 V2000
  147.0735  139.7034  154.3187 C   0  0  0  0  0  0  0  0  0  0  0  0
  148.4465  139.9923  154.8210 C   0  0  0  0  0  0  0  0  0  0  0  0
  148.9308  140.8564  155.7626 C   0  0  0  0  0  0  0  0  0  0  0  0
  150.3281  140.6034  155.7405 C   0  0  0  0  0  0  0  0  0  0  0  0
  151.2084  141.3069  156.6016 N   0  0  0  0  0  0  0  0  0  0  0  0
  151.0137  141.6209  157.8937 C   0  0  0  0  0  0  0  0  0  0  0  0
  150.0233  141.3105  158.5562 O   0  0  0  0  0  0  0  0  0  0  0  0
  152.0446  142.3264  158.3825 N   0  0  0  0  0  0  0  0  0  0  0  0
  152.1506  142.8495  159.7407 C   0  0  0  0  0  0  0  0  0  0  0  0
  152.0519  144.3662  159.7909 C   0  0  0  0  0  0  0  0  0  0  0  0
  150.9216  145.1032  159.1112 C   0  0  0  0  0  0  0  0  0  0  0  0
  152.3293  145.2180  158.5742 C   0  0  0  0  0  0  0  0  0  0  0  0
  153.4292  142.3856  160.4154 C   0  0  0  0  0  0  0  0  0  0  0  0
  153.5940  140.9581  160.8793 C   0  0  0  0  0  0  0  0  0  0  0  0
  153.4740  142.0739  161.8929 C   0  0  0  0  0  0  0  0  0  0  0  0
  150.6673  139.6740  154.8604 N   0  0  0  0  0  0  0  0  0  0  0  0
  149.4630  139.2775  154.2668 O   0  0  0  0  0  0  0  0  0  0  0  0
  146.3438  140.3767  154.7690 H   0  0  0  0  0  0  0  0  0  0  0  0
  146.7823  138.6810  154.5594 H   0  0  0  0  0  0  0  0  0  0  0  0
  147.0235  139.8241  153.2364 H   0  0  0  0  0  0  0  0  0  0  0  0
  148.3723  141.5526  156.3705 H   0  0  0  0  0  0  0  0  0  0  0  0
  152.0717  141.6204  156.1836 H   0  0  0  0  0  0  0  0  0  0  0  0
  152.8161  142.5268  157.7630 H   0  0  0  0  0  0  0  0  0  0  0  0
  151.3204  142.4453  160.3241 H   0  0  0  0  0  0  0  0  0  0  0  0
  152.3746  144.7869  160.7417 H   0  0  0  0  0  0  0  0  0  0  0  0
  150.2121  144.5237  158.5245 H   0  0  0  0  0  0  0  0  0  0  0  0
  150.5061  145.9678  159.6243 H   0  0  0  0  0  0  0  0  0  0  0  0
  152.8539  146.1582  158.7304 H   0  0  0  0  0  0  0  0  0  0  0  0
  152.5473  144.7134  157.6352 H   0  0  0  0  0  0  0  0  0  0  0  0
  154.3249  142.8534  160.0101 H   0  0  0  0  0  0  0  0  0  0  0  0
  152.7444  140.2869  160.7703 H   0  0  0  0  0  0  0  0  0  0  0  0
  154.5717  140.4980  160.7517 H   0  0  0  0  0  0  0  0  0  0  0  0
  154.3715  142.3594  162.4377 H   0  0  0  0  0  0  0  0  0  0  0  0
  152.5464  142.1341  162.4582 H   0  0  0  0  0  0  0  0  0  0  0  0
  1  2  1  0  0  0  0
  1 18  1  0  0  0  0
  1 19  1  0  0  0  0
  1 20  1  0  0  0  0
  2 17  1  0  0  0  0
  2  3  2  0  0  0  0
  3  4  1  0  0  0  0
  3 21  1  0  0  0  0
  4  5  1  0  0  0  0
  4 16  2  0  0  0  0
  5  6  1  0  0  0  0
  5 22  1  0  0  0  0
  6  7  2  0  0  0  0
  6  8  1  0  0  0  0
  8  9  1  0  0  0  0
  8 23  1  0  0  0  0
  9 10  1  0  0  0  0
  9 13  1  0  0  0  0
  9 24  1  0  0  0  0
 10 12  1  0  0  0  0
 10 11  1  0  0  0  0
 10 25  1  0  0  0  0
 11 12  1  0  0  0  0
 11 26  1  0  0  0  0
 11 27  1  0  0  0  0
 12 28  1  0  0  0  0
 12 29  1  0  0  0  0
 13 15  1  0  0  0  0
 13 14  1  0  0  0  0
 13 30  1  0  0  0  0
 14 15  1  0  0  0  0
 14 31  1  0  0  0  0
 14 32  1  0  0  0  0
 15 33  1  0  0  0  0
 15 34  1  0  0  0  0
 16 17  1  0  0  0  0
M  END
> <s_m_source_file>
AV-unprocessed.smi

> <i_m_source_file_index>
345

> <i_lp_mmshare_version>
43012

> <i_f3d_flags>
0

> <s_epik_input>
W0NIM11jMVtjSF1jKG5vMSlbTkhdQyg9TylbTkhdW0NIXShbQ0hdMltDSDJdW0NIMl0yKVtDSF0zW0NIMl1bQ0gyXTM=

> <s_epik_cmdline>
J2VwaWtfcHl0aG9uJywgJy1waCcsICc3LjAnLCAnLXRuJywgJzgnLCAnLW1hJywgJzIwMCcsICctbWV0YWxfYmluZGluZycsICctaW1hZScsICc8aW5maWxlLm1hZT4nLCAnLW9tYWUnLCAnPG91dGZpbGUubWFlPic=

> <r_lp_tautomer_probability>
1

> <r_epik_Ionization_Penalty>
2.39082e-05

> <r_epik_Ionization_Penalty_Charging>
0

> <r_epik_Ionization_Penalty_Neutral>
2.39082e-05

> <r_epik_State_Penalty>
-0

> <r_epik_Charging_Adjusted_Penalty>
0

> <i_epik_Tot_Q>
0

> <i_epik_Tot_abs_Q>
0

> <r_epik_Metal_State_Penalty>
-0

> <b_epik_Metal_Only>
0

> <s_lp_Force_Field>
OPLS_2005

> <r_lp_Energy>
21.3823

> <b_lp_Chiralities_Consistent>
1

> <s_lp_Variant>
AV-unprocessed.smi:345-1

> <Gold.Version>
5.8.1

> <Gold.Id.Protein>
6NUR|6NUR_protein|mol2

> <Gold.PLP.Fitness>
39.8286

> <Gold.PLP.PLP>
-37.8009

> <Gold.PLP.part.hbond>
-1.0000

> <Gold.PLP.part.metal>
0.0000

> <Gold.PLP.part.buried>
-5.9214

> <Gold.PLP.part.nonpolar>
-31.0971

> <Gold.PLP.part.repulsive>
1.5898

> <Gold.PLP.ligand.clash>
0.0000

> <Gold.PLP.ligand.torsion>
1.5416

> <Gold.PLP.Chemscore.Hbond>
1.0000

> <Gold.PLP.Chemscore.CHOScore>
0.0000

> <Gold.PLP.Chemscore.Metal>
0.0000

> <Gold.Chemscore.Hbonds>
donor molecule, donor type, donor heavy atom, donor atom, acceptor molecule, acceptor atom, score
      P1  H  7989  7998       L1    16  0.90

> <Gold.PLP.Chemscore.Internal.Correction>
2.1107

> <Gold.Rescore>
     Score         DG    S(hbond)    S(metal)    S(lipo)     H(rot)  DE(clash)    DE(int)     intcor
     12.74     -15.66       0.94        0.00      91.06       1.42       0.16       2.75       ----

> <Gold.Chemscore.Fitness>
12.7432

> <Gold.Chemscore.DG>
-15.6558

> <Gold.Chemscore.ZeroCoef>
-5.4800

> <Gold.Chemscore.Hbond>
0.9440

> <Gold.Chemscore.Metal>
0.0000

> <Gold.Chemscore.Lipo>
91.0578

> <Gold.Chemscore.Internal_Hbond>
0.0000

> <Gold.Chemscore.DEClash>
0.1634

> <Gold.Chemscore.DEInternal>
2.7492

> <Gold.Chemscore.Rot>
1.4183

> <Gold.Chemscore.Internal.Correction>
   9.000000E+99

> <Gold.Chemscore.Hbonds>
donor molecule, donor type, donor heavy atom, donor atom, acceptor molecule, acceptor atom, score
      P1  H  7989  7998       L1    16  0.12

> <Gold.Chemscore.Hbond.Weighted>
-3.1528

> <Gold.Chemscore.Metal.Weighted>
-0.0000

> <Gold.Chemscore.Lipo.Weighted>
-10.6538

> <Gold.Chemscore.Internal_Hbond.Weighted>
0.0000

> <Gold.Chemscore.DEClash.Weighted>
0.1634

> <Gold.Chemscore.DEInternal.Weighted>
2.7492

> <Gold.Chemscore.Rot.Weighted>
3.6308

> <Gold.Chemscore.Internal.Correction.Weighted>
   9.000000E+99

> <Gold.Protein.RotatedTorsions>
[ 6907 6896 6895 6894 ] final  105.71 input  -60.11 | X-H torsion
[ 7974 7965 7964 7962 ] final  117.10 input  175.53 | X-H torsion
[ 8008 7997 7996 7995 ] final   89.90 input   59.86 | X-H torsion
[ 10167 10162 10161 10158 ] final  -89.43 input  -65.29 | X-H torsion
[ 10718 10713 10712 10709 ] final  -21.21 input   66.30 | X-H torsion
[ 10763 10752 10751 10750 ] final -175.74 input  -60.55 | X-H torsion
[ 11005 11000 10999 10996 ] final  156.52 input  -57.11 | X-H torsion

> <Gold.Protein.ActiveResidues>
 VAL166  LYS551  ARG553  GLY616  TRP617  ASP618  TYR619  PRO620  LYS621  CYS622 
 ASP623  PHE694  ASN695  SER759  ASP760  ASP761  ALA762  ILE779  LEU786  VAL792 
 PHE793  MET794  SER795  GLU796  ALA797  LYS798  CYS799  TRP800  GLU811  SER814 

> <Gold.Protein.RotatedAtoms>
  152.5220  133.9488  159.7661 H   0  0  0  0  0  0  0  0  0  0  0  0  # atno 6907 bound_to 6896
  150.9803  133.6244  159.2731 H   0  0  0  0  0  0  0  0  0  0  0  0  # atno 6908 bound_to 6896
  151.3424  135.0872  159.9428 H   0  0  0  0  0  0  0  0  0  0  0  0  # atno 6909 bound_to 6896
  145.1715  139.3099  143.4465 H   0  0  0  0  0  0  0  0  0  0  0  0  # atno 7974 bound_to 7965
  156.0056  140.3355  155.6888 H   0  0  0  0  0  0  0  0  0  0  0  0  # atno 8008 bound_to 7997
  155.6230  140.0677  157.2690 H   0  0  0  0  0  0  0  0  0  0  0  0  # atno 8009 bound_to 7997
  154.4263  140.1773  156.1379 H   0  0  0  0  0  0  0  0  0  0  0  0  # atno 8010 bound_to 7997
  140.3649  143.2823  151.9570 H   0  0  0  0  0  0  0  0  0  0  0  0  # atno 10167 bound_to 10162
  156.5213  130.4633  149.6595 H   0  0  0  0  0  0  0  0  0  0  0  0  # atno 10718 bound_to 10713
  154.5808  135.2836  155.0735 H   0  0  0  0  0  0  0  0  0  0  0  0  # atno 10763 bound_to 10752
  154.2072  135.6414  153.5108 H   0  0  0  0  0  0  0  0  0  0  0  0  # atno 10764 bound_to 10752
  153.0087  135.5483  154.6461 H   0  0  0  0  0  0  0  0  0  0  0  0  # atno 10765 bound_to 10752
  140.1682  134.8561  157.2658 H   0  0  0  0  0  0  0  0  0  0  0  0  # atno 11005 bound_to 11000
  146.3468  140.1862  142.8589 LP  0  0  0  0  0  0  0  0  0  0  0  0  # atno 17320 bound_to 7965
  145.0228  140.8808  143.5156 LP  0  0  0  0  0  0  0  0  0  0  0  0  # atno 17321 bound_to 7965
  139.4810  144.5959  151.7691 LP  0  0  0  0  0  0  0  0  0  0  0  0  # atno 17342 bound_to 10162
  140.5090  144.1054  150.5990 LP  0  0  0  0  0  0  0  0  0  0  0  0  # atno 17343 bound_to 10162
  156.3146  130.7248  151.2147 LP  0  0  0  0  0  0  0  0  0  0  0  0  # atno 17370 bound_to 10713
  157.7436  131.0472  150.4931 LP  0  0  0  0  0  0  0  0  0  0  0  0  # atno 17371 bound_to 10713
  140.2408  134.3798  155.7481 LP  0  0  0  0  0  0  0  0  0  0  0  0  # atno 17394 bound_to 11000
  141.2215  133.7264  156.8786 LP  0  0  0  0  0  0  0  0  0  0  0  0  # atno 17395 bound_to 11000

$$$$
