AV-unprocessed.smi:1899|AV-procd|sdf|7707|dock3
  -GOLD-   22720 9443D 1   1.00000     0.00000
 Structure written by MMmdl.
 33 34  0  0  0  0  0  0  0  0  1 V2000
  152.3057  140.6920  158.6122 O   0  0  0  0  0  0  0  0  0  0  0  0
  151.3697  141.4147  158.2686 C   0  0  0  0  0  0  0  0  0  0  0  0
  150.4759  141.0658  157.3296 N   0  0  0  0  0  0  0  0  0  0  0  0
  150.4409  139.7820  156.6348 C   0  0  0  0  0  0  0  0  0  0  0  0
  150.5667  139.9533  155.1093 C   0  0  0  0  0  0  0  0  0  0  0  0
  149.3057  140.2990  154.4792 N   0  0  0  0  0  0  0  0  0  0  0  0
  148.2442  139.4460  154.2055 C   0  0  0  0  0  0  0  0  0  0  0  0
  147.2747  140.2084  153.5947 C   0  0  0  0  0  0  0  0  0  0  0  0
  147.7120  141.5267  153.4900 N   0  0  0  0  0  0  0  0  0  0  0  0
  148.9215  141.5034  154.0352 C   0  0  0  0  0  0  0  0  0  0  0  0
  151.1601  142.7771  158.9410 C   0  0  2  0  0  0  0  0  0  0  0  0
  151.3327  143.9378  157.9340 C   0  0  0  0  0  0  0  0  0  0  0  0
  151.3975  145.2898  158.6233 C   0  0  0  0  0  0  0  0  0  0  0  0
  151.6175  145.4386  159.9409 C   0  0  0  0  0  0  0  0  0  0  0  0
  151.8315  144.2723  160.8896 C   0  0  0  0  0  0  0  0  0  0  0  0
  152.1132  142.9568  160.1398 C   0  0  0  0  0  0  0  0  0  0  0  0
  149.7417  141.7231  157.1087 H   0  0  0  0  0  0  0  0  0  0  0  0
  151.2795  139.1886  156.9994 H   0  0  0  0  0  0  0  0  0  0  0  0
  149.5408  139.2185  156.8865 H   0  0  0  0  0  0  0  0  0  0  0  0
  151.3027  140.7221  154.8702 H   0  0  0  0  0  0  0  0  0  0  0  0
  150.9260  139.0264  154.6609 H   0  0  0  0  0  0  0  0  0  0  0  0
  148.2697  138.3949  154.4523 H   0  0  0  0  0  0  0  0  0  0  0  0
  146.3041  139.9117  153.2253 H   0  0  0  0  0  0  0  0  0  0  0  0
  149.5456  142.3820  154.1074 H   0  0  0  0  0  0  0  0  0  0  0  0
  150.1386  142.8138  159.3249 H   0  0  0  0  0  0  0  0  0  0  0  0
  152.2412  143.8207  157.3414 H   0  0  0  0  0  0  0  0  0  0  0  0
  150.4964  143.9450  157.2341 H   0  0  0  0  0  0  0  0  0  0  0  0
  151.2692  146.1616  157.9988 H   0  0  0  0  0  0  0  0  0  0  0  0
  151.6389  146.4282  160.3735 H   0  0  0  0  0  0  0  0  0  0  0  0
  152.6586  144.5013  161.5620 H   0  0  0  0  0  0  0  0  0  0  0  0
  150.9384  144.1704  161.5067 H   0  0  0  0  0  0  0  0  0  0  0  0
  152.0312  142.1164  160.8306 H   0  0  0  0  0  0  0  0  0  0  0  0
  153.1454  142.9627  159.7856 H   0  0  0  0  0  0  0  0  0  0  0  0
  1  2  2  0  0  0  0
  2  3  1  0  0  0  0
  2 11  1  0  0  0  0
  3  4  1  0  0  0  0
  3 17  1  0  0  0  0
  4  5  1  0  0  0  0
  4 18  1  0  0  0  0
  4 19  1  0  0  0  0
  5  6  1  0  0  0  0
  5 20  1  0  0  0  0
  5 21  1  0  0  0  0
  6 10  1  0  0  0  0
  6  7  1  0  0  0  0
  7  8  2  0  0  0  0
  7 22  1  0  0  0  0
  8  9  1  0  0  0  0
  8 23  1  0  0  0  0
  9 10  2  0  0  0  0
 10 24  1  0  0  0  0
 11 16  1  0  0  0  0
 11 12  1  0  0  0  0
 11 25  1  0  0  0  0
 12 13  1  0  0  0  0
 12 26  1  0  0  0  0
 12 27  1  0  0  0  0
 13 14  2  0  0  0  0
 13 28  1  0  0  0  0
 14 15  1  0  0  0  0
 14 29  1  0  0  0  0
 15 16  1  0  0  0  0
 15 30  1  0  0  0  0
 15 31  1  0  0  0  0
 16 32  1  0  0  0  0
 16 33  1  0  0  0  0
M  END
> <s_m_source_file>
AV-unprocessed.smi

> <i_m_source_file_index>
1899

> <i_lp_mmshare_version>
43012

> <i_f3d_flags>
0

> <s_epik_input>
W0NIMl0xW0NIMl1bQ0hdPVtDSF1bQ0gyXVtDQEhdMUMoPU8pW05IXVtDSDJdW0NIMl1uMltjSF1bY0hdbltjSF0y

> <s_epik_cmdline>
J2VwaWtfcHl0aG9uJywgJy1waCcsICc3LjAnLCAnLXRuJywgJzgnLCAnLW1hJywgJzIwMCcsICctbWV0YWxfYmluZGluZycsICctaW1hZScsICc8aW5maWxlLm1hZT4nLCAnLW9tYWUnLCAnPG91dGZpbGUubWFlPic=

> <r_lp_tautomer_probability>
1

> <r_epik_Ionization_Penalty>
0.598506

> <r_epik_Ionization_Penalty_Charging>
0.598506

> <r_epik_Ionization_Penalty_Neutral>
1.57027e-08

> <r_epik_State_Penalty>
0.612686

> <r_epik_Charging_Adjusted_Penalty>
1.21119

> <i_epik_Tot_Q>
0

> <i_epik_Tot_abs_Q>
0

> <r_epik_Metal_State_Penalty>
0.300712

> <b_epik_Metal_Only>
0

> <s_lp_Force_Field>
OPLS_2005

> <r_lp_Energy>
9.97921

> <b_lp_Chiralities_Consistent>
1

> <s_lp_Variant>
AV-unprocessed.smi:1899-3

> <Gold.Version>
5.8.1

> <Gold.Id.Protein>
6NUR|6NUR_protein|mol2

> <Gold.PLP.Fitness>
34.2187

> <Gold.PLP.PLP>
-33.4511

> <Gold.PLP.part.hbond>
-0.2505

> <Gold.PLP.part.metal>
0.0000

> <Gold.PLP.part.buried>
0.0746

> <Gold.PLP.part.nonpolar>
-33.0013

> <Gold.PLP.part.repulsive>
0.2117

> <Gold.PLP.ligand.clash>
0.0000

> <Gold.PLP.ligand.torsion>
0.4174

> <Gold.PLP.Chemscore.Hbond>
0.0000

> <Gold.PLP.Chemscore.CHOScore>
0.5206

> <Gold.PLP.Chemscore.Metal>
0.0000

> <Gold.Chemscore.Hbonds>
donor molecule, donor type, donor heavy atom, donor atom, acceptor molecule, acceptor atom, score
      L1  C     8    23       P1 10175  0.37
      L1  C    10    24       P1  8028  0.15

> <Gold.PLP.Chemscore.Internal.Correction>
0.0408

> <Gold.Rescore>
     Score         DG    S(hbond)    S(metal)    S(lipo)     H(rot)  DE(clash)    DE(int)     intcor
     11.19     -11.53       0.00        0.00      91.15       1.80       0.04       0.30       ----

> <Gold.Chemscore.Fitness>
11.1926

> <Gold.Chemscore.DG>
-11.5258

> <Gold.Chemscore.ZeroCoef>
-5.4800

> <Gold.Chemscore.Hbond>
0.0004

> <Gold.Chemscore.Metal>
0.0000

> <Gold.Chemscore.Lipo>
91.1529

> <Gold.Chemscore.Internal_Hbond>
0.0000

> <Gold.Chemscore.DEClash>
0.0351

> <Gold.Chemscore.DEInternal>
0.2981

> <Gold.Chemscore.Rot>
1.8048

> <Gold.Chemscore.Internal.Correction>
   9.000000E+99

> <Gold.Chemscore.Hbond.Weighted>
-0.0012

> <Gold.Chemscore.Metal.Weighted>
-0.0000

> <Gold.Chemscore.Lipo.Weighted>
-10.6649

> <Gold.Chemscore.Internal_Hbond.Weighted>
0.0000

> <Gold.Chemscore.DEClash.Weighted>
0.0351

> <Gold.Chemscore.DEInternal.Weighted>
0.2981

> <Gold.Chemscore.Rot.Weighted>
4.6203

> <Gold.Chemscore.Internal.Correction.Weighted>
   9.000000E+99

> <Gold.Protein.RotatedTorsions>
[ 6907 6896 6895 6894 ] final  -71.36 input  -60.11 | X-H torsion
[ 7974 7965 7964 7962 ] final   25.06 input  175.53 | X-H torsion
[ 8008 7997 7996 7995 ] final   41.58 input   59.86 | X-H torsion
[ 10167 10162 10161 10158 ] final  113.30 input  -65.29 | X-H torsion
[ 10718 10713 10712 10709 ] final   -1.20 input   66.30 | X-H torsion
[ 10763 10752 10751 10750 ] final  137.73 input  -60.55 | X-H torsion
[ 11005 11000 10999 10996 ] final   93.36 input  -57.11 | X-H torsion

> <Gold.Protein.ActiveResidues>
 VAL166  LYS551  ARG553  GLY616  TRP617  ASP618  TYR619  PRO620  LYS621  CYS622 
 ASP623  PHE694  ASN695  SER759  ASP760  ASP761  ALA762  ILE779  LEU786  VAL792 
 PHE793  MET794  SER795  GLU796  ALA797  LYS798  CYS799  TRP800  GLU811  SER814 

> <Gold.Protein.RotatedAtoms>
  150.7216  134.5319  159.5704 H   0  0  0  0  0  0  0  0  0  0  0  0  # atno 6907 bound_to 6896
  152.2850  134.7783  160.0398 H   0  0  0  0  0  0  0  0  0  0  0  0  # atno 6908 bound_to 6896
  151.8416  133.3389  159.3681 H   0  0  0  0  0  0  0  0  0  0  0  0  # atno 6909 bound_to 6896
  146.1907  139.7518  142.8834 H   0  0  0  0  0  0  0  0  0  0  0  0  # atno 7974 bound_to 7965
  155.2720  140.3366  155.4264 H   0  0  0  0  0  0  0  0  0  0  0  0  # atno 8008 bound_to 7997
  156.2128  140.1777  156.7697 H   0  0  0  0  0  0  0  0  0  0  0  0  # atno 8009 bound_to 7997
  154.5711  140.0670  156.8950 H   0  0  0  0  0  0  0  0  0  0  0  0  # atno 8010 bound_to 7997
  139.6471  144.7127  151.2121 H   0  0  0  0  0  0  0  0  0  0  0  0  # atno 10167 bound_to 10162
  156.8091  130.5418  149.5711 H   0  0  0  0  0  0  0  0  0  0  0  0  # atno 10718 bound_to 10713
  153.8778  135.3048  155.3444 H   0  0  0  0  0  0  0  0  0  0  0  0  # atno 10763 bound_to 10752
  154.7775  135.4853  153.9779 H   0  0  0  0  0  0  0  0  0  0  0  0  # atno 10764 bound_to 10752
  153.1369  135.6816  153.9186 H   0  0  0  0  0  0  0  0  0  0  0  0  # atno 10765 bound_to 10752
  139.8811  134.8785  156.3707 H   0  0  0  0  0  0  0  0  0  0  0  0  # atno 11005 bound_to 11000
  145.3800  141.0357  143.3182 LP  0  0  0  0  0  0  0  0  0  0  0  0  # atno 17320 bound_to 7965
  144.8482  139.5364  143.6869 LP  0  0  0  0  0  0  0  0  0  0  0  0  # atno 17321 bound_to 7965
  140.7520  143.6212  150.8511 LP  0  0  0  0  0  0  0  0  0  0  0  0  # atno 17342 bound_to 10162
  139.9856  143.5903  152.2928 LP  0  0  0  0  0  0  0  0  0  0  0  0  # atno 17343 bound_to 10162
  156.1055  130.6001  150.9964 LP  0  0  0  0  0  0  0  0  0  0  0  0  # atno 17370 bound_to 10713
  157.6515  131.0896  150.8040 LP  0  0  0  0  0  0  0  0  0  0  0  0  # atno 17371 bound_to 10713
  140.9466  133.7479  156.0217 LP  0  0  0  0  0  0  0  0  0  0  0  0  # atno 17394 bound_to 11000
  140.8155  134.3349  157.5398 LP  0  0  0  0  0  0  0  0  0  0  0  0  # atno 17395 bound_to 11000

$$$$
