AV-unprocessed.smi:1248|AV-procd|sdf|5252|dock6
  -GOLD-   22720 4363D 1   1.00000     0.00000
 Structure written by MMmdl.
 43 45  0  0  0  0  0  0  0  0  1 V2000
  153.6884  133.3229  165.4791 C   0  0  0  0  0  0  0  0  0  0  0  0
  154.6365  133.1419  164.2875 C   0  0  0  0  0  0  0  0  0  0  0  0
  154.6530  134.3095  163.4273 N   0  0  0  0  0  0  0  0  0  0  0  0
  154.4638  135.6317  163.7776 C   0  0  0  0  0  0  0  0  0  0  0  0
  154.5712  136.3421  162.6199 C   0  0  0  0  0  0  0  0  0  0  0  0
  154.4432  137.7500  162.5188 N   0  0  0  0  0  0  0  0  0  0  0  0
  154.2120  138.4667  161.4070 C   0  0  0  0  0  0  0  0  0  0  0  0
  154.0694  137.9964  160.2785 O   0  0  0  0  0  0  0  0  0  0  0  0
  154.1572  139.7791  161.6755 N   0  0  0  0  0  0  0  0  0  0  0  0
  153.9279  140.8309  160.6892 C   0  0  0  0  0  0  0  0  0  0  0  0
  153.5224  142.1489  161.3733 C   0  0  0  0  0  0  0  0  0  0  0  0
  153.1263  143.2125  160.3343 C   0  0  0  0  0  0  0  0  0  0  0  0
  152.0251  142.7240  159.5041 N   0  0  0  0  0  0  0  0  0  0  0  0
  151.6441  143.7681  158.5669 C   0  0  0  0  0  0  0  0  0  0  0  0
  152.7408  144.6589  158.0291 C   0  0  0  0  0  0  0  0  0  0  0  0
  151.7543  145.2013  159.0348 C   0  0  0  0  0  0  0  0  0  0  0  0
  152.4562  141.5458  158.7517 C   0  0  0  0  0  0  0  0  0  0  0  0
  152.8165  140.4033  159.7177 C   0  0  0  0  0  0  0  0  0  0  0  0
  154.8252  135.3840  161.5981 C   0  0  0  0  0  0  0  0  0  0  0  0
  154.8709  134.1580  162.0975 N   0  0  0  0  0  0  0  0  0  0  0  0
  153.6762  132.4295  166.1035 H   0  0  0  0  0  0  0  0  0  0  0  0
  152.6677  133.5101  165.1451 H   0  0  0  0  0  0  0  0  0  0  0  0
  153.9954  134.1607  166.1055 H   0  0  0  0  0  0  0  0  0  0  0  0
  155.6519  132.9496  164.6360 H   0  0  0  0  0  0  0  0  0  0  0  0
  154.3350  132.2765  163.6965 H   0  0  0  0  0  0  0  0  0  0  0  0
  154.2749  135.9420  164.7948 H   0  0  0  0  0  0  0  0  0  0  0  0
  154.5426  138.2651  163.3810 H   0  0  0  0  0  0  0  0  0  0  0  0
  154.2860  140.0744  162.6320 H   0  0  0  0  0  0  0  0  0  0  0  0
  154.8418  140.9934  160.1144 H   0  0  0  0  0  0  0  0  0  0  0  0
  152.6851  141.9765  162.0515 H   0  0  0  0  0  0  0  0  0  0  0  0
  154.3432  142.5243  161.9852 H   0  0  0  0  0  0  0  0  0  0  0  0
  152.8183  144.1237  160.8484 H   0  0  0  0  0  0  0  0  0  0  0  0
  153.9836  143.4708  159.7104 H   0  0  0  0  0  0  0  0  0  0  0  0
  150.8292  143.5693  157.8727 H   0  0  0  0  0  0  0  0  0  0  0  0
  153.7583  144.4803  158.3719 H   0  0  0  0  0  0  0  0  0  0  0  0
  152.6494  144.9996  156.9998 H   0  0  0  0  0  0  0  0  0  0  0  0
  151.0061  145.9049  158.6757 H   0  0  0  0  0  0  0  0  0  0  0  0
  152.1170  145.3822  160.0451 H   0  0  0  0  0  0  0  0  0  0  0  0
  151.6521  141.2220  158.0899 H   0  0  0  0  0  0  0  0  0  0  0  0
  153.3111  141.7931  158.1198 H   0  0  0  0  0  0  0  0  0  0  0  0
  153.1325  139.5272  159.1504 H   0  0  0  0  0  0  0  0  0  0  0  0
  151.9255  140.1076  160.2741 H   0  0  0  0  0  0  0  0  0  0  0  0
  154.9738  135.5216  160.5376 H   0  0  0  0  0  0  0  0  0  0  0  0
  1  2  1  0  0  0  0
  1 21  1  0  0  0  0
  1 22  1  0  0  0  0
  1 23  1  0  0  0  0
  2  3  1  0  0  0  0
  2 24  1  0  0  0  0
  2 25  1  0  0  0  0
  3 20  1  0  0  0  0
  3  4  1  0  0  0  0
  4  5  2  0  0  0  0
  4 26  1  0  0  0  0
  5  6  1  0  0  0  0
  5 19  1  0  0  0  0
  6  7  1  0  0  0  0
  6 27  1  0  0  0  0
  7  8  2  0  0  0  0
  7  9  1  0  0  0  0
  9 10  1  0  0  0  0
  9 28  1  0  0  0  0
 10 18  1  0  0  0  0
 10 11  1  0  0  0  0
 10 29  1  0  0  0  0
 11 12  1  0  0  0  0
 11 30  1  0  0  0  0
 11 31  1  0  0  0  0
 12 13  1  0  0  0  0
 12 32  1  0  0  0  0
 12 33  1  0  0  0  0
 13 14  1  0  0  0  0
 13 17  1  0  0  0  0
 14 16  1  0  0  0  0
 14 15  1  0  0  0  0
 14 34  1  0  0  0  0
 15 16  1  0  0  0  0
 15 35  1  0  0  0  0
 15 36  1  0  0  0  0
 16 37  1  0  0  0  0
 16 38  1  0  0  0  0
 17 18  1  0  0  0  0
 17 39  1  0  0  0  0
 17 40  1  0  0  0  0
 18 41  1  0  0  0  0
 18 42  1  0  0  0  0
 19 20  2  0  0  0  0
 19 43  1  0  0  0  0
M  END
> <s_m_source_file>
AV-unprocessed.smi

> <i_m_source_file_index>
1248

> <i_lp_mmshare_version>
43012

> <i_f3d_flags>
0

> <s_epik_input>
W0NIM11bQ0gyXW4xW2NIXWMoW2NIXW4xKVtOSF1DKD1PKVtOSF1bQ0hdMltDSDJdW0NIMl1OKFtDSDJdW0NIMl0yKVtDSF0zW0NIMl1bQ0gyXTM=

> <s_epik_cmdline>
J2VwaWtfcHl0aG9uJywgJy1waCcsICc3LjAnLCAnLXRuJywgJzgnLCAnLW1hJywgJzIwMCcsICctbWV0YWxfYmluZGluZycsICctaW1hZScsICc8aW5maWxlLm1hZT4nLCAnLW9tYWUnLCAnPG91dGZpbGUubWFlPic=

> <r_lp_tautomer_probability>
1

> <r_epik_Ionization_Penalty>
1.02552

> <r_epik_Ionization_Penalty_Charging>
0

> <r_epik_Ionization_Penalty_Neutral>
1.02552

> <r_epik_State_Penalty>
1.07599

> <r_epik_Charging_Adjusted_Penalty>
1.07599

> <i_epik_Tot_Q>
0

> <i_epik_Tot_abs_Q>
0

> <r_epik_Metal_State_Penalty>
1.07597

> <b_epik_Metal_Only>
0

> <s_lp_Force_Field>
OPLS_2005

> <r_lp_Energy>
25.1211

> <b_lp_Chiralities_Consistent>
1

> <s_lp_Variant>
AV-unprocessed.smi:1248-3

> <Gold.Version>
5.8.1

> <Gold.Id.Protein>
6NUR|6NUR_protein|mol2

> <Gold.PLP.Fitness>
43.3043

> <Gold.PLP.PLP>
-44.9157

> <Gold.PLP.part.hbond>
0.0000

> <Gold.PLP.part.metal>
0.0000

> <Gold.PLP.part.buried>
-5.9830

> <Gold.PLP.part.nonpolar>
-39.3194

> <Gold.PLP.part.repulsive>
0.0150

> <Gold.PLP.ligand.clash>
0.2879

> <Gold.PLP.ligand.torsion>
1.2519

> <Gold.PLP.Chemscore.Hbond>
0.0000

> <Gold.PLP.Chemscore.CHOScore>
0.0000

> <Gold.PLP.Chemscore.Metal>
0.0000

> <Gold.PLP.Chemscore.Internal.Correction>
1.1803

> <Gold.Rescore>
     Score         DG    S(hbond)    S(metal)    S(lipo)     H(rot)  DE(clash)    DE(int)     intcor
     14.54     -16.50       0.00        0.00     122.99       1.32       0.22       1.74       ----

> <Gold.Chemscore.Fitness>
14.5361

> <Gold.Chemscore.DG>
-16.4992

> <Gold.Chemscore.ZeroCoef>
-5.4800

> <Gold.Chemscore.Hbond>
0.0000

> <Gold.Chemscore.Metal>
0.0000

> <Gold.Chemscore.Lipo>
122.9947

> <Gold.Chemscore.Internal_Hbond>
0.0000

> <Gold.Chemscore.DEClash>
0.2233

> <Gold.Chemscore.DEInternal>
1.7398

> <Gold.Chemscore.Rot>
1.3169

> <Gold.Chemscore.Internal.Correction>
   9.000000E+99

> <Gold.Chemscore.Hbond.Weighted>
-0.0000

> <Gold.Chemscore.Metal.Weighted>
-0.0000

> <Gold.Chemscore.Lipo.Weighted>
-14.3904

> <Gold.Chemscore.Internal_Hbond.Weighted>
0.0000

> <Gold.Chemscore.DEClash.Weighted>
0.2233

> <Gold.Chemscore.DEInternal.Weighted>
1.7398

> <Gold.Chemscore.Rot.Weighted>
3.3712

> <Gold.Chemscore.Internal.Correction.Weighted>
   9.000000E+99

> <Gold.Protein.RotatedTorsions>
[ 6907 6896 6895 6894 ] final  -43.27 input  -60.11 | X-H torsion
[ 7974 7965 7964 7962 ] final -177.89 input  175.53 | X-H torsion
[ 8008 7997 7996 7995 ] final -164.59 input   59.86 | X-H torsion
[ 10167 10162 10161 10158 ] final  -17.12 input  -65.29 | X-H torsion
[ 10718 10713 10712 10709 ] final   66.89 input   66.30 | X-H torsion
[ 10763 10752 10751 10750 ] final  157.38 input  -60.55 | X-H torsion
[ 11005 11000 10999 10996 ] final   -9.81 input  -57.11 | X-H torsion

> <Gold.Protein.ActiveResidues>
 VAL166  LYS551  ARG553  GLY616  TRP617  ASP618  TYR619  PRO620  LYS621  CYS622 
 ASP623  PHE694  ASN695  SER759  ASP760  ASP761  ALA762  ILE779  LEU786  VAL792 
 PHE793  MET794  SER795  GLU796  ALA797  LYS798  CYS799  TRP800  GLU811  SER814 

> <Gold.Protein.RotatedAtoms>
  150.9458  134.8863  159.7640 H   0  0  0  0  0  0  0  0  0  0  0  0  # atno 6907 bound_to 6896
  152.5099  134.3877  159.9383 H   0  0  0  0  0  0  0  0  0  0  0  0  # atno 6908 bound_to 6896
  151.3896  133.3753  159.2754 H   0  0  0  0  0  0  0  0  0  0  0  0  # atno 6909 bound_to 6896
  144.7129  140.0951  143.6419 H   0  0  0  0  0  0  0  0  0  0  0  0  # atno 7974 bound_to 7965
  155.8377  140.0943  157.1754 H   0  0  0  0  0  0  0  0  0  0  0  0  # atno 8008 bound_to 7997
  154.3981  140.1407  156.3752 H   0  0  0  0  0  0  0  0  0  0  0  0  # atno 8009 bound_to 7997
  155.8098  140.3450  155.5453 H   0  0  0  0  0  0  0  0  0  0  0  0  # atno 8010 bound_to 7997
  140.7243  143.5048  150.9824 H   0  0  0  0  0  0  0  0  0  0  0  0  # atno 10167 bound_to 10162
  157.6197  130.9292  150.0170 H   0  0  0  0  0  0  0  0  0  0  0  0  # atno 10718 bound_to 10713
  154.1993  135.2791  155.2996 H   0  0  0  0  0  0  0  0  0  0  0  0  # atno 10763 bound_to 10752
  154.5867  135.5572  153.7241 H   0  0  0  0  0  0  0  0  0  0  0  0  # atno 10764 bound_to 10752
  153.0092  135.6358  154.2131 H   0  0  0  0  0  0  0  0  0  0  0  0  # atno 10765 bound_to 10752
  140.7381  133.8693  155.8946 H   0  0  0  0  0  0  0  0  0  0  0  0  # atno 11005 bound_to 11000
  145.9587  139.2785  143.1169 LP  0  0  0  0  0  0  0  0  0  0  0  0  # atno 17320 bound_to 7965
  145.9245  140.9092  143.0388 LP  0  0  0  0  0  0  0  0  0  0  0  0  # atno 17321 bound_to 7965
  139.8759  143.7133  152.3162 LP  0  0  0  0  0  0  0  0  0  0  0  0  # atno 17342 bound_to 10162
  139.7399  144.7562  151.0669 LP  0  0  0  0  0  0  0  0  0  0  0  0  # atno 17343 bound_to 10162
  156.1336  130.3643  149.9692 LP  0  0  0  0  0  0  0  0  0  0  0  0  # atno 17370 bound_to 10713
  156.7747  130.9199  151.3645 LP  0  0  0  0  0  0  0  0  0  0  0  0  # atno 17371 bound_to 10713
  140.9861  134.1341  157.4451 LP  0  0  0  0  0  0  0  0  0  0  0  0  # atno 17394 bound_to 11000
  139.8812  135.0026  156.6135 LP  0  0  0  0  0  0  0  0  0  0  0  0  # atno 17395 bound_to 11000

$$$$
