AV-unprocessed.smi:1830|AV-procd|sdf|7436|dock6
  -GOLD-   22720 9123D 1   1.00000     0.00000
 Structure written by MMmdl.
 53 56  0  0  0  0  0  0  0  0  2 V2000
  144.9468  135.5011  156.3399 O   0  0  0  0  0  0  0  0  0  0  0  0
  144.2829  134.5159  156.0180 C   0  0  0  0  0  0  0  0  0  0  0  0
  143.3661  134.5274  155.0403 N   0  0  0  0  0  0  0  0  0  0  0  0
  143.0091  135.6935  154.2394 C   0  0  0  0  0  0  0  0  0  0  0  0
  143.3514  135.4884  152.7529 C   0  0  2  0  0  0  0  0  0  0  0  0
  143.0714  134.0470  152.2961 C   0  0  0  0  0  0  0  0  0  0  0  0
  143.4433  133.8433  150.8727 N   0  3  2  0  0  0  0  0  0  0  0  0
  143.4644  132.4122  150.4984 C   0  0  0  0  0  0  0  0  0  0  0  0
  144.9285  131.9492  150.6121 C   0  0  0  0  0  0  0  0  0  0  0  0
  145.7417  133.2126  150.9174 C   0  0  0  0  0  0  0  0  0  0  0  0
  144.7930  134.3530  150.5467 C   0  0  2  0  0  0  0  0  0  0  0  0
  145.0986  135.7209  151.1891 C   0  0  0  0  0  0  0  0  0  0  0  0
  144.7397  135.7297  152.5622 O   0  0  0  0  0  0  0  0  0  0  0  0
  144.3545  133.3080  156.6011 N   0  0  0  0  0  0  0  0  0  0  0  0
  145.1525  132.9145  157.7125 C   0  0  0  0  0  0  0  0  0  0  0  0
  146.4785  133.3839  157.8787 C   0  0  0  0  0  0  0  0  0  0  0  0
  147.2171  132.9804  159.0043 C   0  0  0  0  0  0  0  0  0  0  0  0
  146.6041  132.1161  159.9263 C   0  0  0  0  0  0  0  0  0  0  0  0
  145.3508  131.6446  159.7723 N   0  0  0  0  0  0  0  0  0  0  0  0
  144.6312  132.0121  158.6836 C   0  0  0  0  0  0  0  0  0  0  0  0
  143.3314  131.4693  158.5632 N   0  0  0  0  0  0  0  0  0  0  0  0
  142.2841  131.8388  159.5096 C   0  0  0  0  0  0  0  0  0  0  0  0
  141.1933  130.7882  159.3218 C   0  0  0  0  0  0  0  0  0  0  0  0
  142.0030  129.5291  159.0292 C   0  0  0  0  0  0  0  0  0  0  0  0
  143.2100  130.0503  158.2425 C   0  0  0  0  0  0  0  0  0  0  0  0
  142.8701  133.6702  154.8441 H   0  0  0  0  0  0  0  0  0  0  0  0
  141.9538  135.9427  154.3634 H   0  0  0  0  0  0  0  0  0  0  0  0
  143.5720  136.5411  154.6312 H   0  0  0  0  0  0  0  0  0  0  0  0
  142.7628  136.1870  152.1546 H   0  0  0  0  0  0  0  0  0  0  0  0
  143.6308  133.3537  152.9271 H   0  0  0  0  0  0  0  0  0  0  0  0
  142.0151  133.8070  152.4234 H   0  0  0  0  0  0  0  0  0  0  0  0
  142.7852  131.8097  151.1037 H   0  0  0  0  0  0  0  0  0  0  0  0
  143.1344  132.3265  149.4624 H   0  0  0  0  0  0  0  0  0  0  0  0
  145.0551  131.2077  151.4015 H   0  0  0  0  0  0  0  0  0  0  0  0
  145.2543  131.4920  149.6771 H   0  0  0  0  0  0  0  0  0  0  0  0
  145.9802  133.2501  151.9812 H   0  0  0  0  0  0  0  0  0  0  0  0
  146.6807  133.2526  150.3648 H   0  0  0  0  0  0  0  0  0  0  0  0
  144.8366  134.4715  149.4627 H   0  0  0  0  0  0  0  0  0  0  0  0
  146.1588  135.9561  151.0936 H   0  0  0  0  0  0  0  0  0  0  0  0
  144.5570  136.5134  150.6701 H   0  0  0  0  0  0  0  0  0  0  0  0
  143.6795  132.6243  156.2921 H   0  0  0  0  0  0  0  0  0  0  0  0
  146.9427  134.0401  157.1584 H   0  0  0  0  0  0  0  0  0  0  0  0
  148.2285  133.3269  159.1571 H   0  0  0  0  0  0  0  0  0  0  0  0
  147.1355  131.7878  160.8070 H   0  0  0  0  0  0  0  0  0  0  0  0
  142.6536  131.7965  160.5350 H   0  0  0  0  0  0  0  0  0  0  0  0
  141.9138  132.8467  159.3192 H   0  0  0  0  0  0  0  0  0  0  0  0
  140.5445  130.6878  160.1920 H   0  0  0  0  0  0  0  0  0  0  0  0
  140.5733  131.0419  158.4608 H   0  0  0  0  0  0  0  0  0  0  0  0
  142.3397  129.0859  159.9674 H   0  0  0  0  0  0  0  0  0  0  0  0
  141.4361  128.7736  158.4847 H   0  0  0  0  0  0  0  0  0  0  0  0
  143.0261  129.9478  157.1728 H   0  0  0  0  0  0  0  0  0  0  0  0
  144.1154  129.4931  158.4869 H   0  0  0  0  0  0  0  0  0  0  0  0
  142.7628  134.3316  150.3081 H   0  0  0  0  0  0  0  0  0  0  0  0
  1  2  2  0  0  0  0
  2  3  1  0  0  0  0
  2 14  1  0  0  0  0
  3  4  1  0  0  0  0
  3 26  1  0  0  0  0
  4  5  1  0  0  0  0
  4 27  1  0  0  0  0
  4 28  1  0  0  0  0
  5 13  1  0  0  0  0
  5  6  1  0  0  0  0
  5 29  1  0  0  0  0
  6  7  1  0  0  0  0
  6 30  1  0  0  0  0
  6 31  1  0  0  0  0
  7 11  1  0  0  0  0
  7  8  1  0  0  0  0
  7 53  1  0  0  0  0
  8  9  1  0  0  0  0
  8 32  1  0  0  0  0
  8 33  1  0  0  0  0
  9 10  1  0  0  0  0
  9 34  1  0  0  0  0
  9 35  1  0  0  0  0
 10 11  1  0  0  0  0
 10 36  1  0  0  0  0
 10 37  1  0  0  0  0
 11 12  1  0  0  0  0
 11 38  1  0  0  0  0
 12 13  1  0  0  0  0
 12 39  1  0  0  0  0
 12 40  1  0  0  0  0
 14 15  1  0  0  0  0
 14 41  1  0  0  0  0
 15 20  1  0  0  0  0
 15 16  2  0  0  0  0
 16 17  1  0  0  0  0
 16 42  1  0  0  0  0
 17 18  2  0  0  0  0
 17 43  1  0  0  0  0
 18 19  1  0  0  0  0
 18 44  1  0  0  0  0
 19 20  2  0  0  0  0
 20 21  1  0  0  0  0
 21 25  1  0  0  0  0
 21 22  1  0  0  0  0
 22 23  1  0  0  0  0
 22 45  1  0  0  0  0
 22 46  1  0  0  0  0
 23 24  1  0  0  0  0
 23 47  1  0  0  0  0
 23 48  1  0  0  0  0
 24 25  1  0  0  0  0
 24 49  1  0  0  0  0
 24 50  1  0  0  0  0
 25 51  1  0  0  0  0
 25 52  1  0  0  0  0
M  CHG  1   7   1
M  END
> <s_m_source_file>
AV-unprocessed.smi

> <i_m_source_file_index>
1830

> <i_lp_mmshare_version>
43012

> <i_f3d_flags>
0

> <s_epik_input>
W0NIMl0xW0NIMl1bQ0gyXVtDQEhdKE4xMilbQ0gyXU9bQ0BASF0oW0NIMl0yKVtDSDJdW05IXUMoPU8pW05IXWMzW2NIXVtjSF1bY0hdbmMzTjRbQ0gyXVtDSDJdW0NIMl1bQ0gyXTQ=

> <s_epik_cmdline>
J2VwaWtfcHl0aG9uJywgJy1waCcsICc3LjAnLCAnLXRuJywgJzgnLCAnLW1hJywgJzIwMCcsICctbWV0YWxfYmluZGluZycsICctaW1hZScsICc8aW5maWxlLm1hZT4nLCAnLW9tYWUnLCAnPG91dGZpbGUubWFlPic=

> <r_lp_tautomer_probability>
1

> <r_epik_Ionization_Penalty>
0.193547

> <r_epik_Ionization_Penalty_Charging>
0.10673

> <r_epik_Ionization_Penalty_Neutral>
0.0868166

> <r_epik_State_Penalty>
0.173595

> <r_epik_Charging_Adjusted_Penalty>
0.280326

> <i_epik_Tot_Q>
1

> <i_epik_Tot_abs_Q>
1

> <r_epik_Metal_State_Penalty>
0.164683

> <b_epik_Metal_Only>
0

> <s_lp_Force_Field>
OPLS_2005

> <r_lp_Energy>
65.0875

> <b_lp_Chiralities_Consistent>
1

> <s_lp_Variant>
AV-unprocessed.smi:1830-5

> <Gold.Version>
5.8.1

> <Gold.Id.Protein>
6NUR|6NUR_protein|mol2

> <Gold.PLP.Fitness>
45.0600

> <Gold.PLP.PLP>
-34.0578

> <Gold.PLP.part.hbond>
-3.0000

> <Gold.PLP.part.metal>
0.0000

> <Gold.PLP.part.buried>
-6.9261

> <Gold.PLP.part.nonpolar>
-24.5130

> <Gold.PLP.part.repulsive>
0.2091

> <Gold.PLP.ligand.clash>
0.0000

> <Gold.PLP.ligand.torsion>
0.6635

> <Gold.PLP.Chemscore.Hbond>
4.0000

> <Gold.PLP.Chemscore.CHOScore>
0.0000

> <Gold.PLP.Chemscore.Metal>
0.0000

> <Gold.Chemscore.Hbonds>
donor molecule, donor type, donor heavy atom, donor atom, acceptor molecule, acceptor atom, score
      L1  H     3    26       P1 10957  1.00
      L1  H     7    53       P1 10186  2.00
      L1  H    14    41       P1 10957  1.00

> <Gold.PLP.Chemscore.Internal.Correction>
0.3291

> <Gold.Rescore>
     Score         DG    S(hbond)    S(metal)    S(lipo)     H(rot)  DE(clash)    DE(int)     intcor
     19.75     -21.42       2.92        0.00      83.62       1.41       0.04       1.62       ----

> <Gold.Chemscore.Fitness>
19.7503

> <Gold.Chemscore.DG>
-21.4167

> <Gold.Chemscore.ZeroCoef>
-5.4800

> <Gold.Chemscore.Hbond>
2.9205

> <Gold.Chemscore.Metal>
0.0000

> <Gold.Chemscore.Lipo>
83.6186

> <Gold.Chemscore.Internal_Hbond>
0.0000

> <Gold.Chemscore.DEClash>
0.0425

> <Gold.Chemscore.DEInternal>
1.6239

> <Gold.Chemscore.Rot>
1.4067

> <Gold.Chemscore.Internal.Correction>
   9.000000E+99

> <Gold.Chemscore.Hbonds>
donor molecule, donor type, donor heavy atom, donor atom, acceptor molecule, acceptor atom, score
      L1  H     3    26       P1 10957  0.98
      L1  H     7    53       P1 10186  0.74
      L1  H    14    41       P1 10957  0.94

> <Gold.Chemscore.Hbond.Weighted>
-9.7544

> <Gold.Chemscore.Metal.Weighted>
-0.0000

> <Gold.Chemscore.Lipo.Weighted>
-9.7834

> <Gold.Chemscore.Internal_Hbond.Weighted>
0.0000

> <Gold.Chemscore.DEClash.Weighted>
0.0425

> <Gold.Chemscore.DEInternal.Weighted>
1.6239

> <Gold.Chemscore.Rot.Weighted>
3.6011

> <Gold.Chemscore.Internal.Correction.Weighted>
   9.000000E+99

> <Gold.Protein.RotatedTorsions>
[ 6907 6896 6895 6894 ] final -140.63 input  -60.11 | X-H torsion
[ 7974 7965 7964 7962 ] final  -95.36 input  175.53 | X-H torsion
[ 8008 7997 7996 7995 ] final   94.01 input   59.86 | X-H torsion
[ 10167 10162 10161 10158 ] final  124.18 input  -65.29 | X-H torsion
[ 10718 10713 10712 10709 ] final  -85.91 input   66.30 | X-H torsion
[ 10763 10752 10751 10750 ] final  -54.96 input  -60.55 | X-H torsion
[ 11005 11000 10999 10996 ] final -168.76 input  -57.11 | X-H torsion

> <Gold.Protein.ActiveResidues>
 VAL166  LYS551  ARG553  GLY616  TRP617  ASP618  TYR619  PRO620  LYS621  CYS622 
 ASP623  PHE694  ASN695  SER759  ASP760  ASP761  ALA762  ILE779  LEU786  VAL792 
 PHE793  MET794  SER795  GLU796  ALA797  LYS798  CYS799  TRP800  GLU811  SER814 

> <Gold.Protein.RotatedAtoms>
  151.0632  133.5527  159.2632 H   0  0  0  0  0  0  0  0  0  0  0  0  # atno 6907 bound_to 6896
  151.2494  135.0616  159.9066 H   0  0  0  0  0  0  0  0  0  0  0  0  # atno 6908 bound_to 6896
  152.5401  134.0395  159.8115 H   0  0  0  0  0  0  0  0  0  0  0  0  # atno 6909 bound_to 6896
  145.3611  140.9492  143.2500 H   0  0  0  0  0  0  0  0  0  0  0  0  # atno 7974 bound_to 7965
  156.0532  140.3305  155.7375 H   0  0  0  0  0  0  0  0  0  0  0  0  # atno 8008 bound_to 7997
  155.5569  140.0615  157.2855 H   0  0  0  0  0  0  0  0  0  0  0  0  # atno 8009 bound_to 7997
  154.4445  140.1884  156.0731 H   0  0  0  0  0  0  0  0  0  0  0  0  # atno 8010 bound_to 7997
  139.5757  144.6962  151.3661 H   0  0  0  0  0  0  0  0  0  0  0  0  # atno 10167 bound_to 10162
  155.9993  130.4747  150.4635 H   0  0  0  0  0  0  0  0  0  0  0  0  # atno 10718 bound_to 10713
  154.1831  135.6440  153.5039 H   0  0  0  0  0  0  0  0  0  0  0  0  # atno 10763 bound_to 10752
  153.0054  135.5411  154.6493 H   0  0  0  0  0  0  0  0  0  0  0  0  # atno 10764 bound_to 10752
  154.5862  135.2930  155.0654 H   0  0  0  0  0  0  0  0  0  0  0  0  # atno 10765 bound_to 10752
  140.5384  134.5547  157.5093 H   0  0  0  0  0  0  0  0  0  0  0  0  # atno 11005 bound_to 11000
  144.8646  139.5127  143.6796 LP  0  0  0  0  0  0  0  0  0  0  0  0  # atno 17320 bound_to 7965
  146.2927  139.7186  142.9149 LP  0  0  0  0  0  0  0  0  0  0  0  0  # atno 17321 bound_to 7965
  140.7039  143.7562  150.7449 LP  0  0  0  0  0  0  0  0  0  0  0  0  # atno 17342 bound_to 10162
  140.1081  143.4725  152.2386 LP  0  0  0  0  0  0  0  0  0  0  0  0  # atno 17343 bound_to 10162
  157.2657  131.0576  151.2292 LP  0  0  0  0  0  0  0  0  0  0  0  0  # atno 17370 bound_to 10713
  157.3391  130.7024  149.6370 LP  0  0  0  0  0  0  0  0  0  0  0  0  # atno 17371 bound_to 10713
  139.9517  134.7605  156.0433 LP  0  0  0  0  0  0  0  0  0  0  0  0  # atno 17394 bound_to 11000
  141.1241  133.6604  156.3291 LP  0  0  0  0  0  0  0  0  0  0  0  0  # atno 17395 bound_to 11000

$$$$
