AV-unprocessed.smi:3337|AV-procd|sdf|12868|dock3
  -GOLD-   2272019263D 1   1.00000     0.00000
 Structure written by MMmdl.
 46 47  0  0  0  0  0  0  0  0  2 V2000
  146.4347  134.0433  151.0633 C   0  0  0  0  0  0  0  0  0  0  0  0
  145.2342  134.9935  150.9073 C   0  0  1  0  0  0  0  0  0  0  0  0
  144.2460  134.9106  152.0850 C   0  0  0  0  0  0  0  0  0  0  0  0
  144.8041  135.5947  153.3459 C   0  0  2  0  0  0  0  0  0  0  0  0
  143.7855  135.5649  154.4943 C   0  0  0  0  0  0  0  0  0  0  0  0
  145.2461  137.0349  153.0215 C   0  0  0  0  0  0  0  0  0  0  0  0
  146.2302  137.0636  151.9083 N   0  3  2  0  0  0  0  0  0  0  0  0
  146.7928  138.4206  151.6913 C   0  0  0  0  0  0  0  0  0  0  0  0
  147.2108  139.1026  153.0083 C   0  0  0  0  0  0  0  0  0  0  0  0
  148.2701  138.3618  153.6821 N   0  0  0  0  0  0  0  0  0  0  0  0
  148.6006  138.4966  154.9770 C   0  0  0  0  0  0  0  0  0  0  0  0
  148.0510  139.3095  155.7215 O   0  0  0  0  0  0  0  0  0  0  0  0
  149.7249  137.5824  155.4986 C   0  0  1  0  0  0  0  0  0  0  0  0
  149.6239  136.1377  154.9693 C   0  0  0  0  0  0  0  0  0  0  0  0
  151.0369  138.1573  155.2238 N   0  0  0  0  0  0  0  0  0  0  0  0
  151.5212  139.3688  155.5060 C   0  0  0  0  0  0  0  0  0  0  0  0
  152.7615  139.5651  155.0813 N   0  0  0  0  0  0  0  0  0  0  0  0
  153.0008  138.3499  154.5052 C   0  0  0  0  0  0  0  0  0  0  0  0
  151.9997  137.4714  154.5581 N   0  0  0  0  0  0  0  0  0  0  0  0
  145.6719  136.4524  150.6722 C   0  0  0  0  0  0  0  0  0  0  0  0
  147.0563  134.3059  151.9191 H   0  0  0  0  0  0  0  0  0  0  0  0
  147.0698  134.0685  150.1772 H   0  0  0  0  0  0  0  0  0  0  0  0
  146.1037  133.0131  151.1977 H   0  0  0  0  0  0  0  0  0  0  0  0
  144.7001  134.6658  150.0144 H   0  0  0  0  0  0  0  0  0  0  0  0
  143.3115  135.3951  151.7982 H   0  0  0  0  0  0  0  0  0  0  0  0
  143.9960  133.8698  152.2949 H   0  0  0  0  0  0  0  0  0  0  0  0
  145.6809  135.0393  153.6805 H   0  0  0  0  0  0  0  0  0  0  0  0
  142.8765  136.1082  154.2342 H   0  0  0  0  0  0  0  0  0  0  0  0
  144.1969  136.0171  155.3971 H   0  0  0  0  0  0  0  0  0  0  0  0
  143.5020  134.5413  154.7405 H   0  0  0  0  0  0  0  0  0  0  0  0
  144.3831  137.6494  152.7592 H   0  0  0  0  0  0  0  0  0  0  0  0
  145.6913  137.4791  153.9128 H   0  0  0  0  0  0  0  0  0  0  0  0
  147.6337  138.3666  150.9979 H   0  0  0  0  0  0  0  0  0  0  0  0
  146.0368  139.0428  151.2100 H   0  0  0  0  0  0  0  0  0  0  0  0
  147.5318  140.1293  152.8226 H   0  0  0  0  0  0  0  0  0  0  0  0
  146.3729  139.1615  153.7014 H   0  0  0  0  0  0  0  0  0  0  0  0
  148.7694  137.6757  153.1343 H   0  0  0  0  0  0  0  0  0  0  0  0
  149.6137  137.5401  156.5832 H   0  0  0  0  0  0  0  0  0  0  0  0
  148.6686  135.6836  155.2349 H   0  0  0  0  0  0  0  0  0  0  0  0
  150.4096  135.5126  155.3950 H   0  0  0  0  0  0  0  0  0  0  0  0
  149.7215  136.0947  153.8837 H   0  0  0  0  0  0  0  0  0  0  0  0
  150.9540  140.1242  156.0301 H   0  0  0  0  0  0  0  0  0  0  0  0
  153.9387  138.1074  154.0280 H   0  0  0  0  0  0  0  0  0  0  0  0
  146.3999  136.4789  149.8625 H   0  0  0  0  0  0  0  0  0  0  0  0
  144.8183  137.0443  150.3373 H   0  0  0  0  0  0  0  0  0  0  0  0
  147.0012  136.4811  152.2027 H   0  0  0  0  0  0  0  0  0  0  0  0
  1  2  1  0  0  0  0
  1 21  1  0  0  0  0
  1 22  1  0  0  0  0
  1 23  1  0  0  0  0
  2 20  1  0  0  0  0
  2  3  1  0  0  0  0
  2 24  1  0  0  0  0
  3  4  1  0  0  0  0
  3 25  1  0  0  0  0
  3 26  1  0  0  0  0
  4  5  1  0  0  0  0
  4  6  1  0  0  0  0
  4 27  1  0  0  0  0
  5 28  1  0  0  0  0
  5 29  1  0  0  0  0
  5 30  1  0  0  0  0
  6  7  1  0  0  0  0
  6 31  1  0  0  0  0
  6 32  1  0  0  0  0
  7  8  1  0  0  0  0
  7 20  1  0  0  0  0
  7 46  1  0  0  0  0
  8  9  1  0  0  0  0
  8 33  1  0  0  0  0
  8 34  1  0  0  0  0
  9 10  1  0  0  0  0
  9 35  1  0  0  0  0
  9 36  1  0  0  0  0
 10 11  1  0  0  0  0
 10 37  1  0  0  0  0
 11 12  2  0  0  0  0
 11 13  1  0  0  0  0
 13 14  1  0  0  0  0
 13 15  1  0  0  0  0
 13 38  1  0  0  0  0
 14 39  1  0  0  0  0
 14 40  1  0  0  0  0
 14 41  1  0  0  0  0
 15 19  1  0  0  0  0
 15 16  1  0  0  0  0
 16 17  2  0  0  0  0
 16 42  1  0  0  0  0
 17 18  1  0  0  0  0
 18 19  2  0  0  0  0
 18 43  1  0  0  0  0
 20 44  1  0  0  0  0
 20 45  1  0  0  0  0
M  CHG  1   7   1
M  END
> <s_m_source_file>
AV-unprocessed.smi

> <i_m_source_file_index>
3337

> <i_lp_mmshare_version>
43012

> <i_f3d_flags>
0

> <s_epik_input>
W0NIM11bQ0BASF0xW0NIMl1bQ0BASF0oW0NIM10pW0NIMl1OKFtDSDJdMSlbQ0gyXVtDSDJdW05IXUMoPU8pW0NASF0oW0NIM10pbjJbY0hdbltjSF1uMg==

> <s_epik_cmdline>
J2VwaWtfcHl0aG9uJywgJy1waCcsICc3LjAnLCAnLXRuJywgJzgnLCAnLW1hJywgJzIwMCcsICctbWV0YWxfYmluZGluZycsICctaW1hZScsICc8aW5maWxlLm1hZT4nLCAnLW9tYWUnLCAnPG91dGZpbGUubWFlPic=

> <r_lp_tautomer_probability>
1

> <r_epik_Ionization_Penalty>
0.00175613

> <r_epik_Ionization_Penalty_Charging>
0.00174812

> <r_epik_Ionization_Penalty_Neutral>
8.01354e-06

> <r_epik_State_Penalty>
0.00118332

> <r_epik_Charging_Adjusted_Penalty>
0.00293143

> <i_epik_Tot_Q>
1

> <i_epik_Tot_abs_Q>
1

> <r_epik_Metal_State_Penalty>
-0

> <b_epik_Metal_Only>
0

> <s_lp_Force_Field>
OPLS_2005

> <r_lp_Energy>
24.7561

> <b_lp_Chiralities_Consistent>
1

> <s_lp_Variant>
AV-unprocessed.smi:3337-8

> <Gold.Version>
5.8.1

> <Gold.Id.Protein>
6NUR|6NUR_protein|mol2

> <Gold.PLP.Fitness>
43.5984

> <Gold.PLP.PLP>
-31.6275

> <Gold.PLP.part.hbond>
-5.1843

> <Gold.PLP.part.metal>
0.0000

> <Gold.PLP.part.buried>
-0.7605

> <Gold.PLP.part.nonpolar>
-25.5206

> <Gold.PLP.part.repulsive>
0.2246

> <Gold.PLP.ligand.clash>
0.0000

> <Gold.PLP.ligand.torsion>
0.8328

> <Gold.PLP.Chemscore.Hbond>
4.5032

> <Gold.PLP.Chemscore.CHOScore>
0.0000

> <Gold.PLP.Chemscore.Metal>
0.0000

> <Gold.Chemscore.Hbonds>
donor molecule, donor type, donor heavy atom, donor atom, acceptor molecule, acceptor atom, score
      L1  H     7    46       P1  7948  1.57
      L1  H    10    37       P1  7948  1.00
      P1  H  7989  7998       L1    17  0.02
      P1  H  7997  8008       L1    17  1.00
      P1  H 10752 10765       L1    19  0.80

> <Gold.PLP.Chemscore.Internal.Correction>
0.1270

> <Gold.Rescore>
     Score         DG    S(hbond)    S(metal)    S(lipo)     H(rot)  DE(clash)    DE(int)     intcor
     13.51     -14.60       2.58        0.00      59.11       2.51       0.13       0.96       ----

> <Gold.Chemscore.Fitness>
13.5095

> <Gold.Chemscore.DG>
-14.5959

> <Gold.Chemscore.ZeroCoef>
-5.4800

> <Gold.Chemscore.Hbond>
2.5846

> <Gold.Chemscore.Metal>
0.0000

> <Gold.Chemscore.Lipo>
59.1148

> <Gold.Chemscore.Internal_Hbond>
0.0000

> <Gold.Chemscore.DEClash>
0.1285

> <Gold.Chemscore.DEInternal>
0.9579

> <Gold.Chemscore.Rot>
2.5129

> <Gold.Chemscore.Internal.Correction>
   9.000000E+99

> <Gold.Chemscore.Hbonds>
donor molecule, donor type, donor heavy atom, donor atom, acceptor molecule, acceptor atom, score
      L1  H     7    46       P1  7948  0.77
      L1  H    10    37       P1  7948  0.99
      P1  H  7997  8008       L1    17  0.72
      P1  H 10752 10765       L1    19  0.26

> <Gold.Chemscore.Hbond.Weighted>
-8.6326

> <Gold.Chemscore.Metal.Weighted>
-0.0000

> <Gold.Chemscore.Lipo.Weighted>
-6.9164

> <Gold.Chemscore.Internal_Hbond.Weighted>
0.0000

> <Gold.Chemscore.DEClash.Weighted>
0.1285

> <Gold.Chemscore.DEInternal.Weighted>
0.9579

> <Gold.Chemscore.Rot.Weighted>
6.4331

> <Gold.Chemscore.Internal.Correction.Weighted>
   9.000000E+99

> <Gold.Protein.RotatedTorsions>
[ 6907 6896 6895 6894 ] final  111.87 input  -60.11 | X-H torsion
[ 7974 7965 7964 7962 ] final  128.91 input  175.53 | X-H torsion
[ 8008 7997 7996 7995 ] final  -27.54 input   59.86 | X-H torsion
[ 10167 10162 10161 10158 ] final  -26.27 input  -65.29 | X-H torsion
[ 10718 10713 10712 10709 ] final  153.78 input   66.30 | X-H torsion
[ 10763 10752 10751 10750 ] final  156.42 input  -60.55 | X-H torsion
[ 11005 11000 10999 10996 ] final  146.32 input  -57.11 | X-H torsion

> <Gold.Protein.ActiveResidues>
 VAL166  LYS551  ARG553  GLY616  TRP617  ASP618  TYR619  PRO620  LYS621  CYS622 
 ASP623  PHE694  ASN695  SER759  ASP760  ASP761  ALA762  ILE779  LEU786  VAL792 
 PHE793  MET794  SER795  GLU796  ALA797  LYS798  CYS799  TRP800  GLU811  SER814 

> <Gold.Protein.RotatedAtoms>
  152.4947  133.8597  159.7243 H   0  0  0  0  0  0  0  0  0  0  0  0  # atno 6907 bound_to 6896
  150.9112  133.6987  159.2861 H   0  0  0  0  0  0  0  0  0  0  0  0  # atno 6908 bound_to 6896
  151.4395  135.1023  159.9718 H   0  0  0  0  0  0  0  0  0  0  0  0  # atno 6909 bound_to 6896
  145.0344  139.4018  143.5133 H   0  0  0  0  0  0  0  0  0  0  0  0  # atno 7974 bound_to 7965
  154.4372  140.1869  156.0949 H   0  0  0  0  0  0  0  0  0  0  0  0  # atno 8008 bound_to 7997
  156.0337  140.3327  155.7142 H   0  0  0  0  0  0  0  0  0  0  0  0  # atno 8009 bound_to 7997
  155.5801  140.0621  157.2776 H   0  0  0  0  0  0  0  0  0  0  0  0  # atno 8010 bound_to 7997
  140.7283  143.4193  151.0977 H   0  0  0  0  0  0  0  0  0  0  0  0  # atno 10167 bound_to 10162
  157.2402  131.0757  151.1797 H   0  0  0  0  0  0  0  0  0  0  0  0  # atno 10718 bound_to 10713
  154.1840  135.2798  155.3043 H   0  0  0  0  0  0  0  0  0  0  0  0  # atno 10763 bound_to 10752
  154.5980  135.5538  153.7349 H   0  0  0  0  0  0  0  0  0  0  0  0  # atno 10764 bound_to 10752
  153.0130  135.6385  154.1979 H   0  0  0  0  0  0  0  0  0  0  0  0  # atno 10765 bound_to 10752
  140.0784  134.9111  157.1460 H   0  0  0  0  0  0  0  0  0  0  0  0  # atno 11005 bound_to 11000
  146.3502  139.9911  142.8685 LP  0  0  0  0  0  0  0  0  0  0  0  0  # atno 17320 bound_to 7965
  145.1729  140.9729  143.4311 LP  0  0  0  0  0  0  0  0  0  0  0  0  # atno 17321 bound_to 7965
  139.7836  143.8319  152.3141 LP  0  0  0  0  0  0  0  0  0  0  0  0  # atno 17342 bound_to 10162
  139.8279  144.7267  150.9488 LP  0  0  0  0  0  0  0  0  0  0  0  0  # atno 17343 bound_to 10162
  157.3386  130.7022  149.6368 LP  0  0  0  0  0  0  0  0  0  0  0  0  # atno 17370 bound_to 10713
  155.9670  130.4286  150.4797 LP  0  0  0  0  0  0  0  0  0  0  0  0  # atno 17371 bound_to 10713
  140.3524  134.2584  155.7197 LP  0  0  0  0  0  0  0  0  0  0  0  0  # atno 17394 bound_to 11000
  141.2038  133.7903  157.0322 LP  0  0  0  0  0  0  0  0  0  0  0  0  # atno 17395 bound_to 11000

$$$$
