#       Name:                AV-unprocessed.smi:1612
#       Creating user name   scv26
#       Creation time:       Fri Mar 27 07:13:55 2020


#       File generated by GOLD software.
#

@<TRIPOS>MOLECULE
AV-unprocessed.smi:1612
    42    43     1
SMALL
NO_CHARGES


@<TRIPOS>ATOM
      1 ****        -2.3607  -2.0673  -1.1673 C.3            1 S1                 0.0000
      2 ****        -1.7496  -1.2068  -0.0393 C.3            1 S1                 0.0000
      3 ****        -0.2867  -1.1304  -0.1224 N.am           1 S1                 0.0000
      4 ****         0.4633  -0.7668  -1.1766 C.2            1 S1                 0.0000
      5 ****        -0.0008  -0.3717  -2.2459 O.2            1 S1                 0.0000
      6 ****         1.7737  -0.8840  -0.8979 N.am           1 S1                 0.0000
      7 ****         2.8807  -0.5970  -1.7410 C.ar           1 S1                 0.0000
      8 ****         4.1490  -0.8388  -1.1660 C.ar           1 S1                 0.0000
      9 ****         5.3112  -0.5857  -1.9201 C.ar           1 S1                 0.0000
     10 ****         5.1754  -0.0959  -3.2313 C.ar           1 S1                 0.0000
     11 ****         3.8765   0.1178  -3.7278 C.ar           1 S1                 0.0000
     12 ****         2.7614  -0.1246  -3.0070 N.ar           1 S1                 0.0000
     13 ****        -2.3907   0.1885   0.1122 C.2            1 S1                 0.0000
     14 ****        -2.9425   0.7011  -0.8624 O.2            1 S1                 0.0000
     15 ****        -2.3217   0.8230   1.3035 N.am           1 S1                 0.0000
     16 ****        -1.6930   0.3152   2.5236 C.3            1 S1                 0.0000
     17 ****        -1.6829   1.4872   3.5054 C.3            1 S1                 0.0000
     18 ****        -2.8407   2.3639   3.0510 C.3            1 S1                 0.0000
     19 ****        -2.9019   2.1443   1.5395 C.3            1 S1                 0.0000
     20 ****        -3.4276  -2.2200  -1.0017 H              1 S1                 0.0000
     21 ****        -1.8944  -3.0523  -1.2045 H              1 S1                 0.0000
     22 ****        -2.2512  -1.6111  -2.1512 H              1 S1                 0.0000
     23 ****        -1.9576  -1.7540   0.8800 H              1 S1                 0.0000
     24 ****         0.2089  -1.4190   0.7083 H              1 S1                 0.0000
     25 ****         2.0078  -1.2210   0.0241 H              1 S1                 0.0000
     26 ****         4.2352  -1.2156  -0.1571 H              1 S1                 0.0000
     27 ****         6.2894  -0.7646  -1.4989 H              1 S1                 0.0000
     28 ****         6.0430   0.1106  -3.8405 H              1 S1                 0.0000
     29 ****         3.7286   0.4927  -4.7297 H              1 S1                 0.0000
     30 ****        -2.2943  -0.5043   2.9194 H              1 S1                 0.0000
     31 ****        -0.6818  -0.0539   2.3517 H              1 S1                 0.0000
     32 ****        -1.7746   1.1696   4.5444 H              1 S1                 0.0000
     33 ****        -0.7474   2.0393   3.4058 H              1 S1                 0.0000
     34 ****        -3.7658   2.0126   3.5100 H              1 S1                 0.0000
     35 ****        -2.7109   3.4122   3.3211 H              1 S1                 0.0000
     36 ****        -2.3016   2.8920   1.0189 H              1 S1                 0.0000
     37 ****        -3.9266   2.2163   1.1712 H              1 S1                 0.0000
     38 ****        -0.9912  -0.3067  -2.3675 LP             1 S1                 0.0000
     39 ****         0.6126  -0.1158  -2.9931 LP             1 S1                 0.0000
     40 ****         1.8578   0.0421  -3.4017 LP             1 S1                 0.0000
     41 ****        -2.9701   0.2135  -1.7351 LP             1 S1                 0.0000
     42 ****        -3.3628   1.6048  -0.7810 LP             1 S1                 0.0000
@<TRIPOS>BOND
    1    1    2 1     
    2    1   20 1     
    3    1   21 1     
    4    1   22 1     
    5    2    3 1     
    6    2   13 1     
    7    2   23 1     
    8    3    4 am    
    9    3   24 1     
   10    4    5 2     
   11    4    6 am    
   12    6    7 1     
   13    6   25 1     
   14    7   12 ar    
   15    7    8 ar    
   16    8    9 ar    
   17    8   26 1     
   18    9   10 ar    
   19    9   27 1     
   20   10   11 ar    
   21   10   28 1     
   22   11   12 ar    
   23   11   29 1     
   24   13   14 2     
   25   13   15 am    
   26   15   19 1     
   27   15   16 1     
   28   16   17 1     
   29   16   30 1     
   30   16   31 1     
   31   17   18 1     
   32   17   32 1     
   33   17   33 1     
   34   18   19 1     
   35   18   34 1     
   36   18   35 1     
   37   19   36 1     
   38   19   37 1     
   39    5   38 1     
   40    5   39 1     
   41   12   40 1     
   42   14   41 1     
   43   14   42 1     
@<TRIPOS>SUBSTRUCTURE
      1 S1             1
@<TRIPOS>SET
LONE_PAIRS      STATIC     ATOMS    <user>   **** ""
5 38 39 40 41 42
DONOR_HYDROGENS      STATIC     ATOMS    <user>   **** ""
2 24 25
ATOM$BLUE        STATIC     ATOMS    COLORGROUP SYSTEM
5 38 39 40 41 42
ATOM$RED        STATIC     ATOMS    COLORGROUP SYSTEM
2 24 25
