AV-unprocessed.smi:1260|AV-procd|sdf|5299|dock8
  -GOLD-   22720 4423D 1   1.00000     0.00000
 Structure written by MMmdl.
 37 39  0  0  0  0  0  0  0  0  2 V2000
  150.2939  140.3864  154.5363 O   0  0  0  0  0  0  0  0  0  0  0  0
  149.6663  141.3838  154.8927 C   0  0  0  0  0  0  0  0  0  0  0  0
  148.3720  141.7874  154.1801 C   0  0  0  0  0  0  0  0  0  0  0  0
  147.2376  141.8010  155.0863 N   0  0  0  0  0  0  0  0  0  0  0  0
  145.9259  141.7272  154.8510 C   0  0  0  0  0  0  0  0  0  0  0  0
  145.2243  141.7763  155.9731 N   0  0  0  0  0  0  0  0  0  0  0  0
  146.2001  141.8875  156.9495 N   0  0  0  0  0  0  0  0  0  0  0  0
  147.3968  141.9016  156.4294 N   0  0  0  0  0  0  0  0  0  0  0  0
  150.0650  142.1775  155.8985 N   0  0  0  0  0  0  0  0  0  0  0  0
  151.2651  141.9619  156.7028 C   0  0  2  0  0  0  0  0  0  0  0  0
  151.1634  140.7585  157.6315 C   0  0  0  0  0  0  0  0  0  0  0  0
  152.2662  141.0202  158.6628 C   0  0  0  0  0  0  0  0  0  0  0  0
  152.4702  142.4893  158.7121 N   0  3  2  0  0  0  0  0  0  0  0  0
  152.3396  143.0726  160.0742 C   0  0  0  0  0  0  0  0  0  0  0  0
  152.1608  144.5964  160.0043 C   0  0  0  0  0  0  0  0  0  0  0  0
  150.8730  144.9780  159.2501 C   0  0  0  0  0  0  0  0  0  0  0  0
  150.4159  143.8800  158.2702 C   0  0  0  0  0  0  0  0  0  0  0  0
  151.6176  143.1157  157.6619 C   0  0  2  0  0  0  0  0  0  0  0  0
  148.4714  142.7807  153.7400 H   0  0  0  0  0  0  0  0  0  0  0  0
  148.1760  141.0899  153.3644 H   0  0  0  0  0  0  0  0  0  0  0  0
  145.4894  141.6394  153.8669 H   0  0  0  0  0  0  0  0  0  0  0  0
  149.4976  142.9820  156.1243 H   0  0  0  0  0  0  0  0  0  0  0  0
  152.1115  141.7921  156.0336 H   0  0  0  0  0  0  0  0  0  0  0  0
  150.1914  140.7436  158.1267 H   0  0  0  0  0  0  0  0  0  0  0  0
  151.2908  139.8085  157.1116 H   0  0  0  0  0  0  0  0  0  0  0  0
  152.0163  140.5881  159.6329 H   0  0  0  0  0  0  0  0  0  0  0  0
  153.2014  140.5637  158.3368 H   0  0  0  0  0  0  0  0  0  0  0  0
  151.4829  142.6364  160.5911 H   0  0  0  0  0  0  0  0  0  0  0  0
  153.2241  142.8148  160.6576 H   0  0  0  0  0  0  0  0  0  0  0  0
  152.1481  145.0264  161.0062 H   0  0  0  0  0  0  0  0  0  0  0  0
  153.0232  145.0315  159.4972 H   0  0  0  0  0  0  0  0  0  0  0  0
  150.0682  145.1763  159.9590 H   0  0  0  0  0  0  0  0  0  0  0  0
  151.0403  145.9126  158.7134 H   0  0  0  0  0  0  0  0  0  0  0  0
  149.7686  143.1756  158.7945 H   0  0  0  0  0  0  0  0  0  0  0  0
  149.8014  144.3343  157.4927 H   0  0  0  0  0  0  0  0  0  0  0  0
  152.2281  143.8431  157.1244 H   0  0  0  0  0  0  0  0  0  0  0  0
  153.4239  142.6511  158.4207 H   0  0  0  0  0  0  0  0  0  0  0  0
  1  2  2  0  0  0  0
  2  3  1  0  0  0  0
  2  9  1  0  0  0  0
  3  4  1  0  0  0  0
  3 19  1  0  0  0  0
  3 20  1  0  0  0  0
  4  8  1  0  0  0  0
  4  5  1  0  0  0  0
  5  6  2  0  0  0  0
  5 21  1  0  0  0  0
  6  7  1  0  0  0  0
  7  8  2  0  0  0  0
  9 10  1  0  0  0  0
  9 22  1  0  0  0  0
 10 18  1  0  0  0  0
 10 11  1  0  0  0  0
 10 23  1  0  0  0  0
 11 12  1  0  0  0  0
 11 24  1  0  0  0  0
 11 25  1  0  0  0  0
 12 13  1  0  0  0  0
 12 26  1  0  0  0  0
 12 27  1  0  0  0  0
 13 18  1  0  0  0  0
 13 14  1  0  0  0  0
 13 37  1  0  0  0  0
 14 15  1  0  0  0  0
 14 28  1  0  0  0  0
 14 29  1  0  0  0  0
 15 16  1  0  0  0  0
 15 30  1  0  0  0  0
 15 31  1  0  0  0  0
 16 17  1  0  0  0  0
 16 32  1  0  0  0  0
 16 33  1  0  0  0  0
 17 18  1  0  0  0  0
 17 34  1  0  0  0  0
 17 35  1  0  0  0  0
 18 36  1  0  0  0  0
M  CHG  1  13   1
M  END
> <s_m_source_file>
AV-unprocessed.smi

> <i_m_source_file_index>
1260

> <i_lp_mmshare_version>
43012

> <i_f3d_flags>
0

> <s_epik_input>
bjFubltjSF1uMVtDSDJdQyg9TylbTkhdW0NASF0oW0NIMl1bQ0gyXTIpW0NAQEhdKE4yMylbQ0gyXVtDSDJdW0NIMl1bQ0gyXTM=

> <s_epik_cmdline>
J2VwaWtfcHl0aG9uJywgJy1waCcsICc3LjAnLCAnLXRuJywgJzgnLCAnLW1hJywgJzIwMCcsICctbWV0YWxfYmluZGluZycsICctaW1hZScsICc8aW5maWxlLm1hZT4nLCAnLW9tYWUnLCAnPG91dGZpbGUubWFlPic=

> <r_lp_tautomer_probability>
1

> <r_epik_Ionization_Penalty>
0.00234324

> <r_epik_Ionization_Penalty_Charging>
0.00233897

> <r_epik_Ionization_Penalty_Neutral>
4.26861e-06

> <r_epik_State_Penalty>
0.00161477

> <r_epik_Charging_Adjusted_Penalty>
0.00395374

> <i_epik_Tot_Q>
1

> <i_epik_Tot_abs_Q>
1

> <r_epik_Metal_State_Penalty>
-0

> <b_epik_Metal_Only>
0

> <s_lp_Force_Field>
OPLS_2005

> <r_lp_Energy>
44.1786

> <b_lp_Chiralities_Consistent>
1

> <s_lp_Variant>
AV-unprocessed.smi:1260-7

> <Gold.Version>
5.8.1

> <Gold.Id.Protein>
6NUR|6NUR_protein|mol2

> <Gold.PLP.Fitness>
42.1004

> <Gold.PLP.PLP>
-33.8775

> <Gold.PLP.part.hbond>
-2.0000

> <Gold.PLP.part.metal>
0.0000

> <Gold.PLP.part.buried>
-5.1136

> <Gold.PLP.part.nonpolar>
-27.3695

> <Gold.PLP.part.repulsive>
0.5640

> <Gold.PLP.ligand.clash>
0.0000

> <Gold.PLP.ligand.torsion>
0.3776

> <Gold.PLP.Chemscore.Hbond>
1.9920

> <Gold.PLP.Chemscore.CHOScore>
1.0000

> <Gold.PLP.Chemscore.Metal>
0.0000

> <Gold.Chemscore.Hbonds>
donor molecule, donor type, donor heavy atom, donor atom, acceptor molecule, acceptor atom, score
      L1  H     9    22       P1  8028  0.98
      P1  H  7989  7998       L1     1  1.00
      L1  C     5    21       P1 10175  0.91

> <Gold.PLP.Chemscore.Internal.Correction>
0.0021

> <Gold.Rescore>
     Score         DG    S(hbond)    S(metal)    S(lipo)     H(rot)  DE(clash)    DE(int)     intcor
     15.34     -15.62       1.64        0.00      82.97       1.98       0.05       0.24       ----

> <Gold.Chemscore.Fitness>
15.3359

> <Gold.Chemscore.DG>
-15.6209

> <Gold.Chemscore.ZeroCoef>
-5.4800

> <Gold.Chemscore.Hbond>
1.6439

> <Gold.Chemscore.Metal>
0.0000

> <Gold.Chemscore.Lipo>
82.9746

> <Gold.Chemscore.Internal_Hbond>
0.0000

> <Gold.Chemscore.DEClash>
0.0486

> <Gold.Chemscore.DEInternal>
0.2364

> <Gold.Chemscore.Rot>
1.9757

> <Gold.Chemscore.Internal.Correction>
   9.000000E+99

> <Gold.Chemscore.Hbonds>
donor molecule, donor type, donor heavy atom, donor atom, acceptor molecule, acceptor atom, score
      L1  H     9    22       P1  8028  0.93
      P1  H  7989  7998       L1     1  0.67

> <Gold.Chemscore.Hbond.Weighted>
-5.4907

> <Gold.Chemscore.Metal.Weighted>
-0.0000

> <Gold.Chemscore.Lipo.Weighted>
-9.7080

> <Gold.Chemscore.Internal_Hbond.Weighted>
0.0000

> <Gold.Chemscore.DEClash.Weighted>
0.0486

> <Gold.Chemscore.DEInternal.Weighted>
0.2364

> <Gold.Chemscore.Rot.Weighted>
5.0578

> <Gold.Chemscore.Internal.Correction.Weighted>
   9.000000E+99

> <Gold.Protein.RotatedTorsions>
[ 6907 6896 6895 6894 ] final  -85.93 input  -60.11 | X-H torsion
[ 7974 7965 7964 7962 ] final -160.69 input  175.53 | X-H torsion
[ 8008 7997 7996 7995 ] final  160.87 input   59.86 | X-H torsion
[ 10167 10162 10161 10158 ] final  139.84 input  -65.29 | X-H torsion
[ 10718 10713 10712 10709 ] final   34.10 input   66.30 | X-H torsion
[ 10763 10752 10751 10750 ] final  122.76 input  -60.55 | X-H torsion
[ 11005 11000 10999 10996 ] final  151.48 input  -57.11 | X-H torsion

> <Gold.Protein.ActiveResidues>
 VAL166  LYS551  ARG553  GLY616  TRP617  ASP618  TYR619  PRO620  LYS621  CYS622 
 ASP623  PHE694  ASN695  SER759  ASP760  ASP761  ALA762  ILE779  LEU786  VAL792 
 PHE793  MET794  SER795  GLU796  ALA797  LYS798  CYS799  TRP800  GLU811  SER814 

> <Gold.Protein.RotatedAtoms>
  150.6868  134.3129  159.4753 H   0  0  0  0  0  0  0  0  0  0  0  0  # atno 6907 bound_to 6896
  152.1013  134.9337  160.0578 H   0  0  0  0  0  0  0  0  0  0  0  0  # atno 6908 bound_to 6896
  152.0615  133.4029  159.4457 H   0  0  0  0  0  0  0  0  0  0  0  0  # atno 6909 bound_to 6896
  144.7418  140.3505  143.6116 H   0  0  0  0  0  0  0  0  0  0  0  0  # atno 7974 bound_to 7965
  156.2142  140.1792  156.7626 H   0  0  0  0  0  0  0  0  0  0  0  0  # atno 8008 bound_to 7997
  154.5767  140.0673  156.9074 H   0  0  0  0  0  0  0  0  0  0  0  0  # atno 8009 bound_to 7997
  155.2575  140.3333  155.4279 H   0  0  0  0  0  0  0  0  0  0  0  0  # atno 8010 bound_to 7997
  139.5066  144.6270  151.5911 H   0  0  0  0  0  0  0  0  0  0  0  0  # atno 10167 bound_to 10162
  157.3062  130.7375  149.6696 H   0  0  0  0  0  0  0  0  0  0  0  0  # atno 10718 bound_to 10713
  153.6348  135.3390  155.3053 H   0  0  0  0  0  0  0  0  0  0  0  0  # atno 10763 bound_to 10752
  154.8572  135.4304  154.2067 H   0  0  0  0  0  0  0  0  0  0  0  0  # atno 10764 bound_to 10752
  153.2972  135.7021  153.7311 H   0  0  0  0  0  0  0  0  0  0  0  0  # atno 10765 bound_to 10752
  140.1222  134.8856  157.2088 H   0  0  0  0  0  0  0  0  0  0  0  0  # atno 11005 bound_to 11000
  145.7281  139.1728  143.2446 LP  0  0  0  0  0  0  0  0  0  0  0  0  # atno 17320 bound_to 7965
  146.1227  140.7289  142.9450 LP  0  0  0  0  0  0  0  0  0  0  0  0  # atno 17321 bound_to 7965
  140.5991  143.9643  150.6374 LP  0  0  0  0  0  0  0  0  0  0  0  0  # atno 17342 bound_to 10162
  140.2848  143.3364  152.1117 LP  0  0  0  0  0  0  0  0  0  0  0  0  # atno 17343 bound_to 10162
  155.9674  130.4265  150.4702 LP  0  0  0  0  0  0  0  0  0  0  0  0  # atno 17370 bound_to 10713
  157.2692  131.0583  151.2271 LP  0  0  0  0  0  0  0  0  0  0  0  0  # atno 17371 bound_to 10713
  140.2950  134.3197  155.7305 LP  0  0  0  0  0  0  0  0  0  0  0  0  # atno 17394 bound_to 11000
  141.2154  133.7557  156.9558 LP  0  0  0  0  0  0  0  0  0  0  0  0  # atno 17395 bound_to 11000

$$$$
