AV-unprocessed.smi:1752|AV-procd|sdf|7061|dock6
  -GOLD-   22720 8283D 1   1.00000     0.00000
 Structure written by MMmdl.
 43 44  0  0  0  0  0  0  0  0  2 V2000
  151.6451  144.0580  157.1157 C   0  0  0  0  0  0  0  0  0  0  0  0
  151.2373  142.5764  157.1671 C   0  0  1  0  0  0  0  0  0  0  0  0
  150.8366  142.1035  158.5820 C   0  0  0  0  0  0  0  0  0  0  0  0
  151.9734  141.9872  159.4775 N   0  0  0  0  0  0  0  0  0  0  0  0
  152.2323  142.7044  160.6265 C   0  0  0  0  0  0  0  0  0  0  0  0
  153.4151  142.2469  161.1327 C   0  0  0  0  0  0  0  0  0  0  0  0
  153.8106  141.2389  160.2094 C   0  0  0  0  0  0  0  0  0  0  0  0
  152.9468  141.0870  159.2186 N   0  0  0  0  0  0  0  0  0  0  0  0
  150.1389  142.3526  156.2315 N   0  0  0  0  0  0  0  0  0  0  0  0
  150.0371  141.3204  155.3755 C   0  0  0  0  0  0  0  0  0  0  0  0
  150.9053  140.4515  155.2835 O   0  0  0  0  0  0  0  0  0  0  0  0
  148.9352  141.3517  154.5843 N   0  0  0  0  0  0  0  0  0  0  0  0
  148.0699  142.5413  154.4193 C   0  0  0  0  0  0  0  0  0  0  0  0
  146.5771  142.2105  154.1826 C   0  0  0  0  0  0  0  0  0  0  0  0
  145.9092  141.3612  155.2862 C   0  0  0  0  0  0  0  0  0  0  0  0
  146.7292  140.2274  155.7925 N   0  3  1  0  0  0  0  0  0  0  0  0
  145.9917  139.4188  156.7882 C   0  0  0  0  0  0  0  0  0  0  0  0
  147.3722  139.3851  154.7481 C   0  0  0  0  0  0  0  0  0  0  0  0
  148.4576  140.1226  153.9279 C   0  0  0  0  0  0  0  0  0  0  0  0
  152.5232  144.2533  157.7318 H   0  0  0  0  0  0  0  0  0  0  0  0
  150.8405  144.7031  157.4700 H   0  0  0  0  0  0  0  0  0  0  0  0
  151.8925  144.3619  156.0980 H   0  0  0  0  0  0  0  0  0  0  0  0
  152.0976  141.9919  156.8356 H   0  0  0  0  0  0  0  0  0  0  0  0
  150.1105  142.7915  159.0191 H   0  0  0  0  0  0  0  0  0  0  0  0
  150.3492  141.1289  158.5350 H   0  0  0  0  0  0  0  0  0  0  0  0
  151.5592  143.4696  160.9845 H   0  0  0  0  0  0  0  0  0  0  0  0
  153.9209  142.5813  162.0262 H   0  0  0  0  0  0  0  0  0  0  0  0
  154.6940  140.6175  160.2299 H   0  0  0  0  0  0  0  0  0  0  0  0
  149.4004  143.0412  156.2294 H   0  0  0  0  0  0  0  0  0  0  0  0
  148.1173  143.1822  155.3013 H   0  0  0  0  0  0  0  0  0  0  0  0
  148.4506  143.1325  153.5857 H   0  0  0  0  0  0  0  0  0  0  0  0
  146.0258  143.1472  154.0939 H   0  0  0  0  0  0  0  0  0  0  0  0
  146.4369  141.7301  153.2147 H   0  0  0  0  0  0  0  0  0  0  0  0
  145.6795  142.0069  156.1346 H   0  0  0  0  0  0  0  0  0  0  0  0
  144.9539  140.9852  154.9173 H   0  0  0  0  0  0  0  0  0  0  0  0
  145.1537  138.8975  156.3239 H   0  0  0  0  0  0  0  0  0  0  0  0
  145.6021  140.0510  157.5866 H   0  0  0  0  0  0  0  0  0  0  0  0
  146.6456  138.6763  157.2465 H   0  0  0  0  0  0  0  0  0  0  0  0
  147.8538  138.5427  155.2470 H   0  0  0  0  0  0  0  0  0  0  0  0
  146.6155  138.9575  154.0888 H   0  0  0  0  0  0  0  0  0  0  0  0
  148.0841  140.3662  152.9336 H   0  0  0  0  0  0  0  0  0  0  0  0
  149.2823  139.4381  153.7205 H   0  0  0  0  0  0  0  0  0  0  0  0
  147.4953  140.6492  156.2981 H   0  0  0  0  0  0  0  0  0  0  0  0
  1  2  1  0  0  0  0
  1 20  1  0  0  0  0
  1 21  1  0  0  0  0
  1 22  1  0  0  0  0
  2  3  1  0  0  0  0
  2  9  1  0  0  0  0
  2 23  1  0  0  0  0
  3  4  1  0  0  0  0
  3 24  1  0  0  0  0
  3 25  1  0  0  0  0
  4  8  1  0  0  0  0
  4  5  1  0  0  0  0
  5  6  2  0  0  0  0
  5 26  1  0  0  0  0
  6  7  1  0  0  0  0
  6 27  1  0  0  0  0
  7  8  2  0  0  0  0
  7 28  1  0  0  0  0
  9 10  1  0  0  0  0
  9 29  1  0  0  0  0
 10 11  2  0  0  0  0
 10 12  1  0  0  0  0
 12 19  1  0  0  0  0
 12 13  1  0  0  0  0
 13 14  1  0  0  0  0
 13 30  1  0  0  0  0
 13 31  1  0  0  0  0
 14 15  1  0  0  0  0
 14 32  1  0  0  0  0
 14 33  1  0  0  0  0
 15 16  1  0  0  0  0
 15 34  1  0  0  0  0
 15 35  1  0  0  0  0
 16 17  1  0  0  0  0
 16 18  1  0  0  0  0
 16 43  1  0  0  0  0
 17 36  1  0  0  0  0
 17 37  1  0  0  0  0
 17 38  1  0  0  0  0
 18 19  1  0  0  0  0
 18 39  1  0  0  0  0
 18 40  1  0  0  0  0
 19 41  1  0  0  0  0
 19 42  1  0  0  0  0
M  CHG  1  16   1
M  END
> <s_m_source_file>
AV-unprocessed.smi

> <i_m_source_file_index>
1752

> <i_lp_mmshare_version>
43012

> <i_f3d_flags>
0

> <s_epik_input>
bjFbY0hdW2NIXVtjSF1uMVtDSDJdW0NAQEhdKFtDSDNdKVtOSF1DKD1PKU4yW0NIMl1bQ0gyXVtDSDJdTihbQ0gzXSlbQ0gyXVtDSDJdMg==

> <s_epik_cmdline>
J2VwaWtfcHl0aG9uJywgJy1waCcsICc3LjAnLCAnLXRuJywgJzgnLCAnLW1hJywgJzIwMCcsICctbWV0YWxfYmluZGluZycsICctaW1hZScsICc8aW5maWxlLm1hZT4nLCAnLW9tYWUnLCAnPG91dGZpbGUubWFlPic=

> <r_lp_tautomer_probability>
1

> <r_epik_Ionization_Penalty>
0.00208423

> <r_epik_Ionization_Penalty_Charging>
0.00203643

> <r_epik_Ionization_Penalty_Neutral>
4.77939e-05

> <r_epik_State_Penalty>
0.00139278

> <r_epik_Charging_Adjusted_Penalty>
0.00342922

> <i_epik_Tot_Q>
1

> <i_epik_Tot_abs_Q>
1

> <r_epik_Metal_State_Penalty>
-0

> <b_epik_Metal_Only>
0

> <s_lp_Force_Field>
OPLS_2005

> <r_lp_Energy>
45.7643

> <b_lp_Chiralities_Consistent>
1

> <s_lp_Variant>
AV-unprocessed.smi:1752-4

> <Gold.Version>
5.8.1

> <Gold.Id.Protein>
6NUR|6NUR_protein|mol2

> <Gold.PLP.Fitness>
40.1557

> <Gold.PLP.PLP>
-35.3697

> <Gold.PLP.part.hbond>
-2.0000

> <Gold.PLP.part.metal>
0.0000

> <Gold.PLP.part.buried>
1.7260

> <Gold.PLP.part.nonpolar>
-33.8805

> <Gold.PLP.part.repulsive>
0.1418

> <Gold.PLP.ligand.clash>
0.0000

> <Gold.PLP.ligand.torsion>
0.4978

> <Gold.PLP.Chemscore.Hbond>
1.9040

> <Gold.PLP.Chemscore.CHOScore>
0.0000

> <Gold.PLP.Chemscore.Metal>
0.0000

> <Gold.Chemscore.Hbonds>
donor molecule, donor type, donor heavy atom, donor atom, acceptor molecule, acceptor atom, score
      L1  H     9    29       P1  8028  0.91
      P1  H  7989  7998       L1    11  1.00

> <Gold.PLP.Chemscore.Internal.Correction>
0.0695

> <Gold.Rescore>
     Score         DG    S(hbond)    S(metal)    S(lipo)     H(rot)  DE(clash)    DE(int)     intcor
     13.31     -16.11       1.01        0.00      92.81       1.41       2.25       0.54       ----

> <Gold.Chemscore.Fitness>
13.3126

> <Gold.Chemscore.DG>
-16.1105

> <Gold.Chemscore.ZeroCoef>
-5.4800

> <Gold.Chemscore.Hbond>
1.0144

> <Gold.Chemscore.Metal>
0.0000

> <Gold.Chemscore.Lipo>
92.8053

> <Gold.Chemscore.Internal_Hbond>
0.0000

> <Gold.Chemscore.DEClash>
2.2549

> <Gold.Chemscore.DEInternal>
0.5430

> <Gold.Chemscore.Rot>
1.4125

> <Gold.Chemscore.Internal.Correction>
   9.000000E+99

> <Gold.Chemscore.Hbonds>
donor molecule, donor type, donor heavy atom, donor atom, acceptor molecule, acceptor atom, score
      L1  H     9    29       P1  8028  0.90
      P1  H  7989  7998       L1    11  0.24

> <Gold.Chemscore.Hbond.Weighted>
-3.3882

> <Gold.Chemscore.Metal.Weighted>
-0.0000

> <Gold.Chemscore.Lipo.Weighted>
-10.8582

> <Gold.Chemscore.Internal_Hbond.Weighted>
0.0000

> <Gold.Chemscore.DEClash.Weighted>
2.2549

> <Gold.Chemscore.DEInternal.Weighted>
0.5430

> <Gold.Chemscore.Rot.Weighted>
3.6160

> <Gold.Chemscore.Internal.Correction.Weighted>
   9.000000E+99

> <Gold.Protein.RotatedTorsions>
[ 6907 6896 6895 6894 ] final -107.78 input  -60.11 | X-H torsion
[ 7974 7965 7964 7962 ] final -137.71 input  175.53 | X-H torsion
[ 8008 7997 7996 7995 ] final -154.15 input   59.86 | X-H torsion
[ 10167 10162 10161 10158 ] final   37.80 input  -65.29 | X-H torsion
[ 10718 10713 10712 10709 ] final   40.65 input   66.30 | X-H torsion
[ 10763 10752 10751 10750 ] final  174.53 input  -60.55 | X-H torsion
[ 11005 11000 10999 10996 ] final  148.37 input  -57.11 | X-H torsion

> <Gold.Protein.ActiveResidues>
 VAL166  LYS551  ARG553  GLY616  TRP617  ASP618  TYR619  PRO620  LYS621  CYS622 
 ASP623  PHE694  ASN695  SER759  ASP760  ASP761  ALA762  ILE779  LEU786  VAL792 
 PHE793  MET794  SER795  GLU796  ALA797  LYS798  CYS799  TRP800  GLU811  SER814 

> <Gold.Protein.RotatedAtoms>
  150.7463  133.9776  159.3565 H   0  0  0  0  0  0  0  0  0  0  0  0  # atno 6907 bound_to 6896
  151.7714  135.0783  160.0370 H   0  0  0  0  0  0  0  0  0  0  0  0  # atno 6908 bound_to 6896
  152.3336  133.5949  159.5863 H   0  0  0  0  0  0  0  0  0  0  0  0  # atno 6909 bound_to 6896
  144.8819  140.6519  143.5200 H   0  0  0  0  0  0  0  0  0  0  0  0  # atno 7974 bound_to 7965
  155.6820  140.0745  157.2481 H   0  0  0  0  0  0  0  0  0  0  0  0  # atno 8008 bound_to 7997
  154.4104  140.1680  156.2044 H   0  0  0  0  0  0  0  0  0  0  0  0  # atno 8009 bound_to 7997
  155.9527  140.3376  155.6424 H   0  0  0  0  0  0  0  0  0  0  0  0  # atno 8010 bound_to 7997
  140.3998  144.1739  150.6133 H   0  0  0  0  0  0  0  0  0  0  0  0  # atno 10167 bound_to 10162
  157.3846  130.7773  149.7220 H   0  0  0  0  0  0  0  0  0  0  0  0  # atno 10718 bound_to 10713
  154.4552  135.2766  155.1752 H   0  0  0  0  0  0  0  0  0  0  0  0  # atno 10763 bound_to 10752
  154.3563  135.6139  153.5671 H   0  0  0  0  0  0  0  0  0  0  0  0  # atno 10764 bound_to 10752
  152.9850  135.5823  154.4904 H   0  0  0  0  0  0  0  0  0  0  0  0  # atno 10765 bound_to 10752
  140.0954  134.9015  157.1715 H   0  0  0  0  0  0  0  0  0  0  0  0  # atno 11005 bound_to 11000
  145.3939  139.1611  143.4214 LP  0  0  0  0  0  0  0  0  0  0  0  0  # atno 17320 bound_to 7965
  146.3000  140.4030  142.8707 LP  0  0  0  0  0  0  0  0  0  0  0  0  # atno 17321 bound_to 7965
  140.4752  143.2399  151.9033 LP  0  0  0  0  0  0  0  0  0  0  0  0  # atno 17342 bound_to 10162
  139.4785  144.5328  151.8642 LP  0  0  0  0  0  0  0  0  0  0  0  0  # atno 17343 bound_to 10162
  155.9784  130.4052  150.3653 LP  0  0  0  0  0  0  0  0  0  0  0  0  # atno 17370 bound_to 10713
  157.1761  131.0381  151.2771 LP  0  0  0  0  0  0  0  0  0  0  0  0  # atno 17371 bound_to 10713
  140.3293  134.2828  155.7231 LP  0  0  0  0  0  0  0  0  0  0  0  0  # atno 17394 bound_to 11000
  141.2090  133.7760  157.0021 LP  0  0  0  0  0  0  0  0  0  0  0  0  # atno 17395 bound_to 11000

$$$$
