#       Name:                AV-unprocessed.smi:573
#       Creating user name   scv26
#       Creation time:       Thu Mar 26 23:48:16 2020


#       File generated by GOLD software.
#

@<TRIPOS>MOLECULE
AV-unprocessed.smi:573
    49    51     1
SMALL
NO_CHARGES


@<TRIPOS>ATOM
      1 ****        -1.1306  -1.0475  -3.8903 C.3            1 S1                 0.0000
      2 ****        -0.9745  -0.8603  -2.3757 C.3            1 S1                 0.0000
      3 ****         0.3922  -1.0411  -2.0696 O.3            1 S1                 0.0000
      4 ****        -1.4085   0.5459  -1.9256 C.3            1 S1                 0.0000
      5 ****        -1.7564   0.5923  -0.5164 N.pl3          1 S1                 0.0000
      6 ****        -0.9874   0.6456   0.6403 C.2            1 S1                 0.0000
      7 ****        -1.4940   0.6817   1.8712 N.2            1 S1                 0.0000
      8 ****        -0.3565   0.7190   2.6557 C.ar           1 S1                 0.0000
      9 ****        -0.2127   0.7669   4.0608 C.ar           1 S1                 0.0000
     10 ****         1.0699   0.7946   4.6467 C.ar           1 S1                 0.0000
     11 ****         2.2248   0.7736   3.8382 C.ar           1 S1                 0.0000
     12 ****         2.1049   0.7282   2.4358 C.ar           1 S1                 0.0000
     13 ****         0.8228   0.7036   1.8551 C.ar           1 S1                 0.0000
     14 ****         0.3628   0.6615   0.5421 N.pl3          1 S1                 0.0000
     15 ****         1.1782   0.6339  -0.6642 C.3            1 S1                 0.0000
     16 ****         1.4105  -0.7991  -1.1702 C.3            1 S1                 0.0000
     17 ****         2.2702  -0.8252  -2.4481 C.3            1 S1                 0.0000
     18 ****         2.5461  -2.2688  -2.8829 C.3            1 S1                 0.0000
     19 ****         3.1374  -3.0570  -1.7094 C.3            1 S1                 0.0000
     20 ****         2.2398  -2.9222  -0.4693 C.3            1 S1                 0.0000
     21 ****         2.0633  -1.5469  -0.1452 O.3            1 S1                 0.0000
     22 ****        -2.1716  -0.9340  -4.1937 H              1 S1                 0.0000
     23 ****        -0.8051  -2.0413  -4.1998 H              1 S1                 0.0000
     24 ****        -0.5418  -0.3158  -4.4449 H              1 S1                 0.0000
     25 ****        -1.5624  -1.6229  -1.8629 H              1 S1                 0.0000
     26 ****         0.5155  -0.8709  -1.1475 H              1 S1                 0.0000
     27 ****        -0.6412   1.2878  -2.1502 H              1 S1                 0.0000
     28 ****        -2.3011   0.8452  -2.4755 H              1 S1                 0.0000
     29 ****        -2.7522   0.5711  -0.3506 H              1 S1                 0.0000
     30 ****        -1.0910   0.7810   4.6890 H              1 S1                 0.0000
     31 ****         1.1679   0.8306   5.7218 H              1 S1                 0.0000
     32 ****         3.2034   0.7919   4.2952 H              1 S1                 0.0000
     33 ****         2.9877   0.7090   1.8140 H              1 S1                 0.0000
     34 ****         0.6969   1.2396  -1.4326 H              1 S1                 0.0000
     35 ****         2.1322   1.1168  -0.4497 H              1 S1                 0.0000
     36 ****         0.4421  -1.2579  -1.3786 H              1 S1                 0.0000
     37 ****         1.7706  -0.2839  -3.2520 H              1 S1                 0.0000
     38 ****         3.2160  -0.3131  -2.2661 H              1 S1                 0.0000
     39 ****         1.6175  -2.7381  -3.2105 H              1 S1                 0.0000
     40 ****         3.2252  -2.2867  -3.7357 H              1 S1                 0.0000
     41 ****         3.2547  -4.1068  -1.9796 H              1 S1                 0.0000
     42 ****         4.1344  -2.6791  -1.4794 H              1 S1                 0.0000
     43 ****         1.2706  -3.3948  -0.6364 H              1 S1                 0.0000
     44 ****         2.6977  -3.4277   0.3809 H              1 S1                 0.0000
     45 ****         0.9460  -0.4057  -2.6076 LP             1 S1                 0.0000
     46 ****         0.6641  -1.9803  -2.2793 LP             1 S1                 0.0000
     47 ****        -2.4528   0.6818   2.1555 LP             1 S1                 0.0000
     48 ****         1.5148  -1.4863   0.6888 LP             1 S1                 0.0000
     49 ****         2.9631  -1.1422   0.0174 LP             1 S1                 0.0000
@<TRIPOS>BOND
    1    1    2 1     
    2    1   22 1     
    3    1   23 1     
    4    1   24 1     
    5    2    3 1     
    6    2    4 1     
    7    2   25 1     
    8    3   26 1     
    9    4    5 1     
   10    4   27 1     
   11    4   28 1     
   12    5    6 1     
   13    5   29 1     
   14    6   14 1     
   15    6    7 2     
   16    7    8 1     
   17    8   13 ar    
   18    8    9 ar    
   19    9   10 ar    
   20    9   30 1     
   21   10   11 ar    
   22   10   31 1     
   23   11   12 ar    
   24   11   32 1     
   25   12   13 ar    
   26   12   33 1     
   27   13   14 1     
   28   14   15 1     
   29   15   16 1     
   30   15   34 1     
   31   15   35 1     
   32   16   21 1     
   33   16   17 1     
   34   16   36 1     
   35   17   18 1     
   36   17   37 1     
   37   17   38 1     
   38   18   19 1     
   39   18   39 1     
   40   18   40 1     
   41   19   20 1     
   42   19   41 1     
   43   19   42 1     
   44   20   21 1     
   45   20   43 1     
   46   20   44 1     
   47    3   45 1     
   48    3   46 1     
   49    7   47 1     
   50   21   48 1     
   51   21   49 1     
@<TRIPOS>SUBSTRUCTURE
      1 S1             1
@<TRIPOS>SET
LONE_PAIRS      STATIC     ATOMS    <user>   **** ""
5 45 46 47 48 49
DONOR_HYDROGENS      STATIC     ATOMS    <user>   **** ""
2 26 29
ATOM$BLUE        STATIC     ATOMS    COLORGROUP SYSTEM
5 45 46 47 48 49
ATOM$RED        STATIC     ATOMS    COLORGROUP SYSTEM
2 26 29
