#       Name:                AV-unprocessed.smi:1703
#       Creating user name   scv26
#       Creation time:       Fri Mar 27 08:05:15 2020


#       File generated by GOLD software.
#

@<TRIPOS>MOLECULE
AV-unprocessed.smi:1703
    56    58     1
SMALL
NO_CHARGES


@<TRIPOS>ATOM
      1 ****        -2.4533   2.2282  -3.6392 C.3            1 S1                 0.0000
      2 ****        -2.5481   1.5071  -2.2901 C.3            1 S1                 0.0000
      3 ****        -1.5085   2.0367  -1.2782 C.3            1 S1                 0.0000
      4 ****        -1.6903   1.4319   0.0665 N.4            1 S1                 1.0000
      5 ****        -1.1552   0.0509   0.2085 C.3            1 S1                 0.0000
      6 ****         0.3770   0.0261   0.3711 C.3            1 S1                 0.0000
      7 ****         0.7149   0.6529   1.5938 O.3            1 S1                 0.0000
      8 ****         0.9230  -1.4157   0.3575 C.3            1 S1                 0.0000
      9 ****         2.3706  -1.4778   0.5097 N.pl3          1 S1                 0.0000
     10 ****         3.3207  -1.4014  -0.4566 C.2            1 S1                 0.0000
     11 ****         2.9796  -1.2351  -1.9061 C.3            1 S1                 0.0000
     12 ****         2.5065  -2.4266  -2.4967 O.3            1 S1                 0.0000
     13 ****         4.5832  -1.4893  -0.0371 N.2            1 S1                 0.0000
     14 ****         4.4406  -1.6428   1.3280 C.ar           1 S1                 0.0000
     15 ****         5.4137  -1.7933   2.3418 C.ar           1 S1                 0.0000
     16 ****         5.0241  -1.9373   3.6895 C.ar           1 S1                 0.0000
     17 ****         3.6591  -1.9324   4.0423 C.ar           1 S1                 0.0000
     18 ****         2.6733  -1.7840   3.0479 C.ar           1 S1                 0.0000
     19 ****         3.0673  -1.6409   1.7037 C.ar           1 S1                 0.0000
     20 ****        -3.0971   1.5745   0.5136 C.3            1 S1                 0.0000
     21 ****        -4.0779   1.0259  -0.5419 C.3            1 S1                 0.0000
     22 ****        -5.5398   1.2351  -0.1331 C.3            1 S1                 0.0000
     23 ****        -3.8580   1.7103  -1.7707 O.3            1 S1                 0.0000
     24 ****        -1.4682   2.0947  -4.0872 H              1 S1                 0.0000
     25 ****        -2.6288   3.2988  -3.5291 H              1 S1                 0.0000
     26 ****        -3.1917   1.8406  -4.3414 H              1 S1                 0.0000
     27 ****        -2.3963   0.4416  -2.4661 H              1 S1                 0.0000
     28 ****        -0.4967   1.8746  -1.6480 H              1 S1                 0.0000
     29 ****        -1.6233   3.1168  -1.1758 H              1 S1                 0.0000
     30 ****        -1.6001  -0.4289   1.0817 H              1 S1                 0.0000
     31 ****        -1.4539  -0.5538  -0.6475 H              1 S1                 0.0000
     32 ****         0.8510   0.5876  -0.4326 H              1 S1                 0.0000
     33 ****         0.4019   0.1175   2.3071 H              1 S1                 0.0000
     34 ****         0.4667  -1.9997   1.1578 H              1 S1                 0.0000
     35 ****         0.6449  -1.9156  -0.5703 H              1 S1                 0.0000
     36 ****         2.2333  -0.4503  -2.0248 H              1 S1                 0.0000
     37 ****         3.8670  -0.9081  -2.4492 H              1 S1                 0.0000
     38 ****         2.3693  -2.2710  -3.4185 H              1 S1                 0.0000
     39 ****         6.4620  -1.7983   2.0820 H              1 S1                 0.0000
     40 ****         5.7764  -2.0520   4.4561 H              1 S1                 0.0000
     41 ****         3.3694  -2.0430   5.0770 H              1 S1                 0.0000
     42 ****         1.6279  -1.7795   3.3173 H              1 S1                 0.0000
     43 ****        -3.2439   1.0844   1.4768 H              1 S1                 0.0000
     44 ****        -3.2957   2.6345   0.6787 H              1 S1                 0.0000
     45 ****        -3.9121  -0.0427  -0.6889 H              1 S1                 0.0000
     46 ****        -5.7630   0.7226   0.8030 H              1 S1                 0.0000
     47 ****        -6.2166   0.8457  -0.8939 H              1 S1                 0.0000
     48 ****        -5.7652   2.2933   0.0028 H              1 S1                 0.0000
     49 ****        -1.1414   1.9864   0.7089 H              1 S1                 0.0000
     50 ****         0.2871   1.5557   1.6382 LP             1 S1                 0.0000
     51 ****         1.7080   0.7512   1.6579 LP             1 S1                 0.0000
     52 ****         1.6441  -2.6960  -2.0682 LP             1 S1                 0.0000
     53 ****         3.1812  -3.1545  -2.3744 LP             1 S1                 0.0000
     54 ****         5.4243  -1.4531  -0.5768 LP             1 S1                 0.0000
     55 ****        -4.5222   1.3821  -2.4423 LP             1 S1                 0.0000
     56 ****        -3.9931   2.6895  -1.6194 LP             1 S1                 0.0000
@<TRIPOS>BOND
    1    1    2 1     
    2    1   24 1     
    3    1   25 1     
    4    1   26 1     
    5    2   23 1     
    6    2    3 1     
    7    2   27 1     
    8    3    4 1     
    9    3   28 1     
   10    3   29 1     
   11    4    5 1     
   12    4   20 1     
   13    4   49 1     
   14    5    6 1     
   15    5   30 1     
   16    5   31 1     
   17    6    7 1     
   18    6    8 1     
   19    6   32 1     
   20    7   33 1     
   21    8    9 1     
   22    8   34 1     
   23    8   35 1     
   24    9   19 1     
   25    9   10 1     
   26   10   11 1     
   27   10   13 2     
   28   11   12 1     
   29   11   36 1     
   30   11   37 1     
   31   12   38 1     
   32   13   14 1     
   33   14   19 ar    
   34   14   15 ar    
   35   15   16 ar    
   36   15   39 1     
   37   16   17 ar    
   38   16   40 1     
   39   17   18 ar    
   40   17   41 1     
   41   18   19 ar    
   42   18   42 1     
   43   20   21 1     
   44   20   43 1     
   45   20   44 1     
   46   21   22 1     
   47   21   23 1     
   48   21   45 1     
   49   22   46 1     
   50   22   47 1     
   51   22   48 1     
   52    7   50 1     
   53    7   51 1     
   54   12   52 1     
   55   12   53 1     
   56   13   54 1     
   57   23   55 1     
   58   23   56 1     
@<TRIPOS>SUBSTRUCTURE
      1 S1             1
@<TRIPOS>SET
LONE_PAIRS      STATIC     ATOMS    <user>   **** ""
7 50 51 52 53 54 55 56
DONOR_HYDROGENS      STATIC     ATOMS    <user>   **** ""
3 49 33 38
ATOM$BLUE        STATIC     ATOMS    COLORGROUP SYSTEM
7 50 51 52 53 54 55 56
ATOM$RED        STATIC     ATOMS    COLORGROUP SYSTEM
3 49 33 38
