AV-unprocessed.smi:3335|AV-procd|sdf|12849|dock1
  -GOLD-   2272019233D 1   1.00000     0.00000
 Structure written by MMmdl.
 46 47  0  0  0  0  0  0  0  0  1 V2000
  152.5798  143.3126  160.4599 C   0  0  0  0  0  0  0  0  0  0  0  0
  152.5588  142.0355  159.6705 C   0  0  0  0  0  0  0  0  0  0  0  0
  153.6672  141.2278  159.2891 C   0  0  0  0  0  0  0  0  0  0  0  0
  153.3108  140.1605  158.5940 N   0  0  0  0  0  0  0  0  0  0  0  0
  151.9645  140.2472  158.5039 N   0  0  0  0  0  0  0  0  0  0  0  0
  151.2069  139.2277  157.7884 C   0  0  2  0  0  0  0  0  0  0  0  0
  150.0855  139.8882  156.9632 C   0  0  0  0  0  0  0  0  0  0  0  0
  150.6833  138.1176  158.7407 C   0  0  2  0  0  0  0  0  0  0  0  0
  151.8075  137.3146  159.4228 C   0  0  0  0  0  0  0  0  0  0  0  0
  149.8800  137.1655  157.9727 N   0  0  0  0  0  0  0  0  0  0  0  0
  148.5856  136.8154  158.5868 C   0  0  1  0  0  0  0  0  0  0  0  0
  147.4563  137.0332  157.5688 C   0  0  0  0  0  0  0  0  0  0  0  0
  148.5415  135.3647  159.1178 C   0  0  0  0  0  0  0  0  0  0  0  0
  148.9662  134.4586  158.3988 O   0  0  0  0  0  0  0  0  0  0  0  0
  148.0435  135.1200  160.3495 N   0  0  0  0  0  0  0  0  0  0  0  0
  147.5074  136.1685  161.2163 C   0  0  0  0  0  0  0  0  0  0  0  0
  146.8451  135.4435  162.3879 C   0  0  0  0  0  0  0  0  0  0  0  0
  147.5819  134.1145  162.4643 C   0  0  0  0  0  0  0  0  0  0  0  0
  147.9707  133.8197  161.0157 C   0  0  0  0  0  0  0  0  0  0  0  0
  151.4865  141.3695  159.1480 C   0  0  0  0  0  0  0  0  0  0  0  0
  152.9983  143.1622  161.4551 H   0  0  0  0  0  0  0  0  0  0  0  0
  151.5796  143.7260  160.5916 H   0  0  0  0  0  0  0  0  0  0  0  0
  153.1815  144.0781  159.9695 H   0  0  0  0  0  0  0  0  0  0  0  0
  154.7155  141.3851  159.4963 H   0  0  0  0  0  0  0  0  0  0  0  0
  151.9025  138.7674  157.0845 H   0  0  0  0  0  0  0  0  0  0  0  0
  149.6101  139.1721  156.2932 H   0  0  0  0  0  0  0  0  0  0  0  0
  150.4782  140.6947  156.3434 H   0  0  0  0  0  0  0  0  0  0  0  0
  149.3102  140.3089  157.6048 H   0  0  0  0  0  0  0  0  0  0  0  0
  150.0919  138.5896  159.5270 H   0  0  0  0  0  0  0  0  0  0  0  0
  152.4056  137.9416  160.0840 H   0  0  0  0  0  0  0  0  0  0  0  0
  152.4804  136.8689  158.6893 H   0  0  0  0  0  0  0  0  0  0  0  0
  151.4026  136.5087  160.0355 H   0  0  0  0  0  0  0  0  0  0  0  0
  150.4263  136.3403  157.7698 H   0  0  0  0  0  0  0  0  0  0  0  0
  148.4253  137.5172  159.4033 H   0  0  0  0  0  0  0  0  0  0  0  0
  146.4807  136.8189  158.0069 H   0  0  0  0  0  0  0  0  0  0  0  0
  147.5758  136.3935  156.6931 H   0  0  0  0  0  0  0  0  0  0  0  0
  147.4373  138.0673  157.2229 H   0  0  0  0  0  0  0  0  0  0  0  0
  148.3297  136.7932  161.5681 H   0  0  0  0  0  0  0  0  0  0  0  0
  146.7947  136.8086  160.6939 H   0  0  0  0  0  0  0  0  0  0  0  0
  146.8941  136.0098  163.3184 H   0  0  0  0  0  0  0  0  0  0  0  0
  145.7936  135.2643  162.1599 H   0  0  0  0  0  0  0  0  0  0  0  0
  148.4826  134.2314  163.0682 H   0  0  0  0  0  0  0  0  0  0  0  0
  146.9807  133.3216  162.9107 H   0  0  0  0  0  0  0  0  0  0  0  0
  147.2022  133.2146  160.5321 H   0  0  0  0  0  0  0  0  0  0  0  0
  148.9160  133.2773  160.9694 H   0  0  0  0  0  0  0  0  0  0  0  0
  150.4319  141.6008  159.1792 H   0  0  0  0  0  0  0  0  0  0  0  0
  1  2  1  0  0  0  0
  1 21  1  0  0  0  0
  1 22  1  0  0  0  0
  1 23  1  0  0  0  0
  2 20  2  0  0  0  0
  2  3  1  0  0  0  0
  3  4  2  0  0  0  0
  3 24  1  0  0  0  0
  4  5  1  0  0  0  0
  5  6  1  0  0  0  0
  5 20  1  0  0  0  0
  6  7  1  0  0  0  0
  6  8  1  0  0  0  0
  6 25  1  0  0  0  0
  7 26  1  0  0  0  0
  7 27  1  0  0  0  0
  7 28  1  0  0  0  0
  8  9  1  0  0  0  0
  8 10  1  0  0  0  0
  8 29  1  0  0  0  0
  9 30  1  0  0  0  0
  9 31  1  0  0  0  0
  9 32  1  0  0  0  0
 10 11  1  0  0  0  0
 10 33  1  0  0  0  0
 11 12  1  0  0  0  0
 11 13  1  0  0  0  0
 11 34  1  0  0  0  0
 12 35  1  0  0  0  0
 12 36  1  0  0  0  0
 12 37  1  0  0  0  0
 13 14  2  0  0  0  0
 13 15  1  0  0  0  0
 15 19  1  0  0  0  0
 15 16  1  0  0  0  0
 16 17  1  0  0  0  0
 16 38  1  0  0  0  0
 16 39  1  0  0  0  0
 17 18  1  0  0  0  0
 17 40  1  0  0  0  0
 17 41  1  0  0  0  0
 18 19  1  0  0  0  0
 18 42  1  0  0  0  0
 18 43  1  0  0  0  0
 19 44  1  0  0  0  0
 19 45  1  0  0  0  0
 20 46  1  0  0  0  0
M  END
> <s_m_source_file>
AV-unprocessed.smi

> <i_m_source_file_index>
3335

> <i_lp_mmshare_version>
43012

> <i_f3d_flags>
0

> <s_epik_input>
W0NIM11jMVtjSF1ubihbY0hdMSlbQ0BIXShbQ0gzXSlbQ0BIXShbQ0gzXSlbTkhdW0NASF0oW0NIM10pQyg9TylOMltDSDJdW0NIMl1bQ0gyXVtDSDJdMg==

> <s_epik_cmdline>
J2VwaWtfcHl0aG9uJywgJy1waCcsICc3LjAnLCAnLXRuJywgJzgnLCAnLW1hJywgJzIwMCcsICctbWV0YWxfYmluZGluZycsICctaW1hZScsICc8aW5maWxlLm1hZT4nLCAnLW9tYWUnLCAnPG91dGZpbGUubWFlPic=

> <r_lp_tautomer_probability>
1

> <r_epik_Ionization_Penalty>
0.918803

> <r_epik_Ionization_Penalty_Charging>
0

> <r_epik_Ionization_Penalty_Neutral>
0.918803

> <r_epik_State_Penalty>
0.958258

> <r_epik_Charging_Adjusted_Penalty>
0.958258

> <i_epik_Tot_Q>
0

> <i_epik_Tot_abs_Q>
0

> <r_epik_Metal_State_Penalty>
0.956786

> <b_epik_Metal_Only>
0

> <s_lp_Force_Field>
OPLS_2005

> <r_lp_Energy>
37.1763

> <b_lp_Chiralities_Consistent>
1

> <s_lp_Variant>
AV-unprocessed.smi:3335-13

> <Gold.Version>
5.8.1

> <Gold.Id.Protein>
6NUR|6NUR_protein|mol2

> <Gold.PLP.Fitness>
38.7561

> <Gold.PLP.PLP>
-37.7578

> <Gold.PLP.part.hbond>
-2.0000

> <Gold.PLP.part.metal>
0.0000

> <Gold.PLP.part.buried>
-4.5276

> <Gold.PLP.part.nonpolar>
-30.5936

> <Gold.PLP.part.repulsive>
0.0000

> <Gold.PLP.ligand.clash>
0.0000

> <Gold.PLP.ligand.torsion>
2.4001

> <Gold.PLP.Chemscore.Hbond>
1.8897

> <Gold.PLP.Chemscore.CHOScore>
0.0000

> <Gold.PLP.Chemscore.Metal>
0.0000

> <Gold.Chemscore.Hbonds>
donor molecule, donor type, donor heavy atom, donor atom, acceptor molecule, acceptor atom, score
      P1  H  6896  6909       L1    14  0.65
      P1  H  7997  8008       L1     4  0.98

> <Gold.PLP.Chemscore.Internal.Correction>
0.1294

> <Gold.Rescore>
     Score         DG    S(hbond)    S(metal)    S(lipo)     H(rot)  DE(clash)    DE(int)     intcor
     14.26     -16.88       1.19        0.00      99.00       1.62       0.09       2.54       ----

> <Gold.Chemscore.Fitness>
14.2586

> <Gold.Chemscore.DG>
-16.8810

> <Gold.Chemscore.ZeroCoef>
-5.4800

> <Gold.Chemscore.Hbond>
1.1876

> <Gold.Chemscore.Metal>
0.0000

> <Gold.Chemscore.Lipo>
98.9951

> <Gold.Chemscore.Internal_Hbond>
0.0000

> <Gold.Chemscore.DEClash>
0.0854

> <Gold.Chemscore.DEInternal>
2.5370

> <Gold.Chemscore.Rot>
1.6204

> <Gold.Chemscore.Internal.Correction>
   9.000000E+99

> <Gold.Chemscore.Hbonds>
donor molecule, donor type, donor heavy atom, donor atom, acceptor molecule, acceptor atom, score
      P1  H  6896  6909       L1    14  0.06
      P1  H  7997  8008       L1     4  0.39

> <Gold.Chemscore.Hbond.Weighted>
-3.9667

> <Gold.Chemscore.Metal.Weighted>
-0.0000

> <Gold.Chemscore.Lipo.Weighted>
-11.5824

> <Gold.Chemscore.Internal_Hbond.Weighted>
0.0000

> <Gold.Chemscore.DEClash.Weighted>
0.0854

> <Gold.Chemscore.DEInternal.Weighted>
2.5370

> <Gold.Chemscore.Rot.Weighted>
4.1482

> <Gold.Chemscore.Internal.Correction.Weighted>
   9.000000E+99

> <Gold.Protein.RotatedTorsions>
[ 6907 6896 6895 6894 ] final   31.66 input  -60.11 | X-H torsion
[ 7974 7965 7964 7962 ] final  -50.66 input  175.53 | X-H torsion
[ 8008 7997 7996 7995 ] final  -92.55 input   59.86 | X-H torsion
[ 10167 10162 10161 10158 ] final   -8.87 input  -65.29 | X-H torsion
[ 10718 10713 10712 10709 ] final  176.35 input   66.30 | X-H torsion
[ 10763 10752 10751 10750 ] final   -2.54 input  -60.55 | X-H torsion
[ 11005 11000 10999 10996 ] final  -41.31 input  -57.11 | X-H torsion

> <Gold.Protein.ActiveResidues>
 VAL166  LYS551  ARG553  GLY616  TRP617  ASP618  TYR619  PRO620  LYS621  CYS622 
 ASP623  PHE694  ASN695  SER759  ASP760  ASP761  ALA762  ILE779  LEU786  VAL792 
 PHE793  MET794  SER795  GLU796  ALA797  LYS798  CYS799  TRP800  GLU811  SER814 

> <Gold.Protein.RotatedAtoms>
  152.0634  134.9580  160.0574 H   0  0  0  0  0  0  0  0  0  0  0  0  # atno 6907 bound_to 6896
  152.0934  133.4207  159.4562 H   0  0  0  0  0  0  0  0  0  0  0  0  # atno 6908 bound_to 6896
  150.6837  134.2764  159.4653 H   0  0  0  0  0  0  0  0  0  0  0  0  # atno 6909 bound_to 6896
  145.9274  140.7779  142.9616 H   0  0  0  0  0  0  0  0  0  0  0  0  # atno 7974 bound_to 7965
  154.7245  140.0508  157.0670 H   0  0  0  0  0  0  0  0  0  0  0  0  # atno 8008 bound_to 7997
  155.0384  140.3166  155.4714 H   0  0  0  0  0  0  0  0  0  0  0  0  # atno 8009 bound_to 7997
  156.2825  140.2137  156.5507 H   0  0  0  0  0  0  0  0  0  0  0  0  # atno 8010 bound_to 7997
  140.7071  143.5920  150.8884 H   0  0  0  0  0  0  0  0  0  0  0  0  # atno 10167 bound_to 10162
  156.9214  130.9942  151.3004 H   0  0  0  0  0  0  0  0  0  0  0  0  # atno 10718 bound_to 10713
  153.3594  135.6989  153.6724 H   0  0  0  0  0  0  0  0  0  0  0  0  # atno 10763 bound_to 10752
  153.5419  135.3571  155.2722 H   0  0  0  0  0  0  0  0  0  0  0  0  # atno 10764 bound_to 10752
  154.8666  135.4205  154.2848 H   0  0  0  0  0  0  0  0  0  0  0  0  # atno 10765 bound_to 10752
  141.0236  133.6851  156.2439 H   0  0  0  0  0  0  0  0  0  0  0  0  # atno 11005 bound_to 11000
  144.6760  140.2073  143.7381 LP  0  0  0  0  0  0  0  0  0  0  0  0  # atno 17320 bound_to 7965
  145.8470  139.2157  143.1794 LP  0  0  0  0  0  0  0  0  0  0  0  0  # atno 17321 bound_to 7965
  139.9646  143.6125  152.2992 LP  0  0  0  0  0  0  0  0  0  0  0  0  # atno 17342 bound_to 10162
  139.6690  144.7661  151.1818 LP  0  0  0  0  0  0  0  0  0  0  0  0  # atno 17343 bound_to 10162
  157.5905  130.8440  149.8652 LP  0  0  0  0  0  0  0  0  0  0  0  0  # atno 17370 bound_to 10713
  156.0489  130.3722  150.1249 LP  0  0  0  0  0  0  0  0  0  0  0  0  # atno 17371 bound_to 10713
  140.6529  134.5048  157.5578 LP  0  0  0  0  0  0  0  0  0  0  0  0  # atno 17394 bound_to 11000
  139.9162  134.8242  156.1360 LP  0  0  0  0  0  0  0  0  0  0  0  0  # atno 17395 bound_to 11000

$$$$
