#       Name:                AV-unprocessed.smi:1436
#       Creating user name   scv26
#       Creation time:       Fri Mar 27 05:53:26 2020


#       File generated by GOLD software.
#

@<TRIPOS>MOLECULE
AV-unprocessed.smi:1436
    51    52     1
SMALL
NO_CHARGES


@<TRIPOS>ATOM
      1 ****        -1.4945   1.9452  -1.2558 C.3            1 S1                 0.0000
      2 ****        -1.8394   2.7796  -0.0562 C.2            1 S1                 0.0000
      3 ****        -2.0989   4.0670  -0.2102 N.2            1 S1                 0.0000
      4 ****        -2.3664   4.5594   1.0706 O.3            1 S1                 0.0000
      5 ****        -2.2541   3.5367   1.9559 C.2            1 S1                 0.0000
      6 ****        -2.4970   3.8608   3.3910 C.3            1 S1                 0.0000
      7 ****        -1.9243   2.3782   1.3084 C.2            1 S1                 0.0000
      8 ****        -1.6995   1.0061   1.8941 C.3            1 S1                 0.0000
      9 ****        -0.2163   0.6273   1.8405 C.2            1 S1                 0.0000
     10 ****         0.6516   1.4605   2.1041 O.2            1 S1                 0.0000
     11 ****         0.0592  -0.6388   1.4910 N.am           1 S1                 0.0000
     12 ****         1.3961  -1.2085   1.3390 C.3            1 S1                 0.0000
     13 ****         1.3814  -2.7140   1.6479 C.3            1 S1                 0.0000
     14 ****         2.0215  -0.8580  -0.0335 C.3            1 S1                 0.0000
     15 ****         1.6462  -1.7055  -1.1698 N.3            1 S1                 0.0000
     16 ****         2.4983  -1.4323  -2.3228 C.3            1 S1                 0.0000
     17 ****         2.1359  -2.3126  -3.5312 C.3            1 S1                 0.0000
     18 ****         0.7654  -2.1207  -3.8646 O.3            1 S1                 0.0000
     19 ****        -0.1074  -2.4232  -2.7817 C.3            1 S1                 0.0000
     20 ****         0.2493  -1.5466  -1.5688 C.3            1 S1                 0.0000
     21 ****        -0.4167   1.7981  -1.3260 H              1 S1                 0.0000
     22 ****        -1.8273   2.4136  -2.1825 H              1 S1                 0.0000
     23 ****        -1.9620   0.9622  -1.1969 H              1 S1                 0.0000
     24 ****        -1.6403   3.5725   4.0004 H              1 S1                 0.0000
     25 ****        -3.3718   3.3278   3.7634 H              1 S1                 0.0000
     26 ****        -2.6663   4.9287   3.5313 H              1 S1                 0.0000
     27 ****        -2.0222   0.9604   2.9345 H              1 S1                 0.0000
     28 ****        -2.2891   0.2590   1.3612 H              1 S1                 0.0000
     29 ****        -0.7181  -1.2532   1.2968 H              1 S1                 0.0000
     30 ****         2.0288  -0.7475   2.0996 H              1 S1                 0.0000
     31 ****         2.3818  -3.1390   1.5628 H              1 S1                 0.0000
     32 ****         0.7284  -3.2609   0.9672 H              1 S1                 0.0000
     33 ****         1.0297  -2.9013   2.6628 H              1 S1                 0.0000
     34 ****         1.8370   0.1905  -0.2732 H              1 S1                 0.0000
     35 ****         3.1020  -0.9344   0.0957 H              1 S1                 0.0000
     36 ****         2.4127  -0.3818  -2.6051 H              1 S1                 0.0000
     37 ****         3.5433  -1.5998  -2.0591 H              1 S1                 0.0000
     38 ****         2.7526  -2.0501  -4.3910 H              1 S1                 0.0000
     39 ****         2.3210  -3.3655  -3.3125 H              1 S1                 0.0000
     40 ****        -1.1365  -2.2409  -3.0916 H              1 S1                 0.0000
     41 ****        -0.0310  -3.4817  -2.5283 H              1 S1                 0.0000
     42 ****        -0.4133  -1.8138  -0.7474 H              1 S1                 0.0000
     43 ****         0.0508  -0.5021  -1.8092 H              1 S1                 0.0000
     44 ****        -2.1030   4.5826  -1.0670 LP             1 S1                 0.0000
     45 ****        -3.2936   4.9327   1.1019 LP             1 S1                 0.0000
     46 ****        -1.7099   5.2780   1.2999 LP             1 S1                 0.0000
     47 ****         0.3901   2.3924   2.3554 LP             1 S1                 0.0000
     48 ****         1.6177   1.2050   2.0667 LP             1 S1                 0.0000
     49 ****         1.7713  -2.6478  -0.8592 LP             1 S1                 0.0000
     50 ****         0.5369  -2.7147  -4.6360 LP             1 S1                 0.0000
     51 ****         0.6303  -1.1656  -4.1280 LP             1 S1                 0.0000
@<TRIPOS>BOND
    1    1    2 1     
    2    1   21 1     
    3    1   22 1     
    4    1   23 1     
    5    2    7 1     
    6    2    3 2     
    7    3    4 1     
    8    4    5 1     
    9    5    6 1     
   10    5    7 2     
   11    6   24 1     
   12    6   25 1     
   13    6   26 1     
   14    7    8 1     
   15    8    9 1     
   16    8   27 1     
   17    8   28 1     
   18    9   10 2     
   19    9   11 am    
   20   11   12 1     
   21   11   29 1     
   22   12   13 1     
   23   12   14 1     
   24   12   30 1     
   25   13   31 1     
   26   13   32 1     
   27   13   33 1     
   28   14   15 1     
   29   14   34 1     
   30   14   35 1     
   31   15   20 1     
   32   15   16 1     
   33   16   17 1     
   34   16   36 1     
   35   16   37 1     
   36   17   18 1     
   37   17   38 1     
   38   17   39 1     
   39   18   19 1     
   40   19   20 1     
   41   19   40 1     
   42   19   41 1     
   43   20   42 1     
   44   20   43 1     
   45    3   44 1     
   46    4   45 1     
   47    4   46 1     
   48   10   47 1     
   49   10   48 1     
   50   15   49 1     
   51   18   50 1     
   52   18   51 1     
@<TRIPOS>SUBSTRUCTURE
      1 S1             1
@<TRIPOS>SET
LONE_PAIRS      STATIC     ATOMS    <user>   **** ""
8 44 45 46 47 48 49 50 51
DONOR_HYDROGENS      STATIC     ATOMS    <user>   **** ""
1 29
ATOM$BLUE        STATIC     ATOMS    COLORGROUP SYSTEM
8 44 45 46 47 48 49 50 51
ATOM$RED        STATIC     ATOMS    COLORGROUP SYSTEM
1 29
