AV-unprocessed.smi:3314|AV-procd|sdf|12741|dock2
  -GOLD-   2272019 83D 1   1.00000     0.00000
 Structure written by MMmdl.
 38 39  0  0  0  0  0  0  0  0  2 V2000
  153.5070  140.9830  159.6762 C   0  0  0  0  0  0  0  0  0  0  0  0
  152.5828  141.9685  158.9912 C   0  0  0  0  0  0  0  0  0  0  0  0
  152.5386  143.3176  159.4001 C   0  0  0  0  0  0  0  0  0  0  0  0
  151.6590  144.2028  158.7452 C   0  0  0  0  0  0  0  0  0  0  0  0
  151.5450  145.6627  159.1302 C   0  0  0  0  0  0  0  0  0  0  0  0
  150.8804  143.7489  157.7380 N   0  3  0  0  0  0  0  0  0  0  0  0
  150.8893  142.4694  157.2973 C   0  0  0  0  0  0  0  0  0  0  0  0
  149.9959  142.1495  156.2387 N   0  0  0  0  0  0  0  0  0  0  0  0
  150.1008  141.1934  155.2968 C   0  0  0  0  0  0  0  0  0  0  0  0
  151.0505  140.4171  155.1908 O   0  0  0  0  0  0  0  0  0  0  0  0
  148.9253  141.1198  154.3139 C   0  0  2  0  0  0  0  0  0  0  0  0
  147.7877  142.1141  154.6403 C   0  0  0  0  0  0  0  0  0  0  0  0
  146.6674  141.9682  153.7207 N   0  0  0  0  0  0  0  0  0  0  0  0
  145.5983  142.9078  154.0230 C   0  0  0  0  0  0  0  0  0  0  0  0
  146.1942  140.5909  153.7414 C   0  0  0  0  0  0  0  0  0  0  0  0
  147.3253  139.5982  153.4233 C   0  0  0  0  0  0  0  0  0  0  0  0
  148.4045  139.7911  154.3340 O   0  0  0  0  0  0  0  0  0  0  0  0
  151.7496  141.5400  157.9358 C   0  0  0  0  0  0  0  0  0  0  0  0
  154.0990  141.4659  160.4542 H   0  0  0  0  0  0  0  0  0  0  0  0
  154.1925  140.5414  158.9523 H   0  0  0  0  0  0  0  0  0  0  0  0
  152.9297  140.1806  160.1363 H   0  0  0  0  0  0  0  0  0  0  0  0
  153.1661  143.6679  160.2070 H   0  0  0  0  0  0  0  0  0  0  0  0
  152.2422  145.9138  159.9300 H   0  0  0  0  0  0  0  0  0  0  0  0
  150.5355  145.8864  159.4762 H   0  0  0  0  0  0  0  0  0  0  0  0
  151.7655  146.3009  158.2741 H   0  0  0  0  0  0  0  0  0  0  0  0
  149.1917  142.7540  156.1534 H   0  0  0  0  0  0  0  0  0  0  0  0
  149.3153  141.3308  153.3163 H   0  0  0  0  0  0  0  0  0  0  0  0
  147.4437  141.9579  155.6645 H   0  0  0  0  0  0  0  0  0  0  0  0
  148.1681  143.1354  154.5907 H   0  0  0  0  0  0  0  0  0  0  0  0
  144.7844  142.8105  153.3039 H   0  0  0  0  0  0  0  0  0  0  0  0
  145.9616  143.9349  153.9754 H   0  0  0  0  0  0  0  0  0  0  0  0
  145.1928  142.7362  155.0209 H   0  0  0  0  0  0  0  0  0  0  0  0
  145.7759  140.3584  154.7221 H   0  0  0  0  0  0  0  0  0  0  0  0
  145.3865  140.4655  153.0195 H   0  0  0  0  0  0  0  0  0  0  0  0
  146.9652  138.5730  153.5082 H   0  0  0  0  0  0  0  0  0  0  0  0
  147.6778  139.7303  152.3993 H   0  0  0  0  0  0  0  0  0  0  0  0
  151.7803  140.5010  157.6466 H   0  0  0  0  0  0  0  0  0  0  0  0
  150.2525  144.4129  157.2842 H   0  0  0  0  0  0  0  0  0  0  0  0
  1  2  1  0  0  0  0
  1 19  1  0  0  0  0
  1 20  1  0  0  0  0
  1 21  1  0  0  0  0
  2 18  1  0  0  0  0
  2  3  2  0  0  0  0
  3  4  1  0  0  0  0
  3 22  1  0  0  0  0
  4  5  1  0  0  0  0
  4  6  2  0  0  0  0
  5 23  1  0  0  0  0
  5 24  1  0  0  0  0
  5 25  1  0  0  0  0
  6  7  1  0  0  0  0
  6 38  1  0  0  0  0
  7  8  1  0  0  0  0
  7 18  2  0  0  0  0
  8  9  1  0  0  0  0
  8 26  1  0  0  0  0
  9 10  2  0  0  0  0
  9 11  1  0  0  0  0
 11 17  1  0  0  0  0
 11 12  1  0  0  0  0
 11 27  1  0  0  0  0
 12 13  1  0  0  0  0
 12 28  1  0  0  0  0
 12 29  1  0  0  0  0
 13 14  1  0  0  0  0
 13 15  1  0  0  0  0
 14 30  1  0  0  0  0
 14 31  1  0  0  0  0
 14 32  1  0  0  0  0
 15 16  1  0  0  0  0
 15 33  1  0  0  0  0
 15 34  1  0  0  0  0
 16 17  1  0  0  0  0
 16 35  1  0  0  0  0
 16 36  1  0  0  0  0
 18 37  1  0  0  0  0
M  CHG  1   6   1
M  END
> <s_m_source_file>
AV-unprocessed.smi

> <i_m_source_file_index>
3314

> <i_lp_mmshare_version>
43012

> <i_f3d_flags>
0

> <s_epik_input>
W0NIM11jMVtjSF1jKFtDSDNdKW5jKFtjSF0xKVtOSF1DKD1PKVtDQEBIXTJbQ0gyXU4oW0NIM10pW0NIMl1bQ0gyXU8y

> <s_epik_cmdline>
J2VwaWtfcHl0aG9uJywgJy1waCcsICc3LjAnLCAnLXRuJywgJzgnLCAnLW1hJywgJzIwMCcsICctbWV0YWxfYmluZGluZycsICctaW1hZScsICc8aW5maWxlLm1hZT4nLCAnLW9tYWUnLCAnPG91dGZpbGUubWFlPic=

> <r_epik_Ionization_Penalty>
2.57421

> <r_epik_Ionization_Penalty_Charging>
1.80498

> <r_epik_Ionization_Penalty_Neutral>
0.76923

> <r_epik_State_Penalty>
2.63884

> <r_epik_Charging_Adjusted_Penalty>
4.44382

> <i_epik_Tot_Q>
1

> <i_epik_Tot_abs_Q>
1

> <r_epik_Metal_State_Penalty>
6.15142

> <b_epik_Metal_Only>
0

> <s_lp_Force_Field>
OPLS_2005

> <r_lp_Energy>
30.3211

> <b_lp_Chiralities_Consistent>
1

> <s_lp_Variant>
AV-unprocessed.smi:3314-11

> <Gold.Version>
5.8.1

> <Gold.Id.Protein>
6NUR|6NUR_protein|mol2

> <Gold.PLP.Fitness>
44.0547

> <Gold.PLP.PLP>
-35.7073

> <Gold.PLP.part.hbond>
-3.0000

> <Gold.PLP.part.metal>
0.0000

> <Gold.PLP.part.buried>
1.9607

> <Gold.PLP.part.nonpolar>
-35.0009

> <Gold.PLP.part.repulsive>
0.4513

> <Gold.PLP.ligand.clash>
0.8599

> <Gold.PLP.ligand.torsion>
0.1998

> <Gold.PLP.Chemscore.Hbond>
3.2016

> <Gold.PLP.Chemscore.CHOScore>
0.0000

> <Gold.PLP.Chemscore.Metal>
0.0000

> <Gold.Chemscore.Hbonds>
donor molecule, donor type, donor heavy atom, donor atom, acceptor molecule, acceptor atom, score
      L1  H     6    38       P1  8028  1.50
      L1  H     8    26       P1  8028  0.69
      P1  H  7989  7998       L1    10  1.00

> <Gold.PLP.Chemscore.Internal.Correction>
0.0023

> <Gold.Rescore>
     Score         DG    S(hbond)    S(metal)    S(lipo)     H(rot)  DE(clash)    DE(int)     intcor
     17.06     -20.80       1.92        0.00      98.17       1.00       2.80       0.95       ----

> <Gold.Chemscore.Fitness>
17.0562

> <Gold.Chemscore.DG>
-20.8029

> <Gold.Chemscore.ZeroCoef>
-5.4800

> <Gold.Chemscore.Hbond>
1.9154

> <Gold.Chemscore.Metal>
0.0000

> <Gold.Chemscore.Lipo>
98.1659

> <Gold.Chemscore.Internal_Hbond>
0.0000

> <Gold.Chemscore.DEClash>
2.7966

> <Gold.Chemscore.DEInternal>
0.9502

> <Gold.Chemscore.Rot>
1.0000

> <Gold.Chemscore.Internal.Correction>
   9.000000E+99

> <Gold.Chemscore.Hbonds>
donor molecule, donor type, donor heavy atom, donor atom, acceptor molecule, acceptor atom, score
      L1  H     6    38       P1  8028  0.43
      L1  H     8    26       P1  8028  0.65
      P1  H  7989  7998       L1    10  0.24

> <Gold.Chemscore.Hbond.Weighted>
-6.3975

> <Gold.Chemscore.Metal.Weighted>
-0.0000

> <Gold.Chemscore.Lipo.Weighted>
-11.4854

> <Gold.Chemscore.Internal_Hbond.Weighted>
0.0000

> <Gold.Chemscore.DEClash.Weighted>
2.7966

> <Gold.Chemscore.DEInternal.Weighted>
0.9502

> <Gold.Chemscore.Rot.Weighted>
2.5600

> <Gold.Chemscore.Internal.Correction.Weighted>
   9.000000E+99

> <Gold.Protein.RotatedTorsions>
[ 6907 6896 6895 6894 ] final  178.66 input  -60.11 | X-H torsion
[ 7974 7965 7964 7962 ] final  146.47 input  175.53 | X-H torsion
[ 8008 7997 7996 7995 ] final -157.57 input   59.86 | X-H torsion
[ 10167 10162 10161 10158 ] final  169.09 input  -65.29 | X-H torsion
[ 10718 10713 10712 10709 ] final    0.59 input   66.30 | X-H torsion
[ 10763 10752 10751 10750 ] final  -22.44 input  -60.55 | X-H torsion
[ 11005 11000 10999 10996 ] final   65.90 input  -57.11 | X-H torsion

> <Gold.Protein.ActiveResidues>
 VAL166  LYS551  ARG553  GLY616  TRP617  ASP618  TYR619  PRO620  LYS621  CYS622 
 ASP623  PHE694  ASN695  SER759  ASP760  ASP761  ALA762  ILE779  LEU786  VAL792 
 PHE793  MET794  SER795  GLU796  ALA797  LYS798  CYS799  TRP800  GLU811  SER814 

> <Gold.Protein.RotatedAtoms>
  151.6842  133.3311  159.3226 H   0  0  0  0  0  0  0  0  0  0  0  0  # atno 6907 bound_to 6896
  150.7809  134.6755  159.6424 H   0  0  0  0  0  0  0  0  0  0  0  0  # atno 6908 bound_to 6896
  152.3866  134.6511  160.0175 H   0  0  0  0  0  0  0  0  0  0  0  0  # atno 6909 bound_to 6896
  144.8668  139.5909  143.5905 H   0  0  0  0  0  0  0  0  0  0  0  0  # atno 7974 bound_to 7965
  155.7344  140.0806  157.2274 H   0  0  0  0  0  0  0  0  0  0  0  0  # atno 8008 bound_to 7997
  154.4029  140.1589  156.2600 H   0  0  0  0  0  0  0  0  0  0  0  0  # atno 8009 bound_to 7997
  155.9079  140.3405  155.6079 H   0  0  0  0  0  0  0  0  0  0  0  0  # atno 8010 bound_to 7997
  139.4983  144.3744  151.9690 H   0  0  0  0  0  0  0  0  0  0  0  0  # atno 10167 bound_to 10162
  156.8356  130.5503  149.5682 H   0  0  0  0  0  0  0  0  0  0  0  0  # atno 10718 bound_to 10713
  153.6520  135.6980  153.5206 H   0  0  0  0  0  0  0  0  0  0  0  0  # atno 10763 bound_to 10752
  153.2699  135.4218  155.0977 H   0  0  0  0  0  0  0  0  0  0  0  0  # atno 10764 bound_to 10752
  154.8474  135.3576  154.6064 H   0  0  0  0  0  0  0  0  0  0  0  0  # atno 10765 bound_to 10752
  139.9865  134.6659  156.0167 H   0  0  0  0  0  0  0  0  0  0  0  0  # atno 11005 bound_to 11000
  146.2902  139.7116  142.9167 LP  0  0  0  0  0  0  0  0  0  0  0  0  # atno 17320 bound_to 7965
  145.4206  141.0406  143.2966 LP  0  0  0  0  0  0  0  0  0  0  0  0  # atno 17321 bound_to 7965
  140.3180  144.3461  150.6016 LP  0  0  0  0  0  0  0  0  0  0  0  0  # atno 17342 bound_to 10162
  140.5745  143.2177  151.7539 LP  0  0  0  0  0  0  0  0  0  0  0  0  # atno 17343 bound_to 10162
  156.0909  130.5895  150.9732 LP  0  0  0  0  0  0  0  0  0  0  0  0  # atno 17370 bound_to 10713
  157.6383  131.0913  150.8303 LP  0  0  0  0  0  0  0  0  0  0  0  0  # atno 17371 bound_to 10713
  141.1529  133.6546  156.4070 LP  0  0  0  0  0  0  0  0  0  0  0  0  # atno 17394 bound_to 11000
  140.4992  134.6502  157.5242 LP  0  0  0  0  0  0  0  0  0  0  0  0  # atno 17395 bound_to 11000

$$$$
