AV-unprocessed.smi:2666|AV-procd|sdf|10333|dock9
  -GOLD-   2272014353D 1   1.00000     0.00000
 Structure written by MMmdl.
 43 44  0  0  0  0  0  0  0  0  1 V2000
  144.5773  136.4009  152.6002 O   0  0  0  0  0  0  0  0  0  0  0  0
  145.7780  136.3173  152.3449 C   0  0  0  0  0  0  0  0  0  0  0  0
  146.3703  135.2737  151.7394 N   0  0  0  0  0  0  0  0  0  0  0  0
  145.7675  134.0877  151.2399 C   0  0  0  0  0  0  0  0  0  0  0  0
  144.3602  134.0378  151.1674 C   0  0  0  0  0  0  0  0  0  0  0  0
  143.7384  132.8677  150.6916 C   0  0  0  0  0  0  0  0  0  0  0  0
  144.5531  131.7827  150.3146 C   0  0  0  0  0  0  0  0  0  0  0  0
  145.9002  131.8067  150.3936 N   0  0  0  0  0  0  0  0  0  0  0  0
  146.4903  132.9333  150.8485 C   0  0  0  0  0  0  0  0  0  0  0  0
  146.6757  137.2620  152.6643 N   0  0  0  0  0  0  0  0  0  0  0  0
  146.3923  138.5260  153.3507 C   0  0  1  0  0  0  0  0  0  0  0  0
  145.7622  138.2177  154.7331 C   0  0  0  0  0  0  0  0  0  0  0  0
  144.7086  139.2339  155.2132 C   0  0  0  0  0  0  0  0  0  0  0  0
  143.5291  139.1255  154.4446 O   0  0  0  0  0  0  0  0  0  0  0  0
  147.6867  139.3870  153.4336 C   0  0  0  0  0  0  0  0  0  0  0  0
  148.8005  138.7061  154.2675 C   0  0  0  0  0  0  0  0  0  0  0  0
  150.0709  139.5663  154.3665 C   0  0  0  0  0  0  0  0  0  0  0  0
  149.7640  140.9549  154.9393 C   0  0  0  0  0  0  0  0  0  0  0  0
  148.6862  141.6556  154.1039 C   0  0  0  0  0  0  0  0  0  0  0  0
  147.4123  140.8016  154.0076 C   0  0  0  0  0  0  0  0  0  0  0  0
  147.3773  135.3072  151.6791 H   0  0  0  0  0  0  0  0  0  0  0  0
  143.7616  134.8861  151.4662 H   0  0  0  0  0  0  0  0  0  0  0  0
  142.6629  132.8028  150.6181 H   0  0  0  0  0  0  0  0  0  0  0  0
  144.1106  130.8690  149.9460 H   0  0  0  0  0  0  0  0  0  0  0  0
  147.5659  132.8832  150.9139 H   0  0  0  0  0  0  0  0  0  0  0  0
  147.6391  137.0967  152.4128 H   0  0  0  0  0  0  0  0  0  0  0  0
  145.6621  139.0990  152.7764 H   0  0  0  0  0  0  0  0  0  0  0  0
  145.3037  137.2286  154.7011 H   0  0  0  0  0  0  0  0  0  0  0  0
  146.5342  138.1652  155.4994 H   0  0  0  0  0  0  0  0  0  0  0  0
  144.4705  139.1027  156.2688 H   0  0  0  0  0  0  0  0  0  0  0  0
  145.0958  140.2471  155.1028 H   0  0  0  0  0  0  0  0  0  0  0  0
  143.5545  139.7759  153.7594 H   0  0  0  0  0  0  0  0  0  0  0  0
  148.0661  139.5144  152.4185 H   0  0  0  0  0  0  0  0  0  0  0  0
  148.4290  138.4898  155.2700 H   0  0  0  0  0  0  0  0  0  0  0  0
  149.0834  137.7502  153.8300 H   0  0  0  0  0  0  0  0  0  0  0  0
  150.8114  139.0640  154.9894 H   0  0  0  0  0  0  0  0  0  0  0  0
  150.5187  139.6702  153.3774 H   0  0  0  0  0  0  0  0  0  0  0  0
  149.4271  140.8616  155.9727 H   0  0  0  0  0  0  0  0  0  0  0  0
  150.6714  141.5589  154.9610 H   0  0  0  0  0  0  0  0  0  0  0  0
  148.4504  142.6261  154.5414 H   0  0  0  0  0  0  0  0  0  0  0  0
  149.0702  141.8534  153.1022 H   0  0  0  0  0  0  0  0  0  0  0  0
  146.6933  141.3386  153.3893 H   0  0  0  0  0  0  0  0  0  0  0  0
  146.9591  140.7129  154.9959 H   0  0  0  0  0  0  0  0  0  0  0  0
  1  2  2  0  0  0  0
  2  3  1  0  0  0  0
  2 10  1  0  0  0  0
  3  4  1  0  0  0  0
  3 21  1  0  0  0  0
  4  9  1  0  0  0  0
  4  5  2  0  0  0  0
  5  6  1  0  0  0  0
  5 22  1  0  0  0  0
  6  7  2  0  0  0  0
  6 23  1  0  0  0  0
  7  8  1  0  0  0  0
  7 24  1  0  0  0  0
  8  9  2  0  0  0  0
  9 25  1  0  0  0  0
 10 11  1  0  0  0  0
 10 26  1  0  0  0  0
 11 12  1  0  0  0  0
 11 15  1  0  0  0  0
 11 27  1  0  0  0  0
 12 13  1  0  0  0  0
 12 28  1  0  0  0  0
 12 29  1  0  0  0  0
 13 14  1  0  0  0  0
 13 30  1  0  0  0  0
 13 31  1  0  0  0  0
 14 32  1  0  0  0  0
 15 20  1  0  0  0  0
 15 16  1  0  0  0  0
 15 33  1  0  0  0  0
 16 17  1  0  0  0  0
 16 34  1  0  0  0  0
 16 35  1  0  0  0  0
 17 18  1  0  0  0  0
 17 36  1  0  0  0  0
 17 37  1  0  0  0  0
 18 19  1  0  0  0  0
 18 38  1  0  0  0  0
 18 39  1  0  0  0  0
 19 20  1  0  0  0  0
 19 40  1  0  0  0  0
 19 41  1  0  0  0  0
 20 42  1  0  0  0  0
 20 43  1  0  0  0  0
M  END
> <s_m_source_file>
AV-unprocessed.smi

> <i_m_source_file_index>
2666

> <i_lp_mmshare_version>
43012

> <i_f3d_flags>
0

> <s_epik_input>
W2NIXTFuW2NIXVtjSF1bY0hdYzFbTkhdQyg9TylbTkhdW0NASF0oW0NIMl1bQ0gyXVtPSF0pW0NIXTJbQ0gyXVtDSDJdW0NIMl1bQ0gyXVtDSDJdMg==

> <s_epik_cmdline>
J2VwaWtfcHl0aG9uJywgJy1waCcsICc3LjAnLCAnLXRuJywgJzgnLCAnLW1hJywgJzIwMCcsICctbWV0YWxfYmluZGluZycsICctaW1hZScsICc8aW5maWxlLm1hZT4nLCAnLW9tYWUnLCAnPG91dGZpbGUubWFlPic=

> <r_epik_Ionization_Penalty>
0.00500145

> <r_epik_Ionization_Penalty_Charging>
0

> <r_epik_Ionization_Penalty_Neutral>
0.00500145

> <r_epik_State_Penalty>
0.00360517

> <r_epik_Charging_Adjusted_Penalty>
0.00360517

> <i_epik_Tot_Q>
0

> <i_epik_Tot_abs_Q>
0

> <r_epik_Metal_State_Penalty>
-0

> <b_epik_Metal_Only>
0

> <s_lp_Force_Field>
OPLS_2005

> <r_lp_Energy>
18.9025

> <b_lp_Chiralities_Consistent>
1

> <s_lp_Variant>
AV-unprocessed.smi:2666-2

> <Gold.Version>
5.8.1

> <Gold.Id.Protein>
6NUR|6NUR_protein|mol2

> <Gold.PLP.Fitness>
44.2749

> <Gold.PLP.PLP>
-33.5970

> <Gold.PLP.part.hbond>
-2.9907

> <Gold.PLP.part.metal>
0.0000

> <Gold.PLP.part.buried>
-1.4716

> <Gold.PLP.part.nonpolar>
-28.8791

> <Gold.PLP.part.repulsive>
0.3802

> <Gold.PLP.ligand.clash>
0.0000

> <Gold.PLP.ligand.torsion>
0.5101

> <Gold.PLP.Chemscore.Hbond>
3.0000

> <Gold.PLP.Chemscore.CHOScore>
0.8844

> <Gold.PLP.Chemscore.Metal>
0.0000

> <Gold.Chemscore.Hbonds>
donor molecule, donor type, donor heavy atom, donor atom, acceptor molecule, acceptor atom, score
      L1  H     3    21       P1  7948  1.00
      L1  H    10    26       P1  7948  1.00
      L1  H    14    32       P1 10175  0.76
      L1  C     9    25       P1 10747  0.89

> <Gold.PLP.Chemscore.Internal.Correction>
0.0447

> <Gold.Rescore>
     Score         DG    S(hbond)    S(metal)    S(lipo)     H(rot)  DE(clash)    DE(int)     intcor
     17.39     -19.43       2.92        0.00      84.53       2.23       0.02       2.03       ----

> <Gold.Chemscore.Fitness>
17.3880

> <Gold.Chemscore.DG>
-19.4303

> <Gold.Chemscore.ZeroCoef>
-5.4800

> <Gold.Chemscore.Hbond>
2.9209

> <Gold.Chemscore.Metal>
0.0000

> <Gold.Chemscore.Lipo>
84.5348

> <Gold.Chemscore.Internal_Hbond>
0.0000

> <Gold.Chemscore.DEClash>
0.0166

> <Gold.Chemscore.DEInternal>
2.0257

> <Gold.Chemscore.Rot>
2.2251

> <Gold.Chemscore.Internal.Correction>
   9.000000E+99

> <Gold.Chemscore.Hbonds>
donor molecule, donor type, donor heavy atom, donor atom, acceptor molecule, acceptor atom, score
      L1  H     3    21       P1  7948  0.91
      L1  H    10    26       P1  7948  0.99
      L1  H    14    32       P1 10175  0.75

> <Gold.Chemscore.Hbond.Weighted>
-9.7559

> <Gold.Chemscore.Metal.Weighted>
-0.0000

> <Gold.Chemscore.Lipo.Weighted>
-9.8906

> <Gold.Chemscore.Internal_Hbond.Weighted>
0.0000

> <Gold.Chemscore.DEClash.Weighted>
0.0166

> <Gold.Chemscore.DEInternal.Weighted>
2.0257

> <Gold.Chemscore.Rot.Weighted>
5.6962

> <Gold.Chemscore.Internal.Correction.Weighted>
   9.000000E+99

> <Gold.Protein.RotatedTorsions>
[ 6907 6896 6895 6894 ] final -130.78 input  -60.11 | X-H torsion
[ 7974 7965 7964 7962 ] final  117.11 input  175.53 | X-H torsion
[ 8008 7997 7996 7995 ] final  123.34 input   59.86 | X-H torsion
[ 10167 10162 10161 10158 ] final   54.38 input  -65.29 | X-H torsion
[ 10718 10713 10712 10709 ] final -162.35 input   66.30 | X-H torsion
[ 10763 10752 10751 10750 ] final -130.91 input  -60.55 | X-H torsion
[ 11005 11000 10999 10996 ] final   29.92 input  -57.11 | X-H torsion

> <Gold.Protein.ActiveResidues>
 VAL166  LYS551  ARG553  GLY616  TRP617  ASP618  TYR619  PRO620  LYS621  CYS622 
 ASP623  PHE694  ASN695  SER759  ASP760  ASP761  ALA762  ILE779  LEU786  VAL792 
 PHE793  MET794  SER795  GLU796  ALA797  LYS798  CYS799  TRP800  GLU811  SER814 

> <Gold.Protein.RotatedAtoms>
  150.9436  133.6629  159.2785 H   0  0  0  0  0  0  0  0  0  0  0  0  # atno 6907 bound_to 6896
  151.4009  135.0970  159.9565 H   0  0  0  0  0  0  0  0  0  0  0  0  # atno 6908 bound_to 6896
  152.5080  133.8929  159.7458 H   0  0  0  0  0  0  0  0  0  0  0  0  # atno 6909 bound_to 6896
  145.1714  139.3099  143.4465 H   0  0  0  0  0  0  0  0  0  0  0  0  # atno 7974 bound_to 7965
  156.2762  140.2765  156.1612 H   0  0  0  0  0  0  0  0  0  0  0  0  # atno 8008 bound_to 7997
  155.0751  140.0387  157.2639 H   0  0  0  0  0  0  0  0  0  0  0  0  # atno 8009 bound_to 7997
  154.7009  140.2649  155.6726 H   0  0  0  0  0  0  0  0  0  0  0  0  # atno 8010 bound_to 7997
  140.2308  144.3689  150.6415 H   0  0  0  0  0  0  0  0  0  0  0  0  # atno 10167 bound_to 10162
  156.6092  130.8843  151.2932 H   0  0  0  0  0  0  0  0  0  0  0  0  # atno 10718 bound_to 10713
  154.8753  135.3847  154.4160 H   0  0  0  0  0  0  0  0  0  0  0  0  # atno 10763 bound_to 10752
  153.4869  135.7030  153.5911 H   0  0  0  0  0  0  0  0  0  0  0  0  # atno 10764 bound_to 10752
  153.4302  135.3880  155.2133 H   0  0  0  0  0  0  0  0  0  0  0  0  # atno 10765 bound_to 10752
  140.2999  134.2769  155.7756 H   0  0  0  0  0  0  0  0  0  0  0  0  # atno 11005 bound_to 11000
  146.3468  140.1861  142.8589 LP  0  0  0  0  0  0  0  0  0  0  0  0  # atno 17320 bound_to 7965
  145.0229  140.8808  143.5156 LP  0  0  0  0  0  0  0  0  0  0  0  0  # atno 17321 bound_to 7965
  140.6187  143.2174  151.6739 LP  0  0  0  0  0  0  0  0  0  0  0  0  # atno 17342 bound_to 10162
  139.5111  144.3521  152.0642 LP  0  0  0  0  0  0  0  0  0  0  0  0  # atno 17343 bound_to 10162
  157.7259  130.9622  150.1633 LP  0  0  0  0  0  0  0  0  0  0  0  0  # atno 17370 bound_to 10713
  156.2404  130.3690  149.8343 LP  0  0  0  0  0  0  0  0  0  0  0  0  # atno 17371 bound_to 10713
  141.2130  133.7639  156.9751 LP  0  0  0  0  0  0  0  0  0  0  0  0  # atno 17394 bound_to 11000
  140.1119  134.9471  157.2078 LP  0  0  0  0  0  0  0  0  0  0  0  0  # atno 17395 bound_to 11000

$$$$
