AV-unprocessed.smi:1586|AV-procd|sdf|6381|dock9
  -GOLD-   22720 7 13D 1   1.00000     0.00000
 Structure written by MMmdl.
 46 47  0  0  0  0  0  0  0  0  3 V2000
  145.0376  142.9382  158.4294 C   0  0  0  0  0  0  0  0  0  0  0  0
  145.6381  143.1958  157.0397 C   0  0  0  0  0  0  0  0  0  0  0  0
  144.7167  142.8193  155.9650 N   0  0  0  0  0  0  0  0  0  0  0  0
  145.0509  143.3565  154.6410 C   0  0  0  0  0  0  0  0  0  0  0  0
  146.3198  142.7066  154.0519 C   0  0  0  0  0  0  0  0  0  0  0  0
  146.1458  141.2296  153.9585 N   0  3  0  0  0  0  0  0  0  0  0  0
  147.2235  140.4696  153.2525 C   0  0  2  0  0  0  0  0  0  0  0  0
  146.6887  139.2340  152.4853 C   0  0  0  0  0  0  0  0  0  0  0  0
  148.3967  140.1570  154.2225 C   0  0  0  0  0  0  0  0  0  0  0  0
  148.9192  141.3817  154.8315 N   0  5  0  0  0  0  0  0  0  0  0  0
  149.9997  141.4377  155.6589 C   0  0  0  0  0  0  0  0  0  0  0  0
  150.9635  140.6630  155.6868 O   0  0  0  0  0  0  0  0  0  0  0  0
  149.9343  142.4730  156.5158 N   0  0  0  0  0  0  0  0  0  0  0  0
  150.8615  142.8539  157.5216 C   0  0  0  0  0  0  0  0  0  0  0  0
  151.4679  141.8770  158.3557 C   0  0  0  0  0  0  0  0  0  0  0  0
  152.2736  142.6225  159.1694 C   0  0  0  0  0  0  0  0  0  0  0  0
  153.2015  142.2668  160.2799 C   0  0  0  0  0  0  0  0  0  0  0  0
  152.1708  143.9426  158.8578 O   0  0  0  0  0  0  0  0  0  0  0  0
  151.2638  144.0848  157.8012 N   0  0  0  0  0  0  0  0  0  0  0  0
  145.8063  140.6746  155.2925 C   0  0  0  0  0  0  0  0  0  0  0  0
  144.5494  141.3678  155.8595 C   0  0  0  0  0  0  0  0  0  0  0  0
  145.7888  143.0963  159.2034 H   0  0  0  0  0  0  0  0  0  0  0  0
  144.6806  141.9120  158.5228 H   0  0  0  0  0  0  0  0  0  0  0  0
  144.2069  143.6091  158.6477 H   0  0  0  0  0  0  0  0  0  0  0  0
  145.9580  144.2336  156.9533 H   0  0  0  0  0  0  0  0  0  0  0  0
  146.5391  142.5879  156.9471 H   0  0  0  0  0  0  0  0  0  0  0  0
  144.2088  143.1715  153.9726 H   0  0  0  0  0  0  0  0  0  0  0  0
  145.1635  144.4390  154.6838 H   0  0  0  0  0  0  0  0  0  0  0  0
  146.5007  143.1264  153.0621 H   0  0  0  0  0  0  0  0  0  0  0  0
  147.1904  142.9582  154.6572 H   0  0  0  0  0  0  0  0  0  0  0  0
  147.6300  141.1482  152.5007 H   0  0  0  0  0  0  0  0  0  0  0  0
  147.4571  138.7878  151.8514 H   0  0  0  0  0  0  0  0  0  0  0  0
  145.8679  139.5126  151.8242 H   0  0  0  0  0  0  0  0  0  0  0  0
  146.3224  138.4494  153.1496 H   0  0  0  0  0  0  0  0  0  0  0  0
  148.0494  139.4530  154.9804 H   0  0  0  0  0  0  0  0  0  0  0  0
  149.1745  139.6224  153.6771 H   0  0  0  0  0  0  0  0  0  0  0  0
  149.1178  143.0598  156.4309 H   0  0  0  0  0  0  0  0  0  0  0  0
  151.3342  140.8056  158.3583 H   0  0  0  0  0  0  0  0  0  0  0  0
  153.0203  141.2499  160.6282 H   0  0  0  0  0  0  0  0  0  0  0  0
  153.0706  142.9415  161.1261 H   0  0  0  0  0  0  0  0  0  0  0  0
  154.2387  142.3325  159.9509 H   0  0  0  0  0  0  0  0  0  0  0  0
  145.6014  139.6072  155.2047 H   0  0  0  0  0  0  0  0  0  0  0  0
  146.6545  140.7744  155.9705 H   0  0  0  0  0  0  0  0  0  0  0  0
  144.2951  140.9531  156.8355 H   0  0  0  0  0  0  0  0  0  0  0  0
  143.6975  141.1624  155.2099 H   0  0  0  0  0  0  0  0  0  0  0  0
  145.3201  141.0810  153.3960 H   0  0  0  0  0  0  0  0  0  0  0  0
  1  2  1  0  0  0  0
  1 22  1  0  0  0  0
  1 23  1  0  0  0  0
  1 24  1  0  0  0  0
  2  3  1  0  0  0  0
  2 25  1  0  0  0  0
  2 26  1  0  0  0  0
  3 21  1  0  0  0  0
  3  4  1  0  0  0  0
  4  5  1  0  0  0  0
  4 27  1  0  0  0  0
  4 28  1  0  0  0  0
  5  6  1  0  0  0  0
  5 29  1  0  0  0  0
  5 30  1  0  0  0  0
  6  7  1  0  0  0  0
  6 20  1  0  0  0  0
  6 46  1  0  0  0  0
  7  8  1  0  0  0  0
  7  9  1  0  0  0  0
  7 31  1  0  0  0  0
  8 32  1  0  0  0  0
  8 33  1  0  0  0  0
  8 34  1  0  0  0  0
  9 10  1  0  0  0  0
  9 35  1  0  0  0  0
  9 36  1  0  0  0  0
 10 11  1  0  0  0  0
 11 12  2  0  0  0  0
 11 13  1  0  0  0  0
 13 14  1  0  0  0  0
 13 37  1  0  0  0  0
 14 19  2  0  0  0  0
 14 15  1  0  0  0  0
 15 16  2  0  0  0  0
 15 38  1  0  0  0  0
 16 17  1  0  0  0  0
 16 18  1  0  0  0  0
 17 39  1  0  0  0  0
 17 40  1  0  0  0  0
 17 41  1  0  0  0  0
 18 19  1  0  0  0  0
 20 21  1  0  0  0  0
 20 42  1  0  0  0  0
 20 43  1  0  0  0  0
 21 44  1  0  0  0  0
 21 45  1  0  0  0  0
M  CHG  1   6   1
M  CHG  1  10  -1
M  END
> <s_m_source_file>
AV-unprocessed.smi

> <i_m_source_file_index>
1586

> <i_lp_mmshare_version>
43012

> <i_f3d_flags>
0

> <s_epik_input>
W0NIM11bQ0gyXU4xW0NIMl1bQ0gyXU4oW0NIMl1bQ0gyXTEpW0NASF0oW0NIM10pW0NIMl1bTkhdQyg9TylbTkhdYzJbY0hdYyhbQ0gzXSlvbjI=

> <s_epik_cmdline>
J2VwaWtfcHl0aG9uJywgJy1waCcsICc3LjAnLCAnLXRuJywgJzgnLCAnLW1hJywgJzIwMCcsICctbWV0YWxfYmluZGluZycsICctaW1hZScsICc8aW5maWxlLm1hZT4nLCAnLW9tYWUnLCAnPG91dGZpbGUubWFlPic=

> <r_epik_Ionization_Penalty>
6.72969

> <r_epik_Ionization_Penalty_Charging>
6.72741

> <r_epik_Ionization_Penalty_Neutral>
0.00227419

> <r_epik_State_Penalty>
7.72748

> <r_epik_Charging_Adjusted_Penalty>
14.4549

> <i_epik_Tot_Q>
0

> <i_epik_Tot_abs_Q>
2

> <r_epik_Metal_State_Penalty>
3.65268

> <b_epik_Metal_Only>
1

> <s_lp_Force_Field>
OPLS_2005

> <r_lp_Energy>
18.0395

> <b_lp_Chiralities_Consistent>
1

> <s_lp_Variant>
AV-unprocessed.smi:1586-9

> <Gold.Version>
5.8.1

> <Gold.Id.Protein>
6NUR|6NUR_protein|mol2

> <Gold.PLP.Fitness>
45.4128

> <Gold.PLP.PLP>
-36.8881

> <Gold.PLP.part.hbond>
-3.0000

> <Gold.PLP.part.metal>
0.0000

> <Gold.PLP.part.buried>
-4.9077

> <Gold.PLP.part.nonpolar>
-29.7407

> <Gold.PLP.part.repulsive>
0.5249

> <Gold.PLP.ligand.clash>
0.0000

> <Gold.PLP.ligand.torsion>
1.1387

> <Gold.PLP.Chemscore.Hbond>
3.5148

> <Gold.PLP.Chemscore.CHOScore>
0.0000

> <Gold.PLP.Chemscore.Metal>
0.0000

> <Gold.Chemscore.Hbonds>
donor molecule, donor type, donor heavy atom, donor atom, acceptor molecule, acceptor atom, score
      L1  H     6    46       P1 10175  2.00
      L1  H    13    37       P1  8028  0.64
      P1  H  7989  7998       L1    12  0.27

> <Gold.PLP.Chemscore.Internal.Correction>
0.2576

> <Gold.Rescore>
     Score         DG    S(hbond)    S(metal)    S(lipo)     H(rot)  DE(clash)    DE(int)     intcor
     13.11     -15.63       1.88        0.00      70.92       1.73       0.07       2.46       ----

> <Gold.Chemscore.Fitness>
13.1083

> <Gold.Chemscore.DG>
-15.6310

> <Gold.Chemscore.ZeroCoef>
-5.4800

> <Gold.Chemscore.Hbond>
1.8771

> <Gold.Chemscore.Metal>
0.0000

> <Gold.Chemscore.Lipo>
70.9195

> <Gold.Chemscore.Internal_Hbond>
0.0000

> <Gold.Chemscore.DEClash>
0.0665

> <Gold.Chemscore.DEInternal>
2.4562

> <Gold.Chemscore.Rot>
1.7250

> <Gold.Chemscore.Internal.Correction>
   9.000000E+99

> <Gold.Chemscore.Hbonds>
donor molecule, donor type, donor heavy atom, donor atom, acceptor molecule, acceptor atom, score
      L1  H     6    46       P1 10175  0.44
      L1  H    13    37       P1  8028  0.64
      P1  H  7989  7998       L1    12  0.05

> <Gold.Chemscore.Hbond.Weighted>
-6.2695

> <Gold.Chemscore.Metal.Weighted>
-0.0000

> <Gold.Chemscore.Lipo.Weighted>
-8.2976

> <Gold.Chemscore.Internal_Hbond.Weighted>
0.0000

> <Gold.Chemscore.DEClash.Weighted>
0.0665

> <Gold.Chemscore.DEInternal.Weighted>
2.4562

> <Gold.Chemscore.Rot.Weighted>
4.4161

> <Gold.Chemscore.Internal.Correction.Weighted>
   9.000000E+99

> <Gold.Protein.RotatedTorsions>
[ 6907 6896 6895 6894 ] final  116.09 input  -60.11 | X-H torsion
[ 7974 7965 7964 7962 ] final  135.39 input  175.53 | X-H torsion
[ 8008 7997 7996 7995 ] final  -32.64 input   59.86 | X-H torsion
[ 10167 10162 10161 10158 ] final -107.58 input  -65.29 | X-H torsion
[ 10718 10713 10712 10709 ] final -110.96 input   66.30 | X-H torsion
[ 10763 10752 10751 10750 ] final -144.08 input  -60.55 | X-H torsion
[ 11005 11000 10999 10996 ] final  -81.03 input  -57.11 | X-H torsion

> <Gold.Protein.ActiveResidues>
 VAL166  LYS551  ARG553  GLY616  TRP617  ASP618  TYR619  PRO620  LYS621  CYS622 
 ASP623  PHE694  ASN695  SER759  ASP760  ASP761  ALA762  ILE779  LEU786  VAL792 
 PHE793  MET794  SER795  GLU796  ALA797  LYS798  CYS799  TRP800  GLU811  SER814 

> <Gold.Protein.RotatedAtoms>
  152.4700  133.8009  159.6951 H   0  0  0  0  0  0  0  0  0  0  0  0  # atno 6907 bound_to 6896
  150.8684  133.7531  159.2975 H   0  0  0  0  0  0  0  0  0  0  0  0  # atno 6908 bound_to 6896
  151.5073  135.1067  159.9897 H   0  0  0  0  0  0  0  0  0  0  0  0  # atno 6909 bound_to 6896
  144.9668  139.4649  143.5452 H   0  0  0  0  0  0  0  0  0  0  0  0  # atno 7974 bound_to 7965
  154.4173  140.1732  156.1759 H   0  0  0  0  0  0  0  0  0  0  0  0  # atno 8008 bound_to 7997
  155.9722  140.3384  155.6562 H   0  0  0  0  0  0  0  0  0  0  0  0  # atno 8009 bound_to 7997
  155.6610  140.0701  157.2544 H   0  0  0  0  0  0  0  0  0  0  0  0  # atno 8010 bound_to 7997
  140.1755  143.4009  152.1322 H   0  0  0  0  0  0  0  0  0  0  0  0  # atno 10167 bound_to 10162
  156.0620  130.5842  150.8308 H   0  0  0  0  0  0  0  0  0  0  0  0  # atno 10718 bound_to 10713
  154.8443  135.3450  154.6289 H   0  0  0  0  0  0  0  0  0  0  0  0  # atno 10763 bound_to 10752
  153.6898  135.6975  153.5098 H   0  0  0  0  0  0  0  0  0  0  0  0  # atno 10764 bound_to 10752
  153.2604  135.4325  155.0843 H   0  0  0  0  0  0  0  0  0  0  0  0  # atno 10765 bound_to 10752
  141.1667  133.7177  156.8362 H   0  0  0  0  0  0  0  0  0  0  0  0  # atno 11005 bound_to 11000
  146.3370  139.8854  142.8817 LP  0  0  0  0  0  0  0  0  0  0  0  0  # atno 17320 bound_to 7965
  145.2618  141.0079  143.3822 LP  0  0  0  0  0  0  0  0  0  0  0  0  # atno 17321 bound_to 7965
  139.5319  144.7168  151.5026 LP  0  0  0  0  0  0  0  0  0  0  0  0  # atno 17342 bound_to 10162
  140.6554  143.8609  150.6830 LP  0  0  0  0  0  0  0  0  0  0  0  0  # atno 17343 bound_to 10162
  157.5635  131.0946  150.9524 LP  0  0  0  0  0  0  0  0  0  0  0  0  # atno 17370 bound_to 10713
  156.9756  130.5507  149.5293 LP  0  0  0  0  0  0  0  0  0  0  0  0  # atno 17371 bound_to 10713
  140.2016  134.8893  157.3175 LP  0  0  0  0  0  0  0  0  0  0  0  0  # atno 17394 bound_to 11000
  140.2182  134.4056  155.7579 LP  0  0  0  0  0  0  0  0  0  0  0  0  # atno 17395 bound_to 11000

$$$$
