AV-unprocessed.smi:821|AV-procd|sdf|3840|dock6
  -GOLD-   22720 1283D 1   1.00000     0.00000
 Structure written by MMmdl.
 45 46  0  0  0  0  0  0  0  0  2 V2000
  151.2207  137.9737  154.5019 C   0  0  0  0  0  0  0  0  0  0  0  0
  150.2075  138.9495  155.1152 C   0  0  2  0  0  0  0  0  0  0  0  0
  149.1725  139.4268  154.0699 C   0  0  0  0  0  0  0  0  0  0  0  0
  148.2960  138.3386  153.5624 N   0  3  0  0  0  0  0  0  0  0  0  0
  147.6771  137.5457  154.6511 C   0  0  0  0  0  0  0  0  0  0  0  0
  146.8319  136.3975  154.0712 C   0  0  0  0  0  0  0  0  0  0  0  0
  145.8594  136.9169  153.1726 O   0  0  0  0  0  0  0  0  0  0  0  0
  146.4538  137.6074  152.0805 C   0  0  0  0  0  0  0  0  0  0  0  0
  147.2576  138.8048  152.6120 C   0  0  0  0  0  0  0  0  0  0  0  0
  150.9200  140.0880  155.6956 N   0  0  0  0  0  0  0  0  0  0  0  0
  150.3529  141.1656  156.2605 C   0  0  0  0  0  0  0  0  0  0  0  0
  149.1390  141.2878  156.4247 O   0  0  0  0  0  0  0  0  0  0  0  0
  151.3077  142.2877  156.6883 C   0  0  0  0  0  0  0  0  0  0  0  0
  151.8360  142.0845  158.0488 N   0  0  0  0  0  0  0  0  0  0  0  0
  151.5844  143.0962  158.9923 C   0  0  0  0  0  0  0  0  0  0  0  0
  152.0318  143.0122  160.2524 C   0  0  0  0  0  0  0  0  0  0  0  0
  152.7917  141.8459  160.6312 C   0  0  0  0  0  0  0  0  0  0  0  0
  153.0535  140.8576  159.7450 C   0  0  0  0  0  0  0  0  0  0  0  0
  153.8561  139.6165  160.1292 C   0  0  0  0  0  0  0  0  0  0  0  0
  153.1738  138.5056  159.8487 F   0  0  0  0  0  0  0  0  0  0  0  0
  155.0053  139.5801  159.4537 F   0  0  0  0  0  0  0  0  0  0  0  0
  154.1467  139.5977  161.4308 F   0  0  0  0  0  0  0  0  0  0  0  0
  152.5501  140.9575  158.3602 C   0  0  0  0  0  0  0  0  0  0  0  0
  152.7628  140.0846  157.5160 O   0  0  0  0  0  0  0  0  0  0  0  0
  150.7186  137.1029  154.0793 H   0  0  0  0  0  0  0  0  0  0  0  0
  151.9241  137.6142  155.2537 H   0  0  0  0  0  0  0  0  0  0  0  0
  151.7975  138.4442  153.7047 H   0  0  0  0  0  0  0  0  0  0  0  0
  149.6829  138.4032  155.9002 H   0  0  0  0  0  0  0  0  0  0  0  0
  148.5435  140.1837  154.5412 H   0  0  0  0  0  0  0  0  0  0  0  0
  149.6688  139.9219  153.2338 H   0  0  0  0  0  0  0  0  0  0  0  0
  148.4524  137.1361  155.2996 H   0  0  0  0  0  0  0  0  0  0  0  0
  147.0530  138.1957  155.2665 H   0  0  0  0  0  0  0  0  0  0  0  0
  147.4608  135.6679  153.5610 H   0  0  0  0  0  0  0  0  0  0  0  0
  146.3212  135.8656  154.8739 H   0  0  0  0  0  0  0  0  0  0  0  0
  147.0921  136.9335  151.5066 H   0  0  0  0  0  0  0  0  0  0  0  0
  145.6669  137.9506  151.4091 H   0  0  0  0  0  0  0  0  0  0  0  0
  146.5916  139.5104  153.1111 H   0  0  0  0  0  0  0  0  0  0  0  0
  147.7112  139.3347  151.7758 H   0  0  0  0  0  0  0  0  0  0  0  0
  151.9274  140.0735  155.6233 H   0  0  0  0  0  0  0  0  0  0  0  0
  152.1129  142.3444  155.9549 H   0  0  0  0  0  0  0  0  0  0  0  0
  150.7998  143.2530  156.6349 H   0  0  0  0  0  0  0  0  0  0  0  0
  151.0150  143.9393  158.6290 H   0  0  0  0  0  0  0  0  0  0  0  0
  151.8324  143.7993  160.9649 H   0  0  0  0  0  0  0  0  0  0  0  0
  153.1545  141.7779  161.6459 H   0  0  0  0  0  0  0  0  0  0  0  0
  148.8949  137.7019  153.0553 H   0  0  0  0  0  0  0  0  0  0  0  0
  1  2  1  0  0  0  0
  1 25  1  0  0  0  0
  1 26  1  0  0  0  0
  1 27  1  0  0  0  0
  2  3  1  0  0  0  0
  2 10  1  0  0  0  0
  2 28  1  0  0  0  0
  3  4  1  0  0  0  0
  3 29  1  0  0  0  0
  3 30  1  0  0  0  0
  4  9  1  0  0  0  0
  4  5  1  0  0  0  0
  4 45  1  0  0  0  0
  5  6  1  0  0  0  0
  5 31  1  0  0  0  0
  5 32  1  0  0  0  0
  6  7  1  0  0  0  0
  6 33  1  0  0  0  0
  6 34  1  0  0  0  0
  7  8  1  0  0  0  0
  8  9  1  0  0  0  0
  8 35  1  0  0  0  0
  8 36  1  0  0  0  0
  9 37  1  0  0  0  0
  9 38  1  0  0  0  0
 10 11  1  0  0  0  0
 10 39  1  0  0  0  0
 11 12  2  0  0  0  0
 11 13  1  0  0  0  0
 13 14  1  0  0  0  0
 13 40  1  0  0  0  0
 13 41  1  0  0  0  0
 14 23  1  0  0  0  0
 14 15  1  0  0  0  0
 15 16  2  0  0  0  0
 15 42  1  0  0  0  0
 16 17  1  0  0  0  0
 16 43  1  0  0  0  0
 17 18  2  0  0  0  0
 17 44  1  0  0  0  0
 18 19  1  0  0  0  0
 18 23  1  0  0  0  0
 19 20  1  0  0  0  0
 19 21  1  0  0  0  0
 19 22  1  0  0  0  0
 23 24  2  0  0  0  0
M  CHG  1   4   1
M  END
> <s_m_source_file>
AV-unprocessed.smi

> <i_m_source_file_index>
821

> <i_lp_mmshare_version>
43012

> <i_f3d_flags>
0

> <s_epik_input>
W0NIMl0xW0NIMl1PW0NIMl1bQ0gyXU4xW0NIMl1bQ0BASF0oW0NIM10pW05IXUMoPU8pW0NIMl1uMltjSF1bY0hdW2NIXWMoQyhGKShGKUYpYzI9Tw==

> <s_epik_cmdline>
J2VwaWtfcHl0aG9uJywgJy1waCcsICc3LjAnLCAnLXRuJywgJzgnLCAnLW1hJywgJzIwMCcsICctbWV0YWxfYmluZGluZycsICctaW1hZScsICc8aW5maWxlLm1hZT4nLCAnLW9tYWUnLCAnPG91dGZpbGUubWFlPic=

> <r_lp_tautomer_probability>
1

> <r_epik_Ionization_Penalty>
0.656654

> <r_epik_Ionization_Penalty_Charging>
0.656653

> <r_epik_Ionization_Penalty_Neutral>
9.12373e-08

> <r_epik_State_Penalty>
0.675641

> <r_epik_Charging_Adjusted_Penalty>
1.33229

> <i_epik_Tot_Q>
1

> <i_epik_Tot_abs_Q>
1

> <r_epik_Metal_State_Penalty>
0.675695

> <b_epik_Metal_Only>
0

> <s_lp_Force_Field>
OPLS_2005

> <r_lp_Energy>
29.4747

> <b_lp_Chiralities_Consistent>
1

> <s_lp_Variant>
AV-unprocessed.smi:821-3

> <Gold.Version>
5.8.1

> <Gold.Id.Protein>
6NUR|6NUR_protein|mol2

> <Gold.PLP.Fitness>
46.3260

> <Gold.PLP.PLP>
-38.1650

> <Gold.PLP.part.hbond>
-2.2602

> <Gold.PLP.part.metal>
0.0000

> <Gold.PLP.part.buried>
-1.3351

> <Gold.PLP.part.nonpolar>
-34.5530

> <Gold.PLP.part.repulsive>
0.3955

> <Gold.PLP.ligand.clash>
0.2181

> <Gold.PLP.ligand.torsion>
0.5235

> <Gold.PLP.Chemscore.Hbond>
3.0000

> <Gold.PLP.Chemscore.CHOScore>
0.0000

> <Gold.PLP.Chemscore.Metal>
0.0000

> <Gold.Chemscore.Hbonds>
donor molecule, donor type, donor heavy atom, donor atom, acceptor molecule, acceptor atom, score
      L1  H     4    45       P1  7948  1.86
      P1  H  7997  8008       L1    24  0.98

> <Gold.PLP.Chemscore.Internal.Correction>
0.4261

> <Gold.Rescore>
     Score         DG    S(hbond)    S(metal)    S(lipo)     H(rot)  DE(clash)    DE(int)     intcor
      9.87     -16.68       1.88        0.00      89.57       2.17       0.09       6.72       ----

> <Gold.Chemscore.Fitness>
9.8681

> <Gold.Chemscore.DG>
-16.6821

> <Gold.Chemscore.ZeroCoef>
-5.4800

> <Gold.Chemscore.Hbond>
1.8807

> <Gold.Chemscore.Metal>
0.0000

> <Gold.Chemscore.Lipo>
89.5688

> <Gold.Chemscore.Internal_Hbond>
0.0000

> <Gold.Chemscore.DEClash>
0.0896

> <Gold.Chemscore.DEInternal>
6.7243

> <Gold.Chemscore.Rot>
2.1716

> <Gold.Chemscore.Internal.Correction>
   9.000000E+99

> <Gold.Chemscore.Hbonds>
donor molecule, donor type, donor heavy atom, donor atom, acceptor molecule, acceptor atom, score
      L1  H     4    45       P1  7948  0.91
      P1  H  7997  8008       L1    24  0.90

> <Gold.Chemscore.Hbond.Weighted>
-6.2817

> <Gold.Chemscore.Metal.Weighted>
-0.0000

> <Gold.Chemscore.Lipo.Weighted>
-10.4795

> <Gold.Chemscore.Internal_Hbond.Weighted>
0.0000

> <Gold.Chemscore.DEClash.Weighted>
0.0896

> <Gold.Chemscore.DEInternal.Weighted>
6.7243

> <Gold.Chemscore.Rot.Weighted>
5.5592

> <Gold.Chemscore.Internal.Correction.Weighted>
   9.000000E+99

> <Gold.Protein.RotatedTorsions>
[ 6907 6896 6895 6894 ] final  -43.75 input  -60.11 | X-H torsion
[ 7974 7965 7964 7962 ] final -166.82 input  175.53 | X-H torsion
[ 8008 7997 7996 7995 ] final  -56.04 input   59.86 | X-H torsion
[ 10167 10162 10161 10158 ] final -165.66 input  -65.29 | X-H torsion
[ 10718 10713 10712 10709 ] final   94.55 input   66.30 | X-H torsion
[ 10763 10752 10751 10750 ] final -114.58 input  -60.55 | X-H torsion
[ 11005 11000 10999 10996 ] final -164.21 input  -57.11 | X-H torsion

> <Gold.Protein.ActiveResidues>
 VAL166  LYS551  ARG553  GLY616  TRP617  ASP618  TYR619  PRO620  LYS621  CYS622 
 ASP623  PHE694  ASN695  SER759  ASP760  ASP761  ALA762  ILE779  LEU786  VAL792 
 PHE793  MET794  SER795  GLU796  ALA797  LYS798  CYS799  TRP800  GLU811  SER814 

> <Gold.Protein.RotatedAtoms>
  150.9405  134.8814  159.7608 H   0  0  0  0  0  0  0  0  0  0  0  0  # atno 6907 bound_to 6896
  152.5078  134.3949  159.9406 H   0  0  0  0  0  0  0  0  0  0  0  0  # atno 6908 bound_to 6896
  151.3970  133.3730  159.2762 H   0  0  0  0  0  0  0  0  0  0  0  0  # atno 6909 bound_to 6896
  144.7236  140.2609  143.6265 H   0  0  0  0  0  0  0  0  0  0  0  0  # atno 7974 bound_to 7965
  154.4216  140.1139  156.5573 H   0  0  0  0  0  0  0  0  0  0  0  0  # atno 8008 bound_to 7997
  155.6348  140.3496  155.4676 H   0  0  0  0  0  0  0  0  0  0  0  0  # atno 8009 bound_to 7997
  155.9919  140.1181  157.0620 H   0  0  0  0  0  0  0  0  0  0  0  0  # atno 8010 bound_to 7997
  139.6167  144.0705  152.1895 H   0  0  0  0  0  0  0  0  0  0  0  0  # atno 10167 bound_to 10162
  157.6947  131.0516  150.4204 H   0  0  0  0  0  0  0  0  0  0  0  0  # atno 10718 bound_to 10713
  154.8446  135.4412  154.1529 H   0  0  0  0  0  0  0  0  0  0  0  0  # atno 10763 bound_to 10752
  153.2685  135.6943  153.7511 H   0  0  0  0  0  0  0  0  0  0  0  0  # atno 10764 bound_to 10752
  153.6760  135.3411  155.3141 H   0  0  0  0  0  0  0  0  0  0  0  0  # atno 10765 bound_to 10752
  140.5894  134.5060  157.5190 H   0  0  0  0  0  0  0  0  0  0  0  0  # atno 11005 bound_to 11000
  145.8136  139.2013  143.1978 LP  0  0  0  0  0  0  0  0  0  0  0  0  # atno 17320 bound_to 7965
  146.0575  140.8006  142.9751 LP  0  0  0  0  0  0  0  0  0  0  0  0  # atno 17321 bound_to 7965
  140.0337  144.6061  150.7467 LP  0  0  0  0  0  0  0  0  0  0  0  0  # atno 17342 bound_to 10162
  140.7356  143.2742  151.3793 LP  0  0  0  0  0  0  0  0  0  0  0  0  # atno 17343 bound_to 10162
  156.4579  130.4025  149.6594 LP  0  0  0  0  0  0  0  0  0  0  0  0  # atno 17370 bound_to 10713
  156.3720  130.7535  151.2519 LP  0  0  0  0  0  0  0  0  0  0  0  0  # atno 17371 bound_to 10713
  139.9281  134.8017  156.1010 LP  0  0  0  0  0  0  0  0  0  0  0  0  # atno 17394 bound_to 11000
  141.0944  133.6701  156.2613 LP  0  0  0  0  0  0  0  0  0  0  0  0  # atno 17395 bound_to 11000

$$$$
