AV-unprocessed.smi:2683|AV-procd|sdf|10377|dock4
  -GOLD-   2272014403D 1   1.00000     0.00000
 Structure written by MMmdl.
 37 38  0  0  0  0  0  0  0  0  2 V2000
  149.1372  141.0512  157.7624 C   0  0  0  0  0  0  0  0  0  0  0  0
  150.3616  141.7741  157.1853 C   0  0  1  0  0  0  0  0  0  0  0  0
  150.3966  141.6497  155.6480 C   0  0  0  0  0  0  0  0  0  0  0  0
  150.7658  140.3193  155.1994 N   0  0  0  0  0  0  0  0  0  0  0  0
  151.8405  139.5494  155.5912 C   0  0  0  0  0  0  0  0  0  0  0  0
  151.7802  138.3811  154.8868 C   0  0  0  0  0  0  0  0  0  0  0  0
  150.6154  138.5296  154.0831 C   0  0  0  0  0  0  0  0  0  0  0  0
  150.0109  139.6916  154.2718 N   0  0  0  0  0  0  0  0  0  0  0  0
  150.3379  143.1940  157.6048 N   0  3  0  0  0  0  0  0  0  0  0  0
  151.6351  143.8955  157.5061 C   0  0  0  0  0  0  0  0  0  0  0  0
  152.3941  143.8477  158.8412 C   0  0  0  0  0  0  0  0  0  0  0  0
  152.5732  142.4368  159.4099 C   0  0  0  0  0  0  0  0  0  0  0  0
  152.8759  142.6457  160.8970 C   0  0  0  0  0  0  0  0  0  0  0  0
  152.2850  144.0153  161.2655 C   0  0  0  0  0  0  0  0  0  0  0  0
  151.6791  144.5835  159.9770 C   0  0  0  0  0  0  0  0  0  0  0  0
  149.1373  139.9965  157.4857 H   0  0  0  0  0  0  0  0  0  0  0  0
  148.2072  141.4900  157.3986 H   0  0  0  0  0  0  0  0  0  0  0  0
  149.1273  141.1034  158.8518 H   0  0  0  0  0  0  0  0  0  0  0  0
  151.2480  141.2897  157.5991 H   0  0  0  0  0  0  0  0  0  0  0  0
  149.4144  141.8794  155.2325 H   0  0  0  0  0  0  0  0  0  0  0  0
  151.0900  142.3754  155.2190 H   0  0  0  0  0  0  0  0  0  0  0  0
  152.5522  139.8936  156.3274 H   0  0  0  0  0  0  0  0  0  0  0  0
  152.4630  137.5460  154.9394 H   0  0  0  0  0  0  0  0  0  0  0  0
  150.1950  137.8335  153.3722 H   0  0  0  0  0  0  0  0  0  0  0  0
  149.6580  143.6812  157.0381 H   0  0  0  0  0  0  0  0  0  0  0  0
  152.2284  143.4158  156.7268 H   0  0  0  0  0  0  0  0  0  0  0  0
  151.4833  144.9301  157.1974 H   0  0  0  0  0  0  0  0  0  0  0  0
  153.3787  144.3014  158.7137 H   0  0  0  0  0  0  0  0  0  0  0  0
  151.6440  141.8741  159.3088 H   0  0  0  0  0  0  0  0  0  0  0  0
  153.3560  141.8734  158.9012 H   0  0  0  0  0  0  0  0  0  0  0  0
  152.4591  141.8426  161.5058 H   0  0  0  0  0  0  0  0  0  0  0  0
  153.9539  142.6541  161.0626 H   0  0  0  0  0  0  0  0  0  0  0  0
  151.5357  143.9368  162.0537 H   0  0  0  0  0  0  0  0  0  0  0  0
  153.0755  144.6714  161.6322 H   0  0  0  0  0  0  0  0  0  0  0  0
  151.7897  145.6663  159.9086 H   0  0  0  0  0  0  0  0  0  0  0  0
  150.6114  144.3595  159.9510 H   0  0  0  0  0  0  0  0  0  0  0  0
  150.0398  143.2352  158.5689 H   0  0  0  0  0  0  0  0  0  0  0  0
  1  2  1  0  0  0  0
  1 16  1  0  0  0  0
  1 17  1  0  0  0  0
  1 18  1  0  0  0  0
  2  3  1  0  0  0  0
  2  9  1  0  0  0  0
  2 19  1  0  0  0  0
  3  4  1  0  0  0  0
  3 20  1  0  0  0  0
  3 21  1  0  0  0  0
  4  8  1  0  0  0  0
  4  5  1  0  0  0  0
  5  6  2  0  0  0  0
  5 22  1  0  0  0  0
  6  7  1  0  0  0  0
  6 23  1  0  0  0  0
  7  8  2  0  0  0  0
  7 24  1  0  0  0  0
  9 10  1  0  0  0  0
  9 25  1  0  0  0  0
  9 37  1  0  0  0  0
 10 11  1  0  0  0  0
 10 26  1  0  0  0  0
 10 27  1  0  0  0  0
 11 15  1  0  0  0  0
 11 12  1  0  0  0  0
 11 28  1  0  0  0  0
 12 13  1  0  0  0  0
 12 29  1  0  0  0  0
 12 30  1  0  0  0  0
 13 14  1  0  0  0  0
 13 31  1  0  0  0  0
 13 32  1  0  0  0  0
 14 15  1  0  0  0  0
 14 33  1  0  0  0  0
 14 34  1  0  0  0  0
 15 35  1  0  0  0  0
 15 36  1  0  0  0  0
M  CHG  1   9   1
M  END
> <s_m_source_file>
AV-unprocessed.smi

> <i_m_source_file_index>
2683

> <i_lp_mmshare_version>
43012

> <i_f3d_flags>
0

> <s_epik_input>
bjFbY0hdW2NIXVtjSF1uMVtDSDJdW0NAQEhdKFtDSDNdKVtOSF1bQ0gyXVtDSF0yW0NIMl1bQ0gyXVtDSDJdW0NIMl0y

> <s_epik_cmdline>
J2VwaWtfcHl0aG9uJywgJy1waCcsICc3LjAnLCAnLXRuJywgJzgnLCAnLW1hJywgJzIwMCcsICctbWV0YWxfYmluZGluZycsICctaW1hZScsICc8aW5maWxlLm1hZT4nLCAnLW9tYWUnLCAnPG91dGZpbGUubWFlPic=

> <r_lp_tautomer_probability>
1

> <r_epik_Ionization_Penalty>
0.00170049

> <r_epik_Ionization_Penalty_Charging>
0.00169627

> <r_epik_Ionization_Penalty_Neutral>
4.21324e-06

> <r_epik_State_Penalty>
0.00114589

> <r_epik_Charging_Adjusted_Penalty>
0.00284216

> <i_epik_Tot_Q>
1

> <i_epik_Tot_abs_Q>
1

> <r_epik_Metal_State_Penalty>
-0

> <b_epik_Metal_Only>
0

> <s_lp_Force_Field>
OPLS_2005

> <r_lp_Energy>
26.2137

> <b_lp_Chiralities_Consistent>
1

> <s_lp_Variant>
AV-unprocessed.smi:2683-2

> <Gold.Version>
5.8.1

> <Gold.Id.Protein>
6NUR|6NUR_protein|mol2

> <Gold.PLP.Fitness>
50.6309

> <Gold.PLP.PLP>
-42.4846

> <Gold.PLP.part.hbond>
-1.8354

> <Gold.PLP.part.metal>
0.0000

> <Gold.PLP.part.buried>
-3.5645

> <Gold.PLP.part.nonpolar>
-37.3021

> <Gold.PLP.part.repulsive>
0.1577

> <Gold.PLP.ligand.clash>
0.0000

> <Gold.PLP.ligand.torsion>
0.5791

> <Gold.PLP.Chemscore.Hbond>
2.0000

> <Gold.PLP.Chemscore.CHOScore>
1.0962

> <Gold.PLP.Chemscore.Metal>
0.0000

> <Gold.Chemscore.Hbonds>
donor molecule, donor type, donor heavy atom, donor atom, acceptor molecule, acceptor atom, score
      L1  H     9    25       P1  8028  2.00
      L1  C     7    24       P1  7948  1.00
      L1  C     7    24       P1  7949  0.09

> <Gold.PLP.Chemscore.Internal.Correction>
0.0159

> <Gold.Rescore>
     Score         DG    S(hbond)    S(metal)    S(lipo)     H(rot)  DE(clash)    DE(int)     intcor
     17.34     -18.03       1.00        0.00     112.77       1.55       0.03       0.65       ----

> <Gold.Chemscore.Fitness>
17.3449

> <Gold.Chemscore.DG>
-18.0279

> <Gold.Chemscore.ZeroCoef>
-5.4800

> <Gold.Chemscore.Hbond>
0.9978

> <Gold.Chemscore.Metal>
0.0000

> <Gold.Chemscore.Lipo>
112.7702

> <Gold.Chemscore.Internal_Hbond>
0.0000

> <Gold.Chemscore.DEClash>
0.0346

> <Gold.Chemscore.DEInternal>
0.6485

> <Gold.Chemscore.Rot>
1.5543

> <Gold.Chemscore.Internal.Correction>
   9.000000E+99

> <Gold.Chemscore.Hbonds>
donor molecule, donor type, donor heavy atom, donor atom, acceptor molecule, acceptor atom, score
      L1  H     9    25       P1  8028  0.92

> <Gold.Chemscore.Hbond.Weighted>
-3.3328

> <Gold.Chemscore.Metal.Weighted>
-0.0000

> <Gold.Chemscore.Lipo.Weighted>
-13.1941

> <Gold.Chemscore.Internal_Hbond.Weighted>
0.0000

> <Gold.Chemscore.DEClash.Weighted>
0.0346

> <Gold.Chemscore.DEInternal.Weighted>
0.6485

> <Gold.Chemscore.Rot.Weighted>
3.9789

> <Gold.Chemscore.Internal.Correction.Weighted>
   9.000000E+99

> <Gold.Protein.RotatedTorsions>
[ 6907 6896 6895 6894 ] final  150.35 input  -60.11 | X-H torsion
[ 7974 7965 7964 7962 ] final   92.40 input  175.53 | X-H torsion
[ 8008 7997 7996 7995 ] final -135.20 input   59.86 | X-H torsion
[ 10167 10162 10161 10158 ] final  -56.65 input  -65.29 | X-H torsion
[ 10718 10713 10712 10709 ] final   43.04 input   66.30 | X-H torsion
[ 10763 10752 10751 10750 ] final -121.56 input  -60.55 | X-H torsion
[ 11005 11000 10999 10996 ] final  -34.18 input  -57.11 | X-H torsion

> <Gold.Protein.ActiveResidues>
 VAL166  LYS551  ARG553  GLY616  TRP617  ASP618  TYR619  PRO620  LYS621  CYS622 
 ASP623  PHE694  ASN695  SER759  ASP760  ASP761  ALA762  ILE779  LEU786  VAL792 
 PHE793  MET794  SER795  GLU796  ALA797  LYS798  CYS799  TRP800  GLU811  SER814 

> <Gold.Protein.RotatedAtoms>
  152.1155  133.4324  159.4650 H   0  0  0  0  0  0  0  0  0  0  0  0  # atno 6907 bound_to 6896
  150.6869  134.2597  159.4553 H   0  0  0  0  0  0  0  0  0  0  0  0  # atno 6908 bound_to 6896
  152.0469  134.9677  160.0625 H   0  0  0  0  0  0  0  0  0  0  0  0  # atno 6909 bound_to 6896
  145.4928  139.2276  143.2820 H   0  0  0  0  0  0  0  0  0  0  0  0  # atno 7974 bound_to 7965
  155.3748  140.0490  157.3045 H   0  0  0  0  0  0  0  0  0  0  0  0  # atno 8008 bound_to 7997
  154.5112  140.2192  155.9115 H   0  0  0  0  0  0  0  0  0  0  0  0  # atno 8009 bound_to 7997
  156.1585  140.3121  155.8772 H   0  0  0  0  0  0  0  0  0  0  0  0  # atno 8010 bound_to 7997
  140.6305  143.2457  151.5254 H   0  0  0  0  0  0  0  0  0  0  0  0  # atno 10167 bound_to 10162
  157.4115  130.7917  149.7435 H   0  0  0  0  0  0  0  0  0  0  0  0  # atno 10718 bound_to 10713
  154.8671  135.4163  154.2640 H   0  0  0  0  0  0  0  0  0  0  0  0  # atno 10763 bound_to 10752
  153.3563  135.7001  153.6754 H   0  0  0  0  0  0  0  0  0  0  0  0  # atno 10764 bound_to 10752
  153.5673  135.3598  155.2796 H   0  0  0  0  0  0  0  0  0  0  0  0  # atno 10765 bound_to 10752
  140.9696  133.7117  156.1501 H   0  0  0  0  0  0  0  0  0  0  0  0  # atno 11005 bound_to 11000
  146.2274  140.5723  142.8990 LP  0  0  0  0  0  0  0  0  0  0  0  0  # atno 17320 bound_to 7965
  144.7824  140.5868  143.6596 LP  0  0  0  0  0  0  0  0  0  0  0  0  # atno 17321 bound_to 7965
  139.5519  144.2372  152.1546 LP  0  0  0  0  0  0  0  0  0  0  0  0  # atno 17342 bound_to 10162
  140.1615  144.5021  150.6630 LP  0  0  0  0  0  0  0  0  0  0  0  0  # atno 17343 bound_to 10162
  155.9852  130.3985  150.3273 LP  0  0  0  0  0  0  0  0  0  0  0  0  # atno 17370 bound_to 10713
  157.1411  131.0297  151.2927 LP  0  0  0  0  0  0  0  0  0  0  0  0  # atno 17371 bound_to 10713
  140.7349  134.4214  157.5562 LP  0  0  0  0  0  0  0  0  0  0  0  0  # atno 17394 bound_to 11000
  139.8907  134.8798  156.2356 LP  0  0  0  0  0  0  0  0  0  0  0  0  # atno 17395 bound_to 11000

$$$$
