AV-unprocessed.smi:1245|AV-procd|sdf|5240|dock2
  -GOLD-   22720 4343D 1   1.00000     0.00000
 Structure written by MMmdl.
 44 45  0  0  0  0  0  0  0  0  2 V2000
  148.6546  135.2931  156.7636 O   0  0  0  0  0  0  0  0  0  0  0  0
  148.7875  135.6621  155.5961 C   0  0  0  0  0  0  0  0  0  0  0  0
  149.2145  137.0957  155.2684 C   0  0  0  0  0  0  0  0  0  0  0  0
  150.7116  137.3554  155.5151 C   0  0  0  0  0  0  0  0  0  0  0  0
  151.1995  139.0800  155.0451 S   0  0  0  0  0  0  0  0  0  0  0  0
  152.6673  139.1194  154.9591 O   0  0  0  0  0  0  0  0  0  0  0  0
  150.3858  139.5036  153.8948 O   0  0  0  0  0  0  0  0  0  0  0  0
  150.6947  140.0954  156.5135 C   0  0  0  0  0  0  0  0  0  0  0  0
  149.7099  141.2240  156.1527 C   0  0  0  0  0  0  0  0  0  0  0  0
  150.3927  142.5343  156.5596 C   0  0  0  0  0  0  0  0  0  0  0  0
  151.3884  142.1361  157.6474 C   0  0  0  0  0  0  0  0  0  0  0  0
  151.8910  140.7591  157.2150 C   0  0  0  0  0  0  0  0  0  0  0  0
  148.5743  134.8571  154.5441 N   0  0  0  0  0  0  0  0  0  0  0  0
  148.1709  133.4578  154.6251 C   0  0  0  0  0  0  0  0  0  0  0  0
  147.9263  132.8532  153.2320 C   0  0  0  0  0  0  0  0  0  0  0  0
  146.6031  133.2952  152.6374 C   0  0  0  0  0  0  0  0  0  0  0  0
  145.5471  132.3892  152.3973 C   0  0  0  0  0  0  0  0  0  0  0  0
  144.3437  132.8666  151.8368 C   0  0  0  0  0  0  0  0  0  0  0  0
  144.2222  134.2372  151.5275 C   0  0  0  0  0  0  0  0  0  0  0  0
  145.3090  135.0971  151.7857 C   0  0  0  0  0  0  0  0  0  0  0  0
  146.4456  134.6017  152.3231 N   0  3  0  0  0  0  0  0  0  0  0  0
  148.9700  137.2985  154.2251 H   0  0  0  0  0  0  0  0  0  0  0  0
  148.6178  137.7817  155.8706 H   0  0  0  0  0  0  0  0  0  0  0  0
  150.9705  137.1807  156.5574 H   0  0  0  0  0  0  0  0  0  0  0  0
  151.3169  136.6719  154.9187 H   0  0  0  0  0  0  0  0  0  0  0  0
  150.2044  139.4154  157.2112 H   0  0  0  0  0  0  0  0  0  0  0  0
  149.4324  141.2283  155.0982 H   0  0  0  0  0  0  0  0  0  0  0  0
  148.7889  141.0965  156.7229 H   0  0  0  0  0  0  0  0  0  0  0  0
  150.9296  142.9543  155.7086 H   0  0  0  0  0  0  0  0  0  0  0  0
  149.6810  143.2866  156.9007 H   0  0  0  0  0  0  0  0  0  0  0  0
  152.1956  142.8600  157.7634 H   0  0  0  0  0  0  0  0  0  0  0  0
  150.8731  142.0550  158.6055 H   0  0  0  0  0  0  0  0  0  0  0  0
  152.2590  140.1689  158.0547 H   0  0  0  0  0  0  0  0  0  0  0  0
  152.7221  140.8880  156.5232 H   0  0  0  0  0  0  0  0  0  0  0  0
  148.7116  135.2406  153.6199 H   0  0  0  0  0  0  0  0  0  0  0  0
  148.9636  132.9104  155.1357 H   0  0  0  0  0  0  0  0  0  0  0  0
  147.2783  133.3621  155.2459 H   0  0  0  0  0  0  0  0  0  0  0  0
  148.7298  133.1343  152.5500 H   0  0  0  0  0  0  0  0  0  0  0  0
  147.9406  131.7639  153.2902 H   0  0  0  0  0  0  0  0  0  0  0  0
  145.6555  131.3414  152.6374 H   0  0  0  0  0  0  0  0  0  0  0  0
  143.5242  132.1892  151.6459 H   0  0  0  0  0  0  0  0  0  0  0  0
  143.3089  134.6225  151.0977 H   0  0  0  0  0  0  0  0  0  0  0  0
  145.3040  136.1578  151.5805 H   0  0  0  0  0  0  0  0  0  0  0  0
  147.2193  135.2425  152.5015 H   0  0  0  0  0  0  0  0  0  0  0  0
  1  2  2  0  0  0  0
  2  3  1  0  0  0  0
  2 13  1  0  0  0  0
  3  4  1  0  0  0  0
  3 22  1  0  0  0  0
  3 23  1  0  0  0  0
  4  5  1  0  0  0  0
  4 24  1  0  0  0  0
  4 25  1  0  0  0  0
  5  6  2  0  0  0  0
  5  7  2  0  0  0  0
  5  8  1  0  0  0  0
  8 12  1  0  0  0  0
  8  9  1  0  0  0  0
  8 26  1  0  0  0  0
  9 10  1  0  0  0  0
  9 27  1  0  0  0  0
  9 28  1  0  0  0  0
 10 11  1  0  0  0  0
 10 29  1  0  0  0  0
 10 30  1  0  0  0  0
 11 12  1  0  0  0  0
 11 31  1  0  0  0  0
 11 32  1  0  0  0  0
 12 33  1  0  0  0  0
 12 34  1  0  0  0  0
 13 14  1  0  0  0  0
 13 35  1  0  0  0  0
 14 15  1  0  0  0  0
 14 36  1  0  0  0  0
 14 37  1  0  0  0  0
 15 16  1  0  0  0  0
 15 38  1  0  0  0  0
 15 39  1  0  0  0  0
 16 21  1  0  0  0  0
 16 17  2  0  0  0  0
 17 18  1  0  0  0  0
 17 40  1  0  0  0  0
 18 19  2  0  0  0  0
 18 41  1  0  0  0  0
 19 20  1  0  0  0  0
 19 42  1  0  0  0  0
 20 21  2  0  0  0  0
 20 43  1  0  0  0  0
 21 44  1  0  0  0  0
M  CHG  1  21   1
M  END
> <s_m_source_file>
AV-unprocessed.smi

> <i_m_source_file_index>
1245

> <i_lp_mmshare_version>
43012

> <i_f3d_flags>
0

> <s_epik_input>
W0NIMl0xW0NIMl1bQ0gyXVtDSDJdW0NIXTFTKD1PKSg9TylbQ0gyXVtDSDJdQyg9TylbTkhdW0NIMl1bQ0gyXWMyW2NIXVtjSF1bY0hdW2NIXW4y

> <s_epik_cmdline>
J2VwaWtfcHl0aG9uJywgJy1waCcsICc3LjAnLCAnLXRuJywgJzgnLCAnLW1hJywgJzIwMCcsICctbWV0YWxfYmluZGluZycsICctaW1hZScsICc8aW5maWxlLm1hZT4nLCAnLW9tYWUnLCAnPG91dGZpbGUubWFlPic=

> <r_epik_Ionization_Penalty>
1.90383

> <r_epik_Ionization_Penalty_Charging>
1.90383

> <r_epik_Ionization_Penalty_Neutral>
6.52612e-08

> <r_epik_State_Penalty>
2.02532

> <r_epik_Charging_Adjusted_Penalty>
3.92915

> <i_epik_Tot_Q>
1

> <i_epik_Tot_abs_Q>
1

> <r_epik_Metal_State_Penalty>
2.0489

> <b_epik_Metal_Only>
0

> <s_lp_Force_Field>
OPLS_2005

> <r_lp_Energy>
22.4311

> <b_lp_Chiralities_Consistent>
1

> <s_lp_Variant>
AV-unprocessed.smi:1245-2

> <Gold.Version>
5.8.1

> <Gold.Id.Protein>
6NUR|6NUR_protein|mol2

> <Gold.PLP.Fitness>
49.9969

> <Gold.PLP.PLP>
-36.0570

> <Gold.PLP.part.hbond>
-3.9448

> <Gold.PLP.part.metal>
0.0000

> <Gold.PLP.part.buried>
-4.4018

> <Gold.PLP.part.nonpolar>
-28.2189

> <Gold.PLP.part.repulsive>
0.2513

> <Gold.PLP.ligand.clash>
0.0000

> <Gold.PLP.ligand.torsion>
0.8108

> <Gold.PLP.Chemscore.Hbond>
5.0000

> <Gold.PLP.Chemscore.CHOScore>
0.0000

> <Gold.PLP.Chemscore.Metal>
0.0000

> <Gold.Chemscore.Hbonds>
donor molecule, donor type, donor heavy atom, donor atom, acceptor molecule, acceptor atom, score
      L1  H    13    35       P1  7948  1.00
      L1  H    21    44       P1  7948  1.74
      P1  H  7989  7998       L1     7  0.55
      P1  H  7997  8008       L1     6  0.37

> <Gold.PLP.Chemscore.Internal.Correction>
0.5614

> <Gold.Rescore>
     Score         DG    S(hbond)    S(metal)    S(lipo)     H(rot)  DE(clash)    DE(int)     intcor
     19.93     -20.57       3.68        0.00      70.73       2.14       0.00       0.64       ----

> <Gold.Chemscore.Fitness>
19.9330

> <Gold.Chemscore.DG>
-20.5743

> <Gold.Chemscore.ZeroCoef>
-5.4800

> <Gold.Chemscore.Hbond>
3.6826

> <Gold.Chemscore.Metal>
0.0000

> <Gold.Chemscore.Lipo>
70.7253

> <Gold.Chemscore.Internal_Hbond>
0.0000

> <Gold.Chemscore.DEClash>
0.0025

> <Gold.Chemscore.DEInternal>
0.6387

> <Gold.Chemscore.Rot>
2.1408

> <Gold.Chemscore.Internal.Correction>
   9.000000E+99

> <Gold.Chemscore.Hbonds>
donor molecule, donor type, donor heavy atom, donor atom, acceptor molecule, acceptor atom, score
      L1  H    13    35       P1  7948  0.81
      L1  H    21    44       P1  7948  0.81
      P1  H  7989  7998       L1     7  0.03
      P1  H  7997  8008       L1     6  0.37

> <Gold.Chemscore.Hbond.Weighted>
-12.2999

> <Gold.Chemscore.Metal.Weighted>
-0.0000

> <Gold.Chemscore.Lipo.Weighted>
-8.2749

> <Gold.Chemscore.Internal_Hbond.Weighted>
0.0000

> <Gold.Chemscore.DEClash.Weighted>
0.0025

> <Gold.Chemscore.DEInternal.Weighted>
0.6387

> <Gold.Chemscore.Rot.Weighted>
5.4805

> <Gold.Chemscore.Internal.Correction.Weighted>
   9.000000E+99

> <Gold.Protein.RotatedTorsions>
[ 6907 6896 6895 6894 ] final  103.04 input  -60.11 | X-H torsion
[ 7974 7965 7964 7962 ] final   95.33 input  175.53 | X-H torsion
[ 8008 7997 7996 7995 ] final  -21.90 input   59.86 | X-H torsion
[ 10167 10162 10161 10158 ] final    2.91 input  -65.29 | X-H torsion
[ 10718 10713 10712 10709 ] final  -62.48 input   66.30 | X-H torsion
[ 10763 10752 10751 10750 ] final  -55.54 input  -60.55 | X-H torsion
[ 11005 11000 10999 10996 ] final   26.51 input  -57.11 | X-H torsion

> <Gold.Protein.ActiveResidues>
 VAL166  LYS551  ARG553  GLY616  TRP617  ASP618  TYR619  PRO620  LYS621  CYS622 
 ASP623  PHE694  ASN695  SER759  ASP760  ASP761  ALA762  ILE779  LEU786  VAL792 
 PHE793  MET794  SER795  GLU796  ALA797  LYS798  CYS799  TRP800  GLU811  SER814 

> <Gold.Protein.RotatedAtoms>
  152.5307  133.9884  159.7839 H   0  0  0  0  0  0  0  0  0  0  0  0  # atno 6907 bound_to 6896
  151.0125  133.5944  159.2688 H   0  0  0  0  0  0  0  0  0  0  0  0  # atno 6908 bound_to 6896
  151.3013  135.0776  159.9293 H   0  0  0  0  0  0  0  0  0  0  0  0  # atno 6909 bound_to 6896
  145.4536  139.2291  143.3026 H   0  0  0  0  0  0  0  0  0  0  0  0  # atno 7974 bound_to 7965
  154.4677  140.2022  156.0075 H   0  0  0  0  0  0  0  0  0  0  0  0  # atno 8008 bound_to 7997
  156.0956  140.3251  155.7844 H   0  0  0  0  0  0  0  0  0  0  0  0  # atno 8009 bound_to 7997
  155.4884  140.0544  157.2948 H   0  0  0  0  0  0  0  0  0  0  0  0  # atno 8010 bound_to 7997
  140.6612  143.7299  150.7742 H   0  0  0  0  0  0  0  0  0  0  0  0  # atno 10167 bound_to 10162
  156.0852  130.4209  150.1141 H   0  0  0  0  0  0  0  0  0  0  0  0  # atno 10718 bound_to 10713
  154.1924  135.6425  153.5063 H   0  0  0  0  0  0  0  0  0  0  0  0  # atno 10763 bound_to 10752
  153.0032  135.5432  154.6401 H   0  0  0  0  0  0  0  0  0  0  0  0  # atno 10764 bound_to 10752
  154.5793  135.2924  155.0721 H   0  0  0  0  0  0  0  0  0  0  0  0  # atno 10765 bound_to 10752
  140.3363  134.2382  155.7695 H   0  0  0  0  0  0  0  0  0  0  0  0  # atno 11005 bound_to 11000
  146.2490  140.5298  142.8901 LP  0  0  0  0  0  0  0  0  0  0  0  0  # atno 17320 bound_to 7965
  144.8046  140.6276  143.6455 LP  0  0  0  0  0  0  0  0  0  0  0  0  # atno 17321 bound_to 7965
  140.0968  143.4825  152.2448 LP  0  0  0  0  0  0  0  0  0  0  0  0  # atno 17342 bound_to 10162
  139.5846  144.7525  151.3552 LP  0  0  0  0  0  0  0  0  0  0  0  0  # atno 17343 bound_to 10162
  156.9163  130.9668  151.3555 LP  0  0  0  0  0  0  0  0  0  0  0  0  # atno 17370 bound_to 10713
  157.5984  130.8495  149.8765 LP  0  0  0  0  0  0  0  0  0  0  0  0  # atno 17371 bound_to 10713
  141.2050  133.7871  157.0255 LP  0  0  0  0  0  0  0  0  0  0  0  0  # atno 17394 bound_to 11000
  140.0818  134.9643  157.1637 LP  0  0  0  0  0  0  0  0  0  0  0  0  # atno 17395 bound_to 11000

$$$$
