AV-unprocessed.smi:2015|AV-procd|sdf|8164|dock2
  -GOLD-   2272010413D 1   1.00000     0.00000
 Structure written by MMmdl.
 47 48  0  0  0  0  0  0  0  0  1 V2000
  143.4951  136.4521  152.5352 C   0  0  0  0  0  0  0  0  0  0  0  0
  144.6374  135.7284  152.1129 O   0  0  0  0  0  0  0  0  0  0  0  0
  145.6480  136.5690  151.5811 C   0  0  0  0  0  0  0  0  0  0  0  0
  146.0263  137.6318  152.6204 C   0  0  0  0  0  0  0  0  0  0  0  0
  146.7333  138.8478  151.9936 C   0  0  0  0  0  0  0  0  0  0  0  0
  147.3470  139.7837  153.0391 C   0  0  0  0  0  0  0  0  0  0  0  0
  146.8205  140.8722  153.2659 O   0  0  0  0  0  0  0  0  0  0  0  0
  148.4679  139.3321  153.6321 N   0  0  0  0  0  0  0  0  0  0  0  0
  149.2739  139.9457  154.6307 C   0  0  0  0  0  0  0  0  0  0  0  0
  150.6210  139.6117  154.9046 C   0  0  0  0  0  0  0  0  0  0  0  0
  151.3045  140.3093  155.9192 C   0  0  0  0  0  0  0  0  0  0  0  0
  150.6344  141.3309  156.6326 C   0  0  0  0  0  0  0  0  0  0  0  0
  151.3019  142.0421  157.6536 N   0  0  0  0  0  0  0  0  0  0  0  0
  150.6388  143.2552  158.1242 C   0  0  0  0  0  0  0  0  0  0  0  0
  151.5984  144.1189  158.9659 C   0  0  2  0  0  0  0  0  0  0  0  0
  152.6417  144.8724  158.1218 C   0  0  0  0  0  0  0  0  0  0  0  0
  152.2009  143.3299  159.9943 O   0  0  0  0  0  0  0  0  0  0  0  0
  152.8935  142.1715  159.5308 C   0  0  1  0  0  0  0  0  0  0  0  0
  153.4638  141.4412  160.7513 C   0  0  0  0  0  0  0  0  0  0  0  0
  151.9304  141.2786  158.7284 C   0  0  0  0  0  0  0  0  0  0  0  0
  149.3451  141.6508  156.3640 N   0  0  0  0  0  0  0  0  0  0  0  0
  148.6938  140.9799  155.3916 C   0  0  0  0  0  0  0  0  0  0  0  0
  142.7465  135.7604  152.9212 H   0  0  0  0  0  0  0  0  0  0  0  0
  143.0484  137.0043  151.7076 H   0  0  0  0  0  0  0  0  0  0  0  0
  143.7461  137.1550  153.3306 H   0  0  0  0  0  0  0  0  0  0  0  0
  146.5260  135.9724  151.3293 H   0  0  0  0  0  0  0  0  0  0  0  0
  145.3034  137.0460  150.6623 H   0  0  0  0  0  0  0  0  0  0  0  0
  145.1288  137.9470  153.1544 H   0  0  0  0  0  0  0  0  0  0  0  0
  146.6822  137.1769  153.3641 H   0  0  0  0  0  0  0  0  0  0  0  0
  147.5110  138.5035  151.3100 H   0  0  0  0  0  0  0  0  0  0  0  0
  146.0264  139.4234  151.3953 H   0  0  0  0  0  0  0  0  0  0  0  0
  148.8076  138.4419  153.2976 H   0  0  0  0  0  0  0  0  0  0  0  0
  151.1504  138.8454  154.3616 H   0  0  0  0  0  0  0  0  0  0  0  0
  152.3267  140.0439  156.1445 H   0  0  0  0  0  0  0  0  0  0  0  0
  150.2415  143.8526  157.3051 H   0  0  0  0  0  0  0  0  0  0  0  0
  149.7845  142.9592  158.7347 H   0  0  0  0  0  0  0  0  0  0  0  0
  151.0012  144.8752  159.4759 H   0  0  0  0  0  0  0  0  0  0  0  0
  152.1538  145.5667  157.4373 H   0  0  0  0  0  0  0  0  0  0  0  0
  153.2505  144.2000  157.5181 H   0  0  0  0  0  0  0  0  0  0  0  0
  153.3113  145.4522  158.7574 H   0  0  0  0  0  0  0  0  0  0  0  0
  153.7279  142.4714  158.8967 H   0  0  0  0  0  0  0  0  0  0  0  0
  154.0099  140.5457  160.4536 H   0  0  0  0  0  0  0  0  0  0  0  0
  152.6709  141.1374  161.4353 H   0  0  0  0  0  0  0  0  0  0  0  0
  154.1516  142.0821  161.3030 H   0  0  0  0  0  0  0  0  0  0  0  0
  151.1546  140.8767  159.3817 H   0  0  0  0  0  0  0  0  0  0  0  0
  152.4833  140.4319  158.3191 H   0  0  0  0  0  0  0  0  0  0  0  0
  147.6704  141.2793  155.2186 H   0  0  0  0  0  0  0  0  0  0  0  0
  1  2  1  0  0  0  0
  1 23  1  0  0  0  0
  1 24  1  0  0  0  0
  1 25  1  0  0  0  0
  2  3  1  0  0  0  0
  3  4  1  0  0  0  0
  3 26  1  0  0  0  0
  3 27  1  0  0  0  0
  4  5  1  0  0  0  0
  4 28  1  0  0  0  0
  4 29  1  0  0  0  0
  5  6  1  0  0  0  0
  5 30  1  0  0  0  0
  5 31  1  0  0  0  0
  6  7  2  0  0  0  0
  6  8  1  0  0  0  0
  8  9  1  0  0  0  0
  8 32  1  0  0  0  0
  9 22  1  0  0  0  0
  9 10  2  0  0  0  0
 10 11  1  0  0  0  0
 10 33  1  0  0  0  0
 11 12  2  0  0  0  0
 11 34  1  0  0  0  0
 12 13  1  0  0  0  0
 12 21  1  0  0  0  0
 13 20  1  0  0  0  0
 13 14  1  0  0  0  0
 14 15  1  0  0  0  0
 14 35  1  0  0  0  0
 14 36  1  0  0  0  0
 15 16  1  0  0  0  0
 15 17  1  0  0  0  0
 15 37  1  0  0  0  0
 16 38  1  0  0  0  0
 16 39  1  0  0  0  0
 16 40  1  0  0  0  0
 17 18  1  0  0  0  0
 18 19  1  0  0  0  0
 18 20  1  0  0  0  0
 18 41  1  0  0  0  0
 19 42  1  0  0  0  0
 19 43  1  0  0  0  0
 19 44  1  0  0  0  0
 20 45  1  0  0  0  0
 20 46  1  0  0  0  0
 21 22  2  0  0  0  0
 22 47  1  0  0  0  0
M  END
> <s_m_source_file>
AV-unprocessed.smi

> <i_m_source_file_index>
2015

> <i_lp_mmshare_version>
43012

> <i_f3d_flags>
0

> <s_epik_input>
W0NIM11PW0NIMl1bQ0gyXVtDSDJdQyg9TylbTkhdYzFbY0hdW2NIXWMobltjSF0xKU4yW0NIMl1bQ0BASF0oW0NIM10pT1tDQEBIXShbQ0gzXSlbQ0gyXTI=

> <s_epik_cmdline>
J2VwaWtfcHl0aG9uJywgJy1waCcsICc3LjAnLCAnLXRuJywgJzgnLCAnLW1hJywgJzIwMCcsICctbWV0YWxfYmluZGluZycsICctaW1hZScsICc8aW5maWxlLm1hZT4nLCAnLW9tYWUnLCAnPG91dGZpbGUubWFlPic=

> <r_lp_tautomer_probability>
1

> <r_epik_Ionization_Penalty>
0.000816358

> <r_epik_Ionization_Penalty_Charging>
0

> <r_epik_Ionization_Penalty_Neutral>
0.000816358

> <r_epik_State_Penalty>
0.000521115

> <r_epik_Charging_Adjusted_Penalty>
0.000521115

> <i_epik_Tot_Q>
0

> <i_epik_Tot_abs_Q>
0

> <r_epik_Metal_State_Penalty>
-0

> <b_epik_Metal_Only>
0

> <s_lp_Force_Field>
OPLS_2005

> <r_lp_Energy>
24.9806

> <b_lp_Chiralities_Consistent>
1

> <s_lp_Variant>
AV-unprocessed.smi:2015-2

> <Gold.Version>
5.8.1

> <Gold.Id.Protein>
6NUR|6NUR_protein|mol2

> <Gold.PLP.Fitness>
45.2575

> <Gold.PLP.PLP>
-45.9897

> <Gold.PLP.part.hbond>
-1.0000

> <Gold.PLP.part.metal>
0.0000

> <Gold.PLP.part.buried>
-3.7504

> <Gold.PLP.part.nonpolar>
-42.6377

> <Gold.PLP.part.repulsive>
0.5432

> <Gold.PLP.ligand.clash>
0.0000

> <Gold.PLP.ligand.torsion>
0.5548

> <Gold.PLP.Chemscore.Hbond>
0.0000

> <Gold.PLP.Chemscore.CHOScore>
0.0000

> <Gold.PLP.Chemscore.Metal>
0.0000

> <Gold.PLP.Chemscore.Internal.Correction>
0.3773

> <Gold.Rescore>
     Score         DG    S(hbond)    S(metal)    S(lipo)     H(rot)  DE(clash)    DE(int)     intcor
     12.99     -14.93       0.00        0.00     117.57       1.68       0.11       1.83       ----

> <Gold.Chemscore.Fitness>
12.9905

> <Gold.Chemscore.DG>
-14.9281

> <Gold.Chemscore.ZeroCoef>
-5.4800

> <Gold.Chemscore.Hbond>
0.0000

> <Gold.Chemscore.Metal>
0.0000

> <Gold.Chemscore.Lipo>
117.5716

> <Gold.Chemscore.Internal_Hbond>
0.0000

> <Gold.Chemscore.DEClash>
0.1120

> <Gold.Chemscore.DEInternal>
1.8256

> <Gold.Chemscore.Rot>
1.6827

> <Gold.Chemscore.Internal.Correction>
   9.000000E+99

> <Gold.Chemscore.Hbond.Weighted>
-0.0000

> <Gold.Chemscore.Metal.Weighted>
-0.0000

> <Gold.Chemscore.Lipo.Weighted>
-13.7559

> <Gold.Chemscore.Internal_Hbond.Weighted>
0.0000

> <Gold.Chemscore.DEClash.Weighted>
0.1120

> <Gold.Chemscore.DEInternal.Weighted>
1.8256

> <Gold.Chemscore.Rot.Weighted>
4.3078

> <Gold.Chemscore.Internal.Correction.Weighted>
   9.000000E+99

> <Gold.Protein.RotatedTorsions>
[ 6907 6896 6895 6894 ] final -123.11 input  -60.11 | X-H torsion
[ 7974 7965 7964 7962 ] final  159.38 input  175.53 | X-H torsion
[ 8008 7997 7996 7995 ] final   63.57 input   59.86 | X-H torsion
[ 10167 10162 10161 10158 ] final    9.91 input  -65.29 | X-H torsion
[ 10718 10713 10712 10709 ] final  -17.09 input   66.30 | X-H torsion
[ 10763 10752 10751 10750 ] final  -85.44 input  -60.55 | X-H torsion
[ 11005 11000 10999 10996 ] final -120.39 input  -57.11 | X-H torsion

> <Gold.Protein.ActiveResidues>
 VAL166  LYS551  ARG553  GLY616  TRP617  ASP618  TYR619  PRO620  LYS621  CYS622 
 ASP623  PHE694  ASN695  SER759  ASP760  ASP761  ALA762  ILE779  LEU786  VAL792 
 PHE793  MET794  SER795  GLU796  ALA797  LYS798  CYS799  TRP800  GLU811  SER814 

> <Gold.Protein.RotatedAtoms>
  150.8639  133.7603  159.2982 H   0  0  0  0  0  0  0  0  0  0  0  0  # atno 6907 bound_to 6896
  151.5236  135.1066  159.9894 H   0  0  0  0  0  0  0  0  0  0  0  0  # atno 6908 bound_to 6896
  152.4647  133.7852  159.6928 H   0  0  0  0  0  0  0  0  0  0  0  0  # atno 6909 bound_to 6896
  144.7793  139.7609  143.6266 H   0  0  0  0  0  0  0  0  0  0  0  0  # atno 7974 bound_to 7965
  155.6324  140.3496  155.4687 H   0  0  0  0  0  0  0  0  0  0  0  0  # atno 8008 bound_to 7997
  155.9993  140.1210  157.0587 H   0  0  0  0  0  0  0  0  0  0  0  0  # atno 8009 bound_to 7997
  154.4243  140.1104  156.5660 H   0  0  0  0  0  0  0  0  0  0  0  0  # atno 8010 bound_to 7997
  140.6226  143.8171  150.7194 H   0  0  0  0  0  0  0  0  0  0  0  0  # atno 10167 bound_to 10162
  156.5785  130.4768  149.6331 H   0  0  0  0  0  0  0  0  0  0  0  0  # atno 10718 bound_to 10713
  154.6111  135.5485  153.7474 H   0  0  0  0  0  0  0  0  0  0  0  0  # atno 10763 bound_to 10752
  153.0195  135.6389  154.1577 H   0  0  0  0  0  0  0  0  0  0  0  0  # atno 10764 bound_to 10752
  154.1515  135.2902  155.3114 H   0  0  0  0  0  0  0  0  0  0  0  0  # atno 10765 bound_to 10752
  141.0147  134.0213  157.3366 H   0  0  0  0  0  0  0  0  0  0  0  0  # atno 11005 bound_to 11000
  146.1992  139.5277  142.9754 LP  0  0  0  0  0  0  0  0  0  0  0  0  # atno 17320 bound_to 7965
  145.6095  141.0342  143.1974 LP  0  0  0  0  0  0  0  0  0  0  0  0  # atno 17321 bound_to 7965
  140.1764  143.4151  152.1964 LP  0  0  0  0  0  0  0  0  0  0  0  0  # atno 17342 bound_to 10162
  139.5452  144.7292  151.4606 LP  0  0  0  0  0  0  0  0  0  0  0  0  # atno 17343 bound_to 10162
  156.2652  130.6985  151.1766 LP  0  0  0  0  0  0  0  0  0  0  0  0  # atno 17370 bound_to 10713
  157.7332  131.0593  150.5589 LP  0  0  0  0  0  0  0  0  0  0  0  0  # atno 17371 bound_to 10713
  139.9110  135.0190  156.7690 LP  0  0  0  0  0  0  0  0  0  0  0  0  # atno 17394 bound_to 11000
  140.6675  133.9589  155.7838 LP  0  0  0  0  0  0  0  0  0  0  0  0  # atno 17395 bound_to 11000

$$$$
