AV-unprocessed.smi:2003|AV-procd|sdf|8117|dock5
  -GOLD-   2272010353D 1   1.00000     0.00000
 Structure written by MMmdl.
 43 44  0  0  0  0  0  0  0  0  1 V2000
  153.6998  141.9405  160.8196 C   0  0  0  0  0  0  0  0  0  0  0  0
  152.9492  142.5213  159.6577 C   0  0  0  0  0  0  0  0  0  0  0  0
  151.9880  141.8788  158.8242 C   0  0  0  0  0  0  0  0  0  0  0  0
  151.6413  142.8692  157.9463 C   0  0  0  0  0  0  0  0  0  0  0  0
  150.7560  142.8273  156.9154 N   0  0  0  0  0  0  0  0  0  0  0  0
  150.4331  141.7881  156.1263 C   0  0  0  0  0  0  0  0  0  0  0  0
  150.9031  140.6532  156.2078 O   0  0  0  0  0  0  0  0  0  0  0  0
  149.5135  142.1395  155.2190 N   0  0  0  0  0  0  0  0  0  0  0  0
  148.9406  141.2351  154.2285 C   0  0  0  0  0  0  0  0  0  0  0  0
  147.4571  140.9149  154.5384 C   0  0  2  0  0  0  0  0  0  0  0  0
  146.8993  140.0585  153.3788 C   0  0  0  0  0  0  0  0  0  0  0  0
  146.6350  142.1078  154.8378 N   0  0  0  0  0  0  0  0  0  0  0  0
  145.5053  141.8056  155.7221 C   0  0  0  0  0  0  0  0  0  0  0  0
  144.6427  143.0435  156.0220 C   0  0  0  0  0  0  0  0  0  0  0  0
  144.1755  143.6073  154.8036 O   0  0  0  0  0  0  0  0  0  0  0  0
  145.2414  143.9779  153.9392 C   0  0  0  0  0  0  0  0  0  0  0  0
  146.1088  142.7462  153.6278 C   0  0  0  0  0  0  0  0  0  0  0  0
  152.3553  144.0061  158.2534 N   0  0  0  0  0  0  0  0  0  0  0  0
  152.3339  145.3074  157.6143 C   0  0  0  0  0  0  0  0  0  0  0  0
  153.1631  143.7861  159.3131 N   0  0  0  0  0  0  0  0  0  0  0  0
  153.4159  140.9023  160.9923 H   0  0  0  0  0  0  0  0  0  0  0  0
  153.4973  142.4960  161.7355 H   0  0  0  0  0  0  0  0  0  0  0  0
  154.7755  141.9651  160.6437 H   0  0  0  0  0  0  0  0  0  0  0  0
  151.6292  140.8621  158.8789 H   0  0  0  0  0  0  0  0  0  0  0  0
  150.2767  143.6950  156.7252 H   0  0  0  0  0  0  0  0  0  0  0  0
  149.1725  143.0898  155.2186 H   0  0  0  0  0  0  0  0  0  0  0  0
  149.0235  141.6935  153.2417 H   0  0  0  0  0  0  0  0  0  0  0  0
  149.5370  140.3241  154.1715 H   0  0  0  0  0  0  0  0  0  0  0  0
  147.4579  140.2769  155.4235 H   0  0  0  0  0  0  0  0  0  0  0  0
  147.5847  139.2520  153.1170 H   0  0  0  0  0  0  0  0  0  0  0  0
  146.7372  140.6564  152.4813 H   0  0  0  0  0  0  0  0  0  0  0  0
  145.9562  139.5794  153.6394 H   0  0  0  0  0  0  0  0  0  0  0  0
  144.8819  141.0302  155.2742 H   0  0  0  0  0  0  0  0  0  0  0  0
  145.8583  141.4154  156.6754 H   0  0  0  0  0  0  0  0  0  0  0  0
  143.7865  142.7689  156.6385 H   0  0  0  0  0  0  0  0  0  0  0  0
  145.2144  143.7863  156.5809 H   0  0  0  0  0  0  0  0  0  0  0  0
  144.8266  144.3907  153.0195 H   0  0  0  0  0  0  0  0  0  0  0  0
  145.8391  144.7646  154.4022 H   0  0  0  0  0  0  0  0  0  0  0  0
  146.9228  143.0743  152.9832 H   0  0  0  0  0  0  0  0  0  0  0  0
  145.5225  142.0260  153.0549 H   0  0  0  0  0  0  0  0  0  0  0  0
  152.6692  145.2127  156.5812 H   0  0  0  0  0  0  0  0  0  0  0  0
  152.9904  146.0038  158.1379 H   0  0  0  0  0  0  0  0  0  0  0  0
  151.3183  145.7040  157.6254 H   0  0  0  0  0  0  0  0  0  0  0  0
  1  2  1  0  0  0  0
  1 21  1  0  0  0  0
  1 22  1  0  0  0  0
  1 23  1  0  0  0  0
  2 20  2  0  0  0  0
  2  3  1  0  0  0  0
  3  4  2  0  0  0  0
  3 24  1  0  0  0  0
  4  5  1  0  0  0  0
  4 18  1  0  0  0  0
  5  6  1  0  0  0  0
  5 25  1  0  0  0  0
  6  7  2  0  0  0  0
  6  8  1  0  0  0  0
  8  9  1  0  0  0  0
  8 26  1  0  0  0  0
  9 10  1  0  0  0  0
  9 27  1  0  0  0  0
  9 28  1  0  0  0  0
 10 11  1  0  0  0  0
 10 12  1  0  0  0  0
 10 29  1  0  0  0  0
 11 30  1  0  0  0  0
 11 31  1  0  0  0  0
 11 32  1  0  0  0  0
 12 17  1  0  0  0  0
 12 13  1  0  0  0  0
 13 14  1  0  0  0  0
 13 33  1  0  0  0  0
 13 34  1  0  0  0  0
 14 15  1  0  0  0  0
 14 35  1  0  0  0  0
 14 36  1  0  0  0  0
 15 16  1  0  0  0  0
 16 17  1  0  0  0  0
 16 37  1  0  0  0  0
 16 38  1  0  0  0  0
 17 39  1  0  0  0  0
 17 40  1  0  0  0  0
 18 19  1  0  0  0  0
 18 20  1  0  0  0  0
 19 41  1  0  0  0  0
 19 42  1  0  0  0  0
 19 43  1  0  0  0  0
M  END
> <s_m_source_file>
AV-unprocessed.smi

> <i_m_source_file_index>
2003

> <i_lp_mmshare_version>
43012

> <i_f3d_flags>
0

> <s_epik_input>
W0NIM11jMVtjSF1jKG4objEpW0NIM10pW05IXUMoPU8pW05IXVtDSDJdW0NASF0oW0NIM10pTjJbQ0gyXVtDSDJdT1tDSDJdW0NIMl0y

> <s_epik_cmdline>
J2VwaWtfcHl0aG9uJywgJy1waCcsICc3LjAnLCAnLXRuJywgJzgnLCAnLW1hJywgJzIwMCcsICctbWV0YWxfYmluZGluZycsICctaW1hZScsICc8aW5maWxlLm1hZT4nLCAnLW9tYWUnLCAnPG91dGZpbGUubWFlPic=

> <r_lp_tautomer_probability>
1

> <r_epik_Ionization_Penalty>
0.233974

> <r_epik_Ionization_Penalty_Charging>
0

> <r_epik_Ionization_Penalty_Neutral>
0.233974

> <r_epik_State_Penalty>
0.224627

> <r_epik_Charging_Adjusted_Penalty>
0.224627

> <i_epik_Tot_Q>
0

> <i_epik_Tot_abs_Q>
0

> <r_epik_Metal_State_Penalty>
0.224624

> <b_epik_Metal_Only>
0

> <s_lp_Force_Field>
OPLS_2005

> <r_lp_Energy>
33.8314

> <b_lp_Chiralities_Consistent>
1

> <s_lp_Variant>
AV-unprocessed.smi:2003-1

> <Gold.Version>
5.8.1

> <Gold.Id.Protein>
6NUR|6NUR_protein|mol2

> <Gold.PLP.Fitness>
45.3765

> <Gold.PLP.PLP>
-41.0008

> <Gold.PLP.part.hbond>
-2.0000

> <Gold.PLP.part.metal>
0.0000

> <Gold.PLP.part.buried>
-8.8387

> <Gold.PLP.part.nonpolar>
-31.7378

> <Gold.PLP.part.repulsive>
0.5671

> <Gold.PLP.ligand.clash>
0.0000

> <Gold.PLP.ligand.torsion>
0.8378

> <Gold.PLP.Chemscore.Hbond>
2.0000

> <Gold.PLP.Chemscore.CHOScore>
0.0000

> <Gold.PLP.Chemscore.Metal>
0.0000

> <Gold.Chemscore.Hbonds>
donor molecule, donor type, donor heavy atom, donor atom, acceptor molecule, acceptor atom, score
      L1  H     5    25       P1  8028  1.00
      L1  H     8    26       P1  8028  1.00

> <Gold.PLP.Chemscore.Internal.Correction>
0.0514

> <Gold.Rescore>
     Score         DG    S(hbond)    S(metal)    S(lipo)     H(rot)  DE(clash)    DE(int)     intcor
     15.99     -18.36       1.94        0.00      87.27       1.49       1.50       0.88       ----

> <Gold.Chemscore.Fitness>
15.9863

> <Gold.Chemscore.DG>
-18.3593

> <Gold.Chemscore.ZeroCoef>
-5.4800

> <Gold.Chemscore.Hbond>
1.9440

> <Gold.Chemscore.Metal>
0.0000

> <Gold.Chemscore.Lipo>
87.2700

> <Gold.Chemscore.Internal_Hbond>
0.0000

> <Gold.Chemscore.DEClash>
1.4955

> <Gold.Chemscore.DEInternal>
0.8775

> <Gold.Chemscore.Rot>
1.4938

> <Gold.Chemscore.Internal.Correction>
   9.000000E+99

> <Gold.Chemscore.Hbonds>
donor molecule, donor type, donor heavy atom, donor atom, acceptor molecule, acceptor atom, score
      L1  H     5    25       P1  8028  0.89
      L1  H     8    26       P1  8028  1.00

> <Gold.Chemscore.Hbond.Weighted>
-6.4929

> <Gold.Chemscore.Metal.Weighted>
-0.0000

> <Gold.Chemscore.Lipo.Weighted>
-10.2106

> <Gold.Chemscore.Internal_Hbond.Weighted>
0.0000

> <Gold.Chemscore.DEClash.Weighted>
1.4955

> <Gold.Chemscore.DEInternal.Weighted>
0.8775

> <Gold.Chemscore.Rot.Weighted>
3.8242

> <Gold.Chemscore.Internal.Correction.Weighted>
   9.000000E+99

> <Gold.Protein.RotatedTorsions>
[ 6907 6896 6895 6894 ] final   59.14 input  -60.11 | X-H torsion
[ 7974 7965 7964 7962 ] final   68.08 input  175.53 | X-H torsion
[ 8008 7997 7996 7995 ] final  -32.01 input   59.86 | X-H torsion
[ 10167 10162 10161 10158 ] final   -2.42 input  -65.29 | X-H torsion
[ 10718 10713 10712 10709 ] final  115.58 input   66.30 | X-H torsion
[ 10763 10752 10751 10750 ] final -173.91 input  -60.55 | X-H torsion
[ 11005 11000 10999 10996 ] final -127.58 input  -57.11 | X-H torsion

> <Gold.Protein.ActiveResidues>
 VAL166  LYS551  ARG553  GLY616  TRP617  ASP618  TYR619  PRO620  LYS621  CYS622 
 ASP623  PHE694  ASN695  SER759  ASP760  ASP761  ALA762  ILE779  LEU786  VAL792 
 PHE793  MET794  SER795  GLU796  ALA797  LYS798  CYS799  TRP800  GLU811  SER814 

> <Gold.Protein.RotatedAtoms>
  152.3888  134.6474  160.0115 H   0  0  0  0  0  0  0  0  0  0  0  0  # atno 6907 bound_to 6896
  151.6714  133.3308  159.3205 H   0  0  0  0  0  0  0  0  0  0  0  0  # atno 6908 bound_to 6896
  150.7808  134.6795  159.6481 H   0  0  0  0  0  0  0  0  0  0  0  0  # atno 6909 bound_to 6896
  145.8069  139.3011  143.1122 H   0  0  0  0  0  0  0  0  0  0  0  0  # atno 7974 bound_to 7965
  154.4194  140.1749  156.1658 H   0  0  0  0  0  0  0  0  0  0  0  0  # atno 8008 bound_to 7997
  155.9801  140.3378  155.6630 H   0  0  0  0  0  0  0  0  0  0  0  0  # atno 8009 bound_to 7997
  155.6512  140.0690  157.2577 H   0  0  0  0  0  0  0  0  0  0  0  0  # atno 8010 bound_to 7997
  140.6850  143.6660  150.8226 H   0  0  0  0  0  0  0  0  0  0  0  0  # atno 10167 bound_to 10162
  157.6213  131.1014  150.7350 H   0  0  0  0  0  0  0  0  0  0  0  0  # atno 10718 bound_to 10713
  154.6024  135.2856  155.0521 H   0  0  0  0  0  0  0  0  0  0  0  0  # atno 10763 bound_to 10752
  154.1781  135.6461  153.5030 H   0  0  0  0  0  0  0  0  0  0  0  0  # atno 10764 bound_to 10752
  153.0162  135.5417  154.6748 H   0  0  0  0  0  0  0  0  0  0  0  0  # atno 10765 bound_to 10752
  140.9588  134.0965  157.3989 H   0  0  0  0  0  0  0  0  0  0  0  0  # atno 11005 bound_to 11000
  145.9819  140.8675  143.0110 LP  0  0  0  0  0  0  0  0  0  0  0  0  # atno 17320 bound_to 7965
  144.6762  140.2092  143.7379 LP  0  0  0  0  0  0  0  0  0  0  0  0  # atno 17321 bound_to 7965
  140.0365  143.5389  152.2737 LP  0  0  0  0  0  0  0  0  0  0  0  0  # atno 17342 bound_to 10162
  139.6201  144.7627  151.2759 LP  0  0  0  0  0  0  0  0  0  0  0  0  # atno 17343 bound_to 10162
  156.7707  130.4828  149.5419 LP  0  0  0  0  0  0  0  0  0  0  0  0  # atno 17370 bound_to 10713
  156.1360  130.6212  151.0401 LP  0  0  0  0  0  0  0  0  0  0  0  0  # atno 17371 bound_to 10713
  139.8871  135.0087  156.6539 LP  0  0  0  0  0  0  0  0  0  0  0  0  # atno 17394 bound_to 11000
  140.7498  133.8907  155.8338 LP  0  0  0  0  0  0  0  0  0  0  0  0  # atno 17395 bound_to 11000

$$$$
