AV-unprocessed.smi:3331|AV-procd|sdf|12825|dock10
  -GOLD-   2272019203D 1   1.00000     0.00000
 Structure written by MMmdl.
 46 47  0  0  0  0  0  0  0  0  1 V2000
  150.1593  138.3661  155.2200 C   0  0  0  0  0  0  0  0  0  0  0  0
  150.9452  139.6876  155.2832 C   0  0  1  0  0  0  0  0  0  0  0  0
  150.0651  140.8695  155.7477 C   0  0  0  0  0  0  0  0  0  0  0  0
  149.8087  140.8651  157.2715 C   0  0  2  0  0  0  0  0  0  0  0  0
  149.0468  142.1217  157.7149 C   0  0  0  0  0  0  0  0  0  0  0  0
  151.1394  140.7086  158.0363 C   0  0  0  0  0  0  0  0  0  0  0  0
  151.8184  139.4862  157.5837 N   0  0  0  0  0  0  0  0  0  0  0  0
  151.9789  138.4012  158.3853 C   0  0  0  0  0  0  0  0  0  0  0  0
  152.5102  137.3667  157.9769 O   0  0  0  0  0  0  0  0  0  0  0  0
  151.4779  138.4435  159.8450 C   0  0  2  0  0  0  0  0  0  0  0  0
  152.6122  138.7979  160.8315 C   0  0  0  0  0  0  0  0  0  0  0  0
  150.8537  137.1574  160.1963 N   0  0  0  0  0  0  0  0  0  0  0  0
  149.5881  136.9335  159.5119 C   0  0  0  0  0  0  0  0  0  0  0  0
  149.1057  135.5033  159.7934 C   0  0  0  0  0  0  0  0  0  0  0  0
  148.3322  135.4323  161.0180 N   0  0  0  0  0  0  0  0  0  0  0  0
  148.2441  134.3903  161.9169 C   0  0  0  0  0  0  0  0  0  0  0  0
  147.4010  134.7860  162.9156 C   0  0  0  0  0  0  0  0  0  0  0  0
  147.0186  136.1026  162.5336 C   0  0  0  0  0  0  0  0  0  0  0  0
  147.5765  136.4861  161.3965 N   0  0  0  0  0  0  0  0  0  0  0  0
  152.2067  139.5881  156.1683 C   0  0  0  0  0  0  0  0  0  0  0  0
  149.7784  138.0696  156.1973 H   0  0  0  0  0  0  0  0  0  0  0  0
  150.7885  137.5559  154.8507 H   0  0  0  0  0  0  0  0  0  0  0  0
  149.3069  138.4503  154.5456 H   0  0  0  0  0  0  0  0  0  0  0  0
  151.2729  139.9029  154.2656 H   0  0  0  0  0  0  0  0  0  0  0  0
  150.5694  141.7995  155.4814 H   0  0  0  0  0  0  0  0  0  0  0  0
  149.1200  140.8747  155.2032 H   0  0  0  0  0  0  0  0  0  0  0  0
  149.1816  140.0049  157.5099 H   0  0  0  0  0  0  0  0  0  0  0  0
  149.6211  143.0263  157.5124 H   0  0  0  0  0  0  0  0  0  0  0  0
  148.8337  142.0948  158.7839 H   0  0  0  0  0  0  0  0  0  0  0  0
  148.0942  142.2072  157.1915 H   0  0  0  0  0  0  0  0  0  0  0  0
  151.7855  141.5679  157.8509 H   0  0  0  0  0  0  0  0  0  0  0  0
  150.9503  140.7132  159.1105 H   0  0  0  0  0  0  0  0  0  0  0  0
  150.7404  139.2434  159.9125 H   0  0  0  0  0  0  0  0  0  0  0  0
  153.1359  139.7038  160.5230 H   0  0  0  0  0  0  0  0  0  0  0  0
  153.3487  137.9964  160.9040 H   0  0  0  0  0  0  0  0  0  0  0  0
  152.2299  138.9861  161.8344 H   0  0  0  0  0  0  0  0  0  0  0  0
  150.7301  137.0628  161.1942 H   0  0  0  0  0  0  0  0  0  0  0  0
  148.8394  137.6479  159.8540 H   0  0  0  0  0  0  0  0  0  0  0  0
  149.7165  137.0784  158.4380 H   0  0  0  0  0  0  0  0  0  0  0  0
  148.4899  135.1359  158.9707 H   0  0  0  0  0  0  0  0  0  0  0  0
  149.9547  134.8240  159.8816 H   0  0  0  0  0  0  0  0  0  0  0  0
  148.7838  133.4656  161.7736 H   0  0  0  0  0  0  0  0  0  0  0  0
  147.1031  134.2219  163.7871 H   0  0  0  0  0  0  0  0  0  0  0  0
  146.3570  136.7861  163.0452 H   0  0  0  0  0  0  0  0  0  0  0  0
  152.8420  138.7765  155.8202 H   0  0  0  0  0  0  0  0  0  0  0  0
  152.8123  140.4866  156.0403 H   0  0  0  0  0  0  0  0  0  0  0  0
  1  2  1  0  0  0  0
  1 21  1  0  0  0  0
  1 22  1  0  0  0  0
  1 23  1  0  0  0  0
  2 20  1  0  0  0  0
  2  3  1  0  0  0  0
  2 24  1  0  0  0  0
  3  4  1  0  0  0  0
  3 25  1  0  0  0  0
  3 26  1  0  0  0  0
  4  5  1  0  0  0  0
  4  6  1  0  0  0  0
  4 27  1  0  0  0  0
  5 28  1  0  0  0  0
  5 29  1  0  0  0  0
  5 30  1  0  0  0  0
  6  7  1  0  0  0  0
  6 31  1  0  0  0  0
  6 32  1  0  0  0  0
  7  8  1  0  0  0  0
  7 20  1  0  0  0  0
  8  9  2  0  0  0  0
  8 10  1  0  0  0  0
 10 11  1  0  0  0  0
 10 12  1  0  0  0  0
 10 33  1  0  0  0  0
 11 34  1  0  0  0  0
 11 35  1  0  0  0  0
 11 36  1  0  0  0  0
 12 13  1  0  0  0  0
 12 37  1  0  0  0  0
 13 14  1  0  0  0  0
 13 38  1  0  0  0  0
 13 39  1  0  0  0  0
 14 15  1  0  0  0  0
 14 40  1  0  0  0  0
 14 41  1  0  0  0  0
 15 19  1  0  0  0  0
 15 16  1  0  0  0  0
 16 17  2  0  0  0  0
 16 42  1  0  0  0  0
 17 18  1  0  0  0  0
 17 43  1  0  0  0  0
 18 19  2  0  0  0  0
 18 44  1  0  0  0  0
 20 45  1  0  0  0  0
 20 46  1  0  0  0  0
M  END
> <s_m_source_file>
AV-unprocessed.smi

> <i_m_source_file_index>
3331

> <i_lp_mmshare_version>
43012

> <i_f3d_flags>
0

> <s_epik_input>
W0NIM11bQ0BASF0xW0NIMl1bQ0BASF0oW0NIM10pW0NIMl1OKFtDSDJdMSlDKD1PKVtDQEhdKFtDSDNdKVtOSF1bQ0gyXVtDSDJdbjJbY0hdW2NIXVtjSF1uMg==

> <s_epik_cmdline>
J2VwaWtfcHl0aG9uJywgJy1waCcsICc3LjAnLCAnLXRuJywgJzgnLCAnLW1hJywgJzIwMCcsICctbWV0YWxfYmluZGluZycsICctaW1hZScsICc8aW5maWxlLm1hZT4nLCAnLW9tYWUnLCAnPG91dGZpbGUubWFlPic=

> <r_lp_tautomer_probability>
1

> <r_epik_Ionization_Penalty>
0.767994

> <r_epik_Ionization_Penalty_Charging>
0

> <r_epik_Ionization_Penalty_Neutral>
0.767994

> <r_epik_State_Penalty>
0.795453

> <r_epik_Charging_Adjusted_Penalty>
0.795453

> <i_epik_Tot_Q>
0

> <i_epik_Tot_abs_Q>
0

> <r_epik_Metal_State_Penalty>
0.794784

> <b_epik_Metal_Only>
0

> <s_lp_Force_Field>
OPLS_2005

> <r_lp_Energy>
29.2756

> <b_lp_Chiralities_Consistent>
1

> <s_lp_Variant>
AV-unprocessed.smi:3331-9

> <Gold.Version>
5.8.1

> <Gold.Id.Protein>
6NUR|6NUR_protein|mol2

> <Gold.PLP.Fitness>
43.6232

> <Gold.PLP.PLP>
-40.6149

> <Gold.PLP.part.hbond>
-3.0000

> <Gold.PLP.part.metal>
0.0000

> <Gold.PLP.part.buried>
-2.7597

> <Gold.PLP.part.nonpolar>
-34.3084

> <Gold.PLP.part.repulsive>
0.0000

> <Gold.PLP.ligand.clash>
0.0000

> <Gold.PLP.ligand.torsion>
1.2202

> <Gold.PLP.Chemscore.Hbond>
1.8000

> <Gold.PLP.Chemscore.CHOScore>
0.0000

> <Gold.PLP.Chemscore.Metal>
0.0000

> <Gold.Chemscore.Hbonds>
donor molecule, donor type, donor heavy atom, donor atom, acceptor molecule, acceptor atom, score
      P1  H  6896  6907       L1    12  0.07
      P1  H  6931  6943       L1    19  0.23

> <Gold.PLP.Chemscore.Internal.Correction>
0.0487

> <Gold.Rescore>
     Score         DG    S(hbond)    S(metal)    S(lipo)     H(rot)  DE(clash)    DE(int)     intcor
     15.46     -17.00       1.53        0.00      91.27       1.66       0.19       1.35       ----

> <Gold.Chemscore.Fitness>
15.4628

> <Gold.Chemscore.DG>
-17.0025

> <Gold.Chemscore.ZeroCoef>
-5.4800

> <Gold.Chemscore.Hbond>
1.5288

> <Gold.Chemscore.Metal>
0.0000

> <Gold.Chemscore.Lipo>
91.2674

> <Gold.Chemscore.Internal_Hbond>
0.0000

> <Gold.Chemscore.DEClash>
0.1860

> <Gold.Chemscore.DEInternal>
1.3537

> <Gold.Chemscore.Rot>
1.6649

> <Gold.Chemscore.Internal.Correction>
   9.000000E+99

> <Gold.Chemscore.Hbonds>
donor molecule, donor type, donor heavy atom, donor atom, acceptor molecule, acceptor atom, score
      P1  H  6931  6943       L1    19  0.09

> <Gold.Chemscore.Hbond.Weighted>
-5.1063

> <Gold.Chemscore.Metal.Weighted>
-0.0000

> <Gold.Chemscore.Lipo.Weighted>
-10.6783

> <Gold.Chemscore.Internal_Hbond.Weighted>
0.0000

> <Gold.Chemscore.DEClash.Weighted>
0.1860

> <Gold.Chemscore.DEInternal.Weighted>
1.3537

> <Gold.Chemscore.Rot.Weighted>
4.2621

> <Gold.Chemscore.Internal.Correction.Weighted>
   9.000000E+99

> <Gold.Protein.RotatedTorsions>
[ 6907 6896 6895 6894 ] final   24.97 input  -60.11 | X-H torsion
[ 7974 7965 7964 7962 ] final  172.05 input  175.53 | X-H torsion
[ 8008 7997 7996 7995 ] final  -72.79 input   59.86 | X-H torsion
[ 10167 10162 10161 10158 ] final   27.43 input  -65.29 | X-H torsion
[ 10718 10713 10712 10709 ] final -143.47 input   66.30 | X-H torsion
[ 10763 10752 10751 10750 ] final  126.00 input  -60.55 | X-H torsion
[ 11005 11000 10999 10996 ] final  -46.17 input  -57.11 | X-H torsion

> <Gold.Protein.ActiveResidues>
 VAL166  LYS551  ARG553  GLY616  TRP617  ASP618  TYR619  PRO620  LYS621  CYS622 
 ASP623  PHE694  ASN695  SER759  ASP760  ASP761  ALA762  ILE779  LEU786  VAL792 
 PHE793  MET794  SER795  GLU796  ALA797  LYS798  CYS799  TRP800  GLU811  SER814 

> <Gold.Protein.RotatedAtoms>
  151.9655  135.0103  160.0549 H   0  0  0  0  0  0  0  0  0  0  0  0  # atno 6907 bound_to 6896
  152.1830  133.4716  159.4976 H   0  0  0  0  0  0  0  0  0  0  0  0  # atno 6908 bound_to 6896
  150.6921  134.1726  159.4261 H   0  0  0  0  0  0  0  0  0  0  0  0  # atno 6909 bound_to 6896
  144.7278  139.9441  143.6429 H   0  0  0  0  0  0  0  0  0  0  0  0  # atno 7974 bound_to 7965
  154.5195  140.0791  156.8144 H   0  0  0  0  0  0  0  0  0  0  0  0  # atno 8008 bound_to 7997
  155.3608  140.3418  155.4222 H   0  0  0  0  0  0  0  0  0  0  0  0  # atno 8009 bound_to 7997
  156.1665  140.1605  156.8510 H   0  0  0  0  0  0  0  0  0  0  0  0  # atno 8010 bound_to 7997
  140.4938  144.0424  150.6307 H   0  0  0  0  0  0  0  0  0  0  0  0  # atno 10167 bound_to 10162
  156.3583  130.7725  151.1888 H   0  0  0  0  0  0  0  0  0  0  0  0  # atno 10718 bound_to 10713
  153.6863  135.3306  155.3191 H   0  0  0  0  0  0  0  0  0  0  0  0  # atno 10763 bound_to 10752
  154.8452  135.4421  154.1554 H   0  0  0  0  0  0  0  0  0  0  0  0  # atno 10764 bound_to 10752
  153.2584  135.6988  153.7682 H   0  0  0  0  0  0  0  0  0  0  0  0  # atno 10765 bound_to 10752
  141.0562  133.6725  156.3117 H   0  0  0  0  0  0  0  0  0  0  0  0  # atno 11005 bound_to 11000
  146.0762  139.3750  143.0493 LP  0  0  0  0  0  0  0  0  0  0  0  0  # atno 17320 bound_to 7965
  145.7902  140.9817  143.1053 LP  0  0  0  0  0  0  0  0  0  0  0  0  # atno 17321 bound_to 7965
  140.3701  143.2859  152.0288 LP  0  0  0  0  0  0  0  0  0  0  0  0  # atno 17342 bound_to 10162
  139.4857  144.6237  151.7206 LP  0  0  0  0  0  0  0  0  0  0  0  0  # atno 17343 bound_to 10162
  157.7470  131.0407  150.4612 LP  0  0  0  0  0  0  0  0  0  0  0  0  # atno 17370 bound_to 10713
  156.4819  130.4075  149.6457 LP  0  0  0  0  0  0  0  0  0  0  0  0  # atno 17371 bound_to 10713
  140.5959  134.5603  157.5508 LP  0  0  0  0  0  0  0  0  0  0  0  0  # atno 17394 bound_to 11000
  139.9392  134.7818  156.0722 LP  0  0  0  0  0  0  0  0  0  0  0  0  # atno 17395 bound_to 11000

$$$$
