AV-unprocessed.smi:3157|AV-procd|sdf|12040|dock1
  -GOLD-   2272017463D 1   1.00000     0.00000
 Structure written by MMmdl.
 40 41  0  0  0  0  0  0  0  0  2 V2000
  150.8392  139.3547  158.5401 C   0  0  0  0  0  0  0  0  0  0  0  0
  151.4541  140.6174  157.9148 C   0  0  1  0  0  0  0  0  0  0  0  0
  152.7902  140.8372  158.5169 N   0  3  0  0  0  0  0  0  0  0  0  0
  152.7762  141.4486  159.8619 C   0  0  0  0  0  0  0  0  0  0  0  0
  152.8049  142.9824  159.7765 C   0  0  0  0  0  0  0  0  0  0  0  0
  152.1162  143.6706  160.9581 C   0  0  0  0  0  0  0  0  0  0  0  0
  151.7780  145.0828  160.4644 C   0  0  0  0  0  0  0  0  0  0  0  0
  151.7944  145.0196  158.9297 C   0  0  0  0  0  0  0  0  0  0  0  0
  152.0591  143.5556  158.5679 C   0  0  0  0  0  0  0  0  0  0  0  0
  151.5628  140.5290  156.3687 C   0  0  1  0  0  0  0  0  0  0  0  0
  152.0841  139.1688  155.8674 C   0  0  0  0  0  0  0  0  0  0  0  0
  150.2857  140.8333  155.7323 N   0  0  0  0  0  0  0  0  0  0  0  0
  149.1257  141.3194  156.3032 C   0  0  0  0  0  0  0  0  0  0  0  0
  148.2123  141.4783  155.3010 C   0  0  0  0  0  0  0  0  0  0  0  0
  148.9143  141.0651  154.1351 C   0  0  0  0  0  0  0  0  0  0  0  0
  150.1566  140.6907  154.3946 N   0  0  0  0  0  0  0  0  0  0  0  0
  149.8052  139.2114  158.2270 H   0  0  0  0  0  0  0  0  0  0  0  0
  150.8337  139.4214  159.6287 H   0  0  0  0  0  0  0  0  0  0  0  0
  151.4002  138.4607  158.2652 H   0  0  0  0  0  0  0  0  0  0  0  0
  150.8054  141.4566  158.1727 H   0  0  0  0  0  0  0  0  0  0  0  0
  153.2626  139.9470  158.5820 H   0  0  0  0  0  0  0  0  0  0  0  0
  151.8936  141.1214  160.4125 H   0  0  0  0  0  0  0  0  0  0  0  0
  153.6464  141.0915  160.4140 H   0  0  0  0  0  0  0  0  0  0  0  0
  153.8411  143.3243  159.7435 H   0  0  0  0  0  0  0  0  0  0  0  0
  151.1924  143.1453  161.2064 H   0  0  0  0  0  0  0  0  0  0  0  0
  152.7375  143.6817  161.8545 H   0  0  0  0  0  0  0  0  0  0  0  0
  150.8102  145.4106  160.8456 H   0  0  0  0  0  0  0  0  0  0  0  0
  152.5241  145.7974  160.8140 H   0  0  0  0  0  0  0  0  0  0  0  0
  150.8619  145.3791  158.4931 H   0  0  0  0  0  0  0  0  0  0  0  0
  152.5984  145.6488  158.5456 H   0  0  0  0  0  0  0  0  0  0  0  0
  152.6184  143.4511  157.6376 H   0  0  0  0  0  0  0  0  0  0  0  0
  151.1064  143.0399  158.4400 H   0  0  0  0  0  0  0  0  0  0  0  0
  152.2789  141.2838  156.0377 H   0  0  0  0  0  0  0  0  0  0  0  0
  153.1149  138.9947  156.1747 H   0  0  0  0  0  0  0  0  0  0  0  0
  152.0673  139.1231  154.7778 H   0  0  0  0  0  0  0  0  0  0  0  0
  151.4799  138.3427  156.2436 H   0  0  0  0  0  0  0  0  0  0  0  0
  149.0468  141.5126  157.3628 H   0  0  0  0  0  0  0  0  0  0  0  0
  147.1972  141.8371  155.3869 H   0  0  0  0  0  0  0  0  0  0  0  0
  148.5633  141.0343  153.1142 H   0  0  0  0  0  0  0  0  0  0  0  0
  153.3185  141.4352  157.8970 H   0  0  0  0  0  0  0  0  0  0  0  0
  1  2  1  0  0  0  0
  1 17  1  0  0  0  0
  1 18  1  0  0  0  0
  1 19  1  0  0  0  0
  2  3  1  0  0  0  0
  2 10  1  0  0  0  0
  2 20  1  0  0  0  0
  3  4  1  0  0  0  0
  3 21  1  0  0  0  0
  3 40  1  0  0  0  0
  4  5  1  0  0  0  0
  4 22  1  0  0  0  0
  4 23  1  0  0  0  0
  5  9  1  0  0  0  0
  5  6  1  0  0  0  0
  5 24  1  0  0  0  0
  6  7  1  0  0  0  0
  6 25  1  0  0  0  0
  6 26  1  0  0  0  0
  7  8  1  0  0  0  0
  7 27  1  0  0  0  0
  7 28  1  0  0  0  0
  8  9  1  0  0  0  0
  8 29  1  0  0  0  0
  8 30  1  0  0  0  0
  9 31  1  0  0  0  0
  9 32  1  0  0  0  0
 10 11  1  0  0  0  0
 10 12  1  0  0  0  0
 10 33  1  0  0  0  0
 11 34  1  0  0  0  0
 11 35  1  0  0  0  0
 11 36  1  0  0  0  0
 12 16  1  0  0  0  0
 12 13  1  0  0  0  0
 13 14  2  0  0  0  0
 13 37  1  0  0  0  0
 14 15  1  0  0  0  0
 14 38  1  0  0  0  0
 15 16  2  0  0  0  0
 15 39  1  0  0  0  0
M  CHG  1   3   1
M  END
> <s_m_source_file>
AV-unprocessed.smi

> <i_m_source_file_index>
3157

> <i_lp_mmshare_version>
43012

> <i_f3d_flags>
0

> <s_epik_input>
bjFbY0hdW2NIXVtjSF1uMVtDQEBIXShbQ0gzXSlbQ0BIXShbQ0gzXSlbTkhdW0NIMl1bQ0hdMltDSDJdW0NIMl1bQ0gyXVtDSDJdMg==

> <s_epik_cmdline>
J2VwaWtfcHl0aG9uJywgJy1waCcsICc3LjAnLCAnLXRuJywgJzgnLCAnLW1hJywgJzIwMCcsICctbWV0YWxfYmluZGluZycsICctaW1hZScsICc8aW5maWxlLm1hZT4nLCAnLW9tYWUnLCAnPG91dGZpbGUubWFlPic=

> <r_lp_tautomer_probability>
1

> <r_epik_Ionization_Penalty>
0.00132192

> <r_epik_Ionization_Penalty_Charging>
0.0013111

> <r_epik_Ionization_Penalty_Neutral>
1.08112e-05

> <r_epik_State_Penalty>
-0

> <r_epik_Charging_Adjusted_Penalty>
0.0013111

> <i_epik_Tot_Q>
1

> <i_epik_Tot_abs_Q>
1

> <r_epik_Metal_State_Penalty>
-0

> <b_epik_Metal_Only>
0

> <s_lp_Force_Field>
OPLS_2005

> <r_lp_Energy>
31.1459

> <b_lp_Chiralities_Consistent>
1

> <s_lp_Variant>
AV-unprocessed.smi:3157-4

> <Gold.Version>
5.8.1

> <Gold.Id.Protein>
6NUR|6NUR_protein|mol2

> <Gold.PLP.Fitness>
44.7924

> <Gold.PLP.PLP>
-41.7723

> <Gold.PLP.part.hbond>
-1.0000

> <Gold.PLP.part.metal>
0.0000

> <Gold.PLP.part.buried>
-3.2637

> <Gold.PLP.part.nonpolar>
-37.4658

> <Gold.PLP.part.repulsive>
0.2255

> <Gold.PLP.ligand.clash>
0.0000

> <Gold.PLP.ligand.torsion>
1.2708

> <Gold.PLP.Chemscore.Hbond>
0.8000

> <Gold.PLP.Chemscore.CHOScore>
0.9944

> <Gold.PLP.Chemscore.Metal>
0.0000

> <Gold.Chemscore.Hbonds>
donor molecule, donor type, donor heavy atom, donor atom, acceptor molecule, acceptor atom, score
      P1  H  7989  7998       L1    16  0.78
      L1  C    15    39       P1  7957  1.00

> <Gold.PLP.Chemscore.Internal.Correction>
0.1785

> <Gold.Rescore>
     Score         DG    S(hbond)    S(metal)    S(lipo)     H(rot)  DE(clash)    DE(int)     intcor
     16.65     -17.63       0.90        0.00     111.04       1.50       0.05       0.94       ----

> <Gold.Chemscore.Fitness>
16.6462

> <Gold.Chemscore.DG>
-17.6319

> <Gold.Chemscore.ZeroCoef>
-5.4800

> <Gold.Chemscore.Hbond>
0.9018

> <Gold.Chemscore.Metal>
0.0000

> <Gold.Chemscore.Lipo>
111.0412

> <Gold.Chemscore.Internal_Hbond>
0.0000

> <Gold.Chemscore.DEClash>
0.0462

> <Gold.Chemscore.DEInternal>
0.9394

> <Gold.Chemscore.Rot>
1.5047

> <Gold.Chemscore.Internal.Correction>
   9.000000E+99

> <Gold.Chemscore.Hbonds>
donor molecule, donor type, donor heavy atom, donor atom, acceptor molecule, acceptor atom, score
      P1  H  7989  7998       L1    16  0.70

> <Gold.Chemscore.Hbond.Weighted>
-3.0120

> <Gold.Chemscore.Metal.Weighted>
-0.0000

> <Gold.Chemscore.Lipo.Weighted>
-12.9918

> <Gold.Chemscore.Internal_Hbond.Weighted>
0.0000

> <Gold.Chemscore.DEClash.Weighted>
0.0462

> <Gold.Chemscore.DEInternal.Weighted>
0.9394

> <Gold.Chemscore.Rot.Weighted>
3.8520

> <Gold.Chemscore.Internal.Correction.Weighted>
   9.000000E+99

> <Gold.Protein.RotatedTorsions>
[ 6907 6896 6895 6894 ] final -102.95 input  -60.11 | X-H torsion
[ 7974 7965 7964 7962 ] final  163.95 input  175.53 | X-H torsion
[ 8008 7997 7996 7995 ] final -150.08 input   59.86 | X-H torsion
[ 10167 10162 10161 10158 ] final   48.20 input  -65.29 | X-H torsion
[ 10718 10713 10712 10709 ] final   28.47 input   66.30 | X-H torsion
[ 10763 10752 10751 10750 ] final  165.67 input  -60.55 | X-H torsion
[ 11005 11000 10999 10996 ] final -123.84 input  -57.11 | X-H torsion

> <Gold.Protein.ActiveResidues>
 VAL166  LYS551  ARG553  GLY616  TRP617  ASP618  TYR619  PRO620  LYS621  CYS622 
 ASP623  PHE694  ASN695  SER759  ASP760  ASP761  ALA762  ILE779  LEU786  VAL792 
 PHE793  MET794  SER795  GLU796  ALA797  LYS798  CYS799  TRP800  GLU811  SER814 

> <Gold.Protein.RotatedAtoms>
  150.7218  134.0504  159.3795 H   0  0  0  0  0  0  0  0  0  0  0  0  # atno 6907 bound_to 6896
  151.8480  135.0565  160.0465 H   0  0  0  0  0  0  0  0  0  0  0  0  # atno 6908 bound_to 6896
  152.2812  133.5436  159.5535 H   0  0  0  0  0  0  0  0  0  0  0  0  # atno 6909 bound_to 6896
  144.7567  139.8255  143.6347 H   0  0  0  0  0  0  0  0  0  0  0  0  # atno 7974 bound_to 7965
  155.6179  140.0678  157.2687 H   0  0  0  0  0  0  0  0  0  0  0  0  # atno 8008 bound_to 7997
  154.4236  140.1789  156.1389 H   0  0  0  0  0  0  0  0  0  0  0  0  # atno 8009 bound_to 7997
  156.0033  140.3334  155.6870 H   0  0  0  0  0  0  0  0  0  0  0  0  # atno 8010 bound_to 7997
  140.2958  144.2993  150.6230 H   0  0  0  0  0  0  0  0  0  0  0  0  # atno 10167 bound_to 10162
  157.2338  130.7036  149.6326 H   0  0  0  0  0  0  0  0  0  0  0  0  # atno 10718 bound_to 10713
  154.3274  135.2755  155.2489 H   0  0  0  0  0  0  0  0  0  0  0  0  # atno 10763 bound_to 10752
  154.4816  135.5857  153.6397 H   0  0  0  0  0  0  0  0  0  0  0  0  # atno 10764 bound_to 10752
  152.9870  135.6112  154.3464 H   0  0  0  0  0  0  0  0  0  0  0  0  # atno 10765 bound_to 10752
  140.9887  134.0569  157.3680 H   0  0  0  0  0  0  0  0  0  0  0  0  # atno 11005 bound_to 11000
  146.1585  139.4690  143.0004 LP  0  0  0  0  0  0  0  0  0  0  0  0  # atno 17320 bound_to 7965
  145.6756  141.0205  143.1634 LP  0  0  0  0  0  0  0  0  0  0  0  0  # atno 17321 bound_to 7965
  140.5694  143.2182  151.7626 LP  0  0  0  0  0  0  0  0  0  0  0  0  # atno 17342 bound_to 10162
  139.4927  144.4238  151.9948 LP  0  0  0  0  0  0  0  0  0  0  0  0  # atno 17343 bound_to 10162
  155.9674  130.4480  150.5602 LP  0  0  0  0  0  0  0  0  0  0  0  0  # atno 17370 bound_to 10713
  157.3450  131.0723  151.1758 LP  0  0  0  0  0  0  0  0  0  0  0  0  # atno 17371 bound_to 10713
  139.8982  135.0154  156.7139 LP  0  0  0  0  0  0  0  0  0  0  0  0  # atno 17394 bound_to 11000
  140.7073  133.9254  155.8062 LP  0  0  0  0  0  0  0  0  0  0  0  0  # atno 17395 bound_to 11000

$$$$
