#       Name:                AV-unprocessed.smi:634
#       Creating user name   scv26
#       Creation time:       Fri Mar 27 00:06:03 2020


#       File generated by GOLD software.
#

@<TRIPOS>MOLECULE
AV-unprocessed.smi:634
    38    39     1
SMALL
NO_CHARGES


@<TRIPOS>ATOM
      1 ****        -5.4318  -2.5272  -0.4960 C.3            1 S1                 0.0000
      2 ****        -4.0955  -2.2693   0.1121 C.2            1 S1                 0.0000
      3 ****        -2.8360  -2.2013  -0.4122 C.2            1 S1                 0.0000
      4 ****        -2.0271  -1.9159   0.7214 C.2            1 S1                 0.0000
      5 ****        -0.6936  -1.7645   0.7192 N.pl3          1 S1                -1.0000
      6 ****        -0.1447  -0.5661   0.4140 C.2            1 S1                 0.0000
      7 ****        -0.7590   0.4650   0.1324 O.2            1 S1                 0.0000
      8 ****         1.1992  -0.5715   0.4350 N.am           1 S1                 0.0000
      9 ****         2.1307   0.5269   0.1432 C.3            1 S1                 0.0000
     10 ****         3.5481  -0.0762   0.2013 C.3            1 S1                 0.0000
     11 ****         1.8926   1.1231  -1.2855 C.3            1 S1                 0.0000
     12 ****         1.4385   2.5872  -1.2076 C.3            1 S1                 0.0000
     13 ****         2.1936   3.2312   0.3173 S.o2           1 S1                 0.0000
     14 ****         3.6230   3.4755   0.0696 O.2            1 S1                 0.0000
     15 ****         1.3366   4.2639   0.9193 O.2            1 S1                 0.0000
     16 ****         2.0131   1.6510   1.2099 C.3            1 S1                 0.0000
     17 ****        -2.7313  -1.8356   1.8381 N.2            1 S1                 0.0000
     18 ****        -4.0599  -2.0550   1.4549 O.3            1 S1                 0.0000
     19 ****        -5.5160  -3.5667  -0.8130 H              1 S1                 0.0000
     20 ****        -5.5862  -1.8929  -1.3688 H              1 S1                 0.0000
     21 ****        -6.2337  -2.3242   0.2142 H              1 S1                 0.0000
     22 ****        -2.5392  -2.3302  -1.4421 H              1 S1                 0.0000
     23 ****         1.6288  -1.4522   0.6777 H              1 S1                 0.0000
     24 ****         4.3113   0.6811   0.0182 H              1 S1                 0.0000
     25 ****         3.6767  -0.8608  -0.5455 H              1 S1                 0.0000
     26 ****         3.7541  -0.5170   1.1775 H              1 S1                 0.0000
     27 ****         2.8256   1.1032  -1.8505 H              1 S1                 0.0000
     28 ****         1.1913   0.5330  -1.8767 H              1 S1                 0.0000
     29 ****         1.7434   3.1836  -2.0670 H              1 S1                 0.0000
     30 ****         0.3557   2.6500  -1.0988 H              1 S1                 0.0000
     31 ****         1.0323   1.6659   1.6853 H              1 S1                 0.0000
     32 ****         2.7593   1.5865   2.0019 H              1 S1                 0.0000
     33 ****        -0.1037  -2.5401   0.9439 LP             1 S1                 0.0000
     34 ****        -1.7589   0.4625   0.1156 LP             1 S1                 0.0000
     35 ****        -0.2574   1.3038  -0.0791 LP             1 S1                 0.0000
     36 ****        -2.3878  -1.6563   2.7600 LP             1 S1                 0.0000
     37 ****        -4.4205  -2.8557   1.9334 LP             1 S1                 0.0000
     38 ****        -4.6128  -1.2535   1.6828 LP             1 S1                 0.0000
@<TRIPOS>BOND
    1    1    2 1     
    2    1   19 1     
    3    1   20 1     
    4    1   21 1     
    5    2   18 1     
    6    2    3 2     
    7    3    4 1     
    8    3   22 1     
    9    4    5 1     
   10    4   17 2     
   11    5    6 1     
   12    6    7 2     
   13    6    8 am    
   14    8    9 1     
   15    8   23 1     
   16    9   16 1     
   17    9   10 1     
   18    9   11 1     
   19   10   24 1     
   20   10   25 1     
   21   10   26 1     
   22   11   12 1     
   23   11   27 1     
   24   11   28 1     
   25   12   13 1     
   26   12   29 1     
   27   12   30 1     
   28   13   14 2     
   29   13   15 2     
   30   13   16 1     
   31   16   31 1     
   32   16   32 1     
   33   17   18 1     
   34    5   33 1     
   35    7   34 1     
   36    7   35 1     
   37   17   36 1     
   38   18   37 1     
   39   18   38 1     
@<TRIPOS>SUBSTRUCTURE
      1 S1             1
@<TRIPOS>SET
LONE_PAIRS      STATIC     ATOMS    <user>   **** ""
8 33 34 35 14 15 36 37 38
DONOR_HYDROGENS      STATIC     ATOMS    <user>   **** ""
1 23
ATOM$BLUE        STATIC     ATOMS    COLORGROUP SYSTEM
8 33 34 35 14 15 36 37 38
ATOM$RED        STATIC     ATOMS    COLORGROUP SYSTEM
1 23
