AV-unprocessed.smi:2252|AV-procd|sdf|9114|dock5
  -GOLD-   2272012323D 1   1.00000     0.00000
 Structure written by MMmdl.
 44 46  0  0  0  0  0  0  0  0  1 V2000
  152.8864  142.3544  160.4832 C   0  0  0  0  0  0  0  0  0  0  0  0
  152.0421  143.3145  159.7979 N   0  0  0  0  0  0  0  0  0  0  0  0
  151.8267  144.6321  160.1798 C   0  0  0  0  0  0  0  0  0  0  0  0
  150.9745  145.1773  159.2500 C   0  0  0  0  0  0  0  0  0  0  0  0
  150.6566  144.2169  158.2956 N   0  0  0  0  0  0  0  0  0  0  0  0
  151.3149  143.1272  158.6794 C   0  0  0  0  0  0  0  0  0  0  0  0
  151.2885  141.8323  157.9295 C   0  0  0  0  0  0  0  0  0  0  0  0
  150.4311  141.9104  156.6558 C   0  0  0  0  0  0  0  0  0  0  0  0
  150.1663  140.5850  156.1109 N   0  0  0  0  0  0  0  0  0  0  0  0
  149.6763  140.3431  154.8849 C   0  0  0  0  0  0  0  0  0  0  0  0
  149.3882  141.2360  154.0869 O   0  0  0  0  0  0  0  0  0  0  0  0
  149.5157  138.8647  154.4866 C   0  0  1  0  0  0  0  0  0  0  0  0
  150.8954  138.2594  154.1450 C   0  0  0  0  0  0  0  0  0  0  0  0
  151.7421  137.6058  155.2190 C   0  0  0  0  0  0  0  0  0  0  0  0
  152.1730  138.9177  154.6215 C   0  0  0  0  0  0  0  0  0  0  0  0
  148.8332  138.0619  155.5320 N   0  0  0  0  0  0  0  0  0  0  0  0
  147.4708  138.4830  155.8563 C   0  0  0  0  0  0  0  0  0  0  0  0
  146.9037  137.3114  156.6590 C   0  0  0  0  0  0  0  0  0  0  0  0
  147.7273  136.1041  156.2215 C   0  0  0  0  0  0  0  0  0  0  0  0
  148.6935  136.6538  155.1725 C   0  0  0  0  0  0  0  0  0  0  0  0
  153.4468  142.8461  161.2790 H   0  0  0  0  0  0  0  0  0  0  0  0
  153.5920  141.9102  159.7805 H   0  0  0  0  0  0  0  0  0  0  0  0
  152.2701  141.5678  160.9190 H   0  0  0  0  0  0  0  0  0  0  0  0
  152.2881  145.0629  161.0563 H   0  0  0  0  0  0  0  0  0  0  0  0
  150.5714  146.1778  159.1935 H   0  0  0  0  0  0  0  0  0  0  0  0
  152.3093  141.5334  157.6896 H   0  0  0  0  0  0  0  0  0  0  0  0
  150.8964  141.0585  158.5907 H   0  0  0  0  0  0  0  0  0  0  0  0
  149.4754  142.3856  156.8783 H   0  0  0  0  0  0  0  0  0  0  0  0
  150.9183  142.5314  155.9021 H   0  0  0  0  0  0  0  0  0  0  0  0
  150.3834  139.7951  156.7012 H   0  0  0  0  0  0  0  0  0  0  0  0
  148.9005  138.8444  153.5844 H   0  0  0  0  0  0  0  0  0  0  0  0
  150.9355  137.7754  153.1703 H   0  0  0  0  0  0  0  0  0  0  0  0
  151.3718  137.6213  156.2423 H   0  0  0  0  0  0  0  0  0  0  0  0
  152.3043  136.7170  154.9408 H   0  0  0  0  0  0  0  0  0  0  0  0
  153.0233  138.9076  153.9428 H   0  0  0  0  0  0  0  0  0  0  0  0
  152.0842  139.8069  155.2425 H   0  0  0  0  0  0  0  0  0  0  0  0
  147.4413  139.4141  156.4234 H   0  0  0  0  0  0  0  0  0  0  0  0
  146.8938  138.6215  154.9399 H   0  0  0  0  0  0  0  0  0  0  0  0
  147.0303  137.4827  157.7289 H   0  0  0  0  0  0  0  0  0  0  0  0
  145.8387  137.1756  156.4685 H   0  0  0  0  0  0  0  0  0  0  0  0
  148.2786  135.7004  157.0717 H   0  0  0  0  0  0  0  0  0  0  0  0
  147.1071  135.3038  155.8168 H   0  0  0  0  0  0  0  0  0  0  0  0
  148.2567  136.5578  154.1765 H   0  0  0  0  0  0  0  0  0  0  0  0
  149.6477  136.1261  155.1792 H   0  0  0  0  0  0  0  0  0  0  0  0
  1  2  1  0  0  0  0
  1 21  1  0  0  0  0
  1 22  1  0  0  0  0
  1 23  1  0  0  0  0
  2  6  1  0  0  0  0
  2  3  1  0  0  0  0
  3  4  2  0  0  0  0
  3 24  1  0  0  0  0
  4  5  1  0  0  0  0
  4 25  1  0  0  0  0
  5  6  2  0  0  0  0
  6  7  1  0  0  0  0
  7  8  1  0  0  0  0
  7 26  1  0  0  0  0
  7 27  1  0  0  0  0
  8  9  1  0  0  0  0
  8 28  1  0  0  0  0
  8 29  1  0  0  0  0
  9 10  1  0  0  0  0
  9 30  1  0  0  0  0
 10 11  2  0  0  0  0
 10 12  1  0  0  0  0
 12 13  1  0  0  0  0
 12 16  1  0  0  0  0
 12 31  1  0  0  0  0
 13 15  1  0  0  0  0
 13 14  1  0  0  0  0
 13 32  1  0  0  0  0
 14 15  1  0  0  0  0
 14 33  1  0  0  0  0
 14 34  1  0  0  0  0
 15 35  1  0  0  0  0
 15 36  1  0  0  0  0
 16 20  1  0  0  0  0
 16 17  1  0  0  0  0
 17 18  1  0  0  0  0
 17 37  1  0  0  0  0
 17 38  1  0  0  0  0
 18 19  1  0  0  0  0
 18 39  1  0  0  0  0
 18 40  1  0  0  0  0
 19 20  1  0  0  0  0
 19 41  1  0  0  0  0
 19 42  1  0  0  0  0
 20 43  1  0  0  0  0
 20 44  1  0  0  0  0
M  END
> <s_m_source_file>
AV-unprocessed.smi

> <i_m_source_file_index>
2252

> <i_lp_mmshare_version>
43012

> <i_f3d_flags>
0

> <s_epik_input>
W0NIM11uMVtjSF1bY0hdbmMxW0NIMl1bQ0gyXVtOSF1DKD1PKVtDQEhdKFtDSF0yW0NIMl1bQ0gyXTIpTjNbQ0gyXVtDSDJdW0NIMl1bQ0gyXTM=

> <s_epik_cmdline>
J2VwaWtfcHl0aG9uJywgJy1waCcsICc3LjAnLCAnLXRuJywgJzgnLCAnLW1hJywgJzIwMCcsICctbWV0YWxfYmluZGluZycsICctaW1hZScsICc8aW5maWxlLm1hZT4nLCAnLW9tYWUnLCAnPG91dGZpbGUubWFlPic=

> <r_epik_Ionization_Penalty>
3.7689

> <r_epik_Ionization_Penalty_Charging>
1.29411

> <r_epik_Ionization_Penalty_Neutral>
2.4748

> <r_epik_State_Penalty>
3.85943

> <r_epik_Charging_Adjusted_Penalty>
5.15353

> <i_epik_Tot_Q>
0

> <i_epik_Tot_abs_Q>
0

> <r_epik_Metal_State_Penalty>
2.88358

> <b_epik_Metal_Only>
1

> <s_lp_Force_Field>
OPLS_2005

> <r_lp_Energy>
29.995

> <b_lp_Chiralities_Consistent>
1

> <s_lp_Variant>
AV-unprocessed.smi:2252-12

> <Gold.Version>
5.8.1

> <Gold.Id.Protein>
6NUR|6NUR_protein|mol2

> <Gold.PLP.Fitness>
40.4678

> <Gold.PLP.PLP>
-39.6028

> <Gold.PLP.part.hbond>
-2.0000

> <Gold.PLP.part.metal>
0.0000

> <Gold.PLP.part.buried>
-4.8941

> <Gold.PLP.part.nonpolar>
-33.8514

> <Gold.PLP.part.repulsive>
0.8545

> <Gold.PLP.ligand.clash>
0.0000

> <Gold.PLP.ligand.torsion>
1.4342

> <Gold.PLP.Chemscore.Hbond>
0.8503

> <Gold.PLP.Chemscore.CHOScore>
0.0000

> <Gold.PLP.Chemscore.Metal>
0.0000

> <Gold.Chemscore.Hbonds>
donor molecule, donor type, donor heavy atom, donor atom, acceptor molecule, acceptor atom, score
      P1  H  8011  8017       L1    11  0.54

> <Gold.PLP.Chemscore.Internal.Correction>
1.1824

> <Gold.Rescore>
     Score         DG    S(hbond)    S(metal)    S(lipo)     H(rot)  DE(clash)    DE(int)     intcor
     10.22     -12.71       0.72        0.00      81.89       1.86       0.07       2.42       ----

> <Gold.Chemscore.Fitness>
10.2236

> <Gold.Chemscore.DG>
-12.7087

> <Gold.Chemscore.ZeroCoef>
-5.4800

> <Gold.Chemscore.Hbond>
0.7227

> <Gold.Chemscore.Metal>
0.0000

> <Gold.Chemscore.Lipo>
81.8907

> <Gold.Chemscore.Internal_Hbond>
0.0000

> <Gold.Chemscore.DEClash>
0.0659

> <Gold.Chemscore.DEInternal>
2.4192

> <Gold.Chemscore.Rot>
1.8619

> <Gold.Chemscore.Internal.Correction>
   9.000000E+99

> <Gold.Chemscore.Hbonds>
donor molecule, donor type, donor heavy atom, donor atom, acceptor molecule, acceptor atom, score
      P1  H  8011  8017       L1    11  0.53

> <Gold.Chemscore.Hbond.Weighted>
-2.4140

> <Gold.Chemscore.Metal.Weighted>
-0.0000

> <Gold.Chemscore.Lipo.Weighted>
-9.5812

> <Gold.Chemscore.Internal_Hbond.Weighted>
0.0000

> <Gold.Chemscore.DEClash.Weighted>
0.0659

> <Gold.Chemscore.DEInternal.Weighted>
2.4192

> <Gold.Chemscore.Rot.Weighted>
4.7665

> <Gold.Chemscore.Internal.Correction.Weighted>
   9.000000E+99

> <Gold.Protein.RotatedTorsions>
[ 6907 6896 6895 6894 ] final -138.55 input  -60.11 | X-H torsion
[ 7974 7965 7964 7962 ] final   44.11 input  175.53 | X-H torsion
[ 8008 7997 7996 7995 ] final  157.55 input   59.86 | X-H torsion
[ 10167 10162 10161 10158 ] final   17.97 input  -65.29 | X-H torsion
[ 10718 10713 10712 10709 ] final -142.20 input   66.30 | X-H torsion
[ 10763 10752 10751 10750 ] final  -69.00 input  -60.55 | X-H torsion
[ 11005 11000 10999 10996 ] final   74.63 input  -57.11 | X-H torsion

> <Gold.Protein.ActiveResidues>
 VAL166  LYS551  ARG553  GLY616  TRP617  ASP618  TYR619  PRO620  LYS621  CYS622 
 ASP623  PHE694  ASN695  SER759  ASP760  ASP761  ALA762  ILE779  LEU786  VAL792 
 PHE793  MET794  SER795  GLU796  ALA797  LYS798  CYS799  TRP800  GLU811  SER814 

> <Gold.Protein.RotatedAtoms>
  151.0364  133.5744  159.2655 H   0  0  0  0  0  0  0  0  0  0  0  0  # atno 6907 bound_to 6896
  151.2807  135.0712  159.9178 H   0  0  0  0  0  0  0  0  0  0  0  0  # atno 6908 bound_to 6896
  152.5355  134.0079  159.7979 H   0  0  0  0  0  0  0  0  0  0  0  0  # atno 6909 bound_to 6896
  146.0597  139.5111  142.9666 H   0  0  0  0  0  0  0  0  0  0  0  0  # atno 7974 bound_to 7965
  156.2357  140.1882  156.7125 H   0  0  0  0  0  0  0  0  0  0  0  0  # atno 8008 bound_to 7997
  154.6102  140.0623  156.9511 H   0  0  0  0  0  0  0  0  0  0  0  0  # atno 8009 bound_to 7997
  155.2028  140.3293  155.4343 H   0  0  0  0  0  0  0  0  0  0  0  0  # atno 8010 bound_to 7997
  140.5687  143.9202  150.6696 H   0  0  0  0  0  0  0  0  0  0  0  0  # atno 10167 bound_to 10162
  156.3431  130.7648  151.1787 H   0  0  0  0  0  0  0  0  0  0  0  0  # atno 10718 bound_to 10713
  154.3972  135.6039  153.5876 H   0  0  0  0  0  0  0  0  0  0  0  0  # atno 10763 bound_to 10752
  152.9788  135.5898  154.4228 H   0  0  0  0  0  0  0  0  0  0  0  0  # atno 10764 bound_to 10752
  154.4021  135.2843  155.2068 H   0  0  0  0  0  0  0  0  0  0  0  0  # atno 10765 bound_to 10752
  139.9382  134.7449  156.1171 H   0  0  0  0  0  0  0  0  0  0  0  0  # atno 11005 bound_to 11000
  145.6582  141.0247  143.1723 LP  0  0  0  0  0  0  0  0  0  0  0  0  # atno 17320 bound_to 7965
  144.7168  139.8170  143.7396 LP  0  0  0  0  0  0  0  0  0  0  0  0  # atno 17321 bound_to 7965
  140.2672  143.3482  152.1271 LP  0  0  0  0  0  0  0  0  0  0  0  0  # atno 17342 bound_to 10162
  139.5106  144.6887  151.5818 LP  0  0  0  0  0  0  0  0  0  0  0  0  # atno 17343 bound_to 10162
  157.7450  131.0449  150.4816 LP  0  0  0  0  0  0  0  0  0  0  0  0  # atno 17370 bound_to 10713
  156.4999  130.4114  149.6359 LP  0  0  0  0  0  0  0  0  0  0  0  0  # atno 17371 bound_to 10713
  141.1005  133.6679  156.2743 LP  0  0  0  0  0  0  0  0  0  0  0  0  # atno 17394 bound_to 11000
  140.6021  134.5545  157.5519 LP  0  0  0  0  0  0  0  0  0  0  0  0  # atno 17395 bound_to 11000

$$$$
