AV-unprocessed.smi:1032|AV-procd|sdf|4487|dock6
  -GOLD-   22720 2473D 1   1.00000     0.00000
 Structure written by MMmdl.
 47 48  0  0  0  0  0  0  0  0  3 V2000
  151.7002  144.6711  159.4994 C   0  0  0  0  0  0  0  0  0  0  0  0
  151.0794  143.4460  158.8141 C   0  0  2  0  0  0  0  0  0  0  0  0
  151.5683  143.2957  157.3640 C   0  0  0  0  0  0  0  0  0  0  0  0
  150.9178  142.0829  156.6774 C   0  0  0  0  0  0  0  0  0  0  0  0
  149.4355  142.1751  156.7161 N   0  3  1  0  0  0  0  0  0  0  0  0
  148.7806  141.0889  155.9420 C   0  0  0  0  0  0  0  0  0  0  0  0
  149.1755  141.1071  154.4511 C   0  0  1  0  0  0  0  0  0  0  0  0
  150.0884  140.0466  154.2441 O   0  0  0  0  0  0  0  0  0  0  0  0
  147.9529  140.8912  153.5368 C   0  0  0  0  0  0  0  0  0  0  0  0
  147.7314  139.4761  153.2565 N   0  0  0  0  0  0  0  0  0  0  0  0
  146.7694  138.7255  153.8117 C   0  0  0  0  0  0  0  0  0  0  0  0
  145.9366  139.1686  154.6020 O   0  0  0  0  0  0  0  0  0  0  0  0
  146.8341  137.4535  153.3818 N   0  0  0  0  0  0  0  0  0  0  0  0
  146.0330  136.3422  153.7636 C   0  0  0  0  0  0  0  0  0  0  0  0
  145.9528  135.2578  152.8617 C   0  0  0  0  0  0  0  0  0  0  0  0
  145.1859  134.1246  153.2009 C   0  0  0  0  0  0  0  0  0  0  0  0
  144.5401  134.0802  154.3856 N   0  3  0  0  0  0  0  0  0  0  0  0
  144.5963  135.0851  155.2856 C   0  0  0  0  0  0  0  0  0  0  0  0
  145.3490  136.2431  155.0026 C   0  0  0  0  0  0  0  0  0  0  0  0
  148.9331  142.2867  158.1114 C   0  0  0  0  0  0  0  0  0  0  0  0
  149.5429  143.5040  158.8258 C   0  0  0  0  0  0  0  0  0  0  0  0
  151.4251  145.5943  158.9887 H   0  0  0  0  0  0  0  0  0  0  0  0
  152.7886  144.6067  159.5076 H   0  0  0  0  0  0  0  0  0  0  0  0
  151.3683  144.7517  160.5350 H   0  0  0  0  0  0  0  0  0  0  0  0
  151.3908  142.5612  159.3717 H   0  0  0  0  0  0  0  0  0  0  0  0
  151.3370  144.2002  156.7993 H   0  0  0  0  0  0  0  0  0  0  0  0
  152.6536  143.1892  157.3447 H   0  0  0  0  0  0  0  0  0  0  0  0
  151.2575  142.0371  155.6420 H   0  0  0  0  0  0  0  0  0  0  0  0
  151.2393  141.1580  157.1591 H   0  0  0  0  0  0  0  0  0  0  0  0
  149.0497  140.1172  156.3600 H   0  0  0  0  0  0  0  0  0  0  0  0
  147.6988  141.1752  156.0559 H   0  0  0  0  0  0  0  0  0  0  0  0
  149.6580  142.0505  154.1959 H   0  0  0  0  0  0  0  0  0  0  0  0
  150.3183  139.6753  155.0829 H   0  0  0  0  0  0  0  0  0  0  0  0
  147.0592  141.3697  153.9419 H   0  0  0  0  0  0  0  0  0  0  0  0
  148.1345  141.3649  152.5715 H   0  0  0  0  0  0  0  0  0  0  0  0
  148.3667  139.0357  152.6071 H   0  0  0  0  0  0  0  0  0  0  0  0
  147.5218  137.2639  152.6675 H   0  0  0  0  0  0  0  0  0  0  0  0
  146.4706  135.2919  151.9140 H   0  0  0  0  0  0  0  0  0  0  0  0
  145.0726  133.2583  152.5657 H   0  0  0  0  0  0  0  0  0  0  0  0
  144.0462  134.9317  156.2025 H   0  0  0  0  0  0  0  0  0  0  0  0
  145.3944  137.0227  155.7473 H   0  0  0  0  0  0  0  0  0  0  0  0
  147.8481  142.3808  158.1195 H   0  0  0  0  0  0  0  0  0  0  0  0
  149.1725  141.3742  158.6596 H   0  0  0  0  0  0  0  0  0  0  0  0
  149.1787  143.5456  159.8529 H   0  0  0  0  0  0  0  0  0  0  0  0
  149.2015  144.4198  158.3403 H   0  0  0  0  0  0  0  0  0  0  0  0
  149.1971  143.0368  156.2452 H   0  0  0  0  0  0  0  0  0  0  0  0
  143.9903  133.2512  154.6128 H   0  0  0  0  0  0  0  0  0  0  0  0
  1  2  1  0  0  0  0
  1 22  1  0  0  0  0
  1 23  1  0  0  0  0
  1 24  1  0  0  0  0
  2 21  1  0  0  0  0
  2  3  1  0  0  0  0
  2 25  1  0  0  0  0
  3  4  1  0  0  0  0
  3 26  1  0  0  0  0
  3 27  1  0  0  0  0
  4  5  1  0  0  0  0
  4 28  1  0  0  0  0
  4 29  1  0  0  0  0
  5  6  1  0  0  0  0
  5 20  1  0  0  0  0
  5 46  1  0  0  0  0
  6  7  1  0  0  0  0
  6 30  1  0  0  0  0
  6 31  1  0  0  0  0
  7  8  1  0  0  0  0
  7  9  1  0  0  0  0
  7 32  1  0  0  0  0
  8 33  1  0  0  0  0
  9 10  1  0  0  0  0
  9 34  1  0  0  0  0
  9 35  1  0  0  0  0
 10 11  1  0  0  0  0
 10 36  1  0  0  0  0
 11 12  2  0  0  0  0
 11 13  1  0  0  0  0
 13 14  1  0  0  0  0
 13 37  1  0  0  0  0
 14 19  1  0  0  0  0
 14 15  2  0  0  0  0
 15 16  1  0  0  0  0
 15 38  1  0  0  0  0
 16 17  2  0  0  0  0
 16 39  1  0  0  0  0
 17 18  1  0  0  0  0
 17 47  1  0  0  0  0
 18 19  2  0  0  0  0
 18 40  1  0  0  0  0
 19 41  1  0  0  0  0
 20 21  1  0  0  0  0
 20 42  1  0  0  0  0
 20 43  1  0  0  0  0
 21 44  1  0  0  0  0
 21 45  1  0  0  0  0
M  CHG  1   5   1
M  CHG  1  17   1
M  END
> <s_m_source_file>
AV-unprocessed.smi

> <i_m_source_file_index>
1032

> <i_lp_mmshare_version>
43012

> <i_f3d_flags>
0

> <s_epik_input>
W0NIM11bQ0hdMVtDSDJdW0NIMl1OKFtDSDJdW0NIMl0xKVtDSDJdW0NASF0oW09IXSlbQ0gyXVtOSF1DKD1PKVtOSF1jMltjSF1bY0hdbltjSF1bY0hdMg==

> <s_epik_cmdline>
J2VwaWtfcHl0aG9uJywgJy1waCcsICc3LjAnLCAnLXRuJywgJzgnLCAnLW1hJywgJzIwMCcsICctbWV0YWxfYmluZGluZycsICctaW1hZScsICc8aW5maWxlLm1hZT4nLCAnLW9tYWUnLCAnPG91dGZpbGUubWFlPic=

> <r_epik_Ionization_Penalty>
1.02509

> <r_epik_Ionization_Penalty_Charging>
1.02507

> <r_epik_Ionization_Penalty_Neutral>
1.85474e-05

> <r_epik_State_Penalty>
1.07411

> <r_epik_Charging_Adjusted_Penalty>
2.09917

> <i_epik_Tot_Q>
2

> <i_epik_Tot_abs_Q>
2

> <r_epik_Metal_State_Penalty>
1.1725

> <b_epik_Metal_Only>
0

> <s_lp_Force_Field>
OPLS_2005

> <r_lp_Energy>
29.9623

> <b_lp_Chiralities_Consistent>
1

> <s_lp_Variant>
AV-unprocessed.smi:1032-6

> <Gold.Version>
5.8.1

> <Gold.Id.Protein>
6NUR|6NUR_protein|mol2

> <Gold.PLP.Fitness>
48.3795

> <Gold.PLP.PLP>
-31.3728

> <Gold.PLP.part.hbond>
-5.8277

> <Gold.PLP.part.metal>
0.0000

> <Gold.PLP.part.buried>
-4.3615

> <Gold.PLP.part.nonpolar>
-21.9484

> <Gold.PLP.part.repulsive>
0.1859

> <Gold.PLP.ligand.clash>
0.0000

> <Gold.PLP.ligand.torsion>
1.2561

> <Gold.PLP.Chemscore.Hbond>
6.4920

> <Gold.PLP.Chemscore.CHOScore>
0.0000

> <Gold.PLP.Chemscore.Metal>
0.0000

> <Gold.Chemscore.Hbonds>
donor molecule, donor type, donor heavy atom, donor atom, acceptor molecule, acceptor atom, score
      L1  H     5    46       P1  8028  2.00
      L1  H    10    36       P1  7957  0.40
      L1  H    13    37       P1  7948  1.00
      L1  H    17    47       P1 10957  2.00
      P1  H  7989  7998       L1     8  1.00

> <Gold.PLP.Chemscore.Internal.Correction>
0.0428

> <Gold.Rescore>
     Score         DG    S(hbond)    S(metal)    S(lipo)     H(rot)  DE(clash)    DE(int)     intcor
     20.62     -22.05       4.09        0.00      76.09       2.34       0.08       1.35       ----

> <Gold.Chemscore.Fitness>
20.6173

> <Gold.Chemscore.DG>
-22.0518

> <Gold.Chemscore.ZeroCoef>
-5.4800

> <Gold.Chemscore.Hbond>
4.0891

> <Gold.Chemscore.Metal>
0.0000

> <Gold.Chemscore.Lipo>
76.0924

> <Gold.Chemscore.Internal_Hbond>
0.0000

> <Gold.Chemscore.DEClash>
0.0824

> <Gold.Chemscore.DEInternal>
1.3521

> <Gold.Chemscore.Rot>
2.3393

> <Gold.Chemscore.Internal.Correction>
   9.000000E+99

> <Gold.Chemscore.Hbonds>
donor molecule, donor type, donor heavy atom, donor atom, acceptor molecule, acceptor atom, score
      L1  H     5    46       P1  8028  1.00
      L1  H    10    36       P1  7957  0.39
      L1  H    13    37       P1  7948  0.97
      L1  H    17    47       P1 10957  0.97
      P1  H  7989  7998       L1     8  0.32

> <Gold.Chemscore.Hbond.Weighted>
-13.6577

> <Gold.Chemscore.Metal.Weighted>
-0.0000

> <Gold.Chemscore.Lipo.Weighted>
-8.9028

> <Gold.Chemscore.Internal_Hbond.Weighted>
0.0000

> <Gold.Chemscore.DEClash.Weighted>
0.0824

> <Gold.Chemscore.DEInternal.Weighted>
1.3521

> <Gold.Chemscore.Rot.Weighted>
5.9886

> <Gold.Chemscore.Internal.Correction.Weighted>
   9.000000E+99

> <Gold.Protein.RotatedTorsions>
[ 6907 6896 6895 6894 ] final  144.09 input  -60.11 | X-H torsion
[ 7974 7965 7964 7962 ] final  152.88 input  175.53 | X-H torsion
[ 8008 7997 7996 7995 ] final  111.12 input   59.86 | X-H torsion
[ 10167 10162 10161 10158 ] final  -48.87 input  -65.29 | X-H torsion
[ 10718 10713 10712 10709 ] final -110.26 input   66.30 | X-H torsion
[ 10763 10752 10751 10750 ] final   60.98 input  -60.55 | X-H torsion
[ 11005 11000 10999 10996 ] final  105.65 input  -57.11 | X-H torsion

> <Gold.Protein.ActiveResidues>
 VAL166  LYS551  ARG553  GLY616  TRP617  ASP618  TYR619  PRO620  LYS621  CYS622 
 ASP623  PHE694  ASN695  SER759  ASP760  ASP761  ALA762  ILE779  LEU786  VAL792 
 PHE793  MET794  SER795  GLU796  ALA797  LYS798  CYS799  TRP800  GLU811  SER814 

> <Gold.Protein.RotatedAtoms>
  152.1980  133.4820  159.5043 H   0  0  0  0  0  0  0  0  0  0  0  0  # atno 6907 bound_to 6896
  150.6964  134.1627  159.4191 H   0  0  0  0  0  0  0  0  0  0  0  0  # atno 6908 bound_to 6896
  151.9543  135.0154  160.0594 H   0  0  0  0  0  0  0  0  0  0  0  0  # atno 6909 bound_to 6896
  144.8192  139.6726  143.6108 H   0  0  0  0  0  0  0  0  0  0  0  0  # atno 7974 bound_to 7965
  156.2101  140.3025  155.9714 H   0  0  0  0  0  0  0  0  0  0  0  0  # atno 8008 bound_to 7997
  155.2744  140.0435  157.3027 H   0  0  0  0  0  0  0  0  0  0  0  0  # atno 8009 bound_to 7997
  154.5688  140.2342  155.8232 H   0  0  0  0  0  0  0  0  0  0  0  0  # atno 8010 bound_to 7997
  140.6711  143.2721  151.4133 H   0  0  0  0  0  0  0  0  0  0  0  0  # atno 10167 bound_to 10162
  156.0581  130.5806  150.8212 H   0  0  0  0  0  0  0  0  0  0  0  0  # atno 10718 bound_to 10713
  152.9937  135.5517  154.5960 H   0  0  0  0  0  0  0  0  0  0  0  0  # atno 10763 bound_to 10752
  154.5312  135.2813  155.1181 H   0  0  0  0  0  0  0  0  0  0  0  0  # atno 10764 bound_to 10752
  154.2495  135.6401  153.5288 H   0  0  0  0  0  0  0  0  0  0  0  0  # atno 10765 bound_to 10752
  139.8804  134.9343  156.5546 H   0  0  0  0  0  0  0  0  0  0  0  0  # atno 11005 bound_to 11000
  146.2497  139.6173  142.9435 LP  0  0  0  0  0  0  0  0  0  0  0  0  # atno 17320 bound_to 7965
  145.5143  141.0434  143.2470 LP  0  0  0  0  0  0  0  0  0  0  0  0  # atno 17321 bound_to 7965
  139.5980  144.1355  152.2166 LP  0  0  0  0  0  0  0  0  0  0  0  0  # atno 17342 bound_to 10162
  140.0731  144.5763  150.7177 LP  0  0  0  0  0  0  0  0  0  0  0  0  # atno 17343 bound_to 10162
  157.5568  131.0945  150.9617 LP  0  0  0  0  0  0  0  0  0  0  0  0  # atno 17370 bound_to 10713
  156.9864  130.5546  149.5300 LP  0  0  0  0  0  0  0  0  0  0  0  0  # atno 17371 bound_to 10713
  140.8214  133.8350  155.8899 LP  0  0  0  0  0  0  0  0  0  0  0  0  # atno 17394 bound_to 11000
  140.9414  134.1896  157.4795 LP  0  0  0  0  0  0  0  0  0  0  0  0  # atno 17395 bound_to 11000

$$$$
