AV-unprocessed.smi:3330|AV-procd|sdf|12803|dock6
  -GOLD-   2272019163D 1   1.00000     0.00000
 Structure written by MMmdl.
 39 40  0  0  0  0  0  0  0  0  2 V2000
  149.7463  142.5922  158.5983 C   0  0  0  0  0  0  0  0  0  0  0  0
  150.9467  143.0352  157.7419 C   0  0  2  0  0  0  0  0  0  0  0  0
  151.6477  141.8286  157.2475 N   0  3  0  0  0  0  0  0  0  0  0  0
  150.8398  140.9556  156.3724 C   0  0  0  0  0  0  0  0  0  0  0  0
  151.6413  139.7189  155.9398 C   0  0  0  0  0  0  0  0  0  0  0  0
  150.7679  138.6958  155.3597 N   0  0  0  0  0  0  0  0  0  0  0  0
  150.8946  137.3809  155.5796 C   0  0  0  0  0  0  0  0  0  0  0  0
  151.7370  136.8172  156.2770 O   0  0  0  0  0  0  0  0  0  0  0  0
  149.7976  136.6613  154.8256 C   0  0  0  0  0  0  0  0  0  0  0  0
  149.1327  137.8025  154.2334 N   0  0  0  0  0  0  0  0  0  0  0  0
  149.7143  138.9619  154.5664 C   0  0  0  0  0  0  0  0  0  0  0  0
  149.3355  140.0760  154.2081 O   0  0  0  0  0  0  0  0  0  0  0  0
  151.9295  143.9620  158.5087 C   0  0  1  0  0  0  0  0  0  0  0  0
  151.2994  145.3077  158.9160 C   0  0  0  0  0  0  0  0  0  0  0  0
  152.4993  143.3058  159.6789 N   0  0  0  0  0  0  0  0  0  0  0  0
  153.3510  142.2210  159.7200 C   0  0  0  0  0  0  0  0  0  0  0  0
  153.6173  141.9599  161.0334 C   0  0  0  0  0  0  0  0  0  0  0  0
  152.8764  142.9527  161.7326 C   0  0  0  0  0  0  0  0  0  0  0  0
  152.2095  143.7565  160.9208 N   0  0  0  0  0  0  0  0  0  0  0  0
  149.1275  143.4378  158.8989 H   0  0  0  0  0  0  0  0  0  0  0  0
  150.0729  142.0800  159.5039 H   0  0  0  0  0  0  0  0  0  0  0  0
  149.1023  141.9084  158.0442 H   0  0  0  0  0  0  0  0  0  0  0  0
  150.5421  143.5845  156.8896 H   0  0  0  0  0  0  0  0  0  0  0  0
  152.4733  142.1219  156.7450 H   0  0  0  0  0  0  0  0  0  0  0  0
  149.9390  140.6514  156.9075 H   0  0  0  0  0  0  0  0  0  0  0  0
  150.5183  141.5176  155.4949 H   0  0  0  0  0  0  0  0  0  0  0  0
  152.4058  140.0045  155.2148 H   0  0  0  0  0  0  0  0  0  0  0  0
  152.1831  139.3070  156.7932 H   0  0  0  0  0  0  0  0  0  0  0  0
  150.2020  135.9911  154.0665 H   0  0  0  0  0  0  0  0  0  0  0  0
  149.1366  136.1149  155.4992 H   0  0  0  0  0  0  0  0  0  0  0  0
  148.3165  137.7192  153.6444 H   0  0  0  0  0  0  0  0  0  0  0  0
  152.7652  144.1838  157.8430 H   0  0  0  0  0  0  0  0  0  0  0  0
  151.0128  145.8964  158.0446 H   0  0  0  0  0  0  0  0  0  0  0  0
  152.0036  145.9104  159.4908 H   0  0  0  0  0  0  0  0  0  0  0  0
  150.4092  145.1646  159.5293 H   0  0  0  0  0  0  0  0  0  0  0  0
  153.6922  141.7288  158.8211 H   0  0  0  0  0  0  0  0  0  0  0  0
  154.2468  141.1793  161.4342 H   0  0  0  0  0  0  0  0  0  0  0  0
  152.8045  143.1119  162.7986 H   0  0  0  0  0  0  0  0  0  0  0  0
  151.9366  141.2828  158.0467 H   0  0  0  0  0  0  0  0  0  0  0  0
  1  2  1  0  0  0  0
  1 20  1  0  0  0  0
  1 21  1  0  0  0  0
  1 22  1  0  0  0  0
  2  3  1  0  0  0  0
  2 13  1  0  0  0  0
  2 23  1  0  0  0  0
  3  4  1  0  0  0  0
  3 24  1  0  0  0  0
  3 39  1  0  0  0  0
  4  5  1  0  0  0  0
  4 25  1  0  0  0  0
  4 26  1  0  0  0  0
  5  6  1  0  0  0  0
  5 27  1  0  0  0  0
  5 28  1  0  0  0  0
  6 11  1  0  0  0  0
  6  7  1  0  0  0  0
  7  8  2  0  0  0  0
  7  9  1  0  0  0  0
  9 10  1  0  0  0  0
  9 29  1  0  0  0  0
  9 30  1  0  0  0  0
 10 11  1  0  0  0  0
 10 31  1  0  0  0  0
 11 12  2  0  0  0  0
 13 14  1  0  0  0  0
 13 15  1  0  0  0  0
 13 32  1  0  0  0  0
 14 33  1  0  0  0  0
 14 34  1  0  0  0  0
 14 35  1  0  0  0  0
 15 19  1  0  0  0  0
 15 16  1  0  0  0  0
 16 17  2  0  0  0  0
 16 36  1  0  0  0  0
 17 18  1  0  0  0  0
 17 37  1  0  0  0  0
 18 19  2  0  0  0  0
 18 38  1  0  0  0  0
M  CHG  1   3   1
M  END
> <s_m_source_file>
AV-unprocessed.smi

> <i_m_source_file_index>
3330

> <i_lp_mmshare_version>
43012

> <i_f3d_flags>
0

> <s_epik_input>
bjFbY0hdW2NIXVtjSF1uMVtDQEBIXShbQ0gzXSlbQ0BIXShbQ0gzXSlbTkhdW0NIMl1bQ0gyXU4yQyg9TylbQ0gyXVtOSF1DMj1P

> <s_epik_cmdline>
J2VwaWtfcHl0aG9uJywgJy1waCcsICc3LjAnLCAnLXRuJywgJzgnLCAnLW1hJywgJzIwMCcsICctbWV0YWxfYmluZGluZycsICctaW1hZScsICc8aW5maWxlLm1hZT4nLCAnLW9tYWUnLCAnPG91dGZpbGUubWFlPic=

> <r_lp_tautomer_probability>
1

> <r_epik_Ionization_Penalty>
0.0124905

> <r_epik_Ionization_Penalty_Charging>
0.0123685

> <r_epik_Ionization_Penalty_Neutral>
0.000122059

> <r_epik_State_Penalty>
0.00957041

> <r_epik_Charging_Adjusted_Penalty>
0.0219389

> <i_epik_Tot_Q>
1

> <i_epik_Tot_abs_Q>
1

> <r_epik_Metal_State_Penalty>
0.0858301

> <b_epik_Metal_Only>
0

> <s_lp_Force_Field>
OPLS_2005

> <r_lp_Energy>
25.3738

> <b_lp_Chiralities_Consistent>
1

> <s_lp_Variant>
AV-unprocessed.smi:3330-3

> <Gold.Version>
5.8.1

> <Gold.Id.Protein>
6NUR|6NUR_protein|mol2

> <Gold.PLP.Fitness>
50.7002

> <Gold.PLP.PLP>
-43.5643

> <Gold.PLP.part.hbond>
-3.4103

> <Gold.PLP.part.metal>
0.0000

> <Gold.PLP.part.buried>
-2.9874

> <Gold.PLP.part.nonpolar>
-39.0842

> <Gold.PLP.part.repulsive>
1.8046

> <Gold.PLP.ligand.clash>
0.0000

> <Gold.PLP.ligand.torsion>
0.5482

> <Gold.PLP.Chemscore.Hbond>
2.7120

> <Gold.PLP.Chemscore.CHOScore>
0.0000

> <Gold.PLP.Chemscore.Metal>
0.0000

> <Gold.Chemscore.Hbonds>
donor molecule, donor type, donor heavy atom, donor atom, acceptor molecule, acceptor atom, score
      L1  H    10    31       P1  7948  0.01
      P1  H 10752 10765       L1     8  0.17

> <Gold.PLP.Chemscore.Internal.Correction>
0.0962

> <Gold.Rescore>
     Score         DG    S(hbond)    S(metal)    S(lipo)     H(rot)  DE(clash)    DE(int)     intcor
     12.97     -15.27       1.88        0.00      88.43       2.67       0.02       2.28       ----

> <Gold.Chemscore.Fitness>
12.9724

> <Gold.Chemscore.DG>
-15.2656

> <Gold.Chemscore.ZeroCoef>
-5.4800

> <Gold.Chemscore.Hbond>
1.8761

> <Gold.Chemscore.Metal>
0.0000

> <Gold.Chemscore.Lipo>
88.4275

> <Gold.Chemscore.Internal_Hbond>
0.0000

> <Gold.Chemscore.DEClash>
0.0168

> <Gold.Chemscore.DEInternal>
2.2764

> <Gold.Chemscore.Rot>
2.6666

> <Gold.Chemscore.Internal.Correction>
   9.000000E+99

> <Gold.Chemscore.Hbonds>
donor molecule, donor type, donor heavy atom, donor atom, acceptor molecule, acceptor atom, score
      L1  H    10    31       P1  7948  0.01
      P1  H 10752 10765       L1     8  0.17

> <Gold.Chemscore.Hbond.Weighted>
-6.2661

> <Gold.Chemscore.Metal.Weighted>
-0.0000

> <Gold.Chemscore.Lipo.Weighted>
-10.3460

> <Gold.Chemscore.Internal_Hbond.Weighted>
0.0000

> <Gold.Chemscore.DEClash.Weighted>
0.0168

> <Gold.Chemscore.DEInternal.Weighted>
2.2764

> <Gold.Chemscore.Rot.Weighted>
6.8265

> <Gold.Chemscore.Internal.Correction.Weighted>
   9.000000E+99

> <Gold.Protein.RotatedTorsions>
[ 6907 6896 6895 6894 ] final   20.37 input  -60.11 | X-H torsion
[ 7974 7965 7964 7962 ] final   60.99 input  175.53 | X-H torsion
[ 8008 7997 7996 7995 ] final  -65.55 input   59.86 | X-H torsion
[ 10167 10162 10161 10158 ] final   22.99 input  -65.29 | X-H torsion
[ 10718 10713 10712 10709 ] final  -42.68 input   66.30 | X-H torsion
[ 10763 10752 10751 10750 ] final -135.18 input  -60.55 | X-H torsion
[ 11005 11000 10999 10996 ] final   66.45 input  -57.11 | X-H torsion

> <Gold.Protein.ActiveResidues>
 VAL166  LYS551  ARG553  GLY616  TRP617  ASP618  TYR619  PRO620  LYS621  CYS622 
 ASP623  PHE694  ASN695  SER759  ASP760  ASP761  ALA762  ILE779  LEU786  VAL792 
 PHE793  MET794  SER795  GLU796  ALA797  LYS798  CYS799  TRP800  GLU811  SER814 

> <Gold.Protein.RotatedAtoms>
  151.8953  135.0400  160.0501 H   0  0  0  0  0  0  0  0  0  0  0  0  # atno 6907 bound_to 6896
  152.2402  133.5125  159.5274 H   0  0  0  0  0  0  0  0  0  0  0  0  # atno 6908 bound_to 6896
  150.7051  134.1015  159.4010 H   0  0  0  0  0  0  0  0  0  0  0  0  # atno 6909 bound_to 6896
  145.8898  139.3503  143.0656 H   0  0  0  0  0  0  0  0  0  0  0  0  # atno 7974 bound_to 7965
  154.4679  140.0931  156.7068 H   0  0  0  0  0  0  0  0  0  0  0  0  # atno 8008 bound_to 7997
  155.4806  140.3467  155.4321 H   0  0  0  0  0  0  0  0  0  0  0  0  # atno 8009 bound_to 7997
  156.0988  140.1416  156.9484 H   0  0  0  0  0  0  0  0  0  0  0  0  # atno 8010 bound_to 7997
  140.5304  143.9850  150.6463 H   0  0  0  0  0  0  0  0  0  0  0  0  # atno 10167 bound_to 10162
  156.2570  130.4193  149.8585 H   0  0  0  0  0  0  0  0  0  0  0  0  # atno 10718 bound_to 10713
  154.8707  135.3711  154.4856 H   0  0  0  0  0  0  0  0  0  0  0  0  # atno 10763 bound_to 10752
  153.5506  135.7025  153.5598 H   0  0  0  0  0  0  0  0  0  0  0  0  # atno 10764 bound_to 10752
  153.3718  135.4019  155.1758 H   0  0  0  0  0  0  0  0  0  0  0  0  # atno 10765 bound_to 10752
  139.9831  134.6712  156.0226 H   0  0  0  0  0  0  0  0  0  0  0  0  # atno 11005 bound_to 11000
  145.8922  140.9296  143.0546 LP  0  0  0  0  0  0  0  0  0  0  0  0  # atno 17320 bound_to 7965
  144.6730  140.0921  143.7464 LP  0  0  0  0  0  0  0  0  0  0  0  0  # atno 17321 bound_to 7965
  140.3224  143.3129  152.0771 LP  0  0  0  0  0  0  0  0  0  0  0  0  # atno 17342 bound_to 10162
  139.4952  144.6565  151.6561 LP  0  0  0  0  0  0  0  0  0  0  0  0  # atno 17343 bound_to 10162
  156.6114  130.8588  151.3455 LP  0  0  0  0  0  0  0  0  0  0  0  0  # atno 17370 bound_to 10713
  157.7236  130.9592  150.1541 LP  0  0  0  0  0  0  0  0  0  0  0  0  # atno 17371 bound_to 10713
  141.1500  133.6550  156.3984 LP  0  0  0  0  0  0  0  0  0  0  0  0  # atno 17394 bound_to 11000
  140.5057  134.6443  157.5265 LP  0  0  0  0  0  0  0  0  0  0  0  0  # atno 17395 bound_to 11000

$$$$
