AV-unprocessed.smi:1062|AV-procd|sdf|4661|dock7
  -GOLD-   22720 3173D 1   1.00000     0.00000
 Structure written by MMmdl.
 38 40  0  0  0  0  0  0  0  0  1 V2000
  152.3349  144.6531  158.2583 C   0  0  0  0  0  0  0  0  0  0  0  0
  151.6441  143.6790  159.2269 C   0  0  0  0  0  0  0  0  0  0  0  0
  152.4496  142.4710  159.4670 N   0  0  0  0  0  0  0  0  0  0  0  0
  152.4134  141.4346  158.5916 C   0  0  0  0  0  0  0  0  0  0  0  0
  153.2281  140.5102  158.6439 O   0  0  0  0  0  0  0  0  0  0  0  0
  151.3137  141.3994  157.5106 C   0  0  0  0  0  0  0  0  0  0  0  0
  151.3228  140.1043  156.7476 C   0  0  0  0  0  0  0  0  0  0  0  0
  151.9568  139.8538  155.5551 C   0  0  0  0  0  0  0  0  0  0  0  0
  151.7153  138.2139  155.0187 S   0  0  0  0  0  0  0  0  0  0  0  0
  150.7350  137.9232  156.4587 C   0  0  0  0  0  0  0  0  0  0  0  0
  150.0955  136.6989  156.8152 N   0  0  0  0  0  0  0  0  0  0  0  0
  149.2996  136.5763  158.0325 C   0  0  0  0  0  0  0  0  0  0  0  0
  148.8214  135.1278  158.0130 C   0  0  0  0  0  0  0  0  0  0  0  0
  149.4079  134.6311  156.7907 N   0  0  0  0  0  0  0  0  0  0  0  0
  150.1286  135.5393  156.1290 C   0  0  0  0  0  0  0  0  0  0  0  0
  150.7112  135.3151  155.0698 O   0  0  0  0  0  0  0  0  0  0  0  0
  150.6255  138.9985  157.2458 N   0  0  0  0  0  0  0  0  0  0  0  0
  153.4048  142.5975  160.5360 C   0  0  0  0  0  0  0  0  0  0  0  0
  153.6392  141.4418  161.4919 C   0  0  0  0  0  0  0  0  0  0  0  0
  152.9186  142.6732  161.9706 C   0  0  0  0  0  0  0  0  0  0  0  0
  151.7397  145.5575  158.1320 H   0  0  0  0  0  0  0  0  0  0  0  0
  152.4741  144.2124  157.2710 H   0  0  0  0  0  0  0  0  0  0  0  0
  153.3143  144.9517  158.6332 H   0  0  0  0  0  0  0  0  0  0  0  0
  151.4448  144.2034  160.1615 H   0  0  0  0  0  0  0  0  0  0  0  0
  150.6626  143.4017  158.8389 H   0  0  0  0  0  0  0  0  0  0  0  0
  150.3308  141.5401  157.9607 H   0  0  0  0  0  0  0  0  0  0  0  0
  151.4696  142.2364  156.8298 H   0  0  0  0  0  0  0  0  0  0  0  0
  152.5553  140.5316  154.9648 H   0  0  0  0  0  0  0  0  0  0  0  0
  149.9084  136.7836  158.9137 H   0  0  0  0  0  0  0  0  0  0  0  0
  148.4604  137.2732  158.0167 H   0  0  0  0  0  0  0  0  0  0  0  0
  149.1871  134.5632  158.8713 H   0  0  0  0  0  0  0  0  0  0  0  0
  147.7338  135.0549  157.9755 H   0  0  0  0  0  0  0  0  0  0  0  0
  149.2797  133.6799  156.4770 H   0  0  0  0  0  0  0  0  0  0  0  0
  154.2786  143.2036  160.3036 H   0  0  0  0  0  0  0  0  0  0  0  0
  153.0416  140.5398  161.3759 H   0  0  0  0  0  0  0  0  0  0  0  0
  154.6557  141.2835  161.8461 H   0  0  0  0  0  0  0  0  0  0  0  0
  153.4530  143.3374  162.6466 H   0  0  0  0  0  0  0  0  0  0  0  0
  151.8514  142.5762  162.1615 H   0  0  0  0  0  0  0  0  0  0  0  0
  1  2  1  0  0  0  0
  1 21  1  0  0  0  0
  1 22  1  0  0  0  0
  1 23  1  0  0  0  0
  2  3  1  0  0  0  0
  2 24  1  0  0  0  0
  2 25  1  0  0  0  0
  3  4  1  0  0  0  0
  3 18  1  0  0  0  0
  4  5  2  0  0  0  0
  4  6  1  0  0  0  0
  6  7  1  0  0  0  0
  6 26  1  0  0  0  0
  6 27  1  0  0  0  0
  7 17  1  0  0  0  0
  7  8  2  0  0  0  0
  8  9  1  0  0  0  0
  8 28  1  0  0  0  0
  9 10  1  0  0  0  0
 10 11  1  0  0  0  0
 10 17  2  0  0  0  0
 11 15  1  0  0  0  0
 11 12  1  0  0  0  0
 12 13  1  0  0  0  0
 12 29  1  0  0  0  0
 12 30  1  0  0  0  0
 13 14  1  0  0  0  0
 13 31  1  0  0  0  0
 13 32  1  0  0  0  0
 14 15  1  0  0  0  0
 14 33  1  0  0  0  0
 15 16  2  0  0  0  0
 18 20  1  0  0  0  0
 18 19  1  0  0  0  0
 18 34  1  0  0  0  0
 19 20  1  0  0  0  0
 19 35  1  0  0  0  0
 19 36  1  0  0  0  0
 20 37  1  0  0  0  0
 20 38  1  0  0  0  0
M  END
> <s_m_source_file>
AV-unprocessed.smi

> <i_m_source_file_index>
1062

> <i_lp_mmshare_version>
43012

> <i_f3d_flags>
0

> <s_epik_input>
W0NIMl0xW0NIMl1bQ0hdMU4oW0NIMl1bQ0gzXSlDKD1PKVtDSDJdYzJbY0hdc2MobjIpTjNbQ0gyXVtDSDJdW05IXUMzPU8=

> <s_epik_cmdline>
J2VwaWtfcHl0aG9uJywgJy1waCcsICc3LjAnLCAnLXRuJywgJzgnLCAnLW1hJywgJzIwMCcsICctbWV0YWxfYmluZGluZycsICctaW1hZScsICc8aW5maWxlLm1hZT4nLCAnLW9tYWUnLCAnPG91dGZpbGUubWFlPic=

> <r_lp_tautomer_probability>
1

> <r_epik_Ionization_Penalty>
0.000125669

> <r_epik_Ionization_Penalty_Charging>
0

> <r_epik_Ionization_Penalty_Neutral>
0.000125669

> <r_epik_State_Penalty>
-0

> <r_epik_Charging_Adjusted_Penalty>
0

> <i_epik_Tot_Q>
0

> <i_epik_Tot_abs_Q>
0

> <r_epik_Metal_State_Penalty>
-0

> <b_epik_Metal_Only>
0

> <s_lp_Force_Field>
OPLS_2005

> <r_lp_Energy>
60.5217

> <b_lp_Chiralities_Consistent>
1

> <s_lp_Variant>
AV-unprocessed.smi:1062-1

> <Gold.Version>
5.8.1

> <Gold.Id.Protein>
6NUR|6NUR_protein|mol2

> <Gold.PLP.Fitness>
42.8463

> <Gold.PLP.PLP>
-39.7629

> <Gold.PLP.part.hbond>
-2.0000

> <Gold.PLP.part.metal>
0.0000

> <Gold.PLP.part.buried>
-1.8170

> <Gold.PLP.part.nonpolar>
-34.4791

> <Gold.PLP.part.repulsive>
0.2070

> <Gold.PLP.ligand.clash>
0.0000

> <Gold.PLP.ligand.torsion>
1.0146

> <Gold.PLP.Chemscore.Hbond>
1.5860

> <Gold.PLP.Chemscore.CHOScore>
0.0000

> <Gold.PLP.Chemscore.Metal>
0.0000

> <Gold.Chemscore.Hbonds>
donor molecule, donor type, donor heavy atom, donor atom, acceptor molecule, acceptor atom, score
      P1  H  7997  8008       L1     5  0.56
      P1  H 10752 10765       L1    16  0.37

> <Gold.PLP.Chemscore.Internal.Correction>
0.3545

> <Gold.Rescore>
     Score         DG    S(hbond)    S(metal)    S(lipo)     H(rot)  DE(clash)    DE(int)     intcor
     15.65     -17.29       1.63        0.00      90.44       1.65       0.06       1.57       ----

> <Gold.Chemscore.Fitness>
15.6523

> <Gold.Chemscore.DG>
-17.2907

> <Gold.Chemscore.ZeroCoef>
-5.4800

> <Gold.Chemscore.Hbond>
1.6308

> <Gold.Chemscore.Metal>
0.0000

> <Gold.Chemscore.Lipo>
90.4443

> <Gold.Chemscore.Internal_Hbond>
0.0000

> <Gold.Chemscore.DEClash>
0.0638

> <Gold.Chemscore.DEInternal>
1.5746

> <Gold.Chemscore.Rot>
1.6477

> <Gold.Chemscore.Internal.Correction>
   9.000000E+99

> <Gold.Chemscore.Hbonds>
donor molecule, donor type, donor heavy atom, donor atom, acceptor molecule, acceptor atom, score
      P1  H  7997  8008       L1     5  0.55
      P1  H 10752 10765       L1    16  0.35

> <Gold.Chemscore.Hbond.Weighted>
-5.4468

> <Gold.Chemscore.Metal.Weighted>
-0.0000

> <Gold.Chemscore.Lipo.Weighted>
-10.5820

> <Gold.Chemscore.Internal_Hbond.Weighted>
0.0000

> <Gold.Chemscore.DEClash.Weighted>
0.0638

> <Gold.Chemscore.DEInternal.Weighted>
1.5746

> <Gold.Chemscore.Rot.Weighted>
4.2181

> <Gold.Chemscore.Internal.Correction.Weighted>
   9.000000E+99

> <Gold.Protein.RotatedTorsions>
[ 6907 6896 6895 6894 ] final -133.05 input  -60.11 | X-H torsion
[ 7974 7965 7964 7962 ] final  178.88 input  175.53 | X-H torsion
[ 8008 7997 7996 7995 ] final  -93.64 input   59.86 | X-H torsion
[ 10167 10162 10161 10158 ] final  -71.24 input  -65.29 | X-H torsion
[ 10718 10713 10712 10709 ] final -115.85 input   66.30 | X-H torsion
[ 10763 10752 10751 10750 ] final  178.13 input  -60.55 | X-H torsion
[ 11005 11000 10999 10996 ] final  174.25 input  -57.11 | X-H torsion

> <Gold.Protein.ActiveResidues>
 VAL166  LYS551  ARG553  GLY616  TRP617  ASP618  TYR619  PRO620  LYS621  CYS622 
 ASP623  PHE694  ASN695  SER759  ASP760  ASP761  ALA762  ILE779  LEU786  VAL792 
 PHE793  MET794  SER795  GLU796  ALA797  LYS798  CYS799  TRP800  GLU811  SER814 

> <Gold.Protein.RotatedAtoms>
  150.9694  133.6360  159.2740 H   0  0  0  0  0  0  0  0  0  0  0  0  # atno 6907 bound_to 6896
  151.3654  135.0911  159.9458 H   0  0  0  0  0  0  0  0  0  0  0  0  # atno 6908 bound_to 6896
  152.5177  133.9260  159.7612 H   0  0  0  0  0  0  0  0  0  0  0  0  # atno 6909 bound_to 6896
  144.7151  140.0463  143.6436 H   0  0  0  0  0  0  0  0  0  0  0  0  # atno 7974 bound_to 7965
  154.7383  140.0497  157.0788 H   0  0  0  0  0  0  0  0  0  0  0  0  # atno 8008 bound_to 7997
  155.0212  140.3147  155.4773 H   0  0  0  0  0  0  0  0  0  0  0  0  # atno 8009 bound_to 7997
  156.2858  140.2167  156.5330 H   0  0  0  0  0  0  0  0  0  0  0  0  # atno 8010 bound_to 7997
  140.5289  143.2323  151.7298 H   0  0  0  0  0  0  0  0  0  0  0  0  # atno 10167 bound_to 10162
  156.0923  130.6103  150.8959 H   0  0  0  0  0  0  0  0  0  0  0  0  # atno 10718 bound_to 10713
  154.5036  135.2785  155.1401 H   0  0  0  0  0  0  0  0  0  0  0  0  # atno 10763 bound_to 10752
  154.3024  135.6245  153.5434 H   0  0  0  0  0  0  0  0  0  0  0  0  # atno 10764 bound_to 10752
  152.9906  135.5700  154.5484 H   0  0  0  0  0  0  0  0  0  0  0  0  # atno 10765 bound_to 10752
  140.3493  134.7209  157.4256 H   0  0  0  0  0  0  0  0  0  0  0  0  # atno 11005 bound_to 11000
  145.9981  139.3069  143.0944 LP  0  0  0  0  0  0  0  0  0  0  0  0  # atno 17320 bound_to 7965
  145.8825  140.9354  143.0594 LP  0  0  0  0  0  0  0  0  0  0  0  0  # atno 17321 bound_to 7965
  139.4947  144.4144  152.0046 LP  0  0  0  0  0  0  0  0  0  0  0  0  # atno 17342 bound_to 10162
  140.3245  144.3389  150.6001 LP  0  0  0  0  0  0  0  0  0  0  0  0  # atno 17343 bound_to 10162
  157.6076  131.0938  150.8852 LP  0  0  0  0  0  0  0  0  0  0  0  0  # atno 17370 bound_to 10713
  156.8998  130.5242  149.5283 LP  0  0  0  0  0  0  0  0  0  0  0  0  # atno 17371 bound_to 10713
  140.0717  134.5854  155.8635 LP  0  0  0  0  0  0  0  0  0  0  0  0  # atno 17394 bound_to 11000
  141.2017  133.6620  156.5964 LP  0  0  0  0  0  0  0  0  0  0  0  0  # atno 17395 bound_to 11000

$$$$
