#       Name:                AV-unprocessed.smi:1715
#       Creating user name   scv26
#       Creation time:       Fri Mar 27 08:11:47 2020


#       File generated by GOLD software.
#

@<TRIPOS>MOLECULE
AV-unprocessed.smi:1715
    46    47     1
SMALL
NO_CHARGES


@<TRIPOS>ATOM
      1 ****        -4.1056  -2.6199  -2.0975 C.3            1 S1                 0.0000
      2 ****        -3.5353  -1.7918  -0.9408 C.3            1 S1                 0.0000
      3 ****        -1.9994  -1.6916  -0.9980 C.3            1 S1                 0.0000
      4 ****        -1.4923  -0.8240   0.0916 N.4            1 S1                 1.0000
      5 ****        -0.0100  -0.7503   0.1085 C.3            1 S1                 0.0000
      6 ****         0.5442  -0.2850   1.4694 C.3            1 S1                 0.0000
      7 ****         2.0027  -0.2793   1.4803 N.am           1 S1                 0.0000
      8 ****         2.7699   0.6532   0.8978 C.2            1 S1                 0.0000
      9 ****         2.3147   1.6141   0.2770 O.2            1 S1                 0.0000
     10 ****         4.0759   0.3980   1.0800 N.am           1 S1                 0.0000
     11 ****         5.1751   1.1561   0.6027 C.2            1 S1                 0.0000
     12 ****         6.5403   0.8422   0.8432 C.2            1 S1                 0.0000
     13 ****         7.3475   1.7251   0.2730 N.2            1 S1                 0.0000
     14 ****         6.5108   2.5994  -0.3299 N.pl3          1 S1                 0.0000
     15 ****         5.1792   2.2933  -0.1554 C.2            1 S1                 0.0000
     16 ****        -2.1529   0.5037   0.0402 C.3            1 S1                 0.0000
     17 ****        -3.6854   0.3461   0.0666 C.3            1 S1                 0.0000
     18 ****        -4.4082   1.6906  -0.0684 C.3            1 S1                 0.0000
     19 ****        -4.0877  -0.4826  -1.0182 O.3            1 S1                 0.0000
     20 ****         6.8601   3.3909  -0.8515 H              1 S1                 0.0000
     21 ****        -3.7211  -3.6399  -2.0779 H              1 S1                 0.0000
     22 ****        -3.8470  -2.1828  -3.0623 H              1 S1                 0.0000
     23 ****        -5.1928  -2.6744  -2.0380 H              1 S1                 0.0000
     24 ****        -3.8396  -2.2550  -0.0005 H              1 S1                 0.0000
     25 ****        -1.5639  -2.6878  -0.9092 H              1 S1                 0.0000
     26 ****        -1.6823  -1.2872  -1.9610 H              1 S1                 0.0000
     27 ****         0.3978  -1.7403  -0.1014 H              1 S1                 0.0000
     28 ****         0.3307  -0.1000  -0.6989 H              1 S1                 0.0000
     29 ****         0.1847   0.7112   1.7292 H              1 S1                 0.0000
     30 ****         0.2021  -0.9546   2.2590 H              1 S1                 0.0000
     31 ****         2.4599  -1.0341   1.9711 H              1 S1                 0.0000
     32 ****         4.3106  -0.4248   1.6159 H              1 S1                 0.0000
     33 ****         6.9640   0.0201   1.4010 H              1 S1                 0.0000
     34 ****         4.3878   2.8958  -0.5757 H              1 S1                 0.0000
     35 ****        -1.8415   1.1162   0.8857 H              1 S1                 0.0000
     36 ****        -1.8439   1.0294  -0.8650 H              1 S1                 0.0000
     37 ****        -3.9913  -0.1187   1.0058 H              1 S1                 0.0000
     38 ****        -4.1453   2.3621   0.7492 H              1 S1                 0.0000
     39 ****        -5.4897   1.5544  -0.0513 H              1 S1                 0.0000
     40 ****        -4.1501   2.1856  -1.0051 H              1 S1                 0.0000
     41 ****        -1.7722  -1.2628   0.9573 H              1 S1                 0.0000
     42 ****         1.3253   1.7284   0.1878 LP             1 S1                 0.0000
     43 ****         2.9344   2.2802  -0.1379 LP             1 S1                 0.0000
     44 ****         8.3473   1.7410   0.2858 LP             1 S1                 0.0000
     45 ****        -5.0851  -0.5550  -1.0132 LP             1 S1                 0.0000
     46 ****        -3.7885  -0.0588  -1.8731 LP             1 S1                 0.0000
@<TRIPOS>BOND
    1    1    2 1     
    2    1   21 1     
    3    1   22 1     
    4    1   23 1     
    5    2   19 1     
    6    2    3 1     
    7    2   24 1     
    8    3    4 1     
    9    3   25 1     
   10    3   26 1     
   11    4    5 1     
   12    4   16 1     
   13    4   41 1     
   14    5    6 1     
   15    5   27 1     
   16    5   28 1     
   17    6    7 1     
   18    6   29 1     
   19    6   30 1     
   20    7    8 am    
   21    7   31 1     
   22    8    9 2     
   23    8   10 am    
   24   10   11 1     
   25   10   32 1     
   26   11   15 2     
   27   11   12 1     
   28   12   13 2     
   29   12   33 1     
   30   13   14 1     
   31   14   20 1     
   32   14   15 1     
   33   15   34 1     
   34   16   17 1     
   35   16   35 1     
   36   16   36 1     
   37   17   18 1     
   38   17   19 1     
   39   17   37 1     
   40   18   38 1     
   41   18   39 1     
   42   18   40 1     
   43    9   42 1     
   44    9   43 1     
   45   13   44 1     
   46   19   45 1     
   47   19   46 1     
@<TRIPOS>SUBSTRUCTURE
      1 S1             1
@<TRIPOS>SET
LONE_PAIRS      STATIC     ATOMS    <user>   **** ""
5 42 43 44 45 46
DONOR_HYDROGENS      STATIC     ATOMS    <user>   **** ""
4 41 31 32 20
ATOM$BLUE        STATIC     ATOMS    COLORGROUP SYSTEM
5 42 43 44 45 46
ATOM$RED        STATIC     ATOMS    COLORGROUP SYSTEM
4 41 31 32 20
