#       Name:                AV-unprocessed.smi:856
#       Creating user name   scv26
#       Creation time:       Fri Mar 27 01:43:04 2020


#       File generated by GOLD software.
#

@<TRIPOS>MOLECULE
AV-unprocessed.smi:856
    53    55     1
SMALL
NO_CHARGES


@<TRIPOS>ATOM
      1 ****        -3.3642   1.6960  -2.8234 C.3            1 S1                 0.0000
      2 ****        -2.8402   2.1043  -1.5066 N.am           1 S1                 0.0000
      3 ****        -2.1527   1.1793  -0.7655 C.2            1 S1                 0.0000
      4 ****        -1.9377   0.0185  -1.1158 O.2            1 S1                 0.0000
      5 ****        -1.6710   1.6893   0.5238 C.2            1 S1                 0.0000
      6 ****        -1.8893   2.9605   0.9424 C.2            1 S1                 0.0000
      7 ****        -1.3239   3.1839   2.1932 N.2            1 S1                 0.0000
      8 ****        -0.7765   2.0000   2.4680 C.2            1 S1                 0.0000
      9 ****        -0.9361   1.0513   1.5235 N.pl3          1 S1                 0.0000
     10 ****        -0.4285  -0.3116   1.5888 C.3            1 S1                 0.0000
     11 ****         1.0360  -0.4241   1.1191 C.3            1 S1                 0.0000
     12 ****         1.1395   0.0237  -0.2183 O.3            1 S1                 0.0000
     13 ****         1.5443  -1.8720   1.1811 C.3            1 S1                 0.0000
     14 ****         2.9659  -1.8604   1.1958 O.3            1 S1                 0.0000
     15 ****         3.5591  -3.1509   1.2538 C.3            1 S1                 0.0000
     16 ****         3.4521  -3.7774  -0.0996 C.2            1 S1                 0.0000
     17 ****         4.0500  -3.5236  -1.3031 C.2            1 S1                 0.0000
     18 ****         3.5196  -4.4709  -2.2219 C.2            1 S1                 0.0000
     19 ****         2.6377  -5.2329  -1.5097 C.2            1 S1                 0.0000
     20 ****         2.5857  -4.8238  -0.2128 O.3            1 S1                 0.0000
     21 ****        -2.6172   3.8358   0.0955 N.am           1 S1                 0.0000
     22 ****        -2.8645   5.2121   0.5343 C.3            1 S1                 0.0000
     23 ****        -3.0847   3.4115  -1.1230 C.2            1 S1                 0.0000
     24 ****        -3.7088   4.1856  -1.8547 O.2            1 S1                 0.0000
     25 ****        -3.1972   0.6493  -3.0798 H              1 S1                 0.0000
     26 ****        -2.9021   2.2889  -3.6145 H              1 S1                 0.0000
     27 ****        -4.4429   1.8545  -2.8725 H              1 S1                 0.0000
     28 ****        -0.2383   1.8169   3.3865 H              1 S1                 0.0000
     29 ****        -0.5070  -0.6467   2.6239 H              1 S1                 0.0000
     30 ****        -1.0767  -0.9725   1.0152 H              1 S1                 0.0000
     31 ****         1.6591   0.2103   1.7511 H              1 S1                 0.0000
     32 ****         2.0414  -0.0547  -0.4901 H              1 S1                 0.0000
     33 ****         1.1992  -2.3425   2.1029 H              1 S1                 0.0000
     34 ****         1.1440  -2.4582   0.3522 H              1 S1                 0.0000
     35 ****         4.6097  -3.0391   1.5221 H              1 S1                 0.0000
     36 ****         3.0950  -3.7700   2.0232 H              1 S1                 0.0000
     37 ****         4.7773  -2.7493  -1.4976 H              1 S1                 0.0000
     38 ****         3.7528  -4.5808  -3.2708 H              1 S1                 0.0000
     39 ****         1.9954  -6.0653  -1.7568 H              1 S1                 0.0000
     40 ****        -3.9362   5.4088   0.5892 H              1 S1                 0.0000
     41 ****        -2.4226   5.9225  -0.1660 H              1 S1                 0.0000
     42 ****        -2.4469   5.4241   1.5186 H              1 S1                 0.0000
     43 ****        -2.2743  -0.3077  -1.9992 LP             1 S1                 0.0000
     44 ****        -1.4264  -0.5979  -0.5170 LP             1 S1                 0.0000
     45 ****        -1.3271   4.0181   2.7446 LP             1 S1                 0.0000
     46 ****         0.8506   0.9792  -0.2779 LP             1 S1                 0.0000
     47 ****         0.5590  -0.5375  -0.8083 LP             1 S1                 0.0000
     48 ****         3.2670  -1.3408   1.9954 LP             1 S1                 0.0000
     49 ****         3.2844  -1.4061   0.3638 LP             1 S1                 0.0000
     50 ****         1.6584  -4.5307   0.0196 LP             1 S1                 0.0000
     51 ****         2.8622  -5.5681   0.3951 LP             1 S1                 0.0000
     52 ****        -4.0474   3.8716  -2.7417 LP             1 S1                 0.0000
     53 ****        -3.8757   5.1266  -1.5604 LP             1 S1                 0.0000
@<TRIPOS>BOND
    1    1    2 1     
    2    1   25 1     
    3    1   26 1     
    4    1   27 1     
    5    2   23 am    
    6    2    3 am    
    7    3    4 2     
    8    3    5 1     
    9    5    9 1     
   10    5    6 2     
   11    6    7 1     
   12    6   21 1     
   13    7    8 2     
   14    8    9 1     
   15    8   28 1     
   16    9   10 1     
   17   10   11 1     
   18   10   29 1     
   19   10   30 1     
   20   11   12 1     
   21   11   13 1     
   22   11   31 1     
   23   12   32 1     
   24   13   14 1     
   25   13   33 1     
   26   13   34 1     
   27   14   15 1     
   28   15   16 1     
   29   15   35 1     
   30   15   36 1     
   31   16   20 1     
   32   16   17 2     
   33   17   18 1     
   34   17   37 1     
   35   18   19 2     
   36   18   38 1     
   37   19   20 1     
   38   19   39 1     
   39   21   22 1     
   40   21   23 am    
   41   22   40 1     
   42   22   41 1     
   43   22   42 1     
   44   23   24 2     
   45    4   43 1     
   46    4   44 1     
   47    7   45 1     
   48   12   46 1     
   49   12   47 1     
   50   14   48 1     
   51   14   49 1     
   52   20   50 1     
   53   20   51 1     
   54   24   52 1     
   55   24   53 1     
@<TRIPOS>SUBSTRUCTURE
      1 S1             1
@<TRIPOS>SET
LONE_PAIRS      STATIC     ATOMS    <user>   **** ""
11 43 44 45 46 47 48 49 50 51 52 53
DONOR_HYDROGENS      STATIC     ATOMS    <user>   **** ""
1 32
ATOM$BLUE        STATIC     ATOMS    COLORGROUP SYSTEM
11 43 44 45 46 47 48 49 50 51 52 53
ATOM$RED        STATIC     ATOMS    COLORGROUP SYSTEM
1 32
