AV-unprocessed.smi:1345|AV-procd|sdf|5510|dock8
  -GOLD-   22720 5 93D 1   1.00000     0.00000
 Structure written by MMmdl.
 40 41  0  0  0  0  0  0  0  0  1 V2000
  146.3819  134.1396  162.0731 C   0  0  0  0  0  0  0  0  0  0  0  0
  147.4441  135.1683  161.6446 C   0  0  0  0  0  0  0  0  0  0  0  0
  147.3904  136.3834  162.5914 C   0  0  0  0  0  0  0  0  0  0  0  0
  147.3058  135.5784  160.1538 C   0  0  2  0  0  0  0  0  0  0  0  0
  146.6235  134.5026  159.2869 C   0  0  0  0  0  0  0  0  0  0  0  0
  148.6221  135.8737  159.5883 N   0  0  0  0  0  0  0  0  0  0  0  0
  149.0131  137.0559  159.0855 C   0  0  0  0  0  0  0  0  0  0  0  0
  148.2804  138.0457  159.0439 O   0  0  0  0  0  0  0  0  0  0  0  0
  150.4528  137.1102  158.5581 C   0  0  0  0  0  0  0  0  0  0  0  0
  151.1918  138.3264  159.0440 C   0  0  0  0  0  0  0  0  0  0  0  0
  152.1957  138.3644  159.9816 C   0  0  0  0  0  0  0  0  0  0  0  0
  152.7749  139.9850  160.2542 S   0  0  0  0  0  0  0  0  0  0  0  0
  151.6041  140.5666  159.0723 C   0  0  0  0  0  0  0  0  0  0  0  0
  151.4592  141.9426  158.7235 N   0  0  0  0  0  0  0  0  0  0  0  0
  152.1780  142.9846  159.4470 C   0  0  0  0  0  0  0  0  0  0  0  0
  151.7327  144.2763  158.7677 C   0  0  0  0  0  0  0  0  0  0  0  0
  150.8315  143.7898  157.7497 N   0  0  0  0  0  0  0  0  0  0  0  0
  150.6902  142.4623  157.7436 C   0  0  0  0  0  0  0  0  0  0  0  0
  149.9679  141.8504  156.9581 O   0  0  0  0  0  0  0  0  0  0  0  0
  150.8622  139.5885  158.5392 N   0  0  0  0  0  0  0  0  0  0  0  0
  145.3732  134.5137  161.8954 H   0  0  0  0  0  0  0  0  0  0  0  0
  146.4663  133.9073  163.1352 H   0  0  0  0  0  0  0  0  0  0  0  0
  146.4906  133.1972  161.5372 H   0  0  0  0  0  0  0  0  0  0  0  0
  148.4207  134.7001  161.7771 H   0  0  0  0  0  0  0  0  0  0  0  0
  146.4503  136.9255  162.4836 H   0  0  0  0  0  0  0  0  0  0  0  0
  148.2034  137.0845  162.4028 H   0  0  0  0  0  0  0  0  0  0  0  0
  147.4754  136.0739  163.6335 H   0  0  0  0  0  0  0  0  0  0  0  0
  146.6967  136.4836  160.1140 H   0  0  0  0  0  0  0  0  0  0  0  0
  145.5894  134.3376  159.5872 H   0  0  0  0  0  0  0  0  0  0  0  0
  147.1490  133.5491  159.3508 H   0  0  0  0  0  0  0  0  0  0  0  0
  146.6005  134.7978  158.2375 H   0  0  0  0  0  0  0  0  0  0  0  0
  149.2911  135.1174  159.5854 H   0  0  0  0  0  0  0  0  0  0  0  0
  150.9657  136.1980  158.8661 H   0  0  0  0  0  0  0  0  0  0  0  0
  150.4332  137.0987  157.4674 H   0  0  0  0  0  0  0  0  0  0  0  0
  152.6317  137.5379  160.5229 H   0  0  0  0  0  0  0  0  0  0  0  0
  151.9085  142.9779  160.5041 H   0  0  0  0  0  0  0  0  0  0  0  0
  153.2559  142.8403  159.3594 H   0  0  0  0  0  0  0  0  0  0  0  0
  151.2105  144.9423  159.4554 H   0  0  0  0  0  0  0  0  0  0  0  0
  152.5684  144.8129  158.3171 H   0  0  0  0  0  0  0  0  0  0  0  0
  150.3578  144.4072  157.1062 H   0  0  0  0  0  0  0  0  0  0  0  0
  1  2  1  0  0  0  0
  1 21  1  0  0  0  0
  1 22  1  0  0  0  0
  1 23  1  0  0  0  0
  2  3  1  0  0  0  0
  2  4  1  0  0  0  0
  2 24  1  0  0  0  0
  3 25  1  0  0  0  0
  3 26  1  0  0  0  0
  3 27  1  0  0  0  0
  4  5  1  0  0  0  0
  4  6  1  0  0  0  0
  4 28  1  0  0  0  0
  5 29  1  0  0  0  0
  5 30  1  0  0  0  0
  5 31  1  0  0  0  0
  6  7  1  0  0  0  0
  6 32  1  0  0  0  0
  7  8  2  0  0  0  0
  7  9  1  0  0  0  0
  9 10  1  0  0  0  0
  9 33  1  0  0  0  0
  9 34  1  0  0  0  0
 10 20  1  0  0  0  0
 10 11  2  0  0  0  0
 11 12  1  0  0  0  0
 11 35  1  0  0  0  0
 12 13  1  0  0  0  0
 13 14  1  0  0  0  0
 13 20  2  0  0  0  0
 14 18  1  0  0  0  0
 14 15  1  0  0  0  0
 15 16  1  0  0  0  0
 15 36  1  0  0  0  0
 15 37  1  0  0  0  0
 16 17  1  0  0  0  0
 16 38  1  0  0  0  0
 16 39  1  0  0  0  0
 17 18  1  0  0  0  0
 17 40  1  0  0  0  0
 18 19  2  0  0  0  0
M  END
> <s_m_source_file>
AV-unprocessed.smi

> <i_m_source_file_index>
1345

> <i_lp_mmshare_version>
43012

> <i_f3d_flags>
0

> <s_epik_input>
W0NIM11bQ0hdKFtDSDNdKVtDQEhdKFtDSDNdKVtOSF1DKD1PKVtDSDJdYzFbY0hdc2MobjEpTjJbQ0gyXVtDSDJdW05IXUMyPU8=

> <s_epik_cmdline>
J2VwaWtfcHl0aG9uJywgJy1waCcsICc3LjAnLCAnLXRuJywgJzgnLCAnLW1hJywgJzIwMCcsICctbWV0YWxfYmluZGluZycsICctaW1hZScsICc8aW5maWxlLm1hZT4nLCAnLW9tYWUnLCAnPG91dGZpbGUubWFlPic=

> <r_lp_tautomer_probability>
1

> <r_epik_Ionization_Penalty>
0.000122034

> <r_epik_Ionization_Penalty_Charging>
0

> <r_epik_Ionization_Penalty_Neutral>
0.000122034

> <r_epik_State_Penalty>
-0

> <r_epik_Charging_Adjusted_Penalty>
0

> <i_epik_Tot_Q>
0

> <i_epik_Tot_abs_Q>
0

> <r_epik_Metal_State_Penalty>
-0

> <b_epik_Metal_Only>
0

> <s_lp_Force_Field>
OPLS_2005

> <r_lp_Energy>
36.09

> <b_lp_Chiralities_Consistent>
1

> <s_lp_Variant>
AV-unprocessed.smi:1345-1

> <Gold.Version>
5.8.1

> <Gold.Id.Protein>
6NUR|6NUR_protein|mol2

> <Gold.PLP.Fitness>
40.6967

> <Gold.PLP.PLP>
-39.7198

> <Gold.PLP.part.hbond>
-2.3771

> <Gold.PLP.part.metal>
0.0000

> <Gold.PLP.part.buried>
-5.0815

> <Gold.PLP.part.nonpolar>
-32.9267

> <Gold.PLP.part.repulsive>
0.2703

> <Gold.PLP.ligand.clash>
0.0000

> <Gold.PLP.ligand.torsion>
1.1251

> <Gold.PLP.Chemscore.Hbond>
1.0655

> <Gold.PLP.Chemscore.CHOScore>
0.0000

> <Gold.PLP.Chemscore.Metal>
0.0000

> <Gold.Chemscore.Hbonds>
donor molecule, donor type, donor heavy atom, donor atom, acceptor molecule, acceptor atom, score
      L1  H    17    40       P1  8028  0.94
      P1  H  6934  6947       L1     8  0.04

> <Gold.PLP.Chemscore.Internal.Correction>
0.0306

> <Gold.Rescore>
     Score         DG    S(hbond)    S(metal)    S(lipo)     H(rot)  DE(clash)    DE(int)     intcor
     11.85     -15.07       1.37        0.00      80.90       1.74       0.12       3.10       ----

> <Gold.Chemscore.Fitness>
11.8526

> <Gold.Chemscore.DG>
-15.0697

> <Gold.Chemscore.ZeroCoef>
-5.4800

> <Gold.Chemscore.Hbond>
1.3673

> <Gold.Chemscore.Metal>
0.0000

> <Gold.Chemscore.Lipo>
80.8999

> <Gold.Chemscore.Internal_Hbond>
0.0000

> <Gold.Chemscore.DEClash>
0.1172

> <Gold.Chemscore.DEInternal>
3.0999

> <Gold.Chemscore.Rot>
1.7353

> <Gold.Chemscore.Internal.Correction>
   9.000000E+99

> <Gold.Chemscore.Hbonds>
donor molecule, donor type, donor heavy atom, donor atom, acceptor molecule, acceptor atom, score
      L1  H    17    40       P1  8028  0.67
      P1  H  6934  6947       L1     8  0.05

> <Gold.Chemscore.Hbond.Weighted>
-4.5666

> <Gold.Chemscore.Metal.Weighted>
-0.0000

> <Gold.Chemscore.Lipo.Weighted>
-9.4653

> <Gold.Chemscore.Internal_Hbond.Weighted>
0.0000

> <Gold.Chemscore.DEClash.Weighted>
0.1172

> <Gold.Chemscore.DEInternal.Weighted>
3.0999

> <Gold.Chemscore.Rot.Weighted>
4.4423

> <Gold.Chemscore.Internal.Correction.Weighted>
   9.000000E+99

> <Gold.Protein.RotatedTorsions>
[ 6907 6896 6895 6894 ] final -132.40 input  -60.11 | X-H torsion
[ 7974 7965 7964 7962 ] final -172.00 input  175.53 | X-H torsion
[ 8008 7997 7996 7995 ] final   97.69 input   59.86 | X-H torsion
[ 10167 10162 10161 10158 ] final   -9.82 input  -65.29 | X-H torsion
[ 10718 10713 10712 10709 ] final -156.90 input   66.30 | X-H torsion
[ 10763 10752 10751 10750 ] final  -90.13 input  -60.55 | X-H torsion
[ 11005 11000 10999 10996 ] final -133.35 input  -57.11 | X-H torsion

> <Gold.Protein.ActiveResidues>
 VAL166  LYS551  ARG553  GLY616  TRP617  ASP618  TYR619  PRO620  LYS621  CYS622 
 ASP623  PHE694  ASN695  SER759  ASP760  ASP761  ALA762  ILE779  LEU786  VAL792 
 PHE793  MET794  SER795  GLU796  ALA797  LYS798  CYS799  TRP800  GLU811  SER814 

> <Gold.Protein.RotatedAtoms>
  150.9620  133.6435  159.2752 H   0  0  0  0  0  0  0  0  0  0  0  0  # atno 6907 bound_to 6896
  151.3754  135.0929  159.9488 H   0  0  0  0  0  0  0  0  0  0  0  0  # atno 6908 bound_to 6896
  152.5151  133.9166  159.7568 H   0  0  0  0  0  0  0  0  0  0  0  0  # atno 6909 bound_to 6896
  144.7151  140.1838  143.6355 H   0  0  0  0  0  0  0  0  0  0  0  0  # atno 7974 bound_to 7965
  156.0927  140.3254  155.7837 H   0  0  0  0  0  0  0  0  0  0  0  0  # atno 8008 bound_to 7997
  155.4969  140.0566  157.2962 H   0  0  0  0  0  0  0  0  0  0  0  0  # atno 8009 bound_to 7997
  154.4648  140.1984  156.0164 H   0  0  0  0  0  0  0  0  0  0  0  0  # atno 8010 bound_to 7997
  140.7097  143.5816  150.8986 H   0  0  0  0  0  0  0  0  0  0  0  0  # atno 10167 bound_to 10162
  156.5329  130.8529  151.2722 H   0  0  0  0  0  0  0  0  0  0  0  0  # atno 10718 bound_to 10713
  154.6626  135.5315  153.8037 H   0  0  0  0  0  0  0  0  0  0  0  0  # atno 10763 bound_to 10752
  153.0451  135.6509  154.0848 H   0  0  0  0  0  0  0  0  0  0  0  0  # atno 10764 bound_to 10752
  154.0755  135.2951  155.3280 H   0  0  0  0  0  0  0  0  0  0  0  0  # atno 10765 bound_to 10752
  140.9088  134.1595  157.4405 H   0  0  0  0  0  0  0  0  0  0  0  0  # atno 11005 bound_to 11000
  145.8831  139.2334  143.1593 LP  0  0  0  0  0  0  0  0  0  0  0  0  # atno 17320 bound_to 7965
  145.9975  140.8549  143.0035 LP  0  0  0  0  0  0  0  0  0  0  0  0  # atno 17321 bound_to 7965
  139.9542  143.6238  152.3021 LP  0  0  0  0  0  0  0  0  0  0  0  0  # atno 17342 bound_to 10162
  139.6767  144.7658  151.1683 LP  0  0  0  0  0  0  0  0  0  0  0  0  # atno 17343 bound_to 10162
  157.7418  130.9878  150.2474 LP  0  0  0  0  0  0  0  0  0  0  0  0  # atno 17370 bound_to 10713
  156.3042  130.3763  149.7721 LP  0  0  0  0  0  0  0  0  0  0  0  0  # atno 17371 bound_to 10713
  139.8754  134.9927  156.5611 LP  0  0  0  0  0  0  0  0  0  0  0  0  # atno 17394 bound_to 11000
  140.8136  133.8409  155.8832 LP  0  0  0  0  0  0  0  0  0  0  0  0  # atno 17395 bound_to 11000

$$$$
