AV-unprocessed.smi:2439|AV-procd|sdf|9603|dock1
  -GOLD-   2272013233D 1   1.00000     0.00000
 Structure written by MMmdl.
 41 43  0  0  0  0  0  0  0  0  2 V2000
  151.3641  132.8801  157.6954 N   0  0  0  0  0  0  0  0  0  0  0  0
  151.8457  132.0874  157.0039 C   0  0  0  0  0  0  0  0  0  0  0  0
  152.4523  131.0892  156.1314 C   0  0  0  0  0  0  0  0  0  0  0  0
  153.8439  130.8712  156.2070 C   0  0  0  0  0  0  0  0  0  0  0  0
  154.4333  129.9062  155.3702 C   0  0  0  0  0  0  0  0  0  0  0  0
  153.6025  129.1955  154.4855 C   0  0  0  0  0  0  0  0  0  0  0  0
  152.2704  129.3937  154.4029 N   0  0  0  0  0  0  0  0  0  0  0  0
  151.6943  130.3218  155.2062 C   0  0  0  0  0  0  0  0  0  0  0  0
  150.3037  130.5099  155.0961 N   0  0  0  0  0  0  0  0  0  0  0  0
  149.4079  129.4407  154.6711 C   0  0  0  0  0  0  0  0  0  0  0  0
  148.5509  129.8390  153.4578 C   0  0  2  0  0  0  0  0  0  0  0  0
  148.2587  131.3500  153.4432 C   0  0  0  0  0  0  0  0  0  0  0  0
  147.3759  131.6977  152.3060 N   0  3  2  0  0  0  0  0  0  0  0  0
  147.1033  133.1550  152.2262 C   0  0  0  0  0  0  0  0  0  0  0  0
  146.2647  133.4930  150.9832 C   0  0  0  0  0  0  0  0  0  0  0  0
  144.9603  132.6858  150.9694 C   0  0  0  0  0  0  0  0  0  0  0  0
  145.2684  131.1865  151.0808 C   0  0  0  0  0  0  0  0  0  0  0  0
  146.1303  130.8833  152.3226 C   0  0  1  0  0  0  0  0  0  0  0  0
  146.4835  129.3853  152.4077 C   0  0  0  0  0  0  0  0  0  0  0  0
  147.3098  129.1464  153.5400 O   0  0  0  0  0  0  0  0  0  0  0  0
  154.4572  131.4337  156.8966 H   0  0  0  0  0  0  0  0  0  0  0  0
  155.4958  129.7163  155.4054 H   0  0  0  0  0  0  0  0  0  0  0  0
  154.0177  128.4467  153.8273 H   0  0  0  0  0  0  0  0  0  0  0  0
  149.8957  131.3754  155.4203 H   0  0  0  0  0  0  0  0  0  0  0  0
  150.0080  128.5635  154.4282 H   0  0  0  0  0  0  0  0  0  0  0  0
  148.7719  129.1486  155.5076 H   0  0  0  0  0  0  0  0  0  0  0  0
  149.0657  129.5646  152.5356 H   0  0  0  0  0  0  0  0  0  0  0  0
  147.7860  131.6517  154.3796 H   0  0  0  0  0  0  0  0  0  0  0  0
  149.1931  131.9068  153.3610 H   0  0  0  0  0  0  0  0  0  0  0  0
  146.5840  133.4806  153.1291 H   0  0  0  0  0  0  0  0  0  0  0  0
  148.0470  133.7008  152.1885 H   0  0  0  0  0  0  0  0  0  0  0  0
  146.0430  134.5603  150.9619 H   0  0  0  0  0  0  0  0  0  0  0  0
  146.8403  133.2774  150.0821 H   0  0  0  0  0  0  0  0  0  0  0  0
  144.3252  132.9952  151.8005 H   0  0  0  0  0  0  0  0  0  0  0  0
  144.4011  132.8888  150.0555 H   0  0  0  0  0  0  0  0  0  0  0  0
  144.3363  130.6222  151.1247 H   0  0  0  0  0  0  0  0  0  0  0  0
  145.7874  130.8553  150.1801 H   0  0  0  0  0  0  0  0  0  0  0  0
  145.5625  131.1522  153.2155 H   0  0  0  0  0  0  0  0  0  0  0  0
  145.5761  128.7893  152.5076 H   0  0  0  0  0  0  0  0  0  0  0  0
  146.9869  129.0462  151.5006 H   0  0  0  0  0  0  0  0  0  0  0  0
  147.8748  131.4482  151.4640 H   0  0  0  0  0  0  0  0  0  0  0  0
  1  2  3  0  0  0  0
  2  3  1  0  0  0  0
  3  8  1  0  0  0  0
  3  4  2  0  0  0  0
  4  5  1  0  0  0  0
  4 21  1  0  0  0  0
  5  6  2  0  0  0  0
  5 22  1  0  0  0  0
  6  7  1  0  0  0  0
  6 23  1  0  0  0  0
  7  8  2  0  0  0  0
  8  9  1  0  0  0  0
  9 10  1  0  0  0  0
  9 24  1  0  0  0  0
 10 11  1  0  0  0  0
 10 25  1  0  0  0  0
 10 26  1  0  0  0  0
 11 20  1  0  0  0  0
 11 12  1  0  0  0  0
 11 27  1  0  0  0  0
 12 13  1  0  0  0  0
 12 28  1  0  0  0  0
 12 29  1  0  0  0  0
 13 18  1  0  0  0  0
 13 14  1  0  0  0  0
 13 41  1  0  0  0  0
 14 15  1  0  0  0  0
 14 30  1  0  0  0  0
 14 31  1  0  0  0  0
 15 16  1  0  0  0  0
 15 32  1  0  0  0  0
 15 33  1  0  0  0  0
 16 17  1  0  0  0  0
 16 34  1  0  0  0  0
 16 35  1  0  0  0  0
 17 18  1  0  0  0  0
 17 36  1  0  0  0  0
 17 37  1  0  0  0  0
 18 19  1  0  0  0  0
 18 38  1  0  0  0  0
 19 20  1  0  0  0  0
 19 39  1  0  0  0  0
 19 40  1  0  0  0  0
M  CHG  1  13   1
M  END
> <s_m_source_file>
AV-unprocessed.smi

> <i_m_source_file_index>
2439

> <i_lp_mmshare_version>
43012

> <i_f3d_flags>
0

> <s_epik_input>
TiNDYzFbY0hdW2NIXVtjSF1uYzFbTkhdW0NIMl1bQ0BIXShbQ0gyXTIpT1tDSDJdW0NAQEhdKE4yMylbQ0gyXVtDSDJdW0NIMl1bQ0gyXTM=

> <s_epik_cmdline>
J2VwaWtfcHl0aG9uJywgJy1waCcsICc3LjAnLCAnLXRuJywgJzgnLCAnLW1hJywgJzIwMCcsICctbWV0YWxfYmluZGluZycsICctaW1hZScsICc8aW5maWxlLm1hZT4nLCAnLW9tYWUnLCAnPG91dGZpbGUubWFlPic=

> <r_epik_Ionization_Penalty>
0.0803594

> <r_epik_Ionization_Penalty_Charging>
0.0803403

> <r_epik_Ionization_Penalty_Neutral>
1.90988e-05

> <r_epik_State_Penalty>
0.0711481

> <r_epik_Charging_Adjusted_Penalty>
0.151488

> <i_epik_Tot_Q>
1

> <i_epik_Tot_abs_Q>
1

> <r_epik_Metal_State_Penalty>
0.0711482

> <b_epik_Metal_Only>
0

> <s_lp_Force_Field>
OPLS_2005

> <r_lp_Energy>
27.3027

> <b_lp_Chiralities_Consistent>
1

> <s_lp_Variant>
AV-unprocessed.smi:2439-1

> <Gold.Version>
5.8.1

> <Gold.Id.Protein>
6NUR|6NUR_protein|mol2

> <Gold.PLP.Fitness>
39.8338

> <Gold.PLP.PLP>
-34.9031

> <Gold.PLP.part.hbond>
-1.9411

> <Gold.PLP.part.metal>
0.0000

> <Gold.PLP.part.buried>
-5.0625

> <Gold.PLP.part.nonpolar>
-28.5330

> <Gold.PLP.part.repulsive>
0.1891

> <Gold.PLP.ligand.clash>
0.0000

> <Gold.PLP.ligand.torsion>
0.5547

> <Gold.PLP.Chemscore.Hbond>
2.0000

> <Gold.PLP.Chemscore.CHOScore>
0.0105

> <Gold.PLP.Chemscore.Metal>
0.0000

> <Gold.Chemscore.Hbonds>
donor molecule, donor type, donor heavy atom, donor atom, acceptor molecule, acceptor atom, score
      L1  H    13    41       P1 10747  1.00
      P1  H  6896  6909       L1     1  1.00
      L1  C     6    23       P1 10737  0.01

> <Gold.PLP.Chemscore.Internal.Correction>
0.0086

> <Gold.Rescore>
     Score         DG    S(hbond)    S(metal)    S(lipo)     H(rot)  DE(clash)    DE(int)     intcor
     18.05     -18.68       1.97        0.00      84.39       1.27       0.08       0.56       ----

> <Gold.Chemscore.Fitness>
18.0467

> <Gold.Chemscore.DG>
-18.6849

> <Gold.Chemscore.ZeroCoef>
-5.4800

> <Gold.Chemscore.Hbond>
1.9678

> <Gold.Chemscore.Metal>
0.0000

> <Gold.Chemscore.Lipo>
84.3876

> <Gold.Chemscore.Internal_Hbond>
0.0000

> <Gold.Chemscore.DEClash>
0.0757

> <Gold.Chemscore.DEInternal>
0.5625

> <Gold.Chemscore.Rot>
1.2659

> <Gold.Chemscore.Internal.Correction>
   9.000000E+99

> <Gold.Chemscore.Hbonds>
donor molecule, donor type, donor heavy atom, donor atom, acceptor molecule, acceptor atom, score
      L1  H    13    41       P1 10747  1.00
      P1  H  6896  6909       L1     1  0.92

> <Gold.Chemscore.Hbond.Weighted>
-6.5723

> <Gold.Chemscore.Metal.Weighted>
-0.0000

> <Gold.Chemscore.Lipo.Weighted>
-9.8733

> <Gold.Chemscore.Internal_Hbond.Weighted>
0.0000

> <Gold.Chemscore.DEClash.Weighted>
0.0757

> <Gold.Chemscore.DEInternal.Weighted>
0.5625

> <Gold.Chemscore.Rot.Weighted>
3.2408

> <Gold.Chemscore.Internal.Correction.Weighted>
   9.000000E+99

> <Gold.Protein.RotatedTorsions>
[ 6907 6896 6895 6894 ] final  -42.15 input  -60.11 | X-H torsion
[ 7974 7965 7964 7962 ] final -167.69 input  175.53 | X-H torsion
[ 8008 7997 7996 7995 ] final  149.32 input   59.86 | X-H torsion
[ 10167 10162 10161 10158 ] final -166.78 input  -65.29 | X-H torsion
[ 10718 10713 10712 10709 ] final -167.04 input   66.30 | X-H torsion
[ 10763 10752 10751 10750 ] final  -55.02 input  -60.55 | X-H torsion
[ 11005 11000 10999 10996 ] final   20.85 input  -57.11 | X-H torsion

> <Gold.Protein.ActiveResidues>
 VAL166  LYS551  ARG553  GLY616  TRP617  ASP618  TYR619  PRO620  LYS621  CYS622 
 ASP623  PHE694  ASN695  SER759  ASP760  ASP761  ALA762  ILE779  LEU786  VAL792 
 PHE793  MET794  SER795  GLU796  ALA797  LYS798  CYS799  TRP800  GLU811  SER814 

> <Gold.Protein.RotatedAtoms>
  150.9585  134.8976  159.7715 H   0  0  0  0  0  0  0  0  0  0  0  0  # atno 6907 bound_to 6896
  152.5147  134.3705  159.9326 H   0  0  0  0  0  0  0  0  0  0  0  0  # atno 6908 bound_to 6896
  151.3718  133.3811  159.2735 H   0  0  0  0  0  0  0  0  0  0  0  0  # atno 6909 bound_to 6896
  144.7218  140.2480  143.6282 H   0  0  0  0  0  0  0  0  0  0  0  0  # atno 7974 bound_to 7965
  156.2759  140.2105  156.5840 H   0  0  0  0  0  0  0  0  0  0  0  0  # atno 8008 bound_to 7997
  154.7036  140.0518  157.0505 H   0  0  0  0  0  0  0  0  0  0  0  0  # atno 8009 bound_to 7997
  155.0701  140.3176  155.4636 H   0  0  0  0  0  0  0  0  0  0  0  0  # atno 8010 bound_to 7997
  139.6092  144.0850  152.1824 H   0  0  0  0  0  0  0  0  0  0  0  0  # atno 10167 bound_to 10162
  156.6767  130.9105  151.3051 H   0  0  0  0  0  0  0  0  0  0  0  0  # atno 10718 bound_to 10713
  154.1841  135.6438  153.5042 H   0  0  0  0  0  0  0  0  0  0  0  0  # atno 10763 bound_to 10752
  153.0051  135.5413  154.6484 H   0  0  0  0  0  0  0  0  0  0  0  0  # atno 10764 bound_to 10752
  154.5855  135.2929  155.0661 H   0  0  0  0  0  0  0  0  0  0  0  0  # atno 10765 bound_to 10752
  140.3981  134.1748  155.7663 H   0  0  0  0  0  0  0  0  0  0  0  0  # atno 11005 bound_to 11000
  145.8255  139.2062  143.1913 LP  0  0  0  0  0  0  0  0  0  0  0  0  # atno 17320 bound_to 7965
  146.0476  140.8102  142.9797 LP  0  0  0  0  0  0  0  0  0  0  0  0  # atno 17321 bound_to 7965
  140.0464  144.5967  150.7370 LP  0  0  0  0  0  0  0  0  0  0  0  0  # atno 17342 bound_to 10162
  140.7307  143.2686  151.3962 LP  0  0  0  0  0  0  0  0  0  0  0  0  # atno 17343 bound_to 10162
  157.7058  130.9384  150.0927 LP  0  0  0  0  0  0  0  0  0  0  0  0  # atno 17370 bound_to 10713
  156.1898  130.3654  149.8924 LP  0  0  0  0  0  0  0  0  0  0  0  0  # atno 17371 bound_to 10713
  141.1867  133.8297  157.1060 LP  0  0  0  0  0  0  0  0  0  0  0  0  # atno 17394 bound_to 11000
  140.0357  134.9879  157.0866 LP  0  0  0  0  0  0  0  0  0  0  0  0  # atno 17395 bound_to 11000

$$$$
