AV-unprocessed.smi:817|AV-procd|sdf|3829|dock3
  -GOLD-   22720 1273D 1   1.00000     0.00000
 Structure written by MMmdl.
 48 49  0  0  0  0  0  0  0  0  2 V2000
  148.1454  132.7118  152.3914 C   0  0  0  0  0  0  0  0  0  0  0  0
  146.8388  133.3123  151.8518 C   0  0  1  0  0  0  0  0  0  0  0  0
  146.1478  132.3456  150.8743 C   0  0  0  0  0  0  0  0  0  0  0  0
  144.8138  132.9079  150.3651 C   0  0  0  0  0  0  0  0  0  0  0  0
  143.8717  133.2872  151.5234 C   0  0  0  0  0  0  0  0  0  0  0  0
  144.5048  134.2779  152.5446 C   0  0  1  0  0  0  0  0  0  0  0  0
  144.7534  135.6570  151.8576 C   0  0  0  0  0  0  0  0  0  0  0  0
  146.0097  136.2760  152.2865 N   0  0  0  0  0  0  0  0  0  0  0  0
  146.1945  137.5316  152.7285 C   0  0  0  0  0  0  0  0  0  0  0  0
  145.2503  138.3105  152.8313 O   0  0  0  0  0  0  0  0  0  0  0  0
  147.4710  137.8173  153.0526 N   0  0  0  0  0  0  0  0  0  0  0  0
  148.0218  139.0383  153.5276 C   0  0  0  0  0  0  0  0  0  0  0  0
  147.1902  140.1771  153.5260 C   0  0  0  0  0  0  0  0  0  0  0  0
  147.6966  141.3992  154.0065 C   0  0  0  0  0  0  0  0  0  0  0  0
  149.0221  141.4345  154.4799 C   0  0  0  0  0  0  0  0  0  0  0  0
  149.8284  140.3525  154.5011 N   0  0  0  0  0  0  0  0  0  0  0  0
  149.3365  139.1832  154.0374 C   0  0  0  0  0  0  0  0  0  0  0  0
  143.5904  134.4955  153.7299 N   0  3  0  0  0  0  0  0  0  0  0  0
  144.2273  135.1157  154.9219 C   0  0  0  0  0  0  0  0  0  0  0  0
  142.2851  135.1488  153.4491 C   0  0  0  0  0  0  0  0  0  0  0  0
  145.8761  133.6782  153.0028 C   0  0  0  0  0  0  0  0  0  0  0  0
  147.9634  131.7860  152.9383 H   0  0  0  0  0  0  0  0  0  0  0  0
  148.6463  133.4045  153.0681 H   0  0  0  0  0  0  0  0  0  0  0  0
  148.8382  132.4869  151.5799 H   0  0  0  0  0  0  0  0  0  0  0  0
  147.1164  134.2148  151.3089 H   0  0  0  0  0  0  0  0  0  0  0  0
  146.8036  132.1363  150.0281 H   0  0  0  0  0  0  0  0  0  0  0  0
  145.9694  131.3890  151.3674 H   0  0  0  0  0  0  0  0  0  0  0  0
  144.9965  133.7722  149.7265 H   0  0  0  0  0  0  0  0  0  0  0  0
  144.3277  132.1672  149.7296 H   0  0  0  0  0  0  0  0  0  0  0  0
  142.9597  133.7032  151.0952 H   0  0  0  0  0  0  0  0  0  0  0  0
  143.5747  132.3696  152.0319 H   0  0  0  0  0  0  0  0  0  0  0  0
  144.7710  135.5711  150.7730 H   0  0  0  0  0  0  0  0  0  0  0  0
  143.9297  136.3402  152.0632 H   0  0  0  0  0  0  0  0  0  0  0  0
  146.8336  135.6950  152.2337 H   0  0  0  0  0  0  0  0  0  0  0  0
  148.1227  137.0492  152.9898 H   0  0  0  0  0  0  0  0  0  0  0  0
  146.1758  140.1185  153.1587 H   0  0  0  0  0  0  0  0  0  0  0  0
  147.0833  142.2882  154.0131 H   0  0  0  0  0  0  0  0  0  0  0  0
  149.4440  142.3548  154.8561 H   0  0  0  0  0  0  0  0  0  0  0  0
  150.0216  138.3533  154.1046 H   0  0  0  0  0  0  0  0  0  0  0  0
  144.4637  136.1659  154.7487 H   0  0  0  0  0  0  0  0  0  0  0  0
  145.1363  134.6031  155.2302 H   0  0  0  0  0  0  0  0  0  0  0  0
  143.5490  135.0723  155.7747 H   0  0  0  0  0  0  0  0  0  0  0  0
  142.4128  136.1095  152.9505 H   0  0  0  0  0  0  0  0  0  0  0  0
  141.7348  135.3283  154.3734 H   0  0  0  0  0  0  0  0  0  0  0  0
  141.6409  134.5156  152.8398 H   0  0  0  0  0  0  0  0  0  0  0  0
  145.7183  132.7493  153.5498 H   0  0  0  0  0  0  0  0  0  0  0  0
  146.3728  134.3559  153.6983 H   0  0  0  0  0  0  0  0  0  0  0  0
  143.3421  133.5635  154.0301 H   0  0  0  0  0  0  0  0  0  0  0  0
  1  2  1  0  0  0  0
  1 22  1  0  0  0  0
  1 23  1  0  0  0  0
  1 24  1  0  0  0  0
  2 21  1  0  0  0  0
  2  3  1  0  0  0  0
  2 25  1  0  0  0  0
  3  4  1  0  0  0  0
  3 26  1  0  0  0  0
  3 27  1  0  0  0  0
  4  5  1  0  0  0  0
  4 28  1  0  0  0  0
  4 29  1  0  0  0  0
  5  6  1  0  0  0  0
  5 30  1  0  0  0  0
  5 31  1  0  0  0  0
  6  7  1  0  0  0  0
  6 18  1  0  0  0  0
  6 21  1  0  0  0  0
  7  8  1  0  0  0  0
  7 32  1  0  0  0  0
  7 33  1  0  0  0  0
  8  9  1  0  0  0  0
  8 34  1  0  0  0  0
  9 10  2  0  0  0  0
  9 11  1  0  0  0  0
 11 12  1  0  0  0  0
 11 35  1  0  0  0  0
 12 17  1  0  0  0  0
 12 13  2  0  0  0  0
 13 14  1  0  0  0  0
 13 36  1  0  0  0  0
 14 15  2  0  0  0  0
 14 37  1  0  0  0  0
 15 16  1  0  0  0  0
 15 38  1  0  0  0  0
 16 17  2  0  0  0  0
 17 39  1  0  0  0  0
 18 19  1  0  0  0  0
 18 20  1  0  0  0  0
 18 48  1  0  0  0  0
 19 40  1  0  0  0  0
 19 41  1  0  0  0  0
 19 42  1  0  0  0  0
 20 43  1  0  0  0  0
 20 44  1  0  0  0  0
 20 45  1  0  0  0  0
 21 46  1  0  0  0  0
 21 47  1  0  0  0  0
M  CHG  1  18   1
M  END
> <s_m_source_file>
AV-unprocessed.smi

> <i_m_source_file_index>
817

> <i_lp_mmshare_version>
43012

> <i_f3d_flags>
0

> <s_epik_input>
W0NIM11bQ0BASF0oW0NIMl0xKVtDSDJdW0NIMl1bQ0gyXVtDQF0xKE4oW0NIM10pW0NIM10pW0NIMl1bTkhdQyg9TylbTkhdYzJbY0hdW2NIXVtjSF1uW2NIXTI=

> <s_epik_cmdline>
J2VwaWtfcHl0aG9uJywgJy1waCcsICc3LjAnLCAnLXRuJywgJzgnLCAnLW1hJywgJzIwMCcsICctbWV0YWxfYmluZGluZycsICctaW1hZScsICc8aW5maWxlLm1hZT4nLCAnLW9tYWUnLCAnPG91dGZpbGUubWFlPic=

> <r_lp_tautomer_probability>
1

> <r_epik_Ionization_Penalty>
0.00584939

> <r_epik_Ionization_Penalty_Charging>
0.00160539

> <r_epik_Ionization_Penalty_Neutral>
0.004244

> <r_epik_State_Penalty>
-0

> <r_epik_Charging_Adjusted_Penalty>
0.00160539

> <i_epik_Tot_Q>
1

> <i_epik_Tot_abs_Q>
1

> <r_epik_Metal_State_Penalty>
-0

> <b_epik_Metal_Only>
0

> <s_lp_Force_Field>
OPLS_2005

> <r_lp_Energy>
49.3624

> <b_lp_Chiralities_Consistent>
1

> <s_lp_Variant>
AV-unprocessed.smi:817-2

> <Gold.Version>
5.8.1

> <Gold.Id.Protein>
6NUR|6NUR_protein|mol2

> <Gold.PLP.Fitness>
43.5523

> <Gold.PLP.PLP>
-32.8490

> <Gold.PLP.part.hbond>
-3.7815

> <Gold.PLP.part.metal>
0.0000

> <Gold.PLP.part.buried>
-0.1140

> <Gold.PLP.part.nonpolar>
-31.5159

> <Gold.PLP.part.repulsive>
3.0208

> <Gold.PLP.ligand.clash>
1.8708

> <Gold.PLP.ligand.torsion>
1.0292

> <Gold.PLP.Chemscore.Hbond>
3.8374

> <Gold.PLP.Chemscore.CHOScore>
1.0000

> <Gold.PLP.Chemscore.Metal>
0.0000

> <Gold.Chemscore.Hbonds>
donor molecule, donor type, donor heavy atom, donor atom, acceptor molecule, acceptor atom, score
      L1  H     8    34       P1  7948  0.37
      L1  H    11    35       P1  7948  0.78
      L1  H    18    48       P1 10957  1.82
      P1  H  7989  7998       L1    16  0.70
      L1  C    15    38       P1  8028  0.95

> <Gold.PLP.Chemscore.Internal.Correction>
0.1202

> <Gold.Rescore>
     Score         DG    S(hbond)    S(metal)    S(lipo)     H(rot)  DE(clash)    DE(int)     intcor
     16.35     -20.31       2.57        0.00      84.79       1.44       1.59       2.37       ----

> <Gold.Chemscore.Fitness>
16.3547

> <Gold.Chemscore.DG>
-20.3066

> <Gold.Chemscore.ZeroCoef>
-5.4800

> <Gold.Chemscore.Hbond>
2.5730

> <Gold.Chemscore.Metal>
0.0000

> <Gold.Chemscore.Lipo>
84.7916

> <Gold.Chemscore.Internal_Hbond>
0.0000

> <Gold.Chemscore.DEClash>
1.5857

> <Gold.Chemscore.DEInternal>
2.3661

> <Gold.Chemscore.Rot>
1.4405

> <Gold.Chemscore.Internal.Correction>
   9.000000E+99

> <Gold.Chemscore.Hbonds>
donor molecule, donor type, donor heavy atom, donor atom, acceptor molecule, acceptor atom, score
      L1  H     8    34       P1  7948  0.36
      L1  H    11    35       P1  7948  0.77
      L1  H    18    48       P1 10957  0.89
      P1  H  7989  7998       L1    16  0.31

> <Gold.Chemscore.Hbond.Weighted>
-8.5937

> <Gold.Chemscore.Metal.Weighted>
-0.0000

> <Gold.Chemscore.Lipo.Weighted>
-9.9206

> <Gold.Chemscore.Internal_Hbond.Weighted>
0.0000

> <Gold.Chemscore.DEClash.Weighted>
1.5857

> <Gold.Chemscore.DEInternal.Weighted>
2.3661

> <Gold.Chemscore.Rot.Weighted>
3.6878

> <Gold.Chemscore.Internal.Correction.Weighted>
   9.000000E+99

> <Gold.Protein.RotatedTorsions>
[ 6907 6896 6895 6894 ] final  -11.12 input  -60.11 | X-H torsion
[ 7974 7965 7964 7962 ] final -134.81 input  175.53 | X-H torsion
[ 8008 7997 7996 7995 ] final -152.76 input   59.86 | X-H torsion
[ 10167 10162 10161 10158 ] final   70.55 input  -65.29 | X-H torsion
[ 10718 10713 10712 10709 ] final  -29.99 input   66.30 | X-H torsion
[ 10763 10752 10751 10750 ] final   16.03 input  -60.55 | X-H torsion
[ 11005 11000 10999 10996 ] final   27.74 input  -57.11 | X-H torsion

> <Gold.Protein.ActiveResidues>
 VAL166  LYS551  ARG553  GLY616  TRP617  ASP618  TYR619  PRO620  LYS621  CYS622 
 ASP623  PHE694  ASN695  SER759  ASP760  ASP761  ALA762  ILE779  LEU786  VAL792 
 PHE793  MET794  SER795  GLU796  ALA797  LYS798  CYS799  TRP800  GLU811  SER814 

> <Gold.Protein.RotatedAtoms>
  151.3912  135.0956  159.9526 H   0  0  0  0  0  0  0  0  0  0  0  0  # atno 6907 bound_to 6896
  152.5079  133.8978  159.7436 H   0  0  0  0  0  0  0  0  0  0  0  0  # atno 6908 bound_to 6896
  150.9432  133.6577  159.2815 H   0  0  0  0  0  0  0  0  0  0  0  0  # atno 6909 bound_to 6896
  144.9070  140.6845  143.5049 H   0  0  0  0  0  0  0  0  0  0  0  0  # atno 7974 bound_to 7965
  155.6602  140.0722  157.2556 H   0  0  0  0  0  0  0  0  0  0  0  0  # atno 8008 bound_to 7997
  154.4144  140.1717  156.1819 H   0  0  0  0  0  0  0  0  0  0  0  0  # atno 8009 bound_to 7997
  155.9703  140.3362  155.6573 H   0  0  0  0  0  0  0  0  0  0  0  0  # atno 8010 bound_to 7997
  140.0557  144.5274  150.7330 H   0  0  0  0  0  0  0  0  0  0  0  0  # atno 10167 bound_to 10162
  156.4054  130.4398  149.7291 H   0  0  0  0  0  0  0  0  0  0  0  0  # atno 10718 bound_to 10713
  153.1469  135.6771  153.8941 H   0  0  0  0  0  0  0  0  0  0  0  0  # atno 10763 bound_to 10752
  153.8380  135.3109  155.3425 H   0  0  0  0  0  0  0  0  0  0  0  0  # atno 10764 bound_to 10752
  154.7832  135.4877  153.9975 H   0  0  0  0  0  0  0  0  0  0  0  0  # atno 10765 bound_to 10752
  140.3231  134.2521  155.7714 H   0  0  0  0  0  0  0  0  0  0  0  0  # atno 11005 bound_to 11000
  145.3519  139.1704  143.4430 LP  0  0  0  0  0  0  0  0  0  0  0  0  # atno 17320 bound_to 7965
  146.3139  140.3572  142.8661 LP  0  0  0  0  0  0  0  0  0  0  0  0  # atno 17321 bound_to 7965
  140.7195  143.2576  151.4324 LP  0  0  0  0  0  0  0  0  0  0  0  0  # atno 17342 bound_to 10162
  139.5925  144.1469  152.2105 LP  0  0  0  0  0  0  0  0  0  0  0  0  # atno 17343 bound_to 10162
  156.4291  130.7806  151.2825 LP  0  0  0  0  0  0  0  0  0  0  0  0  # atno 17370 bound_to 10713
  157.7505  131.0159  150.3525 LP  0  0  0  0  0  0  0  0  0  0  0  0  # atno 17371 bound_to 10713
  141.2082  133.7785  157.0075 LP  0  0  0  0  0  0  0  0  0  0  0  0  # atno 17394 bound_to 11000
  140.0925  134.9584  157.1798 LP  0  0  0  0  0  0  0  0  0  0  0  0  # atno 17395 bound_to 11000

$$$$
