AV-unprocessed.smi:276|AV-procd|sdf|2081|dock1
  -GOLD-   2262021353D 1   1.00000     0.00000
 Structure written by MMmdl.
 57 61  0  0  0  0  0  0  0  0  1 V2000
  145.3236  132.7429  162.0426 C   0  0  0  0  0  0  0  0  0  0  0  0
  145.8324  134.0402  162.2977 O   0  0  0  0  0  0  0  0  0  0  0  0
  146.6778  134.5074  161.2583 C   0  0  1  0  0  0  0  0  0  0  0  0
  145.9560  134.8171  159.9411 C   0  0  0  0  0  0  0  0  0  0  0  0
  146.8344  136.0768  159.8060 C   0  0  2  0  0  0  0  0  0  0  0  0
  148.0444  135.8087  159.0152 N   0  0  0  0  0  0  0  0  0  0  0  0
  147.8448  135.0970  157.7564 C   0  0  0  0  0  0  0  0  0  0  0  0
  148.8722  136.8598  158.8222 C   0  0  0  0  0  0  0  0  0  0  0  0
  150.1465  136.7271  159.2669 N   0  0  0  0  0  0  0  0  0  0  0  0
  151.0165  137.7297  159.1129 C   0  0  0  0  0  0  0  0  0  0  0  0
  150.8244  138.9228  158.5464 N   0  0  0  0  0  0  0  0  0  0  0  0
  149.5470  139.0530  158.0864 C   0  0  0  0  0  0  0  0  0  0  0  0
  148.5137  138.0784  158.1767 C   0  0  0  0  0  0  0  0  0  0  0  0
  147.3521  138.5670  157.5897 N   0  0  0  0  0  0  0  0  0  0  0  0
  147.6770  139.7647  157.1858 C   0  0  0  0  0  0  0  0  0  0  0  0
  148.9763  140.1368  157.4444 N   0  0  0  0  0  0  0  0  0  0  0  0
  149.6079  141.3993  157.1045 C   0  0  0  0  0  0  0  0  0  0  0  0
  149.9109  142.2610  158.3462 C   0  0  2  0  0  0  0  0  0  0  0  0
  149.1456  143.4498  158.2829 O   0  0  0  0  0  0  0  0  0  0  0  0
  151.4025  142.6307  158.4480 C   0  0  1  0  0  0  0  0  0  0  0  0
  151.7424  143.5834  159.5958 C   0  0  0  0  0  0  0  0  0  0  0  0
  153.2068  143.2836  159.8179 C   0  0  0  0  0  0  0  0  0  0  0  0
  153.2471  141.7727  159.6145 C   0  0  0  0  0  0  0  0  0  0  0  0
  152.1888  141.4694  158.7089 O   0  0  0  0  0  0  0  0  0  0  0  0
  147.0098  136.0078  161.3477 C   0  0  0  0  0  0  0  0  0  0  0  0
  146.1624  136.9293  162.2443 C   0  0  0  0  0  0  0  0  0  0  0  0
  147.2831  136.8597  163.2849 C   0  0  0  0  0  0  0  0  0  0  0  0
  148.2346  136.5043  162.1399 C   0  0  0  0  0  0  0  0  0  0  0  0
  144.6885  132.4299  162.8712 H   0  0  0  0  0  0  0  0  0  0  0  0
  146.1315  132.0166  161.9443 H   0  0  0  0  0  0  0  0  0  0  0  0
  144.7224  132.7232  161.1327 H   0  0  0  0  0  0  0  0  0  0  0  0
  147.5759  133.9016  161.1193 H   0  0  0  0  0  0  0  0  0  0  0  0
  146.0752  134.0515  159.1750 H   0  0  0  0  0  0  0  0  0  0  0  0
  144.9027  135.0615  160.0888 H   0  0  0  0  0  0  0  0  0  0  0  0
  146.2622  136.9405  159.4675 H   0  0  0  0  0  0  0  0  0  0  0  0
  148.6879  135.2151  157.0732 H   0  0  0  0  0  0  0  0  0  0  0  0
  146.9488  135.4568  157.2498 H   0  0  0  0  0  0  0  0  0  0  0  0
  147.7275  134.0295  157.9401 H   0  0  0  0  0  0  0  0  0  0  0  0
  152.0089  137.5501  159.4994 H   0  0  0  0  0  0  0  0  0  0  0  0
  146.9726  140.4132  156.6856 H   0  0  0  0  0  0  0  0  0  0  0  0
  150.5280  141.1782  156.5624 H   0  0  0  0  0  0  0  0  0  0  0  0
  148.9609  141.9399  156.4123 H   0  0  0  0  0  0  0  0  0  0  0  0
  149.6142  141.7175  159.2443 H   0  0  0  0  0  0  0  0  0  0  0  0
  149.3756  143.9127  157.4921 H   0  0  0  0  0  0  0  0  0  0  0  0
  151.7519  143.0629  157.5086 H   0  0  0  0  0  0  0  0  0  0  0  0
  151.5535  144.6292  159.3518 H   0  0  0  0  0  0  0  0  0  0  0  0
  151.1702  143.3313  160.4899 H   0  0  0  0  0  0  0  0  0  0  0  0
  153.8100  143.7822  159.0578 H   0  0  0  0  0  0  0  0  0  0  0  0
  153.5665  143.5931  160.7995 H   0  0  0  0  0  0  0  0  0  0  0  0
  154.2091  141.4317  159.2315 H   0  0  0  0  0  0  0  0  0  0  0  0
  153.0547  141.2553  160.5551 H   0  0  0  0  0  0  0  0  0  0  0  0
  146.0448  137.9297  161.8242 H   0  0  0  0  0  0  0  0  0  0  0  0
  145.2057  136.5212  162.5707 H   0  0  0  0  0  0  0  0  0  0  0  0
  147.5018  137.8029  163.7862 H   0  0  0  0  0  0  0  0  0  0  0  0
  147.1511  136.0418  163.9952 H   0  0  0  0  0  0  0  0  0  0  0  0
  148.9710  135.7364  162.3781 H   0  0  0  0  0  0  0  0  0  0  0  0
  148.7023  137.3973  161.7262 H   0  0  0  0  0  0  0  0  0  0  0  0
  1  2  1  0  0  0  0
  1 29  1  0  0  0  0
  1 30  1  0  0  0  0
  1 31  1  0  0  0  0
  2  3  1  0  0  0  0
  3 25  1  0  0  0  0
  3  4  1  0  0  0  0
  3 32  1  0  0  0  0
  4  5  1  0  0  0  0
  4 33  1  0  0  0  0
  4 34  1  0  0  0  0
  5  6  1  0  0  0  0
  5 25  1  0  0  0  0
  5 35  1  0  0  0  0
  6  7  1  0  0  0  0
  6  8  1  0  0  0  0
  7 36  1  0  0  0  0
  7 37  1  0  0  0  0
  7 38  1  0  0  0  0
  8 13  1  0  0  0  0
  8  9  2  0  0  0  0
  9 10  1  0  0  0  0
 10 11  2  0  0  0  0
 10 39  1  0  0  0  0
 11 12  1  0  0  0  0
 12 16  1  0  0  0  0
 12 13  2  0  0  0  0
 13 14  1  0  0  0  0
 14 15  2  0  0  0  0
 15 16  1  0  0  0  0
 15 40  1  0  0  0  0
 16 17  1  0  0  0  0
 17 18  1  0  0  0  0
 17 41  1  0  0  0  0
 17 42  1  0  0  0  0
 18 19  1  0  0  0  0
 18 20  1  0  0  0  0
 18 43  1  0  0  0  0
 19 44  1  0  0  0  0
 20 24  1  0  0  0  0
 20 21  1  0  0  0  0
 20 45  1  0  0  0  0
 21 22  1  0  0  0  0
 21 46  1  0  0  0  0
 21 47  1  0  0  0  0
 22 23  1  0  0  0  0
 22 48  1  0  0  0  0
 22 49  1  0  0  0  0
 23 24  1  0  0  0  0
 23 50  1  0  0  0  0
 23 51  1  0  0  0  0
 25 28  1  0  0  0  0
 25 26  1  0  0  0  0
 26 27  1  0  0  0  0
 26 52  1  0  0  0  0
 26 53  1  0  0  0  0
 27 28  1  0  0  0  0
 27 54  1  0  0  0  0
 27 55  1  0  0  0  0
 28 56  1  0  0  0  0
 28 57  1  0  0  0  0
M  END
> <s_m_source_file>
AV-unprocessed.smi

> <i_m_source_file_index>
276

> <i_lp_mmshare_version>
43012

> <i_f3d_flags>
0

> <s_epik_input>
W0NIMl0xW0NIMl1bQ0gyXUMxMltDQEhdKE9bQ0gzXSlbQ0gyXVtDQEhdMk4oW0NIM10pYyhuW2NIXW4zKWMoYzM0KW5bY0hdbjRbQ0gyXVtDQEhdKFtPSF0pW0NAQEhdNVtDSDJdW0NIMl1bQ0gyXU81

> <s_epik_cmdline>
J2VwaWtfcHl0aG9uJywgJy1waCcsICc3LjAnLCAnLXRuJywgJzgnLCAnLW1hJywgJzIwMCcsICctbWV0YWxfYmluZGluZycsICctaW1hZScsICc8aW5maWxlLm1hZT4nLCAnLW9tYWUnLCAnPG91dGZpbGUubWFlPic=

> <r_lp_tautomer_probability>
1

> <r_epik_Ionization_Penalty>
0.00204117

> <r_epik_Ionization_Penalty_Charging>
0

> <r_epik_Ionization_Penalty_Neutral>
0.00204117

> <r_epik_State_Penalty>
0.00127401

> <r_epik_Charging_Adjusted_Penalty>
0.00127401

> <i_epik_Tot_Q>
0

> <i_epik_Tot_abs_Q>
0

> <r_epik_Metal_State_Penalty>
-0

> <b_epik_Metal_Only>
0

> <s_lp_Force_Field>
OPLS_2005

> <r_lp_Energy>
57.2167

> <b_lp_Chiralities_Consistent>
1

> <s_lp_Variant>
AV-unprocessed.smi:276-12

> <Gold.Version>
5.8.1

> <Gold.Id.Protein>
6NUR|6NUR_protein|mol2

> <Gold.PLP.Fitness>
45.1655

> <Gold.PLP.PLP>
-41.2943

> <Gold.PLP.part.hbond>
-3.0000

> <Gold.PLP.part.metal>
0.0000

> <Gold.PLP.part.buried>
-4.7607

> <Gold.PLP.part.nonpolar>
-33.5561

> <Gold.PLP.part.repulsive>
0.0181

> <Gold.PLP.ligand.clash>
0.0000

> <Gold.PLP.ligand.torsion>
1.5396

> <Gold.PLP.Chemscore.Hbond>
2.0000

> <Gold.PLP.Chemscore.CHOScore>
0.0000

> <Gold.PLP.Chemscore.Metal>
0.0000

> <Gold.Chemscore.Hbonds>
donor molecule, donor type, donor heavy atom, donor atom, acceptor molecule, acceptor atom, score
      L1  H    19    44       P1  8028  0.98
      P1  H  6896  6907       L1     9  1.00

> <Gold.PLP.Chemscore.Internal.Correction>
0.9504

> <Gold.Rescore>
     Score         DG    S(hbond)    S(metal)    S(lipo)     H(rot)  DE(clash)    DE(int)     intcor
     14.02     -15.67       1.41        0.00     106.25       2.72       0.12       1.53       ----

> <Gold.Chemscore.Fitness>
14.0247

> <Gold.Chemscore.DG>
-15.6693

> <Gold.Chemscore.ZeroCoef>
-5.4800

> <Gold.Chemscore.Hbond>
1.4115

> <Gold.Chemscore.Metal>
0.0000

> <Gold.Chemscore.Lipo>
106.2474

> <Gold.Chemscore.Internal_Hbond>
0.0000

> <Gold.Chemscore.DEClash>
0.1191

> <Gold.Chemscore.DEInternal>
1.5254

> <Gold.Chemscore.Rot>
2.7172

> <Gold.Chemscore.Internal.Correction>
   9.000000E+99

> <Gold.Chemscore.Hbonds>
donor molecule, donor type, donor heavy atom, donor atom, acceptor molecule, acceptor atom, score
      L1  H    19    44       P1  8028  0.23
      P1  H  6896  6907       L1     9  0.88

> <Gold.Chemscore.Hbond.Weighted>
-4.7143

> <Gold.Chemscore.Metal.Weighted>
-0.0000

> <Gold.Chemscore.Lipo.Weighted>
-12.4309

> <Gold.Chemscore.Internal_Hbond.Weighted>
0.0000

> <Gold.Chemscore.DEClash.Weighted>
0.1191

> <Gold.Chemscore.DEInternal.Weighted>
1.5254

> <Gold.Chemscore.Rot.Weighted>
6.9560

> <Gold.Chemscore.Internal.Correction.Weighted>
   9.000000E+99

> <Gold.Protein.RotatedTorsions>
[ 6907 6896 6895 6894 ] final  -48.85 input  -60.11 | X-H torsion
[ 7974 7965 7964 7962 ] final -109.21 input  175.53 | X-H torsion
[ 8008 7997 7996 7995 ] final  -29.21 input   59.86 | X-H torsion
[ 10167 10162 10161 10158 ] final -170.19 input  -65.29 | X-H torsion
[ 10718 10713 10712 10709 ] final -103.65 input   66.30 | X-H torsion
[ 10763 10752 10751 10750 ] final  -49.23 input  -60.55 | X-H torsion
[ 11005 11000 10999 10996 ] final  -44.30 input  -57.11 | X-H torsion

> <Gold.Protein.ActiveResidues>
 VAL166  LYS551  ARG553  GLY616  TRP617  ASP618  TYR619  PRO620  LYS621  CYS622 
 ASP623  PHE694  ASN695  SER759  ASP760  ASP761  ALA762  ILE779  LEU786  VAL792 
 PHE793  MET794  SER795  GLU796  ALA797  LYS798  CYS799  TRP800  GLU811  SER814 

> <Gold.Protein.RotatedAtoms>
  150.8864  134.8262  159.7261 H   0  0  0  0  0  0  0  0  0  0  0  0  # atno 6907 bound_to 6896
  152.4810  134.4716  159.9647 H   0  0  0  0  0  0  0  0  0  0  0  0  # atno 6908 bound_to 6896
  151.4784  133.3513  159.2870 H   0  0  0  0  0  0  0  0  0  0  0  0  # atno 6909 bound_to 6896
  145.1833  140.8981  143.3467 H   0  0  0  0  0  0  0  0  0  0  0  0  # atno 7974 bound_to 7965
  154.4299  140.1824  156.1212 H   0  0  0  0  0  0  0  0  0  0  0  0  # atno 8008 bound_to 7997
  156.0141  140.3347  155.6946 H   0  0  0  0  0  0  0  0  0  0  0  0  # atno 8009 bound_to 7997
  155.6069  140.0646  157.2708 H   0  0  0  0  0  0  0  0  0  0  0  0  # atno 8010 bound_to 7997
  139.5877  144.1282  152.1595 H   0  0  0  0  0  0  0  0  0  0  0  0  # atno 10167 bound_to 10162
  156.0273  130.5477  150.7284 H   0  0  0  0  0  0  0  0  0  0  0  0  # atno 10718 bound_to 10713
  154.0908  135.6577  153.4852 H   0  0  0  0  0  0  0  0  0  0  0  0  # atno 10763 bound_to 10752
  153.0322  135.5202  154.7383 H   0  0  0  0  0  0  0  0  0  0  0  0  # atno 10764 bound_to 10752
  154.6506  135.3000  154.9960 H   0  0  0  0  0  0  0  0  0  0  0  0  # atno 10765 bound_to 10752
  141.0441  133.6768  156.2853 H   0  0  0  0  0  0  0  0  0  0  0  0  # atno 11005 bound_to 11000
  145.0114  139.3506  143.6118 LP  0  0  0  0  0  0  0  0  0  0  0  0  # atno 17320 bound_to 7965
  146.3449  139.9378  142.8745 LP  0  0  0  0  0  0  0  0  0  0  0  0  # atno 17321 bound_to 7965
  140.0850  144.5669  150.7095 LP  0  0  0  0  0  0  0  0  0  0  0  0  # atno 17342 bound_to 10162
  140.7146  143.2533  151.4476 LP  0  0  0  0  0  0  0  0  0  0  0  0  # atno 17343 bound_to 10162
  157.4882  131.0908  151.0457 LP  0  0  0  0  0  0  0  0  0  0  0  0  # atno 17370 bound_to 10713
  157.0872  130.5927  149.5432 LP  0  0  0  0  0  0  0  0  0  0  0  0  # atno 17371 bound_to 10713
  140.6179  134.5392  157.5543 LP  0  0  0  0  0  0  0  0  0  0  0  0  # atno 17394 bound_to 11000
  139.9298  134.7985  156.0962 LP  0  0  0  0  0  0  0  0  0  0  0  0  # atno 17395 bound_to 11000

$$$$
