#       Name:                AV-unprocessed.smi:2661
#       Creating user name   scv26
#       Creation time:       Fri Mar 27 14:33:33 2020


#       File generated by GOLD software.
#

@<TRIPOS>MOLECULE
AV-unprocessed.smi:2661
    52    54     1
SMALL
NO_CHARGES


@<TRIPOS>ATOM
      1 ****        -5.7153   1.6723  -4.3632 C.3            1 S1                 0.0000
      2 ****        -5.1246   0.6060  -3.5658 N.am           1 S1                 0.0000
      3 ****        -5.4180  -0.7867  -3.8389 C.3            1 S1                 0.0000
      4 ****        -4.3717  -1.5581  -3.0259 C.3            1 S1                 0.0000
      5 ****        -3.8590  -0.5812  -1.9523 C.3            1 S1                 0.0000
      6 ****        -2.4084  -0.6976  -1.8150 N.am           1 S1                 0.0000
      7 ****        -1.7076  -0.3659  -0.7211 C.2            1 S1                 0.0000
      8 ****        -2.2241   0.0559   0.3132 O.2            1 S1                 0.0000
      9 ****        -0.3927  -0.5734  -0.9069 N.am           1 S1                 0.0000
     10 ****         0.6763  -0.3503   0.0027 C.ar           1 S1                 0.0000
     11 ****         1.8974  -1.0087  -0.2382 C.ar           1 S1                 0.0000
     12 ****         2.9786  -0.7988   0.6380 C.ar           1 S1                 0.0000
     13 ****         2.8159   0.0762   1.7378 C.ar           1 S1                 0.0000
     14 ****         3.8837   0.2971   2.6350 N.3            1 S1                 0.0000
     15 ****         4.4992  -0.9038   3.1954 C.3            1 S1                 0.0000
     16 ****         5.8212  -0.5512   3.8990 C.3            1 S1                 0.0000
     17 ****         5.5944   0.4607   4.8745 O.3            1 S1                 0.0000
     18 ****         5.1025   1.6605   4.2866 C.3            1 S1                 0.0000
     19 ****         3.7529   1.3859   3.6020 C.3            1 S1                 0.0000
     20 ****         1.6476   0.7284   1.9552 N.ar           1 S1                 0.0000
     21 ****         0.6117   0.5225   1.1145 C.ar           1 S1                 0.0000
     22 ****        -4.2528   0.7638  -2.5647 C.2            1 S1                 0.0000
     23 ****        -3.8216   1.8415  -2.1548 O.2            1 S1                 0.0000
     24 ****        -4.9556   2.1448  -4.9866 H              1 S1                 0.0000
     25 ****        -6.1573   2.4352  -3.7214 H              1 S1                 0.0000
     26 ****        -6.4991   1.2859  -5.0155 H              1 S1                 0.0000
     27 ****        -6.4284  -1.0141  -3.4958 H              1 S1                 0.0000
     28 ****        -5.3551  -1.0134  -4.9039 H              1 S1                 0.0000
     29 ****        -4.7865  -2.4662  -2.5871 H              1 S1                 0.0000
     30 ****        -3.5612  -1.8641  -3.6902 H              1 S1                 0.0000
     31 ****        -4.3846  -0.7241  -1.0065 H              1 S1                 0.0000
     32 ****        -1.9023  -1.0383  -2.6189 H              1 S1                 0.0000
     33 ****        -0.1304  -0.9940  -1.7862 H              1 S1                 0.0000
     34 ****         2.0081  -1.6713  -1.0842 H              1 S1                 0.0000
     35 ****         3.9177  -1.2971   0.4487 H              1 S1                 0.0000
     36 ****         3.8067  -1.3536   3.9082 H              1 S1                 0.0000
     37 ****         4.6961  -1.6529   2.4299 H              1 S1                 0.0000
     38 ****         6.2302  -1.4331   4.3921 H              1 S1                 0.0000
     39 ****         6.5677  -0.2156   3.1771 H              1 S1                 0.0000
     40 ****         4.9819   2.4145   5.0646 H              1 S1                 0.0000
     41 ****         5.8287   2.0530   3.5726 H              1 S1                 0.0000
     42 ****         3.4095   2.2941   3.1050 H              1 S1                 0.0000
     43 ****         3.0035   1.1186   4.3484 H              1 S1                 0.0000
     44 ****        -0.2732   1.0946   1.3443 H              1 S1                 0.0000
     45 ****        -3.2165   0.1666   0.3674 LP             1 S1                 0.0000
     46 ****        -1.6515   0.2880   1.0994 LP             1 S1                 0.0000
     47 ****         4.5527   0.6654   1.9894 LP             1 S1                 0.0000
     48 ****         6.4559   0.6588   5.3419 LP             1 S1                 0.0000
     49 ****         4.9245   0.1268   5.5376 LP             1 S1                 0.0000
     50 ****         1.5542   1.3547   2.7292 LP             1 S1                 0.0000
     51 ****        -4.1239   2.6950  -2.5793 LP             1 S1                 0.0000
     52 ****        -3.1691   1.8635  -1.3974 LP             1 S1                 0.0000
@<TRIPOS>BOND
    1    1    2 1     
    2    1   24 1     
    3    1   25 1     
    4    1   26 1     
    5    2   22 am    
    6    2    3 1     
    7    3    4 1     
    8    3   27 1     
    9    3   28 1     
   10    4    5 1     
   11    4   29 1     
   12    4   30 1     
   13    5    6 1     
   14    5   22 1     
   15    5   31 1     
   16    6    7 am    
   17    6   32 1     
   18    7    8 2     
   19    7    9 am    
   20    9   10 1     
   21    9   33 1     
   22   10   21 ar    
   23   10   11 ar    
   24   11   12 ar    
   25   11   34 1     
   26   12   13 ar    
   27   12   35 1     
   28   13   14 1     
   29   13   20 ar    
   30   14   19 1     
   31   14   15 1     
   32   15   16 1     
   33   15   36 1     
   34   15   37 1     
   35   16   17 1     
   36   16   38 1     
   37   16   39 1     
   38   17   18 1     
   39   18   19 1     
   40   18   40 1     
   41   18   41 1     
   42   19   42 1     
   43   19   43 1     
   44   20   21 ar    
   45   21   44 1     
   46   22   23 2     
   47    8   45 1     
   48    8   46 1     
   49   14   47 1     
   50   17   48 1     
   51   17   49 1     
   52   20   50 1     
   53   23   51 1     
   54   23   52 1     
@<TRIPOS>SUBSTRUCTURE
      1 S1             1
@<TRIPOS>SET
LONE_PAIRS      STATIC     ATOMS    <user>   **** ""
8 45 46 47 48 49 50 51 52
DONOR_HYDROGENS      STATIC     ATOMS    <user>   **** ""
2 32 33
ATOM$BLUE        STATIC     ATOMS    COLORGROUP SYSTEM
8 45 46 47 48 49 50 51 52
ATOM$RED        STATIC     ATOMS    COLORGROUP SYSTEM
2 32 33
