AV-unprocessed.smi:1901|AV-procd|sdf|7716|dock4
  -GOLD-   22720 9453D 1   1.00000     0.00000
 Structure written by MMmdl.
 28 29  0  0  0  0  0  0  0  0  1 V2000
  150.7190  140.6426  156.1200 O   0  0  0  0  0  0  0  0  0  0  0  0
  150.1161  141.7096  155.9990 C   0  0  0  0  0  0  0  0  0  0  0  0
  150.4784  142.8377  156.6265 N   0  0  0  0  0  0  0  0  0  0  0  0
  151.6191  142.9637  157.5273 C   0  0  0  0  0  0  0  0  0  0  0  0
  151.5890  144.2854  158.3181 C   0  0  2  0  0  0  0  0  0  0  0  0
  152.4832  144.3145  159.5420 C   0  0  0  0  0  0  0  0  0  0  0  0
  151.8880  145.4740  160.3334 C   0  0  0  0  0  0  0  0  0  0  0  0
  150.4928  145.4611  160.0463 O   0  0  0  0  0  0  0  0  0  0  0  0
  150.2284  144.6075  158.9361 C   0  0  0  0  0  0  0  0  0  0  0  0
  149.0258  141.9048  155.2370 N   0  0  0  0  0  0  0  0  0  0  0  0
  148.3471  140.9638  154.4188 C   0  0  0  0  0  0  0  0  0  0  0  0
  147.2681  141.2460  153.6792 N   0  0  0  0  0  0  0  0  0  0  0  0
  146.8074  140.1300  152.9761 C   0  0  0  0  0  0  0  0  0  0  0  0
  147.5537  138.9986  153.1929 C   0  0  0  0  0  0  0  0  0  0  0  0
  148.8731  139.2915  154.2945 S   0  0  0  0  0  0  0  0  0  0  0  0
  149.9269  143.6689  156.4715 H   0  0  0  0  0  0  0  0  0  0  0  0
  151.6471  142.1147  158.2123 H   0  0  0  0  0  0  0  0  0  0  0  0
  152.5288  142.9047  156.9289 H   0  0  0  0  0  0  0  0  0  0  0  0
  151.8704  145.1117  157.6626 H   0  0  0  0  0  0  0  0  0  0  0  0
  152.3875  143.3867  160.1079 H   0  0  0  0  0  0  0  0  0  0  0  0
  153.5366  144.4631  159.3023 H   0  0  0  0  0  0  0  0  0  0  0  0
  152.0765  145.3900  161.4039 H   0  0  0  0  0  0  0  0  0  0  0  0
  152.3043  146.4216  159.9890 H   0  0  0  0  0  0  0  0  0  0  0  0
  149.5514  145.0805  158.2244 H   0  0  0  0  0  0  0  0  0  0  0  0
  149.7467  143.7026  159.3090 H   0  0  0  0  0  0  0  0  0  0  0  0
  148.6399  142.8374  155.2358 H   0  0  0  0  0  0  0  0  0  0  0  0
  145.9387  140.2301  152.3420 H   0  0  0  0  0  0  0  0  0  0  0  0
  147.4072  138.0146  152.7730 H   0  0  0  0  0  0  0  0  0  0  0  0
  1  2  2  0  0  0  0
  2  3  1  0  0  0  0
  2 10  1  0  0  0  0
  3  4  1  0  0  0  0
  3 16  1  0  0  0  0
  4  5  1  0  0  0  0
  4 17  1  0  0  0  0
  4 18  1  0  0  0  0
  5  9  1  0  0  0  0
  5  6  1  0  0  0  0
  5 19  1  0  0  0  0
  6  7  1  0  0  0  0
  6 20  1  0  0  0  0
  6 21  1  0  0  0  0
  7  8  1  0  0  0  0
  7 22  1  0  0  0  0
  7 23  1  0  0  0  0
  8  9  1  0  0  0  0
  9 24  1  0  0  0  0
  9 25  1  0  0  0  0
 10 11  1  0  0  0  0
 10 26  1  0  0  0  0
 11 15  1  0  0  0  0
 11 12  2  0  0  0  0
 12 13  1  0  0  0  0
 13 14  2  0  0  0  0
 13 27  1  0  0  0  0
 14 15  1  0  0  0  0
 14 28  1  0  0  0  0
M  END
> <s_m_source_file>
AV-unprocessed.smi

> <i_m_source_file_index>
1901

> <i_lp_mmshare_version>
43012

> <i_f3d_flags>
0

> <s_epik_input>
czFbY0hdW2NIXW5jMVtOSF1DKD1PKVtOSF1bQ0gyXVtDQEBIXTJbQ0gyXVtDSDJdT1tDSDJdMg==

> <s_epik_cmdline>
J2VwaWtfcHl0aG9uJywgJy1waCcsICc3LjAnLCAnLXRuJywgJzgnLCAnLW1hJywgJzIwMCcsICctbWV0YWxfYmluZGluZycsICctaW1hZScsICc8aW5maWxlLm1hZT4nLCAnLW9tYWUnLCAnPG91dGZpbGUubWFlPic=

> <r_lp_tautomer_probability>
0.999

> <r_epik_Ionization_Penalty>
0.000365592

> <r_epik_Ionization_Penalty_Charging>
0

> <r_epik_Ionization_Penalty_Neutral>
0.000365592

> <r_epik_State_Penalty>
0.000177984

> <r_epik_Charging_Adjusted_Penalty>
0.000177984

> <i_epik_Tot_Q>
0

> <i_epik_Tot_abs_Q>
0

> <r_epik_Metal_State_Penalty>
0.00682492

> <b_epik_Metal_Only>
0

> <s_lp_Force_Field>
OPLS_2005

> <r_lp_Energy>
16.9403

> <b_lp_Chiralities_Consistent>
1

> <s_lp_Variant>
AV-unprocessed.smi:1901-1

> <Gold.Version>
5.8.1

> <Gold.Id.Protein>
6NUR|6NUR_protein|mol2

> <Gold.PLP.Fitness>
41.7318

> <Gold.PLP.PLP>
-30.1204

> <Gold.PLP.part.hbond>
-2.8882

> <Gold.PLP.part.metal>
0.0000

> <Gold.PLP.part.buried>
-3.4371

> <Gold.PLP.part.nonpolar>
-25.6221

> <Gold.PLP.part.repulsive>
0.6468

> <Gold.PLP.ligand.clash>
0.0000

> <Gold.PLP.ligand.torsion>
0.1854

> <Gold.PLP.Chemscore.Hbond>
1.9920

> <Gold.PLP.Chemscore.CHOScore>
2.0000

> <Gold.PLP.Chemscore.Metal>
0.0000

> <Gold.Chemscore.Hbonds>
donor molecule, donor type, donor heavy atom, donor atom, acceptor molecule, acceptor atom, score
      L1  H     3    16       P1  8028  1.00
      L1  H    10    26       P1  8028  0.98
      L1  C    13    27       P1 10175  1.00
      L1  C    14    28       P1  7948  1.00

> <Gold.PLP.Chemscore.Internal.Correction>
0.0062

> <Gold.Rescore>
     Score         DG    S(hbond)    S(metal)    S(lipo)     H(rot)  DE(clash)    DE(int)     intcor
     15.57     -17.67       1.92        0.00      78.21       1.32       0.72       1.38       ----

> <Gold.Chemscore.Fitness>
15.5705

> <Gold.Chemscore.DG>
-17.6716

> <Gold.Chemscore.ZeroCoef>
-5.4800

> <Gold.Chemscore.Hbond>
1.9196

> <Gold.Chemscore.Metal>
0.0000

> <Gold.Chemscore.Lipo>
78.2060

> <Gold.Chemscore.Internal_Hbond>
0.0000

> <Gold.Chemscore.DEClash>
0.7166

> <Gold.Chemscore.DEInternal>
1.3845

> <Gold.Chemscore.Rot>
1.3163

> <Gold.Chemscore.Internal.Correction>
   9.000000E+99

> <Gold.Chemscore.Hbonds>
donor molecule, donor type, donor heavy atom, donor atom, acceptor molecule, acceptor atom, score
      L1  H     3    16       P1  8028  0.99
      L1  H    10    26       P1  8028  0.93

> <Gold.Chemscore.Hbond.Weighted>
-6.4113

> <Gold.Chemscore.Metal.Weighted>
-0.0000

> <Gold.Chemscore.Lipo.Weighted>
-9.1501

> <Gold.Chemscore.Internal_Hbond.Weighted>
0.0000

> <Gold.Chemscore.DEClash.Weighted>
0.7166

> <Gold.Chemscore.DEInternal.Weighted>
1.3845

> <Gold.Chemscore.Rot.Weighted>
3.3698

> <Gold.Chemscore.Internal.Correction.Weighted>
   9.000000E+99

> <Gold.Protein.RotatedTorsions>
[ 6907 6896 6895 6894 ] final -172.18 input  -60.11 | X-H torsion
[ 7974 7965 7964 7962 ] final  -13.03 input  175.53 | X-H torsion
[ 8008 7997 7996 7995 ] final -120.83 input   59.86 | X-H torsion
[ 10167 10162 10161 10158 ] final -165.47 input  -65.29 | X-H torsion
[ 10718 10713 10712 10709 ] final  -19.79 input   66.30 | X-H torsion
[ 10763 10752 10751 10750 ] final  122.59 input  -60.55 | X-H torsion
[ 11005 11000 10999 10996 ] final  -32.61 input  -57.11 | X-H torsion

> <Gold.Protein.ActiveResidues>
 VAL166  LYS551  ARG553  GLY616  TRP617  ASP618  TYR619  PRO620  LYS621  CYS622 
 ASP623  PHE694  ASN695  SER759  ASP760  ASP761  ALA762  ILE779  LEU786  VAL792 
 PHE793  MET794  SER795  GLU796  ALA797  LYS798  CYS799  TRP800  GLU811  SER814 

> <Gold.Protein.RotatedAtoms>
  151.5358  133.3441  159.2926 H   0  0  0  0  0  0  0  0  0  0  0  0  # atno 6907 bound_to 6896
  150.8566  134.7908  159.7061 H   0  0  0  0  0  0  0  0  0  0  0  0  # atno 6908 bound_to 6896
  152.4597  134.5220  159.9837 H   0  0  0  0  0  0  0  0  0  0  0  0  # atno 6909 bound_to 6896
  146.2130  140.3144  142.8385 H   0  0  0  0  0  0  0  0  0  0  0  0  # atno 7974 bound_to 7965
  155.1382  140.0401  157.2792 H   0  0  0  0  0  0  0  0  0  0  0  0  # atno 8008 bound_to 7997
  154.6493  140.2565  155.7206 H   0  0  0  0  0  0  0  0  0  0  0  0  # atno 8009 bound_to 7997
  156.2569  140.2839  156.0919 H   0  0  0  0  0  0  0  0  0  0  0  0  # atno 8010 bound_to 7997
  139.6180  144.0682  152.1906 H   0  0  0  0  0  0  0  0  0  0  0  0  # atno 10167 bound_to 10162
  156.5408  130.4678  149.6499 H   0  0  0  0  0  0  0  0  0  0  0  0  # atno 10718 bound_to 10713
  153.6321  135.3394  155.3045 H   0  0  0  0  0  0  0  0  0  0  0  0  # atno 10763 bound_to 10752
  154.8578  135.4298  154.2094 H   0  0  0  0  0  0  0  0  0  0  0  0  # atno 10764 bound_to 10752
  153.2993  135.7023  153.7292 H   0  0  0  0  0  0  0  0  0  0  0  0  # atno 10765 bound_to 10752
  140.9566  133.7189  156.1303 H   0  0  0  0  0  0  0  0  0  0  0  0  # atno 11005 bound_to 11000
  144.8965  140.7589  143.5894 LP  0  0  0  0  0  0  0  0  0  0  0  0  # atno 17320 bound_to 7965
  145.3068  139.1832  143.4660 LP  0  0  0  0  0  0  0  0  0  0  0  0  # atno 17321 bound_to 7965
  140.0316  144.6076  150.7483 LP  0  0  0  0  0  0  0  0  0  0  0  0  # atno 17342 bound_to 10162
  140.7363  143.2752  151.3765 LP  0  0  0  0  0  0  0  0  0  0  0  0  # atno 17343 bound_to 10162
  156.2973  130.7157  151.2021 LP  0  0  0  0  0  0  0  0  0  0  0  0  # atno 17370 bound_to 10713
  157.7405  131.0515  150.5158 LP  0  0  0  0  0  0  0  0  0  0  0  0  # atno 17371 bound_to 10713
  140.7527  134.4027  157.5539 LP  0  0  0  0  0  0  0  0  0  0  0  0  # atno 17394 bound_to 11000
  139.8864  134.8910  156.2586 LP  0  0  0  0  0  0  0  0  0  0  0  0  # atno 17395 bound_to 11000

$$$$
