AV-unprocessed.smi:790|AV-procd|sdf|3741|dock7
  -GOLD-   22720 1173D 1   1.00000     0.00000
 Structure written by MMmdl.
 38 40  0  0  0  0  0  0  0  0  1 V2000
  145.3055  137.5280  153.4728 O   0  0  0  0  0  0  0  0  0  0  0  0
  146.4048  137.1123  153.1071 C   0  0  0  0  0  0  0  0  0  0  0  0
  147.5475  137.8194  153.1195 N   0  0  0  0  0  0  0  0  0  0  0  0
  147.7587  139.1498  153.5725 C   0  0  0  0  0  0  0  0  0  0  0  0
  148.9541  139.6043  154.1805 C   0  0  0  0  0  0  0  0  0  0  0  0
  149.0478  140.9545  154.5693 C   0  0  0  0  0  0  0  0  0  0  0  0
  147.9485  141.8016  154.3306 C   0  0  0  0  0  0  0  0  0  0  0  0
  146.8086  141.3855  153.7396 N   0  0  0  0  0  0  0  0  0  0  0  0
  146.7261  140.0899  153.3687 C   0  0  0  0  0  0  0  0  0  0  0  0
  146.6060  135.8765  152.6279 N   0  0  0  0  0  0  0  0  0  0  0  0
  145.5695  134.8586  152.4496 C   0  0  1  0  0  0  0  0  0  0  0  0
  145.4028  134.5242  150.9513 C   0  0  2  0  0  0  0  0  0  0  0  0
  144.0751  133.7717  150.7486 C   0  0  0  0  0  0  0  0  0  0  0  0
  144.3750  132.3936  151.3685 C   0  0  0  0  0  0  0  0  0  0  0  0
  145.8352  132.5396  151.8420 C   0  0  1  0  0  0  0  0  0  0  0  0
  146.4237  133.4125  150.7411 C   0  0  0  0  0  0  0  0  0  0  0  0
  145.8843  133.4676  153.0808 C   0  0  1  0  0  0  0  0  0  0  0  0
  147.2066  133.3579  153.8741 C   0  0  0  0  0  0  0  0  0  0  0  0
  148.3012  133.7230  153.0600 O   0  0  0  0  0  0  0  0  0  0  0  0
  148.3526  137.3702  152.7081 H   0  0  0  0  0  0  0  0  0  0  0  0
  149.8000  138.9546  154.3423 H   0  0  0  0  0  0  0  0  0  0  0  0
  149.9452  141.3333  155.0362 H   0  0  0  0  0  0  0  0  0  0  0  0
  147.9882  142.8423  154.6164 H   0  0  0  0  0  0  0  0  0  0  0  0
  145.8007  139.7929  152.8970 H   0  0  0  0  0  0  0  0  0  0  0  0
  147.5422  135.6213  152.3497 H   0  0  0  0  0  0  0  0  0  0  0  0
  144.6274  135.2471  152.8415 H   0  0  0  0  0  0  0  0  0  0  0  0
  145.5131  135.3834  150.2884 H   0  0  0  0  0  0  0  0  0  0  0  0
  143.2329  134.2716  151.2283 H   0  0  0  0  0  0  0  0  0  0  0  0
  143.8433  133.6720  149.6874 H   0  0  0  0  0  0  0  0  0  0  0  0
  143.6948  132.1463  152.1844 H   0  0  0  0  0  0  0  0  0  0  0  0
  144.2888  131.6093  150.6153 H   0  0  0  0  0  0  0  0  0  0  0  0
  146.3351  131.5807  151.9810 H   0  0  0  0  0  0  0  0  0  0  0  0
  146.3684  132.9559  149.7512 H   0  0  0  0  0  0  0  0  0  0  0  0
  147.4518  133.7238  150.9310 H   0  0  0  0  0  0  0  0  0  0  0  0
  145.0761  133.2044  153.7654 H   0  0  0  0  0  0  0  0  0  0  0  0
  147.1963  133.9884  154.7633 H   0  0  0  0  0  0  0  0  0  0  0  0
  147.3719  132.3319  154.2026 H   0  0  0  0  0  0  0  0  0  0  0  0
  148.2582  134.6529  152.8972 H   0  0  0  0  0  0  0  0  0  0  0  0
  1  2  2  0  0  0  0
  2  3  1  0  0  0  0
  2 10  1  0  0  0  0
  3  4  1  0  0  0  0
  3 20  1  0  0  0  0
  4  9  1  0  0  0  0
  4  5  2  0  0  0  0
  5  6  1  0  0  0  0
  5 21  1  0  0  0  0
  6  7  2  0  0  0  0
  6 22  1  0  0  0  0
  7  8  1  0  0  0  0
  7 23  1  0  0  0  0
  8  9  2  0  0  0  0
  9 24  1  0  0  0  0
 10 11  1  0  0  0  0
 10 25  1  0  0  0  0
 11 17  1  0  0  0  0
 11 12  1  0  0  0  0
 11 26  1  0  0  0  0
 12 16  1  0  0  0  0
 12 13  1  0  0  0  0
 12 27  1  0  0  0  0
 13 14  1  0  0  0  0
 13 28  1  0  0  0  0
 13 29  1  0  0  0  0
 14 15  1  0  0  0  0
 14 30  1  0  0  0  0
 14 31  1  0  0  0  0
 15 16  1  0  0  0  0
 15 17  1  0  0  0  0
 15 32  1  0  0  0  0
 16 33  1  0  0  0  0
 16 34  1  0  0  0  0
 17 18  1  0  0  0  0
 17 35  1  0  0  0  0
 18 19  1  0  0  0  0
 18 36  1  0  0  0  0
 18 37  1  0  0  0  0
 19 38  1  0  0  0  0
M  END
> <s_m_source_file>
AV-unprocessed.smi

> <i_m_source_file_index>
790

> <i_lp_mmshare_version>
43012

> <i_f3d_flags>
0

> <s_epik_input>
W0NIMl0xW0NIMl1bQ0BASF0oW0NIMl0yKVtDQEBIXShbQ0gyXVtPSF0pW0NAQEhdKFtDQEhdMTIpW05IXUMoPU8pW05IXWMzW2NIXVtjSF1bY0hdbltjSF0z

> <s_epik_cmdline>
J2VwaWtfcHl0aG9uJywgJy1waCcsICc3LjAnLCAnLXRuJywgJzgnLCAnLW1hJywgJzIwMCcsICctbWV0YWxfYmluZGluZycsICctaW1hZScsICc8aW5maWxlLm1hZT4nLCAnLW9tYWUnLCAnPG91dGZpbGUubWFlPic=

> <r_epik_Ionization_Penalty>
0.00497582

> <r_epik_Ionization_Penalty_Charging>
0

> <r_epik_Ionization_Penalty_Neutral>
0.00497582

> <r_epik_State_Penalty>
0.00358602

> <r_epik_Charging_Adjusted_Penalty>
0.00358602

> <i_epik_Tot_Q>
0

> <i_epik_Tot_abs_Q>
0

> <r_epik_Metal_State_Penalty>
-0

> <b_epik_Metal_Only>
0

> <s_lp_Force_Field>
OPLS_2005

> <r_lp_Energy>
53.2312

> <b_lp_Chiralities_Consistent>
1

> <s_lp_Variant>
AV-unprocessed.smi:790-2

> <Gold.Version>
5.8.1

> <Gold.Id.Protein>
6NUR|6NUR_protein|mol2

> <Gold.PLP.Fitness>
42.7927

> <Gold.PLP.PLP>
-28.9878

> <Gold.PLP.part.hbond>
-2.6083

> <Gold.PLP.part.metal>
0.0000

> <Gold.PLP.part.buried>
-1.0597

> <Gold.PLP.part.nonpolar>
-25.8858

> <Gold.PLP.part.repulsive>
0.4364

> <Gold.PLP.ligand.clash>
0.0073

> <Gold.PLP.ligand.torsion>
0.2880

> <Gold.PLP.Chemscore.Hbond>
2.7920

> <Gold.PLP.Chemscore.CHOScore>
2.0000

> <Gold.PLP.Chemscore.Metal>
0.0000

> <Gold.Chemscore.Hbonds>
donor molecule, donor type, donor heavy atom, donor atom, acceptor molecule, acceptor atom, score
      L1  H     3    20       P1  7948  0.99
      L1  H    10    25       P1  7948  0.88
      L1  H    19    38       P1  7948  0.91
      L1  C     7    23       P1  8028  1.00
      L1  C     9    24       P1 10175  1.00

> <Gold.PLP.Chemscore.Internal.Correction>
0.0122

> <Gold.Rescore>
     Score         DG    S(hbond)    S(metal)    S(lipo)     H(rot)  DE(clash)    DE(int)     intcor
     13.79     -17.82       2.48        0.00      73.71       1.78       0.11       3.92       ----

> <Gold.Chemscore.Fitness>
13.7880

> <Gold.Chemscore.DG>
-17.8237

> <Gold.Chemscore.ZeroCoef>
-5.4800

> <Gold.Chemscore.Hbond>
2.4767

> <Gold.Chemscore.Metal>
0.0000

> <Gold.Chemscore.Lipo>
73.7091

> <Gold.Chemscore.Internal_Hbond>
0.0000

> <Gold.Chemscore.DEClash>
0.1121

> <Gold.Chemscore.DEInternal>
3.9236

> <Gold.Chemscore.Rot>
1.7783

> <Gold.Chemscore.Internal.Correction>
   9.000000E+99

> <Gold.Chemscore.Hbonds>
donor molecule, donor type, donor heavy atom, donor atom, acceptor molecule, acceptor atom, score
      L1  H     3    20       P1  7948  0.88
      L1  H    10    25       P1  7948  0.85
      L1  H    19    38       P1  7948  0.48

> <Gold.Chemscore.Hbond.Weighted>
-8.2723

> <Gold.Chemscore.Metal.Weighted>
-0.0000

> <Gold.Chemscore.Lipo.Weighted>
-8.6240

> <Gold.Chemscore.Internal_Hbond.Weighted>
0.0000

> <Gold.Chemscore.DEClash.Weighted>
0.1121

> <Gold.Chemscore.DEInternal.Weighted>
3.9236

> <Gold.Chemscore.Rot.Weighted>
4.5525

> <Gold.Chemscore.Internal.Correction.Weighted>
   9.000000E+99

> <Gold.Protein.RotatedTorsions>
[ 6907 6896 6895 6894 ] final   65.90 input  -60.11 | X-H torsion
[ 7974 7965 7964 7962 ] final   18.96 input  175.53 | X-H torsion
[ 8008 7997 7996 7995 ] final  -80.34 input   59.86 | X-H torsion
[ 10167 10162 10161 10158 ] final -174.28 input  -65.29 | X-H torsion
[ 10718 10713 10712 10709 ] final   69.91 input   66.30 | X-H torsion
[ 10763 10752 10751 10750 ] final  -92.36 input  -60.55 | X-H torsion
[ 11005 11000 10999 10996 ] final  126.81 input  -57.11 | X-H torsion

> <Gold.Protein.ActiveResidues>
 VAL166  LYS551  ARG553  GLY616  TRP617  ASP618  TYR619  PRO620  LYS621  CYS622 
 ASP623  PHE694  ASN695  SER759  ASP760  ASP761  ALA762  ILE779  LEU786  VAL792 
 PHE793  MET794  SER795  GLU796  ALA797  LYS798  CYS799  TRP800  GLU811  SER814 

> <Gold.Protein.RotatedAtoms>
  152.4441  134.5530  159.9872 H   0  0  0  0  0  0  0  0  0  0  0  0  # atno 6907 bound_to 6896
  151.5620  133.3396  159.2981 H   0  0  0  0  0  0  0  0  0  0  0  0  # atno 6908 bound_to 6896
  150.8354  134.7657  159.6952 H   0  0  0  0  0  0  0  0  0  0  0  0  # atno 6909 bound_to 6896
  146.2166  139.8382  142.8646 H   0  0  0  0  0  0  0  0  0  0  0  0  # atno 7974 bound_to 7965
  154.5873  140.0664  156.9189 H   0  0  0  0  0  0  0  0  0  0  0  0  # atno 8008 bound_to 7997
  155.2357  140.3341  155.4280 H   0  0  0  0  0  0  0  0  0  0  0  0  # atno 8009 bound_to 7997
  156.2232  140.1807  156.7412 H   0  0  0  0  0  0  0  0  0  0  0  0  # atno 8010 bound_to 7997
  139.5642  144.1795  152.1287 H   0  0  0  0  0  0  0  0  0  0  0  0  # atno 10167 bound_to 10162
  157.6371  130.9450  150.0578 H   0  0  0  0  0  0  0  0  0  0  0  0  # atno 10718 bound_to 10713
  154.6853  135.5234  153.8318 H   0  0  0  0  0  0  0  0  0  0  0  0  # atno 10763 bound_to 10752
  153.0593  135.6562  154.0511 H   0  0  0  0  0  0  0  0  0  0  0  0  # atno 10764 bound_to 10752
  154.0393  135.2978  155.3337 H   0  0  0  0  0  0  0  0  0  0  0  0  # atno 10765 bound_to 10752
  139.9475  134.9627  156.8761 H   0  0  0  0  0  0  0  0  0  0  0  0  # atno 11005 bound_to 11000
  145.2926  141.0171  143.3654 LP  0  0  0  0  0  0  0  0  0  0  0  0  # atno 17320 bound_to 7965
  144.9066  139.4582  143.6607 LP  0  0  0  0  0  0  0  0  0  0  0  0  # atno 17321 bound_to 7965
  140.1314  144.5284  150.6800 LP  0  0  0  0  0  0  0  0  0  0  0  0  # atno 17342 bound_to 10162
  140.6925  143.2384  151.5092 LP  0  0  0  0  0  0  0  0  0  0  0  0  # atno 17343 bound_to 10162
  156.1620  130.3644  149.9286 LP  0  0  0  0  0  0  0  0  0  0  0  0  # atno 17370 bound_to 10713
  156.7281  130.9033  151.3623 LP  0  0  0  0  0  0  0  0  0  0  0  0  # atno 17371 bound_to 10713
  140.5799  134.0362  155.7460 LP  0  0  0  0  0  0  0  0  0  0  0  0  # atno 17394 bound_to 11000
  141.1129  133.9587  157.2876 LP  0  0  0  0  0  0  0  0  0  0  0  0  # atno 17395 bound_to 11000

$$$$
