AV-unprocessed.smi:1803|AV-procd|sdf|7286|dock1
  -GOLD-   22720 8543D 1   1.00000     0.00000
 Structure written by MMmdl.
 36 38  0  0  0  0  0  0  0  0  2 V2000
  145.4113  129.6546  152.1757 O   0  0  0  0  0  0  0  0  0  0  0  0
  146.3602  129.9794  151.4643 C   0  0  0  0  0  0  0  0  0  0  0  0
  147.3740  129.1206  151.2226 N   0  0  0  0  0  0  0  0  0  0  0  0
  147.6059  127.7815  151.6532 C   0  0  0  0  0  0  0  0  0  0  0  0
  147.1466  127.2600  152.8025 N   0  0  0  0  0  0  0  0  0  0  0  0
  147.5342  125.9376  152.9690 N   0  0  0  0  0  0  0  0  0  0  0  0
  148.2771  125.5122  151.9438 C   0  0  0  0  0  0  0  0  0  0  0  0
  148.5757  126.6876  150.6758 S   0  0  0  0  0  0  0  0  0  0  0  0
  146.4550  131.1911  150.8924 N   0  0  0  0  0  0  0  0  0  0  0  0
  145.4770  132.2674  151.0106 C   0  0  1  0  0  0  0  0  0  0  0  0
  144.0643  131.8327  150.6387 C   0  0  0  0  0  0  0  0  0  0  0  0
  143.2088  132.9108  151.3057 C   0  0  0  0  0  0  0  0  0  0  0  0
  143.9242  133.2887  152.5462 N   0  3  2  0  0  0  0  0  0  0  0  0
  143.8040  134.7203  152.9160 C   0  0  0  0  0  0  0  0  0  0  0  0
  144.5663  135.0124  154.2218 C   0  0  0  0  0  0  0  0  0  0  0  0
  146.0114  134.4708  154.2136 C   0  0  0  0  0  0  0  0  0  0  0  0
  146.3797  133.8021  152.8802 C   0  0  0  0  0  0  0  0  0  0  0  0
  145.3163  132.7630  152.4579 C   0  0  2  0  0  0  0  0  0  0  0  0
  148.1121  129.5022  150.6486 H   0  0  0  0  0  0  0  0  0  0  0  0
  148.6536  124.5001  151.9347 H   0  0  0  0  0  0  0  0  0  0  0  0
  147.2707  131.3768  150.3255 H   0  0  0  0  0  0  0  0  0  0  0  0
  145.7506  133.1020  150.3614 H   0  0  0  0  0  0  0  0  0  0  0  0
  143.9061  131.7736  149.5615 H   0  0  0  0  0  0  0  0  0  0  0  0
  143.8379  130.8560  151.0699 H   0  0  0  0  0  0  0  0  0  0  0  0
  143.1370  133.7728  150.6404 H   0  0  0  0  0  0  0  0  0  0  0  0
  142.1957  132.5690  151.5181 H   0  0  0  0  0  0  0  0  0  0  0  0
  144.1915  135.3432  152.1081 H   0  0  0  0  0  0  0  0  0  0  0  0
  142.7508  134.9783  153.0331 H   0  0  0  0  0  0  0  0  0  0  0  0
  144.5737  136.0875  154.4043 H   0  0  0  0  0  0  0  0  0  0  0  0
  144.0262  134.5706  155.0602 H   0  0  0  0  0  0  0  0  0  0  0  0
  146.7155  135.2748  154.4313 H   0  0  0  0  0  0  0  0  0  0  0  0
  146.1249  133.7446  155.0193 H   0  0  0  0  0  0  0  0  0  0  0  0
  146.4819  134.5681  152.1102 H   0  0  0  0  0  0  0  0  0  0  0  0
  147.3576  133.3274  152.9631 H   0  0  0  0  0  0  0  0  0  0  0  0
  145.3594  131.9119  153.1400 H   0  0  0  0  0  0  0  0  0  0  0  0
  143.4907  132.7684  153.2955 H   0  0  0  0  0  0  0  0  0  0  0  0
  1  2  2  0  0  0  0
  2  3  1  0  0  0  0
  2  9  1  0  0  0  0
  3  4  1  0  0  0  0
  3 19  1  0  0  0  0
  4  8  1  0  0  0  0
  4  5  2  0  0  0  0
  5  6  1  0  0  0  0
  6  7  2  0  0  0  0
  7  8  1  0  0  0  0
  7 20  1  0  0  0  0
  9 10  1  0  0  0  0
  9 21  1  0  0  0  0
 10 18  1  0  0  0  0
 10 11  1  0  0  0  0
 10 22  1  0  0  0  0
 11 12  1  0  0  0  0
 11 23  1  0  0  0  0
 11 24  1  0  0  0  0
 12 13  1  0  0  0  0
 12 25  1  0  0  0  0
 12 26  1  0  0  0  0
 13 18  1  0  0  0  0
 13 14  1  0  0  0  0
 13 36  1  0  0  0  0
 14 15  1  0  0  0  0
 14 27  1  0  0  0  0
 14 28  1  0  0  0  0
 15 16  1  0  0  0  0
 15 29  1  0  0  0  0
 15 30  1  0  0  0  0
 16 17  1  0  0  0  0
 16 31  1  0  0  0  0
 16 32  1  0  0  0  0
 17 18  1  0  0  0  0
 17 33  1  0  0  0  0
 17 34  1  0  0  0  0
 18 35  1  0  0  0  0
M  CHG  1  13   1
M  END
> <s_m_source_file>
AV-unprocessed.smi

> <i_m_source_file_index>
1803

> <i_lp_mmshare_version>
43012

> <i_f3d_flags>
0

> <s_epik_input>
czFbY0hdbm5jMVtOSF1DKD1PKVtOSF1bQ0BIXShbQ0gyXVtDSDJdMilbQ0BASF0oTjIzKVtDSDJdW0NIMl1bQ0gyXVtDSDJdMw==

> <s_epik_cmdline>
J2VwaWtfcHl0aG9uJywgJy1waCcsICc3LjAnLCAnLXRuJywgJzgnLCAnLW1hJywgJzIwMCcsICctbWV0YWxfYmluZGluZycsICctaW1hZScsICc8aW5maWxlLm1hZT4nLCAnLW9tYWUnLCAnPG91dGZpbGUubWFlPic=

> <r_lp_tautomer_probability>
1

> <r_epik_Ionization_Penalty>
0.00213286

> <r_epik_Ionization_Penalty_Charging>
0.00107044

> <r_epik_Ionization_Penalty_Neutral>
0.00106242

> <r_epik_State_Penalty>
-0

> <r_epik_Charging_Adjusted_Penalty>
0.00107044

> <i_epik_Tot_Q>
1

> <i_epik_Tot_abs_Q>
1

> <r_epik_Metal_State_Penalty>
0.292783

> <b_epik_Metal_Only>
0

> <s_lp_Force_Field>
OPLS_2005

> <r_lp_Energy>
41.2336

> <b_lp_Chiralities_Consistent>
1

> <s_lp_Variant>
AV-unprocessed.smi:1803-8

> <Gold.Version>
5.8.1

> <Gold.Id.Protein>
6NUR|6NUR_protein|mol2

> <Gold.PLP.Fitness>
41.6584

> <Gold.PLP.PLP>
-30.9437

> <Gold.PLP.part.hbond>
-3.8578

> <Gold.PLP.part.metal>
0.0000

> <Gold.PLP.part.buried>
-4.1984

> <Gold.PLP.part.nonpolar>
-23.4377

> <Gold.PLP.part.repulsive>
0.3490

> <Gold.PLP.ligand.clash>
0.0000

> <Gold.PLP.ligand.torsion>
0.1906

> <Gold.PLP.Chemscore.Hbond>
3.6960

> <Gold.PLP.Chemscore.CHOScore>
0.0000

> <Gold.PLP.Chemscore.Metal>
0.0000

> <Gold.Chemscore.Hbonds>
donor molecule, donor type, donor heavy atom, donor atom, acceptor molecule, acceptor atom, score
      L1  H     3    19       P1 10747  0.94
      L1  H     9    21       P1 10747  0.75
      L1  H    13    36       P1 10957  2.00

> <Gold.PLP.Chemscore.Internal.Correction>
0.0080

> <Gold.Rescore>
     Score         DG    S(hbond)    S(metal)    S(lipo)     H(rot)  DE(clash)    DE(int)     intcor
     15.81     -17.48       2.68        0.00      47.99       1.00       0.33       1.34       ----

> <Gold.Chemscore.Fitness>
15.8057

> <Gold.Chemscore.DG>
-17.4836

> <Gold.Chemscore.ZeroCoef>
-5.4800

> <Gold.Chemscore.Hbond>
2.6792

> <Gold.Chemscore.Metal>
0.0000

> <Gold.Chemscore.Lipo>
47.9913

> <Gold.Chemscore.Internal_Hbond>
0.0000

> <Gold.Chemscore.DEClash>
0.3350

> <Gold.Chemscore.DEInternal>
1.3429

> <Gold.Chemscore.Rot>
1.0000

> <Gold.Chemscore.Internal.Correction>
   9.000000E+99

> <Gold.Chemscore.Hbonds>
donor molecule, donor type, donor heavy atom, donor atom, acceptor molecule, acceptor atom, score
      L1  H     3    19       P1 10747  0.45
      L1  H     9    21       P1 10747  0.76
      L1  H    13    36       P1 10957  0.49

> <Gold.Chemscore.Hbond.Weighted>
-8.9486

> <Gold.Chemscore.Metal.Weighted>
-0.0000

> <Gold.Chemscore.Lipo.Weighted>
-5.6150

> <Gold.Chemscore.Internal_Hbond.Weighted>
0.0000

> <Gold.Chemscore.DEClash.Weighted>
0.3350

> <Gold.Chemscore.DEInternal.Weighted>
1.3429

> <Gold.Chemscore.Rot.Weighted>
2.5600

> <Gold.Chemscore.Internal.Correction.Weighted>
   9.000000E+99

> <Gold.Protein.RotatedTorsions>
[ 6907 6896 6895 6894 ] final  118.99 input  -60.11 | X-H torsion
[ 7974 7965 7964 7962 ] final  -42.16 input  175.53 | X-H torsion
[ 8008 7997 7996 7995 ] final -162.94 input   59.86 | X-H torsion
[ 10167 10162 10161 10158 ] final -132.04 input  -65.29 | X-H torsion
[ 10718 10713 10712 10709 ] final -143.68 input   66.30 | X-H torsion
[ 10763 10752 10751 10750 ] final  139.79 input  -60.55 | X-H torsion
[ 11005 11000 10999 10996 ] final   94.88 input  -57.11 | X-H torsion

> <Gold.Protein.ActiveResidues>
 VAL166  LYS551  ARG553  GLY616  TRP617  ASP618  TYR619  PRO620  LYS621  CYS622 
 ASP623  PHE694  ASN695  SER759  ASP760  ASP761  ALA762  ILE779  LEU786  VAL792 
 PHE793  MET794  SER795  GLU796  ALA797  LYS798  CYS799  TRP800  GLU811  SER814 

> <Gold.Protein.RotatedAtoms>
  152.4504  133.7618  159.6750 H   0  0  0  0  0  0  0  0  0  0  0  0  # atno 6907 bound_to 6896
  150.8414  133.7919  159.3065 H   0  0  0  0  0  0  0  0  0  0  0  0  # atno 6908 bound_to 6896
  151.5543  135.1069  160.0009 H   0  0  0  0  0  0  0  0  0  0  0  0  # atno 6909 bound_to 6896
  146.0142  140.6927  142.9209 H   0  0  0  0  0  0  0  0  0  0  0  0  # atno 7974 bound_to 7965
  155.8141  140.0910  157.1887 H   0  0  0  0  0  0  0  0  0  0  0  0  # atno 8008 bound_to 7997
  154.3979  140.1449  156.3482 H   0  0  0  0  0  0  0  0  0  0  0  0  # atno 8009 bound_to 7997
  155.8334  140.3441  155.5589 H   0  0  0  0  0  0  0  0  0  0  0  0  # atno 8010 bound_to 7997
  139.9126  143.6476  152.2572 H   0  0  0  0  0  0  0  0  0  0  0  0  # atno 10167 bound_to 10162
  156.3609  130.7737  151.1905 H   0  0  0  0  0  0  0  0  0  0  0  0  # atno 10718 bound_to 10713
  153.9120  135.3010  155.3448 H   0  0  0  0  0  0  0  0  0  0  0  0  # atno 10763 bound_to 10752
  154.7619  135.4930  153.9483 H   0  0  0  0  0  0  0  0  0  0  0  0  # atno 10764 bound_to 10752
  153.1188  135.6777  153.9474 H   0  0  0  0  0  0  0  0  0  0  0  0  # atno 10765 bound_to 10752
  139.8794  134.8869  156.3929 H   0  0  0  0  0  0  0  0  0  0  0  0  # atno 11005 bound_to 11000
  144.6964  140.3452  143.7192 LP  0  0  0  0  0  0  0  0  0  0  0  0  # atno 17320 bound_to 7965
  145.7294  139.1732  143.2439 LP  0  0  0  0  0  0  0  0  0  0  0  0  # atno 17321 bound_to 7965
  139.6929  144.7645  151.1406 LP  0  0  0  0  0  0  0  0  0  0  0  0  # atno 17342 bound_to 10162
  140.7682  143.5563  150.9148 LP  0  0  0  0  0  0  0  0  0  0  0  0  # atno 17343 bound_to 10162
  157.7473  131.0400  150.4578 LP  0  0  0  0  0  0  0  0  0  0  0  0  # atno 17370 bound_to 10713
  156.4789  130.4069  149.6473 LP  0  0  0  0  0  0  0  0  0  0  0  0  # atno 17371 bound_to 10713
  140.9320  133.7572  156.0037 LP  0  0  0  0  0  0  0  0  0  0  0  0  # atno 17394 bound_to 11000
  140.8319  134.3168  157.5345 LP  0  0  0  0  0  0  0  0  0  0  0  0  # atno 17395 bound_to 11000

$$$$
