#       Name:                AV-unprocessed.smi:604
#       Creating user name   scv26
#       Creation time:       Thu Mar 26 23:55:39 2020


#       File generated by GOLD software.
#

@<TRIPOS>MOLECULE
AV-unprocessed.smi:604
    52    54     1
SMALL
NO_CHARGES


@<TRIPOS>ATOM
      1 ****        -2.5824   2.9883  -0.2975 O.2            1 S1                 0.0000
      2 ****        -2.9371   1.9154   0.1898 C.2            1 S1                 0.0000
      3 ****        -4.1999   1.5855   0.5108 N.am           1 S1                 0.0000
      4 ****        -5.3795   2.3645   0.3648 C.ar           1 S1                 0.0000
      5 ****        -6.4933   2.0339   1.1638 C.ar           1 S1                 0.0000
      6 ****        -7.6802   2.7786   1.0294 C.ar           1 S1                 0.0000
      7 ****        -7.7103   3.8255   0.0882 C.ar           1 S1                 0.0000
      8 ****        -6.6600   4.1453  -0.6968 N.ar           1 S1                 0.0000
      9 ****        -5.5237   3.4277  -0.5612 C.ar           1 S1                 0.0000
     10 ****        -2.0852   0.9237   0.4880 N.am           1 S1                 0.0000
     11 ****        -0.6378   0.9768   0.3031 C.3            1 S1                 0.0000
     12 ****        -0.2532   0.6690  -1.1557 C.3            1 S1                 0.0000
     13 ****         1.2746   0.6273  -1.3312 C.3            1 S1                 0.0000
     14 ****         1.8967  -0.3537  -0.4044 N.4            1 S1                 1.0000
     15 ****         3.3541  -0.5267  -0.6372 C.3            1 S1                 0.0000
     16 ****         3.7564  -2.0131  -0.6845 C.3            1 S1                 0.0000
     17 ****         3.6951  -2.7492   0.6575 C.3            1 S1                 0.0000
     18 ****         4.5812  -3.9855   0.4751 C.3            1 S1                 0.0000
     19 ****         5.5632  -3.6457  -0.6556 C.3            1 S1                 0.0000
     20 ****         5.2079  -2.2297  -1.1216 C.3            1 S1                 0.0000
     21 ****         1.5673  -0.0499   1.0130 C.3            1 S1                 0.0000
     22 ****         0.0464  -0.0336   1.2374 C.3            1 S1                 0.0000
     23 ****        -4.3233   0.6991   0.9775 H              1 S1                 0.0000
     24 ****        -6.4401   1.2233   1.8763 H              1 S1                 0.0000
     25 ****        -8.5470   2.5523   1.6324 H              1 S1                 0.0000
     26 ****        -8.6040   4.4180  -0.0419 H              1 S1                 0.0000
     27 ****        -4.7291   3.7127  -1.2328 H              1 S1                 0.0000
     28 ****        -2.4638   0.0775   0.8879 H              1 S1                 0.0000
     29 ****        -0.2828   1.9766   0.5622 H              1 S1                 0.0000
     30 ****        -0.6787  -0.2893  -1.4578 H              1 S1                 0.0000
     31 ****        -0.6764   1.4190  -1.8250 H              1 S1                 0.0000
     32 ****         1.5063   0.3566  -2.3622 H              1 S1                 0.0000
     33 ****         1.7020   1.6163  -1.1572 H              1 S1                 0.0000
     34 ****         3.6255  -0.0813  -1.5956 H              1 S1                 0.0000
     35 ****         3.9346   0.0153   0.1113 H              1 S1                 0.0000
     36 ****         3.1126  -2.5341  -1.3954 H              1 S1                 0.0000
     37 ****         4.1120  -2.1212   1.4463 H              1 S1                 0.0000
     38 ****         2.6773  -3.0140   0.9456 H              1 S1                 0.0000
     39 ****         5.0959  -4.2475   1.4000 H              1 S1                 0.0000
     40 ****         3.9727  -4.8434   0.1866 H              1 S1                 0.0000
     41 ****         6.6009  -3.7058  -0.3258 H              1 S1                 0.0000
     42 ****         5.4409  -4.3543  -1.4757 H              1 S1                 0.0000
     43 ****         5.3446  -2.1011  -2.1958 H              1 S1                 0.0000
     44 ****         5.8581  -1.5111  -0.6199 H              1 S1                 0.0000
     45 ****         2.0188  -0.7909   1.6717 H              1 S1                 0.0000
     46 ****         1.9951   0.9156   1.2884 H              1 S1                 0.0000
     47 ****        -0.1689   0.2134   2.2777 H              1 S1                 0.0000
     48 ****        -0.3561  -1.0334   1.0663 H              1 S1                 0.0000
     49 ****         1.4724  -1.2447  -0.6198 H              1 S1                 0.0000
     50 ****        -3.2591   3.7002  -0.4855 LP             1 S1                 0.0000
     51 ****        -1.6174   3.1484  -0.5055 LP             1 S1                 0.0000
     52 ****        -6.7213   4.8918  -1.3595 LP             1 S1                 0.0000
@<TRIPOS>BOND
    1    1    2 2     
    2    2    3 am    
    3    2   10 am    
    4    3    4 1     
    5    3   23 1     
    6    4    9 ar    
    7    4    5 ar    
    8    5    6 ar    
    9    5   24 1     
   10    6    7 ar    
   11    6   25 1     
   12    7    8 ar    
   13    7   26 1     
   14    8    9 ar    
   15    9   27 1     
   16   10   11 1     
   17   10   28 1     
   18   11   22 1     
   19   11   12 1     
   20   11   29 1     
   21   12   13 1     
   22   12   30 1     
   23   12   31 1     
   24   13   14 1     
   25   13   32 1     
   26   13   33 1     
   27   14   15 1     
   28   14   21 1     
   29   14   49 1     
   30   15   16 1     
   31   15   34 1     
   32   15   35 1     
   33   16   20 1     
   34   16   17 1     
   35   16   36 1     
   36   17   18 1     
   37   17   37 1     
   38   17   38 1     
   39   18   19 1     
   40   18   39 1     
   41   18   40 1     
   42   19   20 1     
   43   19   41 1     
   44   19   42 1     
   45   20   43 1     
   46   20   44 1     
   47   21   22 1     
   48   21   45 1     
   49   21   46 1     
   50   22   47 1     
   51   22   48 1     
   52    1   50 1     
   53    1   51 1     
   54    8   52 1     
@<TRIPOS>SUBSTRUCTURE
      1 S1             1
@<TRIPOS>SET
LONE_PAIRS      STATIC     ATOMS    <user>   **** ""
3 50 51 52
DONOR_HYDROGENS      STATIC     ATOMS    <user>   **** ""
3 23 28 49
ATOM$BLUE        STATIC     ATOMS    COLORGROUP SYSTEM
3 50 51 52
ATOM$RED        STATIC     ATOMS    COLORGROUP SYSTEM
3 23 28 49
