#       Name:                AV-unprocessed.smi:1464
#       Creating user name   scv26
#       Creation time:       Fri Mar 27 06:03:23 2020


#       File generated by GOLD software.
#

@<TRIPOS>MOLECULE
AV-unprocessed.smi:1464
    48    49     1
SMALL
NO_CHARGES


@<TRIPOS>ATOM
      1 ****        -2.4885  -1.2835   3.6837 C.3            1 S1                 0.0000
      2 ****        -2.0318  -1.2538   2.2141 C.3            1 S1                 0.0000
      3 ****        -2.9103  -2.2061   1.3765 C.3            1 S1                 0.0000
      4 ****        -2.4942  -2.2297  -0.1002 C.3            1 S1                 0.0000
      5 ****        -2.5202  -0.8167  -0.6995 C.3            1 S1                 0.0000
      6 ****        -1.6443   0.1630   0.1063 C.3            1 S1                 0.0000
      7 ****        -0.2240  -0.1463  -0.0642 N.am           1 S1                 0.0000
      8 ****         0.5534   0.2761  -1.0724 C.2            1 S1                 0.0000
      9 ****         0.1376   0.9665  -2.0039 O.2            1 S1                 0.0000
     10 ****         2.0202  -0.1750  -1.0244 C.3            1 S1                 0.0000
     11 ****         2.9373   0.7732  -1.6728 N.am           1 S1                 0.0000
     12 ****         3.3271   0.4028  -2.9511 N.2            1 S1                 0.0000
     13 ****         4.1212   1.1620  -3.6279 C.2            1 S1                 0.0000
     14 ****         4.4786   0.7593  -4.8912 O.3            1 S1                 0.0000
     15 ****         4.6233   2.4014  -3.0764 C.2            1 S1                 0.0000
     16 ****         4.2419   2.7508  -1.8284 C.2            1 S1                 0.0000
     17 ****         3.3419   1.9135  -1.0332 C.2            1 S1                 0.0000
     18 ****         2.9800   2.2058   0.1065 O.2            1 S1                 0.0000
     19 ****        -2.0377   0.1773   1.6065 C.3            1 S1                 0.0000
     20 ****        -1.1708   1.1758   2.4006 C.3            1 S1                 0.0000
     21 ****         4.0266  -0.0588  -5.0308 H              1 S1                 0.0000
     22 ****        -3.4814  -0.8479   3.7996 H              1 S1                 0.0000
     23 ****        -1.8035  -0.7378   4.3319 H              1 S1                 0.0000
     24 ****        -2.5303  -2.3065   4.0590 H              1 S1                 0.0000
     25 ****        -1.0099  -1.6345   2.1850 H              1 S1                 0.0000
     26 ****        -2.8553  -3.2170   1.7819 H              1 S1                 0.0000
     27 ****        -3.9556  -1.9028   1.4514 H              1 S1                 0.0000
     28 ****        -1.4950  -2.6564  -0.1954 H              1 S1                 0.0000
     29 ****        -3.1620  -2.8825  -0.6629 H              1 S1                 0.0000
     30 ****        -2.2018  -0.8465  -1.7423 H              1 S1                 0.0000
     31 ****        -3.5483  -0.4523  -0.7089 H              1 S1                 0.0000
     32 ****        -1.8204   1.1664  -0.2862 H              1 S1                 0.0000
     33 ****         0.2020  -0.7162   0.6523 H              1 S1                 0.0000
     34 ****         2.3241  -0.3340   0.0123 H              1 S1                 0.0000
     35 ****         2.0870  -1.1542  -1.5019 H              1 S1                 0.0000
     36 ****         5.2867   3.0258  -3.6564 H              1 S1                 0.0000
     37 ****         4.6093   3.6740  -1.4045 H              1 S1                 0.0000
     38 ****        -3.0634   0.5461   1.6574 H              1 S1                 0.0000
     39 ****        -0.1464   0.8200   2.5143 H              1 S1                 0.0000
     40 ****        -1.5734   1.3535   3.3974 H              1 S1                 0.0000
     41 ****        -1.1317   2.1433   1.8993 H              1 S1                 0.0000
     42 ****        -0.8239   1.2395  -2.0336 LP             1 S1                 0.0000
     43 ****         0.7617   1.2541  -2.7305 LP             1 S1                 0.0000
     44 ****         2.9931  -0.4520  -3.3481 LP             1 S1                 0.0000
     45 ****         5.4681   0.6268  -4.9495 LP             1 S1                 0.0000
     46 ****         4.1927   1.4372  -5.5686 LP             1 S1                 0.0000
     47 ****         2.3631   1.5981   0.6065 LP             1 S1                 0.0000
     48 ****         3.3030   3.0511   0.5323 LP             1 S1                 0.0000
@<TRIPOS>BOND
    1    1    2 1     
    2    1   22 1     
    3    1   23 1     
    4    1   24 1     
    5    2   19 1     
    6    2    3 1     
    7    2   25 1     
    8    3    4 1     
    9    3   26 1     
   10    3   27 1     
   11    4    5 1     
   12    4   28 1     
   13    4   29 1     
   14    5    6 1     
   15    5   30 1     
   16    5   31 1     
   17    6    7 1     
   18    6   19 1     
   19    6   32 1     
   20    7    8 am    
   21    7   33 1     
   22    8    9 2     
   23    8   10 1     
   24   10   34 1     
   25   10   35 1     
   26   10   11 1     
   27   11   12 1     
   28   11   17 am    
   29   12   13 2     
   30   13   14 1     
   31   13   15 1     
   32   14   21 1     
   33   15   36 1     
   34   15   16 2     
   35   16   37 1     
   36   16   17 1     
   37   17   18 2     
   38   19   20 1     
   39   19   38 1     
   40   20   39 1     
   41   20   40 1     
   42   20   41 1     
   43    9   42 1     
   44    9   43 1     
   45   12   44 1     
   46   14   45 1     
   47   14   46 1     
   48   18   47 1     
   49   18   48 1     
@<TRIPOS>SUBSTRUCTURE
      1 S1             1
@<TRIPOS>SET
LONE_PAIRS      STATIC     ATOMS    <user>   **** ""
7 42 43 44 45 46 47 48
DONOR_HYDROGENS      STATIC     ATOMS    <user>   **** ""
2 33 21
ATOM$BLUE        STATIC     ATOMS    COLORGROUP SYSTEM
7 42 43 44 45 46 47 48
ATOM$RED        STATIC     ATOMS    COLORGROUP SYSTEM
2 33 21
