AV-unprocessed.smi:1830|AV-procd|sdf|7432|dock1
  -GOLD-   22720 9113D 1   1.00000     0.00000
 Structure written by MMmdl.
 53 56  0  0  0  0  0  0  0  0  2 V2000
  151.0746  135.3029  155.4888 O   0  0  0  0  0  0  0  0  0  0  0  0
  150.2988  135.6108  154.5839 C   0  0  0  0  0  0  0  0  0  0  0  0
  149.4243  134.7608  154.0287 N   0  0  0  0  0  0  0  0  0  0  0  0
  149.1302  133.4200  154.5273 C   0  0  0  0  0  0  0  0  0  0  0  0
  148.4738  132.5304  153.4499 C   0  0  2  0  0  0  0  0  0  0  0  0
  147.4487  133.2930  152.5688 C   0  0  0  0  0  0  0  0  0  0  0  0
  146.7810  132.3290  151.6761 N   0  3  2  0  0  0  0  0  0  0  0  0
  145.7547  132.8361  150.7476 C   0  0  0  0  0  0  0  0  0  0  0  0
  144.8222  131.6359  150.4865 C   0  0  0  0  0  0  0  0  0  0  0  0
  145.3438  130.5005  151.3838 C   0  0  0  0  0  0  0  0  0  0  0  0
  146.1495  131.2500  152.4386 C   0  0  1  0  0  0  0  0  0  0  0  0
  147.2338  130.4839  153.2041 C   0  0  0  0  0  0  0  0  0  0  0  0
  147.8604  131.4070  154.0944 O   0  0  0  0  0  0  0  0  0  0  0  0
  150.1804  136.8409  154.0614 N   0  0  0  0  0  0  0  0  0  0  0  0
  150.7044  138.0296  154.6323 C   0  0  0  0  0  0  0  0  0  0  0  0
  151.9173  137.9926  155.3590 C   0  0  0  0  0  0  0  0  0  0  0  0
  152.4551  139.1900  155.8605 C   0  0  0  0  0  0  0  0  0  0  0  0
  151.7645  140.3860  155.6025 C   0  0  0  0  0  0  0  0  0  0  0  0
  150.6122  140.4366  154.9037 N   0  0  0  0  0  0  0  0  0  0  0  0
  150.0700  139.2889  154.4264 C   0  0  0  0  0  0  0  0  0  0  0  0
  148.8445  139.4074  153.7277 N   0  0  0  0  0  0  0  0  0  0  0  0
  148.3496  140.7162  153.3131 C   0  0  0  0  0  0  0  0  0  0  0  0
  146.8816  140.4942  152.9575 C   0  0  0  0  0  0  0  0  0  0  0  0
  146.4578  139.4294  153.9637 C   0  0  0  0  0  0  0  0  0  0  0  0
  147.7158  138.5724  154.1273 C   0  0  0  0  0  0  0  0  0  0  0  0
  148.8486  135.1008  153.2724 H   0  0  0  0  0  0  0  0  0  0  0  0
  150.0719  132.9717  154.8446 H   0  0  0  0  0  0  0  0  0  0  0  0
  148.5007  133.4700  155.4173 H   0  0  0  0  0  0  0  0  0  0  0  0
  149.2657  132.1432  152.8065 H   0  0  0  0  0  0  0  0  0  0  0  0
  146.6953  133.7931  153.1772 H   0  0  0  0  0  0  0  0  0  0  0  0
  147.9478  134.0604  151.9763 H   0  0  0  0  0  0  0  0  0  0  0  0
  145.1971  133.6522  151.2092 H   0  0  0  0  0  0  0  0  0  0  0  0
  146.2145  133.2137  149.8341 H   0  0  0  0  0  0  0  0  0  0  0  0
  143.7982  131.8967  150.7568 H   0  0  0  0  0  0  0  0  0  0  0  0
  144.8202  131.3408  149.4369 H   0  0  0  0  0  0  0  0  0  0  0  0
  144.5432  129.8969  151.8126 H   0  0  0  0  0  0  0  0  0  0  0  0
  145.9950  129.8404  150.8091 H   0  0  0  0  0  0  0  0  0  0  0  0
  145.4496  131.6869  153.1543 H   0  0  0  0  0  0  0  0  0  0  0  0
  146.7946  129.6710  153.7824 H   0  0  0  0  0  0  0  0  0  0  0  0
  147.9702  130.0462  152.5283 H   0  0  0  0  0  0  0  0  0  0  0  0
  149.4525  136.9683  153.3736 H   0  0  0  0  0  0  0  0  0  0  0  0
  152.4422  137.0624  155.5202 H   0  0  0  0  0  0  0  0  0  0  0  0
  153.3793  139.1922  156.4191 H   0  0  0  0  0  0  0  0  0  0  0  0
  152.1477  141.3285  155.9646 H   0  0  0  0  0  0  0  0  0  0  0  0
  148.4197  141.4307  154.1344 H   0  0  0  0  0  0  0  0  0  0  0  0
  148.9168  141.1069  152.4679 H   0  0  0  0  0  0  0  0  0  0  0  0
  146.2862  141.4052  153.0214 H   0  0  0  0  0  0  0  0  0  0  0  0
  146.7979  140.1025  151.9427 H   0  0  0  0  0  0  0  0  0  0  0  0
  146.2084  139.9016  154.9148 H   0  0  0  0  0  0  0  0  0  0  0  0
  145.5919  138.8536  153.6367 H   0  0  0  0  0  0  0  0  0  0  0  0
  147.6683  137.7157  153.4557 H   0  0  0  0  0  0  0  0  0  0  0  0
  147.8156  138.2027  155.1486 H   0  0  0  0  0  0  0  0  0  0  0  0
  147.4948  131.8965  151.1073 H   0  0  0  0  0  0  0  0  0  0  0  0
  1  2  2  0  0  0  0
  2  3  1  0  0  0  0
  2 14  1  0  0  0  0
  3  4  1  0  0  0  0
  3 26  1  0  0  0  0
  4  5  1  0  0  0  0
  4 27  1  0  0  0  0
  4 28  1  0  0  0  0
  5 13  1  0  0  0  0
  5  6  1  0  0  0  0
  5 29  1  0  0  0  0
  6  7  1  0  0  0  0
  6 30  1  0  0  0  0
  6 31  1  0  0  0  0
  7 11  1  0  0  0  0
  7  8  1  0  0  0  0
  7 53  1  0  0  0  0
  8  9  1  0  0  0  0
  8 32  1  0  0  0  0
  8 33  1  0  0  0  0
  9 10  1  0  0  0  0
  9 34  1  0  0  0  0
  9 35  1  0  0  0  0
 10 11  1  0  0  0  0
 10 36  1  0  0  0  0
 10 37  1  0  0  0  0
 11 12  1  0  0  0  0
 11 38  1  0  0  0  0
 12 13  1  0  0  0  0
 12 39  1  0  0  0  0
 12 40  1  0  0  0  0
 14 15  1  0  0  0  0
 14 41  1  0  0  0  0
 15 20  1  0  0  0  0
 15 16  2  0  0  0  0
 16 17  1  0  0  0  0
 16 42  1  0  0  0  0
 17 18  2  0  0  0  0
 17 43  1  0  0  0  0
 18 19  1  0  0  0  0
 18 44  1  0  0  0  0
 19 20  2  0  0  0  0
 20 21  1  0  0  0  0
 21 25  1  0  0  0  0
 21 22  1  0  0  0  0
 22 23  1  0  0  0  0
 22 45  1  0  0  0  0
 22 46  1  0  0  0  0
 23 24  1  0  0  0  0
 23 47  1  0  0  0  0
 23 48  1  0  0  0  0
 24 25  1  0  0  0  0
 24 49  1  0  0  0  0
 24 50  1  0  0  0  0
 25 51  1  0  0  0  0
 25 52  1  0  0  0  0
M  CHG  1   7   1
M  END
> <s_m_source_file>
AV-unprocessed.smi

> <i_m_source_file_index>
1830

> <i_lp_mmshare_version>
43012

> <i_f3d_flags>
0

> <s_epik_input>
W0NIMl0xW0NIMl1bQ0gyXVtDQEhdKE4xMilbQ0gyXU9bQ0BASF0oW0NIMl0yKVtDSDJdW05IXUMoPU8pW05IXWMzW2NIXVtjSF1bY0hdbmMzTjRbQ0gyXVtDSDJdW0NIMl1bQ0gyXTQ=

> <s_epik_cmdline>
J2VwaWtfcHl0aG9uJywgJy1waCcsICc3LjAnLCAnLXRuJywgJzgnLCAnLW1hJywgJzIwMCcsICctbWV0YWxfYmluZGluZycsICctaW1hZScsICc8aW5maWxlLm1hZT4nLCAnLW9tYWUnLCAnPG91dGZpbGUubWFlPic=

> <r_lp_tautomer_probability>
1

> <r_epik_Ionization_Penalty>
0.193547

> <r_epik_Ionization_Penalty_Charging>
0.10673

> <r_epik_Ionization_Penalty_Neutral>
0.0868166

> <r_epik_State_Penalty>
0.173595

> <r_epik_Charging_Adjusted_Penalty>
0.280326

> <i_epik_Tot_Q>
1

> <i_epik_Tot_abs_Q>
1

> <r_epik_Metal_State_Penalty>
0.164683

> <b_epik_Metal_Only>
0

> <s_lp_Force_Field>
OPLS_2005

> <r_lp_Energy>
64.1667

> <b_lp_Chiralities_Consistent>
1

> <s_lp_Variant>
AV-unprocessed.smi:1830-1

> <Gold.Version>
5.8.1

> <Gold.Id.Protein>
6NUR|6NUR_protein|mol2

> <Gold.PLP.Fitness>
55.5748

> <Gold.PLP.PLP>
-43.0691

> <Gold.PLP.part.hbond>
-6.0000

> <Gold.PLP.part.metal>
0.0000

> <Gold.PLP.part.buried>
-1.5638

> <Gold.PLP.part.nonpolar>
-37.4907

> <Gold.PLP.part.repulsive>
1.4706

> <Gold.PLP.ligand.clash>
0.0000

> <Gold.PLP.ligand.torsion>
0.7010

> <Gold.PLP.Chemscore.Hbond>
4.4640

> <Gold.PLP.Chemscore.CHOScore>
0.0000

> <Gold.PLP.Chemscore.Metal>
0.0000

> <Gold.Chemscore.Hbonds>
donor molecule, donor type, donor heavy atom, donor atom, acceptor molecule, acceptor atom, score
      L1  H     3    26       P1  7948  0.77
      L1  H     7    53       P1 10747  1.00
      L1  H    14    41       P1  7948  0.74
      P1  H  7989  7998       L1    19  0.29
      P1  H 10752 10764       L1     1  0.96

> <Gold.PLP.Chemscore.Internal.Correction>
0.5157

> <Gold.Rescore>
     Score         DG    S(hbond)    S(metal)    S(lipo)     H(rot)  DE(clash)    DE(int)     intcor
     20.49     -22.93       2.61        0.00     105.53       1.41       0.27       2.18       ----

> <Gold.Chemscore.Fitness>
20.4893

> <Gold.Chemscore.DG>
-22.9299

> <Gold.Chemscore.ZeroCoef>
-5.4800

> <Gold.Chemscore.Hbond>
2.6060

> <Gold.Chemscore.Metal>
0.0000

> <Gold.Chemscore.Lipo>
105.5299

> <Gold.Chemscore.Internal_Hbond>
0.0000

> <Gold.Chemscore.DEClash>
0.2654

> <Gold.Chemscore.DEInternal>
2.1753

> <Gold.Chemscore.Rot>
1.4067

> <Gold.Chemscore.Internal.Correction>
   9.000000E+99

> <Gold.Chemscore.Hbonds>
donor molecule, donor type, donor heavy atom, donor atom, acceptor molecule, acceptor atom, score
      L1  H     3    26       P1  7948  0.39
      L1  H     7    53       P1 10747  0.97
      L1  H    14    41       P1  7948  0.63
      P1  H 10752 10764       L1     1  0.69

> <Gold.Chemscore.Hbond.Weighted>
-8.7040

> <Gold.Chemscore.Metal.Weighted>
-0.0000

> <Gold.Chemscore.Lipo.Weighted>
-12.3470

> <Gold.Chemscore.Internal_Hbond.Weighted>
0.0000

> <Gold.Chemscore.DEClash.Weighted>
0.2654

> <Gold.Chemscore.DEInternal.Weighted>
2.1753

> <Gold.Chemscore.Rot.Weighted>
3.6011

> <Gold.Chemscore.Internal.Correction.Weighted>
   9.000000E+99

> <Gold.Protein.RotatedTorsions>
[ 6907 6896 6895 6894 ] final  162.78 input  -60.11 | X-H torsion
[ 7974 7965 7964 7962 ] final -100.86 input  175.53 | X-H torsion
[ 8008 7997 7996 7995 ] final  -19.78 input   59.86 | X-H torsion
[ 10167 10162 10161 10158 ] final  173.60 input  -65.29 | X-H torsion
[ 10718 10713 10712 10709 ] final   17.64 input   66.30 | X-H torsion
[ 10763 10752 10751 10750 ] final  -41.51 input  -60.55 | X-H torsion
[ 11005 11000 10999 10996 ] final  153.07 input  -57.11 | X-H torsion

> <Gold.Protein.ActiveResidues>
 VAL166  LYS551  ARG553  GLY616  TRP617  ASP618  TYR619  PRO620  LYS621  CYS622 
 ASP623  PHE694  ASN695  SER759  ASP760  ASP761  ALA762  ILE779  LEU786  VAL792 
 PHE793  MET794  SER795  GLU796  ALA797  LYS798  CYS799  TRP800  GLU811  SER814 

> <Gold.Protein.RotatedAtoms>
  151.9352  133.3622  159.3944 H   0  0  0  0  0  0  0  0  0  0  0  0  # atno 6907 bound_to 6896
  150.7009  134.4496  159.5339 H   0  0  0  0  0  0  0  0  0  0  0  0  # atno 6908 bound_to 6896
  152.2143  134.8472  160.0544 H   0  0  0  0  0  0  0  0  0  0  0  0  # atno 6909 bound_to 6896
  145.2891  140.9348  143.2888 H   0  0  0  0  0  0  0  0  0  0  0  0  # atno 7974 bound_to 7965
  154.4814  140.2080  155.9755 H   0  0  0  0  0  0  0  0  0  0  0  0  # atno 8008 bound_to 7997
  156.1170  140.3219  155.8123 H   0  0  0  0  0  0  0  0  0  0  0  0  # atno 8009 bound_to 7997
  155.4535  140.0519  157.2989 H   0  0  0  0  0  0  0  0  0  0  0  0  # atno 8010 bound_to 7997
  139.5114  144.3242  152.0173 H   0  0  0  0  0  0  0  0  0  0  0  0  # atno 10167 bound_to 10162
  157.0850  130.6404  149.5835 H   0  0  0  0  0  0  0  0  0  0  0  0  # atno 10718 bound_to 10713
  153.9637  135.6736  153.4745 H   0  0  0  0  0  0  0  0  0  0  0  0  # atno 10763 bound_to 10752
  153.0826  135.4915  154.8529 H   0  0  0  0  0  0  0  0  0  0  0  0  # atno 10764 bound_to 10752
  154.7258  135.3127  154.8933 H   0  0  0  0  0  0  0  0  0  0  0  0  # atno 10765 bound_to 10752
  140.1365  134.8767  157.2274 H   0  0  0  0  0  0  0  0  0  0  0  0  # atno 11005 bound_to 11000
  144.9188  139.4437  143.6551 LP  0  0  0  0  0  0  0  0  0  0  0  0  # atno 17320 bound_to 7965
  146.3191  139.8037  142.8960 LP  0  0  0  0  0  0  0  0  0  0  0  0  # atno 17321 bound_to 7965
  140.2683  144.3992  150.6160 LP  0  0  0  0  0  0  0  0  0  0  0  0  # atno 17342 bound_to 10162
  140.6107  143.2169  151.6892 LP  0  0  0  0  0  0  0  0  0  0  0  0  # atno 17343 bound_to 10162
  155.9913  130.4967  150.7293 LP  0  0  0  0  0  0  0  0  0  0  0  0  # atno 17370 bound_to 10713
  157.4768  131.0898  151.0581 LP  0  0  0  0  0  0  0  0  0  0  0  0  # atno 17371 bound_to 10713
  140.2776  134.3387  155.7353 LP  0  0  0  0  0  0  0  0  0  0  0  0  # atno 17394 bound_to 11000
  141.2179  133.7459  156.9316 LP  0  0  0  0  0  0  0  0  0  0  0  0  # atno 17395 bound_to 11000

$$$$
