#       Name:                AV-unprocessed.smi:3266
#       Creating user name   scv26
#       Creation time:       Fri Mar 27 18:40:27 2020


#       File generated by GOLD software.
#

@<TRIPOS>MOLECULE
AV-unprocessed.smi:3266
    43    44     1
SMALL
NO_CHARGES


@<TRIPOS>ATOM
      1 ****        -1.8694   1.2719  -0.4998 O.2            1 S1                 0.0000
      2 ****        -1.2272   0.6103  -1.3157 C.2            1 S1                 0.0000
      3 ****         0.2749   0.8458  -1.4845 C.3            1 S1                 0.0000
      4 ****         1.0124   0.8795  -0.1339 C.3            1 S1                 0.0000
      5 ****         2.5328   1.0233  -0.2929 C.3            1 S1                 0.0000
      6 ****         3.2974   0.9830   1.0288 C.3            1 S1                 0.0000
      7 ****         4.5668   1.7188   0.6658 C.3            1 S1                 0.0000
      8 ****         4.0396   2.8142  -0.2571 C.3            1 S1                 0.0000
      9 ****         2.8665   2.2837  -0.8695 O.3            1 S1                 0.0000
     10 ****        -1.7713  -0.3481  -2.0826 N.am           1 S1                 0.0000
     11 ****        -3.1623  -0.7920  -2.0274 C.3            1 S1                 0.0000
     12 ****        -3.3358  -2.0608  -1.1692 C.3            1 S1                 0.0000
     13 ****        -2.8844  -1.8904   0.2717 C.ar           1 S1                 0.0000
     14 ****        -1.6345  -2.3878   0.7003 C.ar           1 S1                 0.0000
     15 ****        -1.2492  -2.1713   2.0372 C.ar           1 S1                 0.0000
     16 ****        -2.1254  -1.4743   2.8909 C.ar           1 S1                 0.0000
     17 ****        -3.3536  -1.0231   2.3674 C.ar           1 S1                 0.0000
     18 ****        -3.7326  -1.2245   1.0870 N.ar           1 S1                 0.0000
     19 ****         0.7000   0.0637  -2.1154 H              1 S1                 0.0000
     20 ****         0.4185   1.7877  -2.0148 H              1 S1                 0.0000
     21 ****         0.6339   1.6989   0.4792 H              1 S1                 0.0000
     22 ****         0.7998  -0.0389   0.4157 H              1 S1                 0.0000
     23 ****         2.9187   0.2410  -0.9487 H              1 S1                 0.0000
     24 ****         2.7589   1.5300   1.8043 H              1 S1                 0.0000
     25 ****         3.4762  -0.0314   1.3865 H              1 S1                 0.0000
     26 ****         5.1009   2.1103   1.5320 H              1 S1                 0.0000
     27 ****         5.2392   1.0564   0.1186 H              1 S1                 0.0000
     28 ****         3.7583   3.6964   0.3194 H              1 S1                 0.0000
     29 ****         4.7754   3.1176  -1.0021 H              1 S1                 0.0000
     30 ****        -1.1661  -0.8331  -2.7293 H              1 S1                 0.0000
     31 ****        -3.8087   0.0045  -1.6548 H              1 S1                 0.0000
     32 ****        -3.4915  -0.9960  -3.0463 H              1 S1                 0.0000
     33 ****        -4.3836  -2.3638  -1.1747 H              1 S1                 0.0000
     34 ****        -2.7828  -2.8857  -1.6200 H              1 S1                 0.0000
     35 ****        -0.9800  -2.9103   0.0184 H              1 S1                 0.0000
     36 ****        -0.2977  -2.5303   2.4003 H              1 S1                 0.0000
     37 ****        -1.8627  -1.2889   3.9218 H              1 S1                 0.0000
     38 ****        -4.0499  -0.4851   2.9937 H              1 S1                 0.0000
     39 ****        -1.4093   1.9653   0.0546 LP             1 S1                 0.0000
     40 ****        -2.8512   1.1158  -0.3916 LP             1 S1                 0.0000
     41 ****         2.1070   2.9198  -0.7335 LP             1 S1                 0.0000
     42 ****         3.0306   2.1651  -1.8488 LP             1 S1                 0.0000
     43 ****        -4.6139  -0.8911   0.7521 LP             1 S1                 0.0000
@<TRIPOS>BOND
    1    1    2 2     
    2    2    3 1     
    3    2   10 am    
    4    3    4 1     
    5    3   19 1     
    6    3   20 1     
    7    4    5 1     
    8    4   21 1     
    9    4   22 1     
   10    5    9 1     
   11    5    6 1     
   12    5   23 1     
   13    6    7 1     
   14    6   24 1     
   15    6   25 1     
   16    7    8 1     
   17    7   26 1     
   18    7   27 1     
   19    8    9 1     
   20    8   28 1     
   21    8   29 1     
   22   10   11 1     
   23   10   30 1     
   24   11   12 1     
   25   11   31 1     
   26   11   32 1     
   27   12   13 1     
   28   12   33 1     
   29   12   34 1     
   30   13   18 ar    
   31   13   14 ar    
   32   14   15 ar    
   33   14   35 1     
   34   15   16 ar    
   35   15   36 1     
   36   16   17 ar    
   37   16   37 1     
   38   17   18 ar    
   39   17   38 1     
   40    1   39 1     
   41    1   40 1     
   42    9   41 1     
   43    9   42 1     
   44   18   43 1     
@<TRIPOS>SUBSTRUCTURE
      1 S1             1
@<TRIPOS>SET
LONE_PAIRS      STATIC     ATOMS    <user>   **** ""
5 39 40 41 42 43
DONOR_HYDROGENS      STATIC     ATOMS    <user>   **** ""
1 30
ATOM$BLUE        STATIC     ATOMS    COLORGROUP SYSTEM
5 39 40 41 42 43
ATOM$RED        STATIC     ATOMS    COLORGROUP SYSTEM
1 30
