AV-unprocessed.smi:3254|AV-procd|sdf|12455|dock2
  -GOLD-   2272018353D 1   1.00000     0.00000
 Structure written by MMmdl.
 36 37  0  0  0  0  0  0  0  0  1 V2000
  145.1877  144.1918  153.4676 C   0  0  0  0  0  0  0  0  0  0  0  0
  145.4112  143.4092  154.7684 C   0  0  0  0  0  0  0  0  0  0  0  0
  146.2345  142.2253  154.5418 N   0  0  0  0  0  0  0  0  0  0  0  0
  147.4120  142.2922  153.6929 C   0  0  0  0  0  0  0  0  0  0  0  0
  148.1394  140.9453  153.8892 C   0  0  1  0  0  0  0  0  0  0  0  0
  149.4268  141.0931  154.7160 C   0  0  0  0  0  0  0  0  0  0  0  0
  150.2654  140.1911  154.7218 O   0  0  0  0  0  0  0  0  0  0  0  0
  149.5633  142.2342  155.4074 N   0  0  0  0  0  0  0  0  0  0  0  0
  150.7043  142.5925  156.2448 C   0  0  0  0  0  0  0  0  0  0  0  0
  150.3584  142.4604  157.7367 C   0  0  0  0  0  0  0  0  0  0  0  0
  151.0909  143.4069  158.5567 N   0  0  0  0  0  0  0  0  0  0  0  0
  151.0029  144.7921  158.5173 C   0  0  0  0  0  0  0  0  0  0  0  0
  151.8789  145.2684  159.4664 C   0  0  0  0  0  0  0  0  0  0  0  0
  152.5116  144.2004  160.0986 N   0  0  0  0  0  0  0  0  0  0  0  0
  151.9916  143.1312  159.5099 C   0  0  0  0  0  0  0  0  0  0  0  0
  147.1132  140.0394  154.5992 C   0  0  0  0  0  0  0  0  0  0  0  0
  146.0116  140.9972  155.0228 C   0  0  0  0  0  0  0  0  0  0  0  0
  145.0641  140.6540  155.7280 O   0  0  0  0  0  0  0  0  0  0  0  0
  144.5536  145.0610  153.6425 H   0  0  0  0  0  0  0  0  0  0  0  0
  144.7011  143.5707  152.7148 H   0  0  0  0  0  0  0  0  0  0  0  0
  146.1299  144.5479  153.0499 H   0  0  0  0  0  0  0  0  0  0  0  0
  145.8855  144.0494  155.5137 H   0  0  0  0  0  0  0  0  0  0  0  0
  144.4501  143.1087  155.1875 H   0  0  0  0  0  0  0  0  0  0  0  0
  147.1008  142.4162  152.6548 H   0  0  0  0  0  0  0  0  0  0  0  0
  148.0279  143.1540  153.9570 H   0  0  0  0  0  0  0  0  0  0  0  0
  148.3900  140.5225  152.9145 H   0  0  0  0  0  0  0  0  0  0  0  0
  148.8182  142.9131  155.3456 H   0  0  0  0  0  0  0  0  0  0  0  0
  151.5438  141.9447  155.9902 H   0  0  0  0  0  0  0  0  0  0  0  0
  151.0319  143.6145  156.0481 H   0  0  0  0  0  0  0  0  0  0  0  0
  149.2927  142.6355  157.8883 H   0  0  0  0  0  0  0  0  0  0  0  0
  150.5636  141.4488  158.0902 H   0  0  0  0  0  0  0  0  0  0  0  0
  150.3447  145.3097  157.8348 H   0  0  0  0  0  0  0  0  0  0  0  0
  152.1004  146.2893  159.7406 H   0  0  0  0  0  0  0  0  0  0  0  0
  152.2764  142.1234  159.7754 H   0  0  0  0  0  0  0  0  0  0  0  0
  146.7036  139.2973  153.9133 H   0  0  0  0  0  0  0  0  0  0  0  0
  147.5172  139.5117  155.4648 H   0  0  0  0  0  0  0  0  0  0  0  0
  1  2  1  0  0  0  0
  1 19  1  0  0  0  0
  1 20  1  0  0  0  0
  1 21  1  0  0  0  0
  2  3  1  0  0  0  0
  2 22  1  0  0  0  0
  2 23  1  0  0  0  0
  3 17  1  0  0  0  0
  3  4  1  0  0  0  0
  4  5  1  0  0  0  0
  4 24  1  0  0  0  0
  4 25  1  0  0  0  0
  5  6  1  0  0  0  0
  5 16  1  0  0  0  0
  5 26  1  0  0  0  0
  6  7  2  0  0  0  0
  6  8  1  0  0  0  0
  8  9  1  0  0  0  0
  8 27  1  0  0  0  0
  9 10  1  0  0  0  0
  9 28  1  0  0  0  0
  9 29  1  0  0  0  0
 10 11  1  0  0  0  0
 10 30  1  0  0  0  0
 10 31  1  0  0  0  0
 11 15  1  0  0  0  0
 11 12  1  0  0  0  0
 12 13  2  0  0  0  0
 12 32  1  0  0  0  0
 13 14  1  0  0  0  0
 13 33  1  0  0  0  0
 14 15  2  0  0  0  0
 15 34  1  0  0  0  0
 16 17  1  0  0  0  0
 16 35  1  0  0  0  0
 16 36  1  0  0  0  0
 17 18  2  0  0  0  0
M  END
> <s_m_source_file>
AV-unprocessed.smi

> <i_m_source_file_index>
3254

> <i_lp_mmshare_version>
43012

> <i_f3d_flags>
0

> <s_epik_input>
W0NIM11bQ0gyXU4xW0NIMl1bQ0BIXShbQ0gyXUMxPU8pQyg9TylbTkhdW0NIMl1bQ0gyXW4yW2NIXVtjSF1uW2NIXTI=

> <s_epik_cmdline>
J2VwaWtfcHl0aG9uJywgJy1waCcsICc3LjAnLCAnLXRuJywgJzgnLCAnLW1hJywgJzIwMCcsICctbWV0YWxfYmluZGluZycsICctaW1hZScsICc8aW5maWxlLm1hZT4nLCAnLW9tYWUnLCAnPG91dGZpbGUubWFlPic=

> <r_lp_tautomer_probability>
1

> <r_epik_Ionization_Penalty>
0.587394

> <r_epik_Ionization_Penalty_Charging>
0.587394

> <r_epik_Ionization_Penalty_Neutral>
3.11583e-08

> <r_epik_State_Penalty>
0.600671

> <r_epik_Charging_Adjusted_Penalty>
1.18807

> <i_epik_Tot_Q>
0

> <i_epik_Tot_abs_Q>
0

> <r_epik_Metal_State_Penalty>
0.297665

> <b_epik_Metal_Only>
0

> <s_lp_Force_Field>
OPLS_2005

> <r_lp_Energy>
14.5413

> <b_lp_Chiralities_Consistent>
1

> <s_lp_Variant>
AV-unprocessed.smi:3254-3

> <Gold.Version>
5.8.1

> <Gold.Id.Protein>
6NUR|6NUR_protein|mol2

> <Gold.PLP.Fitness>
42.7729

> <Gold.PLP.PLP>
-37.4605

> <Gold.PLP.part.hbond>
-2.0000

> <Gold.PLP.part.metal>
0.0000

> <Gold.PLP.part.buried>
-3.6963

> <Gold.PLP.part.nonpolar>
-32.4551

> <Gold.PLP.part.repulsive>
0.3898

> <Gold.PLP.ligand.clash>
0.0000

> <Gold.PLP.ligand.torsion>
0.9693

> <Gold.PLP.Chemscore.Hbond>
1.5920

> <Gold.PLP.Chemscore.CHOScore>
0.7980

> <Gold.PLP.Chemscore.Metal>
0.0000

> <Gold.Chemscore.Hbonds>
donor molecule, donor type, donor heavy atom, donor atom, acceptor molecule, acceptor atom, score
      L1  H     8    27       P1  8028  0.59
      P1  H  7989  7998       L1     7  1.00
      L1  C    12    32       P1  8028  0.30
      L1  C    12    32       P1  8029  0.50

> <Gold.PLP.Chemscore.Internal.Correction>
0.0811

> <Gold.Rescore>
     Score         DG    S(hbond)    S(metal)    S(lipo)     H(rot)  DE(clash)    DE(int)     intcor
     10.89     -12.79       1.41        0.00      70.21       2.20       1.20       0.70       ----

> <Gold.Chemscore.Fitness>
10.8934

> <Gold.Chemscore.DG>
-12.7920

> <Gold.Chemscore.ZeroCoef>
-5.4800

> <Gold.Chemscore.Hbond>
1.4122

> <Gold.Chemscore.Metal>
0.0000

> <Gold.Chemscore.Lipo>
70.2132

> <Gold.Chemscore.Internal_Hbond>
0.0000

> <Gold.Chemscore.DEClash>
1.2005

> <Gold.Chemscore.DEInternal>
0.6981

> <Gold.Chemscore.Rot>
2.1952

> <Gold.Chemscore.Internal.Correction>
   9.000000E+99

> <Gold.Chemscore.Hbonds>
donor molecule, donor type, donor heavy atom, donor atom, acceptor molecule, acceptor atom, score
      L1  H     8    27       P1  8028  0.60
      P1  H  7989  7998       L1     7  0.34

> <Gold.Chemscore.Hbond.Weighted>
-4.7168

> <Gold.Chemscore.Metal.Weighted>
-0.0000

> <Gold.Chemscore.Lipo.Weighted>
-8.2149

> <Gold.Chemscore.Internal_Hbond.Weighted>
0.0000

> <Gold.Chemscore.DEClash.Weighted>
1.2005

> <Gold.Chemscore.DEInternal.Weighted>
0.6981

> <Gold.Chemscore.Rot.Weighted>
5.6197

> <Gold.Chemscore.Internal.Correction.Weighted>
   9.000000E+99

> <Gold.Protein.RotatedTorsions>
[ 6907 6896 6895 6894 ] final  178.67 input  -60.11 | X-H torsion
[ 7974 7965 7964 7962 ] final   24.61 input  175.53 | X-H torsion
[ 8008 7997 7996 7995 ] final   74.71 input   59.86 | X-H torsion
[ 10167 10162 10161 10158 ] final -119.50 input  -65.29 | X-H torsion
[ 10718 10713 10712 10709 ] final -164.21 input   66.30 | X-H torsion
[ 10763 10752 10751 10750 ] final  139.26 input  -60.55 | X-H torsion
[ 11005 11000 10999 10996 ] final   25.86 input  -57.11 | X-H torsion

> <Gold.Protein.ActiveResidues>
 VAL166  LYS551  ARG553  GLY616  TRP617  ASP618  TYR619  PRO620  LYS621  CYS622 
 ASP623  PHE694  ASN695  SER759  ASP760  ASP761  ALA762  ILE779  LEU786  VAL792 
 PHE793  MET794  SER795  GLU796  ALA797  LYS798  CYS799  TRP800  GLU811  SER814 

> <Gold.Protein.RotatedAtoms>
  151.6841  133.3311  159.3226 H   0  0  0  0  0  0  0  0  0  0  0  0  # atno 6907 bound_to 6896
  150.7809  134.6755  159.6424 H   0  0  0  0  0  0  0  0  0  0  0  0  # atno 6908 bound_to 6896
  152.3866  134.6511  160.0175 H   0  0  0  0  0  0  0  0  0  0  0  0  # atno 6909 bound_to 6896
  146.1929  139.7581  142.8818 H   0  0  0  0  0  0  0  0  0  0  0  0  # atno 7974 bound_to 7965
  155.8024  140.3476  155.5410 H   0  0  0  0  0  0  0  0  0  0  0  0  # atno 8008 bound_to 7997
  155.8525  140.0958  157.1686 H   0  0  0  0  0  0  0  0  0  0  0  0  # atno 8009 bound_to 7997
  154.4008  140.1374  156.3849 H   0  0  0  0  0  0  0  0  0  0  0  0  # atno 8010 bound_to 7997
  140.0459  143.5107  152.2106 H   0  0  0  0  0  0  0  0  0  0  0  0  # atno 10167 bound_to 10162
  156.6358  130.8948  151.2986 H   0  0  0  0  0  0  0  0  0  0  0  0  # atno 10718 bound_to 10713
  153.9032  135.3019  155.3448 H   0  0  0  0  0  0  0  0  0  0  0  0  # atno 10763 bound_to 10752
  154.7660  135.4910  153.9558 H   0  0  0  0  0  0  0  0  0  0  0  0  # atno 10764 bound_to 10752
  153.1233  135.6787  153.9399 H   0  0  0  0  0  0  0  0  0  0  0  0  # atno 10765 bound_to 10752
  140.3432  134.2309  155.7687 H   0  0  0  0  0  0  0  0  0  0  0  0  # atno 11005 bound_to 11000
  145.3736  141.0347  143.3217 LP  0  0  0  0  0  0  0  0  0  0  0  0  # atno 17320 bound_to 7965
  144.8522  139.5304  143.6851 LP  0  0  0  0  0  0  0  0  0  0  0  0  # atno 17321 bound_to 7965
  139.5984  144.7574  151.3231 LP  0  0  0  0  0  0  0  0  0  0  0  0  # atno 17342 bound_to 10162
  140.7239  143.7059  150.7807 LP  0  0  0  0  0  0  0  0  0  0  0  0  # atno 17343 bound_to 10162
  157.7186  130.9529  150.1350 LP  0  0  0  0  0  0  0  0  0  0  0  0  # atno 17370 bound_to 10713
  156.2198  130.3673  149.8569 LP  0  0  0  0  0  0  0  0  0  0  0  0  # atno 17371 bound_to 10713
  141.2032  133.7917  157.0349 LP  0  0  0  0  0  0  0  0  0  0  0  0  # atno 17394 bound_to 11000
  140.0763  134.9673  157.1551 LP  0  0  0  0  0  0  0  0  0  0  0  0  # atno 17395 bound_to 11000

$$$$
