AV-unprocessed.smi:564|AV-procd|sdf|2947|dock9
  -GOLD-   2262023443D 1   1.00000     0.00000
 Structure written by MMmdl.
 50 51  0  0  0  0  0  0  0  0  2 V2000
  152.8734  138.5755  154.7171 C   0  0  0  0  0  0  0  0  0  0  0  0
  151.9551  139.5689  155.3701 C   0  0  0  0  0  0  0  0  0  0  0  0
  152.4256  140.3458  156.3306 N   0  0  0  0  0  0  0  0  0  0  0  0
  151.3755  141.0984  156.7136 N   0  0  0  0  0  0  0  0  0  0  0  0
  151.5561  142.0655  157.7793 C   0  0  0  0  0  0  0  0  0  0  0  0
  150.2391  140.8045  155.9836 C   0  0  0  0  0  0  0  0  0  0  0  0
  148.9357  141.5012  156.2113 C   0  0  0  0  0  0  0  0  0  0  0  0
  150.5761  139.8134  155.1001 C   0  0  0  0  0  0  0  0  0  0  0  0
  149.7078  139.1284  154.0736 C   0  0  0  0  0  0  0  0  0  0  0  0
  148.4990  138.5081  154.7720 C   0  0  0  0  0  0  0  0  0  0  0  0
  148.2628  138.7718  155.9503 O   0  0  0  0  0  0  0  0  0  0  0  0
  147.7650  137.6513  154.0453 N   0  0  0  0  0  0  0  0  0  0  0  0
  146.6709  136.8351  154.5634 C   0  0  0  0  0  0  0  0  0  0  0  0
  146.8391  135.3355  154.2267 C   0  0  0  0  0  0  0  0  0  0  0  0
  146.5702  135.0208  152.7925 N   0  3  2  0  0  0  0  0  0  0  0  0
  145.2105  135.4785  152.3894 C   0  0  0  0  0  0  0  0  0  0  0  0
  144.9698  135.3089  150.8846 C   0  0  0  0  0  0  0  0  0  0  0  0
  145.1671  133.8505  150.4729 C   0  0  0  0  0  0  0  0  0  0  0  0
  146.5647  133.3896  150.8930 C   0  0  0  0  0  0  0  0  0  0  0  0
  146.8222  133.5954  152.4028 C   0  0  1  0  0  0  0  0  0  0  0  0
  148.2581  133.1272  152.7182 C   0  0  0  0  0  0  0  0  0  0  0  0
  152.6293  138.4441  153.6629 H   0  0  0  0  0  0  0  0  0  0  0  0
  152.7978  137.6007  155.1993 H   0  0  0  0  0  0  0  0  0  0  0  0
  153.9148  138.8955  154.7734 H   0  0  0  0  0  0  0  0  0  0  0  0
  150.6509  142.1306  158.3834 H   0  0  0  0  0  0  0  0  0  0  0  0
  151.7742  143.0450  157.3544 H   0  0  0  0  0  0  0  0  0  0  0  0
  152.3829  141.7679  158.4257 H   0  0  0  0  0  0  0  0  0  0  0  0
  148.2735  141.3905  155.3530 H   0  0  0  0  0  0  0  0  0  0  0  0
  149.0805  142.5681  156.3790 H   0  0  0  0  0  0  0  0  0  0  0  0
  148.4274  141.0885  157.0827 H   0  0  0  0  0  0  0  0  0  0  0  0
  149.3611  139.8324  153.3161 H   0  0  0  0  0  0  0  0  0  0  0  0
  150.2515  138.3507  153.5361 H   0  0  0  0  0  0  0  0  0  0  0  0
  148.0218  137.5122  153.0785 H   0  0  0  0  0  0  0  0  0  0  0  0
  146.5827  136.9720  155.6424 H   0  0  0  0  0  0  0  0  0  0  0  0
  145.7426  137.2154  154.1376 H   0  0  0  0  0  0  0  0  0  0  0  0
  147.8618  135.0822  154.4922 H   0  0  0  0  0  0  0  0  0  0  0  0
  146.2074  134.7234  154.8716 H   0  0  0  0  0  0  0  0  0  0  0  0
  144.4584  134.9225  152.9516 H   0  0  0  0  0  0  0  0  0  0  0  0
  145.0752  136.5302  152.6394 H   0  0  0  0  0  0  0  0  0  0  0  0
  143.9621  135.6364  150.6273 H   0  0  0  0  0  0  0  0  0  0  0  0
  145.6559  135.9475  150.3292 H   0  0  0  0  0  0  0  0  0  0  0  0
  144.4096  133.2229  150.9442 H   0  0  0  0  0  0  0  0  0  0  0  0
  145.0417  133.7416  149.3952 H   0  0  0  0  0  0  0  0  0  0  0  0
  146.6885  132.3380  150.6316 H   0  0  0  0  0  0  0  0  0  0  0  0
  147.3110  133.9361  150.3158 H   0  0  0  0  0  0  0  0  0  0  0  0
  146.1263  132.9650  152.9589 H   0  0  0  0  0  0  0  0  0  0  0  0
  148.4673  132.1657  152.2485 H   0  0  0  0  0  0  0  0  0  0  0  0
  148.4263  132.9809  153.7844 H   0  0  0  0  0  0  0  0  0  0  0  0
  148.9974  133.8382  152.3496 H   0  0  0  0  0  0  0  0  0  0  0  0
  147.2310  135.5688  152.2598 H   0  0  0  0  0  0  0  0  0  0  0  0
  1  2  1  0  0  0  0
  1 22  1  0  0  0  0
  1 23  1  0  0  0  0
  1 24  1  0  0  0  0
  2  8  1  0  0  0  0
  2  3  2  0  0  0  0
  3  4  1  0  0  0  0
  4  5  1  0  0  0  0
  4  6  1  0  0  0  0
  5 25  1  0  0  0  0
  5 26  1  0  0  0  0
  5 27  1  0  0  0  0
  6  7  1  0  0  0  0
  6  8  2  0  0  0  0
  7 28  1  0  0  0  0
  7 29  1  0  0  0  0
  7 30  1  0  0  0  0
  8  9  1  0  0  0  0
  9 10  1  0  0  0  0
  9 31  1  0  0  0  0
  9 32  1  0  0  0  0
 10 11  2  0  0  0  0
 10 12  1  0  0  0  0
 12 13  1  0  0  0  0
 12 33  1  0  0  0  0
 13 14  1  0  0  0  0
 13 34  1  0  0  0  0
 13 35  1  0  0  0  0
 14 15  1  0  0  0  0
 14 36  1  0  0  0  0
 14 37  1  0  0  0  0
 15 20  1  0  0  0  0
 15 16  1  0  0  0  0
 15 50  1  0  0  0  0
 16 17  1  0  0  0  0
 16 38  1  0  0  0  0
 16 39  1  0  0  0  0
 17 18  1  0  0  0  0
 17 40  1  0  0  0  0
 17 41  1  0  0  0  0
 18 19  1  0  0  0  0
 18 42  1  0  0  0  0
 18 43  1  0  0  0  0
 19 20  1  0  0  0  0
 19 44  1  0  0  0  0
 19 45  1  0  0  0  0
 20 21  1  0  0  0  0
 20 46  1  0  0  0  0
 21 47  1  0  0  0  0
 21 48  1  0  0  0  0
 21 49  1  0  0  0  0
M  CHG  1  15   1
M  END
> <s_m_source_file>
AV-unprocessed.smi

> <i_m_source_file_index>
564

> <i_lp_mmshare_version>
43012

> <i_f3d_flags>
0

> <s_epik_input>
W0NIM11jMW5uKFtDSDNdKWMoW0NIM10pYzFbQ0gyXUMoPU8pW05IXVtDSDJdW0NIMl1OMltDSDJdW0NIMl1bQ0gyXVtDSDJdW0NASF0yW0NIM10=

> <s_epik_cmdline>
J2VwaWtfcHl0aG9uJywgJy1waCcsICc3LjAnLCAnLXRuJywgJzgnLCAnLW1hJywgJzIwMCcsICctbWV0YWxfYmluZGluZycsICctaW1hZScsICc8aW5maWxlLm1hZT4nLCAnLW9tYWUnLCAnPG91dGZpbGUubWFlPic=

> <r_lp_tautomer_probability>
1

> <r_epik_Ionization_Penalty>
0.00456826

> <r_epik_Ionization_Penalty_Charging>
0.00240401

> <r_epik_Ionization_Penalty_Neutral>
0.00216425

> <r_epik_State_Penalty>
-0

> <r_epik_Charging_Adjusted_Penalty>
0.00240401

> <i_epik_Tot_Q>
1

> <i_epik_Tot_abs_Q>
1

> <r_epik_Metal_State_Penalty>
-0

> <b_epik_Metal_Only>
0

> <s_lp_Force_Field>
OPLS_2005

> <r_lp_Energy>
16.6365

> <b_lp_Chiralities_Consistent>
1

> <s_lp_Variant>
AV-unprocessed.smi:564-1

> <Gold.Version>
5.8.1

> <Gold.Id.Protein>
6NUR|6NUR_protein|mol2

> <Gold.PLP.Fitness>
47.7287

> <Gold.PLP.PLP>
-36.1118

> <Gold.PLP.part.hbond>
-3.0000

> <Gold.PLP.part.metal>
0.0000

> <Gold.PLP.part.buried>
-1.4080

> <Gold.PLP.part.nonpolar>
-31.2603

> <Gold.PLP.part.repulsive>
0.0034

> <Gold.PLP.ligand.clash>
0.0000

> <Gold.PLP.ligand.torsion>
0.2077

> <Gold.PLP.Chemscore.Hbond>
4.0000

> <Gold.PLP.Chemscore.CHOScore>
0.0000

> <Gold.PLP.Chemscore.Metal>
0.0000

> <Gold.Chemscore.Hbonds>
donor molecule, donor type, donor heavy atom, donor atom, acceptor molecule, acceptor atom, score
      L1  H    12    33       P1  7948  0.86
      L1  H    15    50       P1  7948  2.00
      P1  H  7997  8009       L1     3  0.88

> <Gold.PLP.Chemscore.Internal.Correction>
0.0323

> <Gold.Rescore>
     Score         DG    S(hbond)    S(metal)    S(lipo)     H(rot)  DE(clash)    DE(int)     intcor
     19.41     -20.90       2.84        0.00      85.98       1.61       0.07       1.42       ----

> <Gold.Chemscore.Fitness>
19.4077

> <Gold.Chemscore.DG>
-20.8980

> <Gold.Chemscore.ZeroCoef>
-5.4800

> <Gold.Chemscore.Hbond>
2.8415

> <Gold.Chemscore.Metal>
0.0000

> <Gold.Chemscore.Lipo>
85.9809

> <Gold.Chemscore.Internal_Hbond>
0.0000

> <Gold.Chemscore.DEClash>
0.0658

> <Gold.Chemscore.DEInternal>
1.4244

> <Gold.Chemscore.Rot>
1.6142

> <Gold.Chemscore.Internal.Correction>
   9.000000E+99

> <Gold.Chemscore.Hbonds>
donor molecule, donor type, donor heavy atom, donor atom, acceptor molecule, acceptor atom, score
      L1  H    12    33       P1  7948  0.82
      L1  H    15    50       P1  7948  0.98
      P1  H  7997  8009       L1     3  0.70

> <Gold.Chemscore.Hbond.Weighted>
-9.4906

> <Gold.Chemscore.Metal.Weighted>
-0.0000

> <Gold.Chemscore.Lipo.Weighted>
-10.0598

> <Gold.Chemscore.Internal_Hbond.Weighted>
0.0000

> <Gold.Chemscore.DEClash.Weighted>
0.0658

> <Gold.Chemscore.DEInternal.Weighted>
1.4244

> <Gold.Chemscore.Rot.Weighted>
4.1324

> <Gold.Chemscore.Internal.Correction.Weighted>
   9.000000E+99

> <Gold.Protein.RotatedTorsions>
[ 6907 6896 6895 6894 ] final   86.33 input  -60.11 | X-H torsion
[ 7974 7965 7964 7962 ] final  -25.87 input  175.53 | X-H torsion
[ 8008 7997 7996 7995 ] final -178.10 input   59.86 | X-H torsion
[ 10167 10162 10161 10158 ] final   99.30 input  -65.29 | X-H torsion
[ 10718 10713 10712 10709 ] final  133.36 input   66.30 | X-H torsion
[ 10763 10752 10751 10750 ] final  100.07 input  -60.55 | X-H torsion
[ 11005 11000 10999 10996 ] final   50.59 input  -57.11 | X-H torsion

> <Gold.Protein.ActiveResidues>
 VAL166  LYS551  ARG553  GLY616  TRP617  ASP618  TYR619  PRO620  LYS621  CYS622 
 ASP623  PHE694  ASN695  SER759  ASP760  ASP761  ALA762  ILE779  LEU786  VAL792 
 PHE793  MET794  SER795  GLU796  ALA797  LYS798  CYS799  TRP800  GLU811  SER814 

> <Gold.Protein.RotatedAtoms>
  152.5392  134.2447  159.8875 H   0  0  0  0  0  0  0  0  0  0  0  0  # atno 6907 bound_to 6896
  151.2413  133.4391  159.2615 H   0  0  0  0  0  0  0  0  0  0  0  0  # atno 6908 bound_to 6896
  151.0624  134.9759  159.8323 H   0  0  0  0  0  0  0  0  0  0  0  0  # atno 6909 bound_to 6896
  146.1463  140.4943  142.8630 H   0  0  0  0  0  0  0  0  0  0  0  0  # atno 7974 bound_to 7965
  156.0149  140.1248  157.0417 H   0  0  0  0  0  0  0  0  0  0  0  0  # atno 8008 bound_to 7997
  154.4289  140.1080  156.5951 H   0  0  0  0  0  0  0  0  0  0  0  0  # atno 8009 bound_to 7997
  155.6027  140.3470  155.4601 H   0  0  0  0  0  0  0  0  0  0  0  0  # atno 8010 bound_to 7997
  139.7629  144.6948  151.0266 H   0  0  0  0  0  0  0  0  0  0  0  0  # atno 10167 bound_to 10162
  157.4781  131.1084  150.9717 H   0  0  0  0  0  0  0  0  0  0  0  0  # atno 10718 bound_to 10713
  153.3093  135.4091  155.1322 H   0  0  0  0  0  0  0  0  0  0  0  0  # atno 10763 bound_to 10752
  154.8571  135.3560  154.5745 H   0  0  0  0  0  0  0  0  0  0  0  0  # atno 10764 bound_to 10752
  153.6173  135.7065  153.5382 H   0  0  0  0  0  0  0  0  0  0  0  0  # atno 10765 bound_to 10752
  140.1004  134.5089  155.8768 H   0  0  0  0  0  0  0  0  0  0  0  0  # atno 11005 bound_to 11000
  144.7850  140.5918  143.6580 LP  0  0  0  0  0  0  0  0  0  0  0  0  # atno 17320 bound_to 7965
  145.4929  139.1487  143.3699 LP  0  0  0  0  0  0  0  0  0  0  0  0  # atno 17321 bound_to 7965
  140.7808  143.4676  151.0191 LP  0  0  0  0  0  0  0  0  0  0  0  0  # atno 17342 bound_to 10162
  139.8361  143.7626  152.3180 LP  0  0  0  0  0  0  0  0  0  0  0  0  # atno 17343 bound_to 10162
  157.0459  130.5768  149.5363 LP  0  0  0  0  0  0  0  0  0  0  0  0  # atno 17370 bound_to 10713
  156.0107  130.5198  150.7979 LP  0  0  0  0  0  0  0  0  0  0  0  0  # atno 17371 bound_to 10713
  141.2104  133.6694  156.6506 LP  0  0  0  0  0  0  0  0  0  0  0  0  # atno 17394 bound_to 11000
  140.3228  134.7993  157.4266 LP  0  0  0  0  0  0  0  0  0  0  0  0  # atno 17395 bound_to 11000

$$$$
