AV-unprocessed.smi:711|AV-procd|sdf|3466|dock10
  -GOLD-   22720 0453D 1   1.00000     0.00000
 Structure written by MMmdl.
 28 29  0  0  0  0  0  0  0  0  2 V2000
  148.8361  140.2272  153.4803 O   0  0  0  0  0  0  0  0  0  0  0  0
  149.5676  140.4318  154.4480 C   0  0  0  0  0  0  0  0  0  0  0  0
  150.7440  139.7654  154.6360 N   0  5  0  0  0  0  0  0  0  0  0  0
  151.5699  139.9767  155.7066 C   0  0  0  0  0  0  0  0  0  0  0  0
  152.6212  139.3541  155.8556 O   0  0  0  0  0  0  0  0  0  0  0  0
  151.2086  140.9045  156.6435 N   0  0  0  0  0  0  0  0  0  0  0  0
  152.0130  141.1938  157.8415 C   0  0  0  0  0  0  0  0  0  0  0  0
  151.6636  142.5607  158.4721 C   0  0  2  0  0  0  0  0  0  0  0  0
  152.1158  143.5797  157.6030 O   0  0  0  0  0  0  0  0  0  0  0  0
  152.2063  142.7224  159.8879 C   0  0  0  0  0  0  0  0  0  0  0  0
  152.7566  141.6126  160.5672 C   0  0  0  0  0  0  0  0  0  0  0  0
  153.2365  141.7493  161.8838 C   0  0  0  0  0  0  0  0  0  0  0  0
  153.1682  142.9968  162.5318 C   0  0  0  0  0  0  0  0  0  0  0  0
  153.6297  143.1287  163.7980 F   0  0  0  0  0  0  0  0  0  0  0  0
  152.6192  144.1067  161.8626 C   0  0  0  0  0  0  0  0  0  0  0  0
  152.1383  143.9725  160.5456 C   0  0  0  0  0  0  0  0  0  0  0  0
  151.6037  145.0500  159.9218 F   0  0  0  0  0  0  0  0  0  0  0  0
  150.0086  141.6198  156.4947 C   0  0  0  0  0  0  0  0  0  0  0  0
  149.1822  141.4237  155.4494 C   0  0  0  0  0  0  0  0  0  0  0  0
  147.7096  142.3145  155.2986 Cl  0  0  0  0  0  0  0  0  0  0  0  0
  151.9111  140.4045  158.5880 H   0  0  0  0  0  0  0  0  0  0  0  0
  153.0683  141.1793  157.5642 H   0  0  0  0  0  0  0  0  0  0  0  0
  150.5784  142.6605  158.5030 H   0  0  0  0  0  0  0  0  0  0  0  0
  152.9250  143.9263  157.9461 H   0  0  0  0  0  0  0  0  0  0  0  0
  152.8023  140.6482  160.0829 H   0  0  0  0  0  0  0  0  0  0  0  0
  153.6525  140.8954  162.3977 H   0  0  0  0  0  0  0  0  0  0  0  0
  152.5625  145.0628  162.3616 H   0  0  0  0  0  0  0  0  0  0  0  0
  149.8019  142.3285  157.2834 H   0  0  0  0  0  0  0  0  0  0  0  0
  1  2  2  0  0  0  0
  2 19  1  0  0  0  0
  2  3  1  0  0  0  0
  3  4  1  0  0  0  0
  4  5  2  0  0  0  0
  4  6  1  0  0  0  0
  6  7  1  0  0  0  0
  6 18  1  0  0  0  0
  7  8  1  0  0  0  0
  7 21  1  0  0  0  0
  7 22  1  0  0  0  0
  8  9  1  0  0  0  0
  8 10  1  0  0  0  0
  8 23  1  0  0  0  0
  9 24  1  0  0  0  0
 10 16  1  0  0  0  0
 10 11  2  0  0  0  0
 11 12  1  0  0  0  0
 11 25  1  0  0  0  0
 12 13  2  0  0  0  0
 12 26  1  0  0  0  0
 13 14  1  0  0  0  0
 13 15  1  0  0  0  0
 15 16  2  0  0  0  0
 15 27  1  0  0  0  0
 16 17  1  0  0  0  0
 18 19  2  0  0  0  0
 18 28  1  0  0  0  0
 19 20  1  0  0  0  0
M  CHG  1   3  -1
M  END
> <s_m_source_file>
AV-unprocessed.smi

> <i_m_source_file_index>
711

> <i_lp_mmshare_version>
43012

> <i_f3d_flags>
0

> <s_epik_input>
Tz1jMVtuSF1jKD1PKW4oW2NIXWMxQ2wpW0NIMl1bQ0BIXShbT0hdKWMyW2NIXVtjSF1jKEYpW2NIXWMyRg==

> <s_epik_cmdline>
J2VwaWtfcHl0aG9uJywgJy1waCcsICc3LjAnLCAnLXRuJywgJzgnLCAnLW1hJywgJzIwMCcsICctbWV0YWxfYmluZGluZycsICctaW1hZScsICc8aW5maWxlLm1hZT4nLCAnLW9tYWUnLCAnPG91dGZpbGUubWFlPic=

> <r_epik_Ionization_Penalty>
1.7979

> <r_epik_Ionization_Penalty_Charging>
3.23819e-08

> <r_epik_Ionization_Penalty_Neutral>
1.7979

> <r_epik_State_Penalty>
1.91135

> <r_epik_Charging_Adjusted_Penalty>
1.91135

> <i_epik_Tot_Q>
-1

> <i_epik_Tot_abs_Q>
1

> <r_epik_Metal_State_Penalty>
0.014155

> <b_epik_Metal_Only>
0

> <s_lp_Force_Field>
OPLS_2005

> <r_lp_Energy>
19.2938

> <b_lp_Chiralities_Consistent>
1

> <s_lp_Variant>
AV-unprocessed.smi:711-3

> <Gold.Version>
5.8.1

> <Gold.Id.Protein>
6NUR|6NUR_protein|mol2

> <Gold.PLP.Fitness>
49.8038

> <Gold.PLP.PLP>
-46.1693

> <Gold.PLP.part.hbond>
-2.0000

> <Gold.PLP.part.metal>
0.0000

> <Gold.PLP.part.buried>
-6.7313

> <Gold.PLP.part.nonpolar>
-38.5823

> <Gold.PLP.part.repulsive>
3.4911

> <Gold.PLP.ligand.clash>
0.1857

> <Gold.PLP.ligand.torsion>
0.5746

> <Gold.PLP.Chemscore.Hbond>
1.6500

> <Gold.PLP.Chemscore.CHOScore>
0.0000

> <Gold.PLP.Chemscore.Metal>
0.0000

> <Gold.Chemscore.Hbonds>
donor molecule, donor type, donor heavy atom, donor atom, acceptor molecule, acceptor atom, score
      P1  H  7989  7998       L1     3  0.48
      P1  H  7997  8010       L1     5  1.00

> <Gold.PLP.Chemscore.Internal.Correction>
0.0194

> <Gold.Rescore>
     Score         DG    S(hbond)    S(metal)    S(lipo)     H(rot)  DE(clash)    DE(int)     intcor
     11.59     -14.60       1.02        0.00      99.61       2.32       1.34       1.68       ----

> <Gold.Chemscore.Fitness>
11.5871

> <Gold.Chemscore.DG>
-14.6039

> <Gold.Chemscore.ZeroCoef>
-5.4800

> <Gold.Chemscore.Hbond>
1.0178

> <Gold.Chemscore.Metal>
0.0000

> <Gold.Chemscore.Lipo>
99.6116

> <Gold.Chemscore.Internal_Hbond>
0.0000

> <Gold.Chemscore.DEClash>
1.3372

> <Gold.Chemscore.DEInternal>
1.6796

> <Gold.Chemscore.Rot>
2.3164

> <Gold.Chemscore.Internal.Correction>
   9.000000E+99

> <Gold.Chemscore.Hbonds>
donor molecule, donor type, donor heavy atom, donor atom, acceptor molecule, acceptor atom, score
      P1  H  7989  7998       L1     3  0.01
      P1  H  7997  8010       L1     5  0.96

> <Gold.Chemscore.Hbond.Weighted>
-3.3994

> <Gold.Chemscore.Metal.Weighted>
-0.0000

> <Gold.Chemscore.Lipo.Weighted>
-11.6546

> <Gold.Chemscore.Internal_Hbond.Weighted>
0.0000

> <Gold.Chemscore.DEClash.Weighted>
1.3372

> <Gold.Chemscore.DEInternal.Weighted>
1.6796

> <Gold.Chemscore.Rot.Weighted>
5.9301

> <Gold.Chemscore.Internal.Correction.Weighted>
   9.000000E+99

> <Gold.Protein.RotatedTorsions>
[ 6907 6896 6895 6894 ] final  151.20 input  -60.11 | X-H torsion
[ 7974 7965 7964 7962 ] final  107.43 input  175.53 | X-H torsion
[ 8008 7997 7996 7995 ] final  101.58 input   59.86 | X-H torsion
[ 10167 10162 10161 10158 ] final  111.09 input  -65.29 | X-H torsion
[ 10718 10713 10712 10709 ] final  -95.93 input   66.30 | X-H torsion
[ 10763 10752 10751 10750 ] final  -82.13 input  -60.55 | X-H torsion
[ 11005 11000 10999 10996 ] final  -71.14 input  -57.11 | X-H torsion

> <Gold.Protein.ActiveResidues>
 VAL166  LYS551  ARG553  GLY616  TRP617  ASP618  TYR619  PRO620  LYS621  CYS622 
 ASP623  PHE694  ASN695  SER759  ASP760  ASP761  ALA762  ILE779  LEU786  VAL792 
 PHE793  MET794  SER795  GLU796  ALA797  LYS798  CYS799  TRP800  GLU811  SER814 

> <Gold.Protein.RotatedAtoms>
  152.1039  133.4264  159.4599 H   0  0  0  0  0  0  0  0  0  0  0  0  # atno 6907 bound_to 6896
  150.6865  134.2728  159.4604 H   0  0  0  0  0  0  0  0  0  0  0  0  # atno 6908 bound_to 6896
  152.0591  134.9605  160.0625 H   0  0  0  0  0  0  0  0  0  0  0  0  # atno 6909 bound_to 6896
  145.2937  139.2592  143.3851 H   0  0  0  0  0  0  0  0  0  0  0  0  # atno 7974 bound_to 7965
  156.1313  140.3195  155.8353 H   0  0  0  0  0  0  0  0  0  0  0  0  # atno 8008 bound_to 7997
  155.4327  140.0520  157.3034 H   0  0  0  0  0  0  0  0  0  0  0  0  # atno 8009 bound_to 7997
  154.4901  140.2089  155.9580 H   0  0  0  0  0  0  0  0  0  0  0  0  # atno 8010 bound_to 7997
  139.6638  144.7128  151.1816 H   0  0  0  0  0  0  0  0  0  0  0  0  # atno 10167 bound_to 10162
  156.0052  130.5130  150.6149 H   0  0  0  0  0  0  0  0  0  0  0  0  # atno 10718 bound_to 10713
  154.5720  135.5602  153.7104 H   0  0  0  0  0  0  0  0  0  0  0  0  # atno 10763 bound_to 10752
  153.0052  135.6299  154.2100 H   0  0  0  0  0  0  0  0  0  0  0  0  # atno 10764 bound_to 10752
  154.2040  135.2876  155.2961 H   0  0  0  0  0  0  0  0  0  0  0  0  # atno 10765 bound_to 10752
  141.1587  133.6809  156.6860 H   0  0  0  0  0  0  0  0  0  0  0  0  # atno 11005 bound_to 11000
  146.3176  140.3435  142.8650 LP  0  0  0  0  0  0  0  0  0  0  0  0  # atno 17320 bound_to 7965
  144.9151  140.7803  143.5783 LP  0  0  0  0  0  0  0  0  0  0  0  0  # atno 17321 bound_to 7965
  140.7591  143.5952  150.8755 LP  0  0  0  0  0  0  0  0  0  0  0  0  # atno 17342 bound_to 10162
  139.9612  143.6162  152.3002 LP  0  0  0  0  0  0  0  0  0  0  0  0  # atno 17343 bound_to 10162
  157.3975  131.0805  151.1338 LP  0  0  0  0  0  0  0  0  0  0  0  0  # atno 17370 bound_to 10713
  157.2010  130.6395  149.5739 LP  0  0  0  0  0  0  0  0  0  0  0  0  # atno 17371 bound_to 10713
  140.3066  134.8120  157.4142 LP  0  0  0  0  0  0  0  0  0  0  0  0  # atno 17394 bound_to 11000
  140.1215  134.5213  155.8180 LP  0  0  0  0  0  0  0  0  0  0  0  0  # atno 17395 bound_to 11000

$$$$
