#       Name:                AV-unprocessed.smi:2221
#       Creating user name   scv26
#       Creation time:       Fri Mar 27 12:19:48 2020


#       File generated by GOLD software.
#

@<TRIPOS>MOLECULE
AV-unprocessed.smi:2221
    57    58     1
SMALL
NO_CHARGES


@<TRIPOS>ATOM
      1 ****        -3.8237   5.2876  -1.6710 C.3            1 S1                 0.0000
      2 ****        -3.1068   4.0982  -2.2745 C.ar           1 S1                 0.0000
      3 ****        -2.4749   4.1989  -3.5285 C.ar           1 S1                 0.0000
      4 ****        -1.8205   3.0598  -4.0367 C.ar           1 S1                 0.0000
      5 ****        -1.1209   3.0996  -5.3789 C.3            1 S1                 0.0000
      6 ****        -1.7682   1.8838  -3.3751 N.ar           1 S1                 0.0000
      7 ****        -2.3735   1.7752  -2.1666 C.ar           1 S1                 0.0000
      8 ****        -2.3766   0.5844  -1.3926 N.am           1 S1                 0.0000
      9 ****        -1.7678  -0.5829  -1.6656 C.2            1 S1                 0.0000
     10 ****        -1.1034  -0.8234  -2.6736 O.2            1 S1                 0.0000
     11 ****        -1.9567  -1.4726  -0.6802 N.am           1 S1                 0.0000
     12 ****        -1.4103  -2.8280  -0.6552 C.3            1 S1                 0.0000
     13 ****         0.1278  -2.8661  -0.5109 C.3            1 S1                 0.0000
     14 ****         0.6461  -1.9084   0.4994 N.4            1 S1                 1.0000
     15 ****         2.0866  -1.6060   0.3099 C.3            1 S1                 0.0000
     16 ****         2.5574  -0.5115   1.2845 C.3            1 S1                 0.0000
     17 ****         2.2969  -0.8954   2.7617 C.3            1 S1                 0.0000
     18 ****         3.1826  -1.9765   3.2386 N.3            1 S1                 0.0000
     19 ****         4.5904  -1.5860   3.1908 C.3            1 S1                 0.0000
     20 ****         2.9050  -2.3525   4.6231 C.3            1 S1                 0.0000
     21 ****         0.7901  -1.2271   2.8935 C.3            1 S1                 0.0000
     22 ****         0.3460  -2.3116   1.8968 C.3            1 S1                 0.0000
     23 ****        -3.0544   2.8690  -1.5866 C.ar           1 S1                 0.0000
     24 ****        -4.0890   6.0159  -2.4378 H              1 S1                 0.0000
     25 ****        -3.1842   5.7786  -0.9372 H              1 S1                 0.0000
     26 ****        -4.7406   4.9715  -1.1727 H              1 S1                 0.0000
     27 ****        -2.4908   5.1243  -4.0858 H              1 S1                 0.0000
     28 ****        -1.4532   3.9539  -5.9695 H              1 S1                 0.0000
     29 ****        -1.3289   2.1935  -5.9491 H              1 S1                 0.0000
     30 ****        -0.0426   3.1782  -5.2391 H              1 S1                 0.0000
     31 ****        -2.8874   0.6346  -0.5236 H              1 S1                 0.0000
     32 ****        -2.5259  -1.1963   0.1070 H              1 S1                 0.0000
     33 ****        -1.8741  -3.3534   0.1795 H              1 S1                 0.0000
     34 ****        -1.7161  -3.3654  -1.5542 H              1 S1                 0.0000
     35 ****         0.4662  -3.8771  -0.2800 H              1 S1                 0.0000
     36 ****         0.5618  -2.6194  -1.4806 H              1 S1                 0.0000
     37 ****         2.6751  -2.5149   0.4450 H              1 S1                 0.0000
     38 ****         2.2567  -1.2671  -0.7128 H              1 S1                 0.0000
     39 ****         3.5971  -0.2522   1.0943 H              1 S1                 0.0000
     40 ****         2.0038   0.4025   1.0644 H              1 S1                 0.0000
     41 ****         2.5001  -0.0199   3.3806 H              1 S1                 0.0000
     42 ****         5.2226  -2.3600   3.6280 H              1 S1                 0.0000
     43 ****         4.7644  -0.6597   3.7403 H              1 S1                 0.0000
     44 ****         4.9413  -1.4547   2.1688 H              1 S1                 0.0000
     45 ****         3.6375  -3.0763   4.9831 H              1 S1                 0.0000
     46 ****         1.9339  -2.8351   4.7208 H              1 S1                 0.0000
     47 ****         2.9338  -1.4854   5.2845 H              1 S1                 0.0000
     48 ****         0.5070  -1.4981   3.9092 H              1 S1                 0.0000
     49 ****         0.2200  -0.3205   2.6860 H              1 S1                 0.0000
     50 ****        -0.7244  -2.4791   2.0141 H              1 S1                 0.0000
     51 ****         0.8401  -3.2582   2.1215 H              1 S1                 0.0000
     52 ****        -3.5316   2.7705  -0.6221 H              1 S1                 0.0000
     53 ****         0.1580  -1.0397   0.3346 H              1 S1                 0.0000
     54 ****        -1.2883   1.1015  -3.7721 LP             1 S1                 0.0000
     55 ****        -0.9820  -0.1184  -3.3724 LP             1 S1                 0.0000
     56 ****        -0.6851  -1.7237  -2.7937 LP             1 S1                 0.0000
     57 ****         3.0029  -2.7455   2.6252 LP             1 S1                 0.0000
@<TRIPOS>BOND
    1    1    2 1     
    2    1   24 1     
    3    1   25 1     
    4    1   26 1     
    5    2   23 ar    
    6    2    3 ar    
    7    3    4 ar    
    8    3   27 1     
    9    4    5 1     
   10    4    6 ar    
   11    5   28 1     
   12    5   29 1     
   13    5   30 1     
   14    6    7 ar    
   15    7    8 1     
   16    7   23 ar    
   17    8    9 am    
   18    8   31 1     
   19    9   10 2     
   20    9   11 am    
   21   11   12 1     
   22   11   32 1     
   23   12   13 1     
   24   12   33 1     
   25   12   34 1     
   26   13   14 1     
   27   13   35 1     
   28   13   36 1     
   29   14   22 1     
   30   14   15 1     
   31   14   53 1     
   32   15   16 1     
   33   15   37 1     
   34   15   38 1     
   35   16   17 1     
   36   16   39 1     
   37   16   40 1     
   38   17   18 1     
   39   17   21 1     
   40   17   41 1     
   41   18   19 1     
   42   18   20 1     
   43   19   42 1     
   44   19   43 1     
   45   19   44 1     
   46   20   45 1     
   47   20   46 1     
   48   20   47 1     
   49   21   22 1     
   50   21   48 1     
   51   21   49 1     
   52   22   50 1     
   53   22   51 1     
   54   23   52 1     
   55    6   54 1     
   56   10   55 1     
   57   10   56 1     
   58   18   57 1     
@<TRIPOS>SUBSTRUCTURE
      1 S1             1
@<TRIPOS>SET
LONE_PAIRS      STATIC     ATOMS    <user>   **** ""
4 54 55 56 57
DONOR_HYDROGENS      STATIC     ATOMS    <user>   **** ""
3 31 32 53
ATOM$BLUE        STATIC     ATOMS    COLORGROUP SYSTEM
4 54 55 56 57
ATOM$RED        STATIC     ATOMS    COLORGROUP SYSTEM
3 31 32 53
