AV-unprocessed.smi:2883|AV-procd|sdf|11079|dock10
  -GOLD-   2272015553D 1   1.00000     0.00000
 Structure written by MMmdl.
 39 41  0  0  0  0  0  0  0  0  1 V2000
  151.8482  137.2384  156.1215 C   0  0  0  0  0  0  0  0  0  0  0  0
  151.8477  138.4232  155.1270 C   0  0  0  0  0  0  0  0  0  0  0  0
  153.3136  138.5925  154.6611 C   0  0  0  0  0  0  0  0  0  0  0  0
  150.9580  138.0812  153.9180 C   0  0  0  0  0  0  0  0  0  0  0  0
  151.3308  139.7082  155.7961 C   0  0  0  0  0  0  0  0  0  0  0  0
  150.5161  140.4910  155.0763 N   0  0  0  0  0  0  0  0  0  0  0  0
  150.1618  141.6796  155.6088 C   0  0  0  0  0  0  0  0  0  0  0  0
  150.6505  142.1079  156.8582 C   0  0  0  0  0  0  0  0  0  0  0  0
  151.5345  141.2325  157.5191 C   0  0  0  0  0  0  0  0  0  0  0  0
  152.0706  141.6004  158.7608 N   0  0  0  0  0  0  0  0  0  0  0  0
  152.2614  143.0043  159.1094 C   0  0  2  0  0  0  0  0  0  0  0  0
  152.9820  143.1998  160.4497 C   0  0  0  0  0  0  0  0  0  0  0  0
  151.9891  144.0805  161.2180 C   0  0  1  0  0  0  0  0  0  0  0  0
  151.8898  145.4952  160.6314 C   0  0  0  0  0  0  0  0  0  0  0  0
  151.1064  145.2448  159.3429 C   0  0  0  0  0  0  0  0  0  0  0  0
  150.9263  143.7209  159.3733 C   0  0  2  0  0  0  0  0  0  0  0  0
  150.7667  143.5230  160.7692 O   0  0  0  0  0  0  0  0  0  0  0  0
  151.8803  140.0452  156.9700 N   0  0  0  0  0  0  0  0  0  0  0  0
  152.2573  136.3365  155.6647 H   0  0  0  0  0  0  0  0  0  0  0  0
  150.8423  136.9893  156.4611 H   0  0  0  0  0  0  0  0  0  0  0  0
  152.4499  137.4603  157.0036 H   0  0  0  0  0  0  0  0  0  0  0  0
  153.9654  138.8654  155.4921 H   0  0  0  0  0  0  0  0  0  0  0  0
  153.4139  139.3639  153.8964 H   0  0  0  0  0  0  0  0  0  0  0  0
  153.7018  137.6694  154.2294 H   0  0  0  0  0  0  0  0  0  0  0  0
  151.2990  137.1752  153.4161 H   0  0  0  0  0  0  0  0  0  0  0  0
  150.9631  138.8864  153.1825 H   0  0  0  0  0  0  0  0  0  0  0  0
  149.9229  137.9204  154.2212 H   0  0  0  0  0  0  0  0  0  0  0  0
  149.4890  142.2958  155.0312 H   0  0  0  0  0  0  0  0  0  0  0  0
  150.3653  143.0607  157.2791 H   0  0  0  0  0  0  0  0  0  0  0  0
  152.4806  140.8952  159.3559 H   0  0  0  0  0  0  0  0  0  0  0  0
  152.7906  143.5035  158.2965 H   0  0  0  0  0  0  0  0  0  0  0  0
  153.1239  142.2527  160.9727 H   0  0  0  0  0  0  0  0  0  0  0  0
  153.9586  143.6718  160.3364 H   0  0  0  0  0  0  0  0  0  0  0  0
  152.1238  144.0566  162.2997 H   0  0  0  0  0  0  0  0  0  0  0  0
  151.3316  146.1553  161.2962 H   0  0  0  0  0  0  0  0  0  0  0  0
  152.8704  145.9376  160.4526 H   0  0  0  0  0  0  0  0  0  0  0  0
  150.1397  145.7483  159.3807 H   0  0  0  0  0  0  0  0  0  0  0  0
  151.6341  145.5863  158.4518 H   0  0  0  0  0  0  0  0  0  0  0  0
  150.0931  143.3688  158.7640 H   0  0  0  0  0  0  0  0  0  0  0  0
  1  2  1  0  0  0  0
  1 19  1  0  0  0  0
  1 20  1  0  0  0  0
  1 21  1  0  0  0  0
  2  3  1  0  0  0  0
  2  4  1  0  0  0  0
  2  5  1  0  0  0  0
  3 22  1  0  0  0  0
  3 23  1  0  0  0  0
  3 24  1  0  0  0  0
  4 25  1  0  0  0  0
  4 26  1  0  0  0  0
  4 27  1  0  0  0  0
  5 18  1  0  0  0  0
  5  6  2  0  0  0  0
  6  7  1  0  0  0  0
  7  8  2  0  0  0  0
  7 28  1  0  0  0  0
  8  9  1  0  0  0  0
  8 29  1  0  0  0  0
  9 10  1  0  0  0  0
  9 18  2  0  0  0  0
 10 11  1  0  0  0  0
 10 30  1  0  0  0  0
 11 16  1  0  0  0  0
 11 12  1  0  0  0  0
 11 31  1  0  0  0  0
 12 13  1  0  0  0  0
 12 32  1  0  0  0  0
 12 33  1  0  0  0  0
 13 17  1  0  0  0  0
 13 14  1  0  0  0  0
 13 34  1  0  0  0  0
 14 15  1  0  0  0  0
 14 35  1  0  0  0  0
 14 36  1  0  0  0  0
 15 16  1  0  0  0  0
 15 37  1  0  0  0  0
 15 38  1  0  0  0  0
 16 17  1  0  0  0  0
 16 39  1  0  0  0  0
M  END
> <s_m_source_file>
AV-unprocessed.smi

> <i_m_source_file_index>
2883

> <i_lp_mmshare_version>
43012

> <i_f3d_flags>
0

> <s_epik_input>
W0NIM11DKFtDSDNdKShbQ0gzXSljMW5bY0hdW2NIXWMobjEpW05IXVtDQEhdKFtDSDJdW0NAQEhdMjMpW0NAQEhdKE8zKVtDSDJdW0NIMl0y

> <s_epik_cmdline>
J2VwaWtfcHl0aG9uJywgJy1waCcsICc3LjAnLCAnLXRuJywgJzgnLCAnLW1hJywgJzIwMCcsICctbWV0YWxfYmluZGluZycsICctaW1hZScsICc8aW5maWxlLm1hZT4nLCAnLW9tYWUnLCAnPG91dGZpbGUubWFlPic=

> <r_lp_tautomer_probability>
1

> <r_epik_Ionization_Penalty>
0.453006

> <r_epik_Ionization_Penalty_Charging>
0

> <r_epik_Ionization_Penalty_Neutral>
0.453006

> <r_epik_State_Penalty>
0.455155

> <r_epik_Charging_Adjusted_Penalty>
0.455155

> <i_epik_Tot_Q>
0

> <i_epik_Tot_abs_Q>
0

> <r_epik_Metal_State_Penalty>
0.255592

> <b_epik_Metal_Only>
0

> <s_lp_Force_Field>
OPLS_2005

> <r_lp_Energy>
33.3258

> <b_lp_Chiralities_Consistent>
1

> <s_lp_Variant>
AV-unprocessed.smi:2883-5

> <Gold.Version>
5.8.1

> <Gold.Id.Protein>
6NUR|6NUR_protein|mol2

> <Gold.PLP.Fitness>
45.6674

> <Gold.PLP.PLP>
-41.3165

> <Gold.PLP.part.hbond>
-2.0000

> <Gold.PLP.part.metal>
0.0000

> <Gold.PLP.part.buried>
-5.7115

> <Gold.PLP.part.nonpolar>
-35.0907

> <Gold.PLP.part.repulsive>
0.2927

> <Gold.PLP.ligand.clash>
0.0000

> <Gold.PLP.ligand.torsion>
0.7278

> <Gold.PLP.Chemscore.Hbond>
1.0000

> <Gold.PLP.Chemscore.CHOScore>
0.8846

> <Gold.PLP.Chemscore.Metal>
0.0000

> <Gold.Chemscore.Hbonds>
donor molecule, donor type, donor heavy atom, donor atom, acceptor molecule, acceptor atom, score
      P1  H  7989  7998       L1     6  1.00
      L1  C     7    28       P1  8028  0.80

> <Gold.PLP.Chemscore.Internal.Correction>
0.1526

> <Gold.Rescore>
     Score         DG    S(hbond)    S(metal)    S(lipo)     H(rot)  DE(clash)    DE(int)     intcor
     15.95     -16.79       0.29        0.00     113.49       1.15       0.06       0.77       ----

> <Gold.Chemscore.Fitness>
15.9541

> <Gold.Chemscore.DG>
-16.7861

> <Gold.Chemscore.ZeroCoef>
-5.4800

> <Gold.Chemscore.Hbond>
0.2895

> <Gold.Chemscore.Metal>
0.0000

> <Gold.Chemscore.Lipo>
113.4923

> <Gold.Chemscore.Internal_Hbond>
0.0000

> <Gold.Chemscore.DEClash>
0.0643

> <Gold.Chemscore.DEInternal>
0.7677

> <Gold.Chemscore.Rot>
1.1482

> <Gold.Chemscore.Internal.Correction>
   9.000000E+99

> <Gold.Chemscore.Hbonds>
donor molecule, donor type, donor heavy atom, donor atom, acceptor molecule, acceptor atom, score
      P1  H  7989  7998       L1     6  0.19

> <Gold.Chemscore.Hbond.Weighted>
-0.9668

> <Gold.Chemscore.Metal.Weighted>
-0.0000

> <Gold.Chemscore.Lipo.Weighted>
-13.2786

> <Gold.Chemscore.Internal_Hbond.Weighted>
0.0000

> <Gold.Chemscore.DEClash.Weighted>
0.0643

> <Gold.Chemscore.DEInternal.Weighted>
0.7677

> <Gold.Chemscore.Rot.Weighted>
2.9393

> <Gold.Chemscore.Internal.Correction.Weighted>
   9.000000E+99

> <Gold.Protein.RotatedTorsions>
[ 6907 6896 6895 6894 ] final  -81.54 input  -60.11 | X-H torsion
[ 7974 7965 7964 7962 ] final   -5.39 input  175.53 | X-H torsion
[ 8008 7997 7996 7995 ] final -179.70 input   59.86 | X-H torsion
[ 10167 10162 10161 10158 ] final   52.33 input  -65.29 | X-H torsion
[ 10718 10713 10712 10709 ] final   42.16 input   66.30 | X-H torsion
[ 10763 10752 10751 10750 ] final  119.53 input  -60.55 | X-H torsion
[ 11005 11000 10999 10996 ] final   40.13 input  -57.11 | X-H torsion

> <Gold.Protein.ActiveResidues>
 VAL166  LYS551  ARG553  GLY616  TRP617  ASP618  TYR619  PRO620  LYS621  CYS622 
 ASP623  PHE694  ASN695  SER759  ASP760  ASP761  ALA762  ILE779  LEU786  VAL792 
 PHE793  MET794  SER795  GLU796  ALA797  LYS798  CYS799  TRP800  GLU811  SER814 

> <Gold.Protein.RotatedAtoms>
  150.6910  134.3802  159.5030 H   0  0  0  0  0  0  0  0  0  0  0  0  # atno 6907 bound_to 6896
  152.1605  134.8913  160.0551 H   0  0  0  0  0  0  0  0  0  0  0  0  # atno 6908 bound_to 6896
  151.9976  133.3779  159.4206 H   0  0  0  0  0  0  0  0  0  0  0  0  # atno 6909 bound_to 6896
  146.2354  140.2013  142.8334 H   0  0  0  0  0  0  0  0  0  0  0  0  # atno 7974 bound_to 7965
  156.0335  140.1287  157.0232 H   0  0  0  0  0  0  0  0  0  0  0  0  # atno 8008 bound_to 7997
  154.4360  140.1044  156.6205 H   0  0  0  0  0  0  0  0  0  0  0  0  # atno 8009 bound_to 7997
  155.5771  140.3467  155.4532 H   0  0  0  0  0  0  0  0  0  0  0  0  # atno 8010 bound_to 7997
  140.2525  144.3463  150.6343 H   0  0  0  0  0  0  0  0  0  0  0  0  # atno 10167 bound_to 10162
  157.4017  130.7864  149.7354 H   0  0  0  0  0  0  0  0  0  0  0  0  # atno 10718 bound_to 10713
  153.5844  135.3477  155.2887 H   0  0  0  0  0  0  0  0  0  0  0  0  # atno 10763 bound_to 10752
  154.8662  135.4190  154.2585 H   0  0  0  0  0  0  0  0  0  0  0  0  # atno 10764 bound_to 10752
  153.3378  135.7048  153.6963 H   0  0  0  0  0  0  0  0  0  0  0  0  # atno 10765 bound_to 10752
  140.1961  134.3928  155.8121 H   0  0  0  0  0  0  0  0  0  0  0  0  # atno 11005 bound_to 11000
  144.9779  140.8432  143.5415 LP  0  0  0  0  0  0  0  0  0  0  0  0  # atno 17320 bound_to 7965
  145.2003  139.2255  143.5196 LP  0  0  0  0  0  0  0  0  0  0  0  0  # atno 17321 bound_to 7965
  140.6029  143.2167  151.7037 LP  0  0  0  0  0  0  0  0  0  0  0  0  # atno 17342 bound_to 10162
  139.5042  144.3764  152.0419 LP  0  0  0  0  0  0  0  0  0  0  0  0  # atno 17343 bound_to 10162
  155.9825  130.4009  150.3412 LP  0  0  0  0  0  0  0  0  0  0  0  0  # atno 17370 bound_to 10713
  157.1541  131.0328  151.2871 LP  0  0  0  0  0  0  0  0  0  0  0  0  # atno 17371 bound_to 10713
  141.2227  133.7070  156.8178 LP  0  0  0  0  0  0  0  0  0  0  0  0  # atno 17394 bound_to 11000
  140.2106  134.8830  157.3270 LP  0  0  0  0  0  0  0  0  0  0  0  0  # atno 17395 bound_to 11000

$$$$
