AV-unprocessed.smi:229|AV-procd|sdf|1752|dock5
  -GOLD-   2262020273D 1   1.00000     0.00000
 Structure written by MMmdl.
 58 62  0  0  0  0  0  0  0  0  1 V2000
  153.7059  142.0961  161.9091 C   0  0  0  0  0  0  0  0  0  0  0  0
  153.5200  141.1224  160.7358 C   0  0  0  0  0  0  0  0  0  0  0  0
  152.8610  141.7416  159.4905 C   0  0  1  0  0  0  0  0  0  0  0  0
  152.2032  140.7036  158.5620 C   0  0  0  0  0  0  0  0  0  0  0  0
  151.5302  141.3867  157.4644 N   0  0  0  0  0  0  0  0  0  0  0  0
  151.1609  140.6637  156.3789 C   0  0  0  0  0  0  0  0  0  0  0  0
  152.0792  139.9154  155.7112 N   0  0  0  0  0  0  0  0  0  0  0  0
  151.7141  139.1907  154.6492 C   0  0  0  0  0  0  0  0  0  0  0  0
  150.5062  139.0741  154.0934 N   0  0  0  0  0  0  0  0  0  0  0  0
  149.5837  139.8318  154.7520 C   0  0  0  0  0  0  0  0  0  0  0  0
  149.8239  140.6485  155.8927 C   0  0  0  0  0  0  0  0  0  0  0  0
  148.6473  141.2794  156.2803 N   0  0  0  0  0  0  0  0  0  0  0  0
  147.7604  140.8534  155.4232 C   0  0  0  0  0  0  0  0  0  0  0  0
  148.2359  139.9780  154.4739 N   0  0  0  0  0  0  0  0  0  0  0  0
  147.4662  139.3564  153.4108 C   0  0  0  0  0  0  0  0  0  0  0  0
  146.7818  138.0540  153.8686 C   0  0  2  0  0  0  0  0  0  0  0  0
  147.7729  137.0890  154.1662 O   0  0  0  0  0  0  0  0  0  0  0  0
  145.8347  137.4861  152.7961 C   0  0  1  0  0  0  0  0  0  0  0  0
  146.5267  137.0485  151.5044 C   0  0  0  0  0  0  0  0  0  0  0  0
  145.5770  136.0120  150.9253 C   0  0  0  0  0  0  0  0  0  0  0  0
  144.6817  135.6265  152.1060 C   0  0  0  0  0  0  0  0  0  0  0  0
  145.2558  136.2672  153.2369 O   0  0  0  0  0  0  0  0  0  0  0  0
  150.5422  142.3542  157.9251 C   0  0  0  0  0  0  0  0  0  0  0  0
  151.1935  143.3881  158.8659 C   0  0  1  0  0  0  0  0  0  0  0  0
  152.0617  144.4186  158.1502 C   0  0  0  0  0  0  0  0  0  0  0  0
  152.0426  145.5842  159.1268 C   0  0  0  0  0  0  0  0  0  0  0  0
  150.7051  145.6074  159.6010 O   0  0  0  0  0  0  0  0  0  0  0  0
  150.1553  144.2925  159.5501 C   0  0  0  0  0  0  0  0  0  0  0  0
  151.8992  142.7105  159.9138 O   0  0  0  0  0  0  0  0  0  0  0  0
  154.2353  141.6112  162.7293 H   0  0  0  0  0  0  0  0  0  0  0  0
  152.7504  142.4445  162.3000 H   0  0  0  0  0  0  0  0  0  0  0  0
  154.2878  142.9692  161.6125 H   0  0  0  0  0  0  0  0  0  0  0  0
  154.4956  140.7249  160.4544 H   0  0  0  0  0  0  0  0  0  0  0  0
  152.9321  140.2669  161.0693 H   0  0  0  0  0  0  0  0  0  0  0  0
  153.6500  142.2458  158.9336 H   0  0  0  0  0  0  0  0  0  0  0  0
  152.9619  140.0215  158.1757 H   0  0  0  0  0  0  0  0  0  0  0  0
  151.4707  140.1055  159.1051 H   0  0  0  0  0  0  0  0  0  0  0  0
  152.5023  138.6220  154.1782 H   0  0  0  0  0  0  0  0  0  0  0  0
  146.7271  141.1663  155.4610 H   0  0  0  0  0  0  0  0  0  0  0  0
  146.7207  140.0765  153.0719 H   0  0  0  0  0  0  0  0  0  0  0  0
  148.1232  139.1667  152.5609 H   0  0  0  0  0  0  0  0  0  0  0  0
  146.2158  138.2458  154.7812 H   0  0  0  0  0  0  0  0  0  0  0  0
  148.3880  137.0606  153.4493 H   0  0  0  0  0  0  0  0  0  0  0  0
  145.0369  138.1969  152.5709 H   0  0  0  0  0  0  0  0  0  0  0  0
  146.7130  137.8795  150.8237 H   0  0  0  0  0  0  0  0  0  0  0  0
  147.4846  136.5784  151.7307 H   0  0  0  0  0  0  0  0  0  0  0  0
  144.9791  136.4313  150.1156 H   0  0  0  0  0  0  0  0  0  0  0  0
  146.1240  135.1552  150.5311 H   0  0  0  0  0  0  0  0  0  0  0  0
  143.6681  136.0010  151.9560 H   0  0  0  0  0  0  0  0  0  0  0  0
  144.6271  134.5480  152.2550 H   0  0  0  0  0  0  0  0  0  0  0  0
  150.0525  142.8615  157.0944 H   0  0  0  0  0  0  0  0  0  0  0  0
  149.7602  141.8129  158.4597 H   0  0  0  0  0  0  0  0  0  0  0  0
  153.0684  144.0838  157.9068 H   0  0  0  0  0  0  0  0  0  0  0  0
  151.5873  144.7247  157.2167 H   0  0  0  0  0  0  0  0  0  0  0  0
  152.7199  145.3984  159.9614 H   0  0  0  0  0  0  0  0  0  0  0  0
  152.3199  146.5305  158.6622 H   0  0  0  0  0  0  0  0  0  0  0  0
  149.2321  144.3433  158.9715 H   0  0  0  0  0  0  0  0  0  0  0  0
  149.8954  143.9391  160.5485 H   0  0  0  0  0  0  0  0  0  0  0  0
  1  2  1  0  0  0  0
  1 30  1  0  0  0  0
  1 31  1  0  0  0  0
  1 32  1  0  0  0  0
  2  3  1  0  0  0  0
  2 33  1  0  0  0  0
  2 34  1  0  0  0  0
  3 29  1  0  0  0  0
  3  4  1  0  0  0  0
  3 35  1  0  0  0  0
  4  5  1  0  0  0  0
  4 36  1  0  0  0  0
  4 37  1  0  0  0  0
  5  6  1  0  0  0  0
  5 23  1  0  0  0  0
  6 11  1  0  0  0  0
  6  7  2  0  0  0  0
  7  8  1  0  0  0  0
  8  9  2  0  0  0  0
  8 38  1  0  0  0  0
  9 10  1  0  0  0  0
 10 14  1  0  0  0  0
 10 11  2  0  0  0  0
 11 12  1  0  0  0  0
 12 13  2  0  0  0  0
 13 14  1  0  0  0  0
 13 39  1  0  0  0  0
 14 15  1  0  0  0  0
 15 16  1  0  0  0  0
 15 40  1  0  0  0  0
 15 41  1  0  0  0  0
 16 17  1  0  0  0  0
 16 18  1  0  0  0  0
 16 42  1  0  0  0  0
 17 43  1  0  0  0  0
 18 22  1  0  0  0  0
 18 19  1  0  0  0  0
 18 44  1  0  0  0  0
 19 20  1  0  0  0  0
 19 45  1  0  0  0  0
 19 46  1  0  0  0  0
 20 21  1  0  0  0  0
 20 47  1  0  0  0  0
 20 48  1  0  0  0  0
 21 22  1  0  0  0  0
 21 49  1  0  0  0  0
 21 50  1  0  0  0  0
 23 24  1  0  0  0  0
 23 51  1  0  0  0  0
 23 52  1  0  0  0  0
 24 28  1  0  0  0  0
 24 25  1  0  0  0  0
 24 29  1  0  0  0  0
 25 26  1  0  0  0  0
 25 53  1  0  0  0  0
 25 54  1  0  0  0  0
 26 27  1  0  0  0  0
 26 55  1  0  0  0  0
 26 56  1  0  0  0  0
 27 28  1  0  0  0  0
 28 57  1  0  0  0  0
 28 58  1  0  0  0  0
M  END
> <s_m_source_file>
AV-unprocessed.smi

> <i_m_source_file_index>
229

> <i_lp_mmshare_version>
43012

> <i_f3d_flags>
0

> <s_epik_input>
W0NIMl0xT1tDSDJdW0NIMl1bQ0BdMTJbQ0gyXU4oW0NIMl1bQ0BIXShPMilbQ0gyXVtDSDNdKWMobltjSF1uMyljKGMzNCluW2NIXW40W0NIMl1bQ0BIXShbT0hdKVtDQEBIXTVbQ0gyXVtDSDJdW0NIMl1PNQ==

> <s_epik_cmdline>
J2VwaWtfcHl0aG9uJywgJy1waCcsICc3LjAnLCAnLXRuJywgJzgnLCAnLW1hJywgJzIwMCcsICctbWV0YWxfYmluZGluZycsICctaW1hZScsICc8aW5maWxlLm1hZT4nLCAnLW9tYWUnLCAnPG91dGZpbGUubWFlPic=

> <r_lp_tautomer_probability>
1

> <r_epik_Ionization_Penalty>
0.00318402

> <r_epik_Ionization_Penalty_Charging>
0

> <r_epik_Ionization_Penalty_Neutral>
0.00318402

> <r_epik_State_Penalty>
0.00215642

> <r_epik_Charging_Adjusted_Penalty>
0.00215642

> <i_epik_Tot_Q>
0

> <i_epik_Tot_abs_Q>
0

> <r_epik_Metal_State_Penalty>
-0

> <b_epik_Metal_Only>
0

> <s_lp_Force_Field>
OPLS_2005

> <r_lp_Energy>
54.3536

> <b_lp_Chiralities_Consistent>
1

> <s_lp_Variant>
AV-unprocessed.smi:229-6

> <Gold.Version>
5.8.1

> <Gold.Id.Protein>
6NUR|6NUR_protein|mol2

> <Gold.PLP.Fitness>
52.2000

> <Gold.PLP.PLP>
-51.1931

> <Gold.PLP.part.hbond>
-3.5003

> <Gold.PLP.part.metal>
0.0000

> <Gold.PLP.part.buried>
-0.6290

> <Gold.PLP.part.nonpolar>
-47.7904

> <Gold.PLP.part.repulsive>
0.6703

> <Gold.PLP.ligand.clash>
0.7742

> <Gold.PLP.ligand.torsion>
0.8082

> <Gold.PLP.Chemscore.Hbond>
1.0000

> <Gold.PLP.Chemscore.CHOScore>
0.0000

> <Gold.PLP.Chemscore.Metal>
0.0000

> <Gold.Chemscore.Hbonds>
donor molecule, donor type, donor heavy atom, donor atom, acceptor molecule, acceptor atom, score
      L1  H    17    43       P1  7948  0.98

> <Gold.PLP.Chemscore.Internal.Correction>
0.3974

> <Gold.Rescore>
     Score         DG    S(hbond)    S(metal)    S(lipo)     H(rot)  DE(clash)    DE(int)     intcor
     13.43     -16.29       0.96        0.00     118.84       2.46       0.61       2.25       ----

> <Gold.Chemscore.Fitness>
13.4325

> <Gold.Chemscore.DG>
-16.2905

> <Gold.Chemscore.ZeroCoef>
-5.4800

> <Gold.Chemscore.Hbond>
0.9587

> <Gold.Chemscore.Metal>
0.0000

> <Gold.Chemscore.Lipo>
118.8367

> <Gold.Chemscore.Internal_Hbond>
0.0000

> <Gold.Chemscore.DEClash>
0.6111

> <Gold.Chemscore.DEInternal>
2.2470

> <Gold.Chemscore.Rot>
2.4591

> <Gold.Chemscore.Internal.Correction>
   9.000000E+99

> <Gold.Chemscore.Hbonds>
donor molecule, donor type, donor heavy atom, donor atom, acceptor molecule, acceptor atom, score
      L1  H    17    43       P1  7948  0.93

> <Gold.Chemscore.Hbond.Weighted>
-3.2019

> <Gold.Chemscore.Metal.Weighted>
-0.0000

> <Gold.Chemscore.Lipo.Weighted>
-13.9039

> <Gold.Chemscore.Internal_Hbond.Weighted>
0.0000

> <Gold.Chemscore.DEClash.Weighted>
0.6111

> <Gold.Chemscore.DEInternal.Weighted>
2.2470

> <Gold.Chemscore.Rot.Weighted>
6.2953

> <Gold.Chemscore.Internal.Correction.Weighted>
   9.000000E+99

> <Gold.Protein.RotatedTorsions>
[ 6907 6896 6895 6894 ] final    2.84 input  -60.11 | X-H torsion
[ 7974 7965 7964 7962 ] final   26.32 input  175.53 | X-H torsion
[ 8008 7997 7996 7995 ] final   36.02 input   59.86 | X-H torsion
[ 10167 10162 10161 10158 ] final   46.42 input  -65.29 | X-H torsion
[ 10718 10713 10712 10709 ] final  143.93 input   66.30 | X-H torsion
[ 10763 10752 10751 10750 ] final   -6.78 input  -60.55 | X-H torsion
[ 11005 11000 10999 10996 ] final  -51.40 input  -57.11 | X-H torsion

> <Gold.Protein.ActiveResidues>
 VAL166  LYS551  ARG553  GLY616  TRP617  ASP618  TYR619  PRO620  LYS621  CYS622 
 ASP623  PHE694  ASN695  SER759  ASP760  ASP761  ALA762  ILE779  LEU786  VAL792 
 PHE793  MET794  SER795  GLU796  ALA797  LYS798  CYS799  TRP800  GLU811  SER814 

> <Gold.Protein.RotatedAtoms>
  151.6154  135.1036  160.0089 H   0  0  0  0  0  0  0  0  0  0  0  0  # atno 6907 bound_to 6896
  152.4186  133.7075  159.6470 H   0  0  0  0  0  0  0  0  0  0  0  0  # atno 6908 bound_to 6896
  150.8074  133.8412  159.3220 H   0  0  0  0  0  0  0  0  0  0  0  0  # atno 6909 bound_to 6896
  146.1844  139.7345  142.8877 H   0  0  0  0  0  0  0  0  0  0  0  0  # atno 7974 bound_to 7965
  155.1806  140.3299  155.4376 H   0  0  0  0  0  0  0  0  0  0  0  0  # atno 8008 bound_to 7997
  156.2478  140.1927  156.6855 H   0  0  0  0  0  0  0  0  0  0  0  0  # atno 8009 bound_to 7997
  154.6274  140.0587  156.9676 H   0  0  0  0  0  0  0  0  0  0  0  0  # atno 8010 bound_to 7997
  140.3140  144.2785  150.6194 H   0  0  0  0  0  0  0  0  0  0  0  0  # atno 10167 bound_to 10162
  157.3632  131.0968  151.0896 H   0  0  0  0  0  0  0  0  0  0  0  0  # atno 10718 bound_to 10713
  153.4172  135.7009  153.6319 H   0  0  0  0  0  0  0  0  0  0  0  0  # atno 10763 bound_to 10752
  153.4788  135.3698  155.2431 H   0  0  0  0  0  0  0  0  0  0  0  0  # atno 10764 bound_to 10752
  154.8720  135.4061  154.3534 H   0  0  0  0  0  0  0  0  0  0  0  0  # atno 10765 bound_to 10752
  141.0869  133.6640  156.3871 H   0  0  0  0  0  0  0  0  0  0  0  0  # atno 11005 bound_to 11000
  145.3983  141.0382  143.3085 LP  0  0  0  0  0  0  0  0  0  0  0  0  # atno 17320 bound_to 7965
  144.8370  139.5533  143.6917 LP  0  0  0  0  0  0  0  0  0  0  0  0  # atno 17321 bound_to 7965
  140.5542  143.2201  151.7875 LP  0  0  0  0  0  0  0  0  0  0  0  0  # atno 17342 bound_to 10162
  139.4887  144.4435  151.9737 LP  0  0  0  0  0  0  0  0  0  0  0  0  # atno 17343 bound_to 10162
  157.2028  130.6402  149.5745 LP  0  0  0  0  0  0  0  0  0  0  0  0  # atno 17370 bound_to 10713
  155.9741  130.4685  150.6363 LP  0  0  0  0  0  0  0  0  0  0  0  0  # atno 17371 bound_to 10713
  140.5343  134.6182  157.5360 LP  0  0  0  0  0  0  0  0  0  0  0  0  # atno 17394 bound_to 11000
  139.9688  134.7327  156.0083 LP  0  0  0  0  0  0  0  0  0  0  0  0  # atno 17395 bound_to 11000

$$$$
