AV-unprocessed.smi:3040|AV-procd|sdf|11596|dock7
  -GOLD-   2272016573D 1   1.00000     0.00000
 Structure written by MMmdl.
 39 40  0  0  0  0  0  0  0  0  1 V2000
  144.2697  132.0971  150.3797 C   0  0  0  0  0  0  0  0  0  0  0  0
  145.3575  132.5331  151.2572 N   0  0  0  0  0  0  0  0  0  0  0  0
  146.2977  131.4750  151.6536 C   0  0  0  0  0  0  0  0  0  0  0  0
  147.1347  131.8316  152.8886 C   0  0  0  0  0  0  0  0  0  0  0  0
  147.7382  133.2325  152.7263 C   0  0  2  0  0  0  0  0  0  0  0  0
  148.6117  133.6006  153.9322 C   0  0  0  0  0  0  0  0  0  0  0  0
  148.7436  132.8101  154.8673 O   0  0  0  0  0  0  0  0  0  0  0  0
  149.1709  134.8216  153.9139 N   0  0  0  0  0  0  0  0  0  0  0  0
  149.8905  135.4395  155.0266 C   0  0  0  0  0  0  0  0  0  0  0  0
  151.0813  136.2915  154.5416 C   0  0  0  0  0  0  0  0  0  0  0  0
  150.7407  137.7537  154.4129 C   0  0  0  0  0  0  0  0  0  0  0  0
  151.5674  138.8763  154.7047 C   0  0  0  0  0  0  0  0  0  0  0  0
  150.9442  140.0313  154.5360 N   0  0  0  0  0  0  0  0  0  0  0  0
  149.7053  139.6883  154.1276 N   0  0  0  0  0  0  0  0  0  0  0  0
  148.7249  140.7206  153.8681 C   0  0  0  0  0  0  0  0  0  0  0  0
  149.5579  138.3221  154.0313 C   0  0  0  0  0  0  0  0  0  0  0  0
  146.6119  134.2716  152.5471 C   0  0  0  0  0  0  0  0  0  0  0  0
  145.4856  133.8392  151.5945 C   0  0  0  0  0  0  0  0  0  0  0  0
  144.7110  134.7059  151.1876 O   0  0  0  0  0  0  0  0  0  0  0  0
  144.2494  132.6853  149.4609 H   0  0  0  0  0  0  0  0  0  0  0  0
  143.3079  132.2134  150.8809 H   0  0  0  0  0  0  0  0  0  0  0  0
  144.3689  131.0504  150.0895 H   0  0  0  0  0  0  0  0  0  0  0  0
  145.7576  130.5476  151.8495 H   0  0  0  0  0  0  0  0  0  0  0  0
  146.9586  131.2788  150.8082 H   0  0  0  0  0  0  0  0  0  0  0  0
  146.5006  131.7932  153.7761 H   0  0  0  0  0  0  0  0  0  0  0  0
  147.9180  131.0861  153.0317 H   0  0  0  0  0  0  0  0  0  0  0  0
  148.3622  133.2358  151.8303 H   0  0  0  0  0  0  0  0  0  0  0  0
  149.0171  135.3973  153.0989 H   0  0  0  0  0  0  0  0  0  0  0  0
  149.2166  136.0537  155.6261 H   0  0  0  0  0  0  0  0  0  0  0  0
  150.2479  134.6507  155.6887 H   0  0  0  0  0  0  0  0  0  0  0  0
  151.9177  136.1524  155.2267 H   0  0  0  0  0  0  0  0  0  0  0  0
  151.4237  135.9000  153.5831 H   0  0  0  0  0  0  0  0  0  0  0  0
  152.5903  138.8842  155.0512 H   0  0  0  0  0  0  0  0  0  0  0  0
  147.9188  140.3217  153.2516 H   0  0  0  0  0  0  0  0  0  0  0  0
  149.1898  141.5567  153.3443 H   0  0  0  0  0  0  0  0  0  0  0  0
  148.3086  141.0739  154.8120 H   0  0  0  0  0  0  0  0  0  0  0  0
  148.6253  137.8704  153.7268 H   0  0  0  0  0  0  0  0  0  0  0  0
  146.1450  134.4990  153.5071 H   0  0  0  0  0  0  0  0  0  0  0  0
  147.0333  135.2098  152.1836 H   0  0  0  0  0  0  0  0  0  0  0  0
  1  2  1  0  0  0  0
  1 20  1  0  0  0  0
  1 21  1  0  0  0  0
  1 22  1  0  0  0  0
  2 18  1  0  0  0  0
  2  3  1  0  0  0  0
  3  4  1  0  0  0  0
  3 23  1  0  0  0  0
  3 24  1  0  0  0  0
  4  5  1  0  0  0  0
  4 25  1  0  0  0  0
  4 26  1  0  0  0  0
  5  6  1  0  0  0  0
  5 17  1  0  0  0  0
  5 27  1  0  0  0  0
  6  7  2  0  0  0  0
  6  8  1  0  0  0  0
  8  9  1  0  0  0  0
  8 28  1  0  0  0  0
  9 10  1  0  0  0  0
  9 29  1  0  0  0  0
  9 30  1  0  0  0  0
 10 11  1  0  0  0  0
 10 31  1  0  0  0  0
 10 32  1  0  0  0  0
 11 16  2  0  0  0  0
 11 12  1  0  0  0  0
 12 13  2  0  0  0  0
 12 33  1  0  0  0  0
 13 14  1  0  0  0  0
 14 15  1  0  0  0  0
 14 16  1  0  0  0  0
 15 34  1  0  0  0  0
 15 35  1  0  0  0  0
 15 36  1  0  0  0  0
 16 37  1  0  0  0  0
 17 18  1  0  0  0  0
 17 38  1  0  0  0  0
 17 39  1  0  0  0  0
 18 19  2  0  0  0  0
M  END
> <s_m_source_file>
AV-unprocessed.smi

> <i_m_source_file_index>
3040

> <i_lp_mmshare_version>
43012

> <i_f3d_flags>
0

> <s_epik_input>
W0NIM11OMVtDSDJdW0NIMl1bQ0BIXShbQ0gyXUMxPU8pQyg9TylbTkhdW0NIMl1bQ0gyXWMyW2NIXW5uKFtDSDNdKVtjSF0y

> <s_epik_cmdline>
J2VwaWtfcHl0aG9uJywgJy1waCcsICc3LjAnLCAnLXRuJywgJzgnLCAnLW1hJywgJzIwMCcsICctbWV0YWxfYmluZGluZycsICctaW1hZScsICc8aW5maWxlLm1hZT4nLCAnLW9tYWUnLCAnPG91dGZpbGUubWFlPic=

> <r_lp_tautomer_probability>
1

> <r_epik_Ionization_Penalty>
0.000456436

> <r_epik_Ionization_Penalty_Charging>
0

> <r_epik_Ionization_Penalty_Neutral>
0.000456436

> <r_epik_State_Penalty>
-0

> <r_epik_Charging_Adjusted_Penalty>
0

> <i_epik_Tot_Q>
0

> <i_epik_Tot_abs_Q>
0

> <r_epik_Metal_State_Penalty>
-0

> <b_epik_Metal_Only>
0

> <s_lp_Force_Field>
OPLS_2005

> <r_lp_Energy>
9.8739

> <b_lp_Chiralities_Consistent>
1

> <s_lp_Variant>
AV-unprocessed.smi:3040-2

> <Gold.Version>
5.8.1

> <Gold.Id.Protein>
6NUR|6NUR_protein|mol2

> <Gold.PLP.Fitness>
40.0747

> <Gold.PLP.PLP>
-34.3996

> <Gold.PLP.part.hbond>
-2.0000

> <Gold.PLP.part.metal>
0.0000

> <Gold.PLP.part.buried>
-0.5279

> <Gold.PLP.part.nonpolar>
-31.0082

> <Gold.PLP.part.repulsive>
0.2673

> <Gold.PLP.ligand.clash>
0.0000

> <Gold.PLP.ligand.torsion>
0.7622

> <Gold.PLP.Chemscore.Hbond>
2.0000

> <Gold.PLP.Chemscore.CHOScore>
0.3944

> <Gold.PLP.Chemscore.Metal>
0.0000

> <Gold.Chemscore.Hbonds>
donor molecule, donor type, donor heavy atom, donor atom, acceptor molecule, acceptor atom, score
      L1  H     8    28       P1  7948  0.81
      P1  H  7989  7998       L1    13  0.93
      L1  C    16    37       P1  7948  0.62

> <Gold.PLP.Chemscore.Internal.Correction>
0.0164

> <Gold.Rescore>
     Score         DG    S(hbond)    S(metal)    S(lipo)     H(rot)  DE(clash)    DE(int)     intcor
     14.87     -15.40       1.73        0.00      71.46       1.65       0.03       0.50       ----

> <Gold.Chemscore.Fitness>
14.8660

> <Gold.Chemscore.DG>
-15.3982

> <Gold.Chemscore.ZeroCoef>
-5.4800

> <Gold.Chemscore.Hbond>
1.7336

> <Gold.Chemscore.Metal>
0.0000

> <Gold.Chemscore.Lipo>
71.4618

> <Gold.Chemscore.Internal_Hbond>
0.0000

> <Gold.Chemscore.DEClash>
0.0345

> <Gold.Chemscore.DEInternal>
0.4977

> <Gold.Chemscore.Rot>
1.6536

> <Gold.Chemscore.Internal.Correction>
   9.000000E+99

> <Gold.Chemscore.Hbonds>
donor molecule, donor type, donor heavy atom, donor atom, acceptor molecule, acceptor atom, score
      L1  H     8    28       P1  7948  0.32
      P1  H  7989  7998       L1    13  0.55

> <Gold.Chemscore.Hbond.Weighted>
-5.7903

> <Gold.Chemscore.Metal.Weighted>
-0.0000

> <Gold.Chemscore.Lipo.Weighted>
-8.3610

> <Gold.Chemscore.Internal_Hbond.Weighted>
0.0000

> <Gold.Chemscore.DEClash.Weighted>
0.0345

> <Gold.Chemscore.DEInternal.Weighted>
0.4977

> <Gold.Chemscore.Rot.Weighted>
4.2332

> <Gold.Chemscore.Internal.Correction.Weighted>
   9.000000E+99

> <Gold.Protein.RotatedTorsions>
[ 6907 6896 6895 6894 ] final  127.66 input  -60.11 | X-H torsion
[ 7974 7965 7964 7962 ] final -156.71 input  175.53 | X-H torsion
[ 8008 7997 7996 7995 ] final -147.61 input   59.86 | X-H torsion
[ 10167 10162 10161 10158 ] final -176.09 input  -65.29 | X-H torsion
[ 10718 10713 10712 10709 ] final  -74.72 input   66.30 | X-H torsion
[ 10763 10752 10751 10750 ] final   -0.29 input  -60.55 | X-H torsion
[ 11005 11000 10999 10996 ] final  -66.07 input  -57.11 | X-H torsion

> <Gold.Protein.ActiveResidues>
 VAL166  LYS551  ARG553  GLY616  TRP617  ASP618  TYR619  PRO620  LYS621  CYS622 
 ASP623  PHE694  ASN695  SER759  ASP760  ASP761  ALA762  ILE779  LEU786  VAL792 
 PHE793  MET794  SER795  GLU796  ALA797  LYS798  CYS799  TRP800  GLU811  SER814 

> <Gold.Protein.RotatedAtoms>
  152.3792  133.6522  159.6147 H   0  0  0  0  0  0  0  0  0  0  0  0  # atno 6907 bound_to 6896
  150.7727  133.9143  159.3387 H   0  0  0  0  0  0  0  0  0  0  0  0  # atno 6908 bound_to 6896
  151.6952  135.0941  160.0292 H   0  0  0  0  0  0  0  0  0  0  0  0  # atno 6909 bound_to 6896
  144.7581  140.4071  143.5997 H   0  0  0  0  0  0  0  0  0  0  0  0  # atno 7974 bound_to 7965
  155.5784  140.0641  157.2789 H   0  0  0  0  0  0  0  0  0  0  0  0  # atno 8008 bound_to 7997
  154.4340  140.1856  156.0997 H   0  0  0  0  0  0  0  0  0  0  0  0  # atno 8009 bound_to 7997
  156.0324  140.3305  155.7157 H   0  0  0  0  0  0  0  0  0  0  0  0  # atno 8010 bound_to 7997
  139.5547  144.2019  152.1139 H   0  0  0  0  0  0  0  0  0  0  0  0  # atno 10167 bound_to 10162
  156.0232  130.4424  150.2935 H   0  0  0  0  0  0  0  0  0  0  0  0  # atno 10718 bound_to 10713
  153.3300  135.6974  153.6956 H   0  0  0  0  0  0  0  0  0  0  0  0  # atno 10763 bound_to 10752
  153.5763  135.3506  155.2858 H   0  0  0  0  0  0  0  0  0  0  0  0  # atno 10764 bound_to 10752
  154.8616  135.4284  154.2486 H   0  0  0  0  0  0  0  0  0  0  0  0  # atno 10765 bound_to 10752
  141.1472  133.6693  156.6083 H   0  0  0  0  0  0  0  0  0  0  0  0  # atno 11005 bound_to 11000
  145.6712  139.1599  143.2753 LP  0  0  0  0  0  0  0  0  0  0  0  0  # atno 17320 bound_to 7965
  146.1613  140.6783  142.9276 LP  0  0  0  0  0  0  0  0  0  0  0  0  # atno 17321 bound_to 7965
  140.1521  144.5105  150.6681 LP  0  0  0  0  0  0  0  0  0  0  0  0  # atno 17342 bound_to 10162
  140.6818  143.2330  151.5365 LP  0  0  0  0  0  0  0  0  0  0  0  0  # atno 17343 bound_to 10162
  157.1039  131.0203  151.3075 LP  0  0  0  0  0  0  0  0  0  0  0  0  # atno 17370 bound_to 10713
  157.4758  130.7736  149.7367 LP  0  0  0  0  0  0  0  0  0  0  0  0  # atno 17371 bound_to 10713
  140.3634  134.7668  157.4549 LP  0  0  0  0  0  0  0  0  0  0  0  0  # atno 17394 bound_to 11000
  140.0767  134.5787  155.8584 LP  0  0  0  0  0  0  0  0  0  0  0  0  # atno 17395 bound_to 11000

$$$$
