AV-unprocessed.smi:3287|AV-procd|sdf|12600|dock5
  -GOLD-   2272018523D 1   1.00000     0.00000
 Structure written by MMmdl.
 43 44  0  0  0  0  0  0  0  0  2 V2000
  153.7709  142.9015  159.5679 C   0  0  0  0  0  0  0  0  0  0  0  0
  152.2901  142.8158  159.9899 C   0  0  2  0  0  0  0  0  0  0  0  0
  151.6770  141.4444  159.6394 C   0  0  0  0  0  0  0  0  0  0  0  0
  151.4282  141.2794  158.1300 C   0  0  0  0  0  0  0  0  0  0  0  0
  150.5475  142.4177  157.5755 C   0  0  2  0  0  0  0  0  0  0  0  0
  150.3601  142.2984  156.1130 N   0  3  0  0  0  0  0  0  0  0  0  0
  149.2708  141.3929  155.6878 C   0  0  0  0  0  0  0  0  0  0  0  0
  149.6380  140.6378  154.3988 C   0  0  2  0  0  0  0  0  0  0  0  0
  148.4462  140.2621  153.7353 O   0  0  0  0  0  0  0  0  0  0  0  0
  150.5190  139.4357  154.7009 C   0  0  0  0  0  0  0  0  0  0  0  0
  151.7808  139.6075  155.3078 C   0  0  0  0  0  0  0  0  0  0  0  0
  152.5603  138.4644  155.5776 C   0  0  0  0  0  0  0  0  0  0  0  0
  152.1597  137.2083  155.2871 N   0  0  0  0  0  0  0  0  0  0  0  0
  150.9504  137.0486  154.7087 C   0  0  0  0  0  0  0  0  0  0  0  0
  150.0942  138.1238  154.3975 C   0  0  0  0  0  0  0  0  0  0  0  0
  151.1620  143.7893  157.9116 C   0  0  0  0  0  0  0  0  0  0  0  0
  151.4010  143.9534  159.4262 C   0  0  2  0  0  0  0  0  0  0  0  0
  151.9168  145.3594  159.7742 C   0  0  0  0  0  0  0  0  0  0  0  0
  153.8940  142.8836  158.4855 H   0  0  0  0  0  0  0  0  0  0  0  0
  154.3389  142.0646  159.9752 H   0  0  0  0  0  0  0  0  0  0  0  0
  154.2407  143.8118  159.9398 H   0  0  0  0  0  0  0  0  0  0  0  0
  152.2774  142.8997  161.0775 H   0  0  0  0  0  0  0  0  0  0  0  0
  152.3186  140.6405  160.0019 H   0  0  0  0  0  0  0  0  0  0  0  0
  150.7292  141.3316  160.1676 H   0  0  0  0  0  0  0  0  0  0  0  0
  152.3807  141.2527  157.5994 H   0  0  0  0  0  0  0  0  0  0  0  0
  150.9561  140.3125  157.9568 H   0  0  0  0  0  0  0  0  0  0  0  0
  149.5656  142.3686  158.0491 H   0  0  0  0  0  0  0  0  0  0  0  0
  150.1324  143.2165  155.7580 H   0  0  0  0  0  0  0  0  0  0  0  0
  149.0749  140.6741  156.4836 H   0  0  0  0  0  0  0  0  0  0  0  0
  148.3538  141.9656  155.5406 H   0  0  0  0  0  0  0  0  0  0  0  0
  150.1842  141.3074  153.7324 H   0  0  0  0  0  0  0  0  0  0  0  0
  148.6281  140.1899  152.8102 H   0  0  0  0  0  0  0  0  0  0  0  0
  152.1488  140.5901  155.5640 H   0  0  0  0  0  0  0  0  0  0  0  0
  153.5308  138.5622  156.0409 H   0  0  0  0  0  0  0  0  0  0  0  0
  150.6549  136.0337  154.4879 H   0  0  0  0  0  0  0  0  0  0  0  0
  149.1341  137.9397  153.9378 H   0  0  0  0  0  0  0  0  0  0  0  0
  152.0990  143.9220  157.3697 H   0  0  0  0  0  0  0  0  0  0  0  0
  150.4962  144.5795  157.5618 H   0  0  0  0  0  0  0  0  0  0  0  0
  150.4280  143.8599  159.9119 H   0  0  0  0  0  0  0  0  0  0  0  0
  152.8514  145.5867  159.2613 H   0  0  0  0  0  0  0  0  0  0  0  0
  152.0877  145.4617  160.8462 H   0  0  0  0  0  0  0  0  0  0  0  0
  151.1932  146.1217  159.4843 H   0  0  0  0  0  0  0  0  0  0  0  0
  151.2284  142.0002  155.6924 H   0  0  0  0  0  0  0  0  0  0  0  0
  1  2  1  0  0  0  0
  1 19  1  0  0  0  0
  1 20  1  0  0  0  0
  1 21  1  0  0  0  0
  2 17  1  0  0  0  0
  2  3  1  0  0  0  0
  2 22  1  0  0  0  0
  3  4  1  0  0  0  0
  3 23  1  0  0  0  0
  3 24  1  0  0  0  0
  4  5  1  0  0  0  0
  4 25  1  0  0  0  0
  4 26  1  0  0  0  0
  5  6  1  0  0  0  0
  5 16  1  0  0  0  0
  5 27  1  0  0  0  0
  6  7  1  0  0  0  0
  6 28  1  0  0  0  0
  6 43  1  0  0  0  0
  7  8  1  0  0  0  0
  7 29  1  0  0  0  0
  7 30  1  0  0  0  0
  8  9  1  0  0  0  0
  8 10  1  0  0  0  0
  8 31  1  0  0  0  0
  9 32  1  0  0  0  0
 10 15  1  0  0  0  0
 10 11  2  0  0  0  0
 11 12  1  0  0  0  0
 11 33  1  0  0  0  0
 12 13  2  0  0  0  0
 12 34  1  0  0  0  0
 13 14  1  0  0  0  0
 14 15  2  0  0  0  0
 14 35  1  0  0  0  0
 15 36  1  0  0  0  0
 16 17  1  0  0  0  0
 16 37  1  0  0  0  0
 16 38  1  0  0  0  0
 17 18  1  0  0  0  0
 17 39  1  0  0  0  0
 18 40  1  0  0  0  0
 18 41  1  0  0  0  0
 18 42  1  0  0  0  0
M  CHG  1   6   1
M  END
> <s_m_source_file>
AV-unprocessed.smi

> <i_m_source_file_index>
3287

> <i_lp_mmshare_version>
43012

> <i_f3d_flags>
0

> <s_epik_input>
W0NIM11bQ0BASF0xW0NIMl1bQ0gyXVtDQEhdKFtDSDJdW0NASF0xW0NIM10pW05IXVtDSDJdW0NASF0oW09IXSljMltjSF1bY0hdbltjSF1bY0hdMg==

> <s_epik_cmdline>
J2VwaWtfcHl0aG9uJywgJy1waCcsICc3LjAnLCAnLXRuJywgJzgnLCAnLW1hJywgJzIwMCcsICctbWV0YWxfYmluZGluZycsICctaW1hZScsICc8aW5maWxlLm1hZT4nLCAnLW9tYWUnLCAnPG91dGZpbGUubWFlPic=

> <r_lp_tautomer_probability>
1

> <r_epik_Ionization_Penalty>
0.00537262

> <r_epik_Ionization_Penalty_Charging>
0.00321624

> <r_epik_Ionization_Penalty_Neutral>
0.00215638

> <r_epik_State_Penalty>
-0

> <r_epik_Charging_Adjusted_Penalty>
0.00321624

> <i_epik_Tot_Q>
1

> <i_epik_Tot_abs_Q>
1

> <r_epik_Metal_State_Penalty>
-0

> <b_epik_Metal_Only>
0

> <s_lp_Force_Field>
OPLS_2005

> <r_lp_Energy>
17.0862

> <b_lp_Chiralities_Consistent>
1

> <s_lp_Variant>
AV-unprocessed.smi:3287-11

> <Gold.Version>
5.8.1

> <Gold.Id.Protein>
6NUR|6NUR_protein|mol2

> <Gold.PLP.Fitness>
52.0994

> <Gold.PLP.PLP>
-42.1420

> <Gold.PLP.part.hbond>
-3.0000

> <Gold.PLP.part.metal>
0.0000

> <Gold.PLP.part.buried>
-2.3039

> <Gold.PLP.part.nonpolar>
-38.4380

> <Gold.PLP.part.repulsive>
0.1688

> <Gold.PLP.ligand.clash>
0.0000

> <Gold.PLP.ligand.torsion>
0.7856

> <Gold.PLP.Chemscore.Hbond>
3.8320

> <Gold.PLP.Chemscore.CHOScore>
0.0000

> <Gold.PLP.Chemscore.Metal>
0.0000

> <Gold.Chemscore.Hbonds>
donor molecule, donor type, donor heavy atom, donor atom, acceptor molecule, acceptor atom, score
      L1  H     6    28       P1  8028  2.00
      L1  H     9    32       P1  7957  1.00
      P1  H 10752 10763       L1    13  0.83

> <Gold.PLP.Chemscore.Internal.Correction>
0.0326

> <Gold.Rescore>
     Score         DG    S(hbond)    S(metal)    S(lipo)     H(rot)  DE(clash)    DE(int)     intcor
     23.74     -25.23       2.81        0.00     130.29       1.90       0.60       0.89       ----

> <Gold.Chemscore.Fitness>
23.7397

> <Gold.Chemscore.DG>
-25.2331

> <Gold.Chemscore.ZeroCoef>
-5.4800

> <Gold.Chemscore.Hbond>
2.8092

> <Gold.Chemscore.Metal>
0.0000

> <Gold.Chemscore.Lipo>
130.2852

> <Gold.Chemscore.Internal_Hbond>
0.0000

> <Gold.Chemscore.DEClash>
0.5997

> <Gold.Chemscore.DEInternal>
0.8937

> <Gold.Chemscore.Rot>
1.9035

> <Gold.Chemscore.Internal.Correction>
   9.000000E+99

> <Gold.Chemscore.Hbonds>
donor molecule, donor type, donor heavy atom, donor atom, acceptor molecule, acceptor atom, score
      L1  H     6    28       P1  8028  0.93
      L1  H     9    32       P1  7957  0.99
      P1  H 10752 10763       L1    13  0.21

> <Gold.Chemscore.Hbond.Weighted>
-9.3826

> <Gold.Chemscore.Metal.Weighted>
-0.0000

> <Gold.Chemscore.Lipo.Weighted>
-15.2434

> <Gold.Chemscore.Internal_Hbond.Weighted>
0.0000

> <Gold.Chemscore.DEClash.Weighted>
0.5997

> <Gold.Chemscore.DEInternal.Weighted>
0.8937

> <Gold.Chemscore.Rot.Weighted>
4.8729

> <Gold.Chemscore.Internal.Correction.Weighted>
   9.000000E+99

> <Gold.Protein.RotatedTorsions>
[ 6907 6896 6895 6894 ] final   64.21 input  -60.11 | X-H torsion
[ 7974 7965 7964 7962 ] final   88.94 input  175.53 | X-H torsion
[ 8008 7997 7996 7995 ] final -120.22 input   59.86 | X-H torsion
[ 10167 10162 10161 10158 ] final   69.94 input  -65.29 | X-H torsion
[ 10718 10713 10712 10709 ] final  131.03 input   66.30 | X-H torsion
[ 10763 10752 10751 10750 ] final   71.17 input  -60.55 | X-H torsion
[ 11005 11000 10999 10996 ] final   59.79 input  -57.11 | X-H torsion

> <Gold.Protein.ActiveResidues>
 VAL166  LYS551  ARG553  GLY616  TRP617  ASP618  TYR619  PRO620  LYS621  CYS622 
 ASP623  PHE694  ASN695  SER759  ASP760  ASP761  ALA762  ILE779  LEU786  VAL792 
 PHE793  MET794  SER795  GLU796  ALA797  LYS798  CYS799  TRP800  GLU811  SER814 

> <Gold.Protein.RotatedAtoms>
  152.4313  134.5771  159.9937 H   0  0  0  0  0  0  0  0  0  0  0  0  # atno 6907 bound_to 6896
  151.5894  133.3362  159.3032 H   0  0  0  0  0  0  0  0  0  0  0  0  # atno 6908 bound_to 6896
  150.8207  134.7448  159.6834 H   0  0  0  0  0  0  0  0  0  0  0  0  # atno 6909 bound_to 6896
  145.5390  139.2287  143.2576 H   0  0  0  0  0  0  0  0  0  0  0  0  # atno 7974 bound_to 7965
  155.1284  140.0400  157.2768 H   0  0  0  0  0  0  0  0  0  0  0  0  # atno 8008 bound_to 7997
  154.6561  140.2580  155.7134 H   0  0  0  0  0  0  0  0  0  0  0  0  # atno 8009 bound_to 7997
  156.2599  140.2826  156.1015 H   0  0  0  0  0  0  0  0  0  0  0  0  # atno 8010 bound_to 7997
  140.0623  144.5222  150.7285 H   0  0  0  0  0  0  0  0  0  0  0  0  # atno 10167 bound_to 10162
  157.5006  131.1094  150.9433 H   0  0  0  0  0  0  0  0  0  0  0  0  # atno 10718 bound_to 10713
  153.0383  135.5146  154.7553 H   0  0  0  0  0  0  0  0  0  0  0  0  # atno 10763 bound_to 10752
  154.6511  135.2925  154.9988 H   0  0  0  0  0  0  0  0  0  0  0  0  # atno 10764 bound_to 10752
  154.0872  135.6655  153.4899 H   0  0  0  0  0  0  0  0  0  0  0  0  # atno 10765 bound_to 10752
  140.0278  134.6056  155.9548 H   0  0  0  0  0  0  0  0  0  0  0  0  # atno 11005 bound_to 11000
  146.1994  140.6209  142.9109 LP  0  0  0  0  0  0  0  0  0  0  0  0  # atno 17320 bound_to 7965
  144.7587  140.5369  143.6751 LP  0  0  0  0  0  0  0  0  0  0  0  0  # atno 17321 bound_to 7965
  140.7166  143.2550  151.4415 LP  0  0  0  0  0  0  0  0  0  0  0  0  # atno 17342 bound_to 10162
  139.5886  144.1549  152.2060 LP  0  0  0  0  0  0  0  0  0  0  0  0  # atno 17343 bound_to 10162
  157.0105  130.5635  149.5320 LP  0  0  0  0  0  0  0  0  0  0  0  0  # atno 17370 bound_to 10713
  156.0227  130.5321  150.8320 LP  0  0  0  0  0  0  0  0  0  0  0  0  # atno 17371 bound_to 10713
  141.1813  133.6547  156.5033 LP  0  0  0  0  0  0  0  0  0  0  0  0  # atno 17394 bound_to 11000
  140.4276  134.7131  157.4924 LP  0  0  0  0  0  0  0  0  0  0  0  0  # atno 17395 bound_to 11000

$$$$
