AV-unprocessed.smi:3117|AV-procd|sdf|11881|dock5
  -GOLD-   2272017263D 1   1.00000     0.00000
 Structure written by MMmdl.
 37 37  0  0  0  0  0  0  0  0  2 V2000
  151.6519  140.1123  156.1817 C   0  0  0  0  0  0  0  0  0  0  0  0
  151.1656  141.5126  156.5899 C   0  0  1  0  0  0  0  0  0  0  0  0
  150.1436  141.9795  155.6258 N   0  3  0  0  0  0  0  0  0  0  0  0
  148.8366  141.2950  155.7144 C   0  0  0  0  0  0  0  0  0  0  0  0
  148.5940  140.3465  154.5211 C   0  0  0  0  0  0  0  0  0  0  0  0
  149.1888  138.9593  154.8154 C   0  0  0  0  0  0  0  0  0  0  0  0
  147.1018  140.2227  154.1625 C   0  0  0  0  0  0  0  0  0  0  0  0
  149.2857  140.8598  153.3989 O   0  0  0  0  0  0  0  0  0  0  0  0
  150.6340  141.5645  158.0460 C   0  0  1  0  0  0  0  0  0  0  0  0
  149.8573  140.2958  158.4468 C   0  0  0  0  0  0  0  0  0  0  0  0
  151.6660  141.8993  159.0231 N   0  0  0  0  0  0  0  0  0  0  0  0
  152.8224  141.2025  159.3108 C   0  0  0  0  0  0  0  0  0  0  0  0
  153.4734  141.8785  160.3022 C   0  0  0  0  0  0  0  0  0  0  0  0
  152.6270  142.9909  160.5649 C   0  0  0  0  0  0  0  0  0  0  0  0
  151.5456  142.9984  159.8027 N   0  0  0  0  0  0  0  0  0  0  0  0
  152.4091  139.7430  156.8736 H   0  0  0  0  0  0  0  0  0  0  0  0
  152.0973  140.1281  155.1864 H   0  0  0  0  0  0  0  0  0  0  0  0
  150.8356  139.3894  156.1647 H   0  0  0  0  0  0  0  0  0  0  0  0
  152.0284  142.1789  156.5380 H   0  0  0  0  0  0  0  0  0  0  0  0
  150.0013  142.9701  155.7600 H   0  0  0  0  0  0  0  0  0  0  0  0
  148.7967  140.7341  156.6497 H   0  0  0  0  0  0  0  0  0  0  0  0
  148.0479  142.0474  155.7609 H   0  0  0  0  0  0  0  0  0  0  0  0
  148.7046  138.4987  155.6771 H   0  0  0  0  0  0  0  0  0  0  0  0
  150.2560  139.0199  155.0320 H   0  0  0  0  0  0  0  0  0  0  0  0
  149.0636  138.2830  153.9689 H   0  0  0  0  0  0  0  0  0  0  0  0
  146.5245  139.8459  155.0077 H   0  0  0  0  0  0  0  0  0  0  0  0
  146.9510  139.5336  153.3306 H   0  0  0  0  0  0  0  0  0  0  0  0
  146.6716  141.1810  153.8701 H   0  0  0  0  0  0  0  0  0  0  0  0
  149.4342  140.1547  152.7866 H   0  0  0  0  0  0  0  0  0  0  0  0
  149.9105  142.3805  158.0814 H   0  0  0  0  0  0  0  0  0  0  0  0
  149.0322  140.1094  157.7591 H   0  0  0  0  0  0  0  0  0  0  0  0
  149.4334  140.3972  159.4463 H   0  0  0  0  0  0  0  0  0  0  0  0
  150.4926  139.4095  158.4471 H   0  0  0  0  0  0  0  0  0  0  0  0
  153.0839  140.2920  158.7917 H   0  0  0  0  0  0  0  0  0  0  0  0
  154.4119  141.6179  160.7690 H   0  0  0  0  0  0  0  0  0  0  0  0
  152.7638  143.7856  161.2835 H   0  0  0  0  0  0  0  0  0  0  0  0
  150.5063  141.8373  154.6931 H   0  0  0  0  0  0  0  0  0  0  0  0
  1  2  1  0  0  0  0
  1 16  1  0  0  0  0
  1 17  1  0  0  0  0
  1 18  1  0  0  0  0
  2  3  1  0  0  0  0
  2  9  1  0  0  0  0
  2 19  1  0  0  0  0
  3  4  1  0  0  0  0
  3 20  1  0  0  0  0
  3 37  1  0  0  0  0
  4  5  1  0  0  0  0
  4 21  1  0  0  0  0
  4 22  1  0  0  0  0
  5  6  1  0  0  0  0
  5  7  1  0  0  0  0
  5  8  1  0  0  0  0
  6 23  1  0  0  0  0
  6 24  1  0  0  0  0
  6 25  1  0  0  0  0
  7 26  1  0  0  0  0
  7 27  1  0  0  0  0
  7 28  1  0  0  0  0
  8 29  1  0  0  0  0
  9 10  1  0  0  0  0
  9 11  1  0  0  0  0
  9 30  1  0  0  0  0
 10 31  1  0  0  0  0
 10 32  1  0  0  0  0
 10 33  1  0  0  0  0
 11 15  1  0  0  0  0
 11 12  1  0  0  0  0
 12 13  2  0  0  0  0
 12 34  1  0  0  0  0
 13 14  1  0  0  0  0
 13 35  1  0  0  0  0
 14 15  2  0  0  0  0
 14 36  1  0  0  0  0
M  CHG  1   3   1
M  END
> <s_m_source_file>
AV-unprocessed.smi

> <i_m_source_file_index>
3117

> <i_lp_mmshare_version>
43012

> <i_f3d_flags>
0

> <s_epik_input>
W0NIM11DKFtDSDNdKShbT0hdKVtDSDJdW05IXVtDQEBIXShbQ0gzXSlbQ0BIXShbQ0gzXSluMVtjSF1bY0hdW2NIXW4x

> <s_epik_cmdline>
J2VwaWtfcHl0aG9uJywgJy1waCcsICc3LjAnLCAnLXRuJywgJzgnLCAnLW1hJywgJzIwMCcsICctbWV0YWxfYmluZGluZycsICctaW1hZScsICc8aW5maWxlLm1hZT4nLCAnLW9tYWUnLCAnPG91dGZpbGUubWFlPic=

> <r_lp_tautomer_probability>
1

> <r_epik_Ionization_Penalty>
0.0164263

> <r_epik_Ionization_Penalty_Charging>
0.0164138

> <r_epik_Ionization_Penalty_Neutral>
1.24697e-05

> <r_epik_State_Penalty>
0.0129543

> <r_epik_Charging_Adjusted_Penalty>
0.0293681

> <i_epik_Tot_Q>
1

> <i_epik_Tot_abs_Q>
1

> <r_epik_Metal_State_Penalty>
0.0129806

> <b_epik_Metal_Only>
0

> <s_lp_Force_Field>
OPLS_2005

> <r_lp_Energy>
13.722

> <b_lp_Chiralities_Consistent>
1

> <s_lp_Variant>
AV-unprocessed.smi:3117-4

> <Gold.Version>
5.8.1

> <Gold.Id.Protein>
6NUR|6NUR_protein|mol2

> <Gold.PLP.Fitness>
40.6014

> <Gold.PLP.PLP>
-32.9059

> <Gold.PLP.part.hbond>
-3.8043

> <Gold.PLP.part.metal>
0.0000

> <Gold.PLP.part.buried>
-5.2187

> <Gold.PLP.part.nonpolar>
-23.6678

> <Gold.PLP.part.repulsive>
0.1762

> <Gold.PLP.ligand.clash>
0.0000

> <Gold.PLP.ligand.torsion>
1.6787

> <Gold.PLP.Chemscore.Hbond>
3.6250

> <Gold.PLP.Chemscore.CHOScore>
0.0000

> <Gold.PLP.Chemscore.Metal>
0.0000

> <Gold.Chemscore.Hbonds>
donor molecule, donor type, donor heavy atom, donor atom, acceptor molecule, acceptor atom, score
      L1  H     3    20       P1  8028  1.79
      L1  H     8    29       P1  7957  0.70
      P1  H  7989  7998       L1     8  0.01
      P1  H  8011  8017       L1     8  1.00

> <Gold.PLP.Chemscore.Internal.Correction>
0.1779

> <Gold.Rescore>
     Score         DG    S(hbond)    S(metal)    S(lipo)     H(rot)  DE(clash)    DE(int)     intcor
     13.35     -15.35       1.95        0.00      78.33       2.27       0.14       1.85       ----

> <Gold.Chemscore.Fitness>
13.3545

> <Gold.Chemscore.DG>
-15.3453

> <Gold.Chemscore.ZeroCoef>
-5.4800

> <Gold.Chemscore.Hbond>
1.9517

> <Gold.Chemscore.Metal>
0.0000

> <Gold.Chemscore.Lipo>
78.3266

> <Gold.Chemscore.Internal_Hbond>
0.0000

> <Gold.Chemscore.DEClash>
0.1378

> <Gold.Chemscore.DEInternal>
1.8530

> <Gold.Chemscore.Rot>
2.2725

> <Gold.Chemscore.Internal.Correction>
   9.000000E+99

> <Gold.Chemscore.Hbonds>
donor molecule, donor type, donor heavy atom, donor atom, acceptor molecule, acceptor atom, score
      L1  H     3    20       P1  8028  0.83
      L1  H     8    29       P1  7957  0.70
      P1  H  8011  8017       L1     8  0.29

> <Gold.Chemscore.Hbond.Weighted>
-6.5187

> <Gold.Chemscore.Metal.Weighted>
-0.0000

> <Gold.Chemscore.Lipo.Weighted>
-9.1642

> <Gold.Chemscore.Internal_Hbond.Weighted>
0.0000

> <Gold.Chemscore.DEClash.Weighted>
0.1378

> <Gold.Chemscore.DEInternal.Weighted>
1.8530

> <Gold.Chemscore.Rot.Weighted>
5.8176

> <Gold.Chemscore.Internal.Correction.Weighted>
   9.000000E+99

> <Gold.Protein.RotatedTorsions>
[ 6907 6896 6895 6894 ] final  -67.63 input  -60.11 | X-H torsion
[ 7974 7965 7964 7962 ] final   56.41 input  175.53 | X-H torsion
[ 8008 7997 7996 7995 ] final   83.16 input   59.86 | X-H torsion
[ 10167 10162 10161 10158 ] final  -23.20 input  -65.29 | X-H torsion
[ 10718 10713 10712 10709 ] final -133.99 input   66.30 | X-H torsion
[ 10763 10752 10751 10750 ] final -148.30 input  -60.55 | X-H torsion
[ 11005 11000 10999 10996 ] final -115.35 input  -57.11 | X-H torsion

> <Gold.Protein.ActiveResidues>
 VAL166  LYS551  ARG553  GLY616  TRP617  ASP618  TYR619  PRO620  LYS621  CYS622 
 ASP623  PHE694  ASN695  SER759  ASP760  ASP761  ALA762  ILE779  LEU786  VAL792 
 PHE793  MET794  SER795  GLU796  ALA797  LYS798  CYS799  TRP800  GLU811  SER814 

> <Gold.Protein.RotatedAtoms>
  150.7399  134.5854  159.5959 H   0  0  0  0  0  0  0  0  0  0  0  0  # atno 6907 bound_to 6896
  152.3256  134.7322  160.0312 H   0  0  0  0  0  0  0  0  0  0  0  0  # atno 6908 bound_to 6896
  151.7823  133.3315  159.3511 H   0  0  0  0  0  0  0  0  0  0  0  0  # atno 6909 bound_to 6896
  145.9401  139.3881  143.0368 H   0  0  0  0  0  0  0  0  0  0  0  0  # atno 7974 bound_to 7965
  155.9202  140.3422  155.6167 H   0  0  0  0  0  0  0  0  0  0  0  0  # atno 8008 bound_to 7997
  155.7282  140.0792  157.2319 H   0  0  0  0  0  0  0  0  0  0  0  0  # atno 8009 bound_to 7997
  154.4068  140.1593  156.2466 H   0  0  0  0  0  0  0  0  0  0  0  0  # atno 8010 bound_to 7997
  140.7287  143.4465  151.0579 H   0  0  0  0  0  0  0  0  0  0  0  0  # atno 10167 bound_to 10162
  156.2507  130.7151  151.1049 H   0  0  0  0  0  0  0  0  0  0  0  0  # atno 10718 bound_to 10713
  154.8240  135.3338  154.6953 H   0  0  0  0  0  0  0  0  0  0  0  0  # atno 10763 bound_to 10752
  153.7581  135.6934  153.4936 H   0  0  0  0  0  0  0  0  0  0  0  0  # atno 10764 bound_to 10752
  153.2129  135.4476  155.0350 H   0  0  0  0  0  0  0  0  0  0  0  0  # atno 10765 bound_to 10752
  141.0493  133.9712  157.2863 H   0  0  0  0  0  0  0  0  0  0  0  0  # atno 11005 bound_to 11000
  145.8311  140.9630  143.0848 LP  0  0  0  0  0  0  0  0  0  0  0  0  # atno 17320 bound_to 7965
  144.6778  140.0163  143.7484 LP  0  0  0  0  0  0  0  0  0  0  0  0  # atno 17321 bound_to 7965
  139.8137  143.7915  152.3173 LP  0  0  0  0  0  0  0  0  0  0  0  0  # atno 17342 bound_to 10162
  139.7974  144.7387  150.9871 LP  0  0  0  0  0  0  0  0  0  0  0  0  # atno 17343 bound_to 10162
  157.7213  131.0679  150.6122 LP  0  0  0  0  0  0  0  0  0  0  0  0  # atno 17370 bound_to 10713
  156.6202  130.4404  149.5825 LP  0  0  0  0  0  0  0  0  0  0  0  0  # atno 17371 bound_to 10713
  139.9337  135.0198  156.8487 LP  0  0  0  0  0  0  0  0  0  0  0  0  # atno 17394 bound_to 11000
  140.6085  134.0104  155.7567 LP  0  0  0  0  0  0  0  0  0  0  0  0  # atno 17395 bound_to 11000

$$$$
