AV-unprocessed.smi:813|AV-procd|sdf|3817|dock2
  -GOLD-   22720 1253D 1   1.00000     0.00000
 Structure written by MMmdl.
 36 37  0  0  0  0  0  0  0  0  1 V2000
  148.2320  141.5714  154.0753 C   0  0  0  0  0  0  0  0  0  0  0  0
  148.4159  141.1950  155.5548 C   0  0  2  0  0  0  0  0  0  0  0  0
  147.5284  142.0408  156.3524 N   0  0  0  0  0  0  0  0  0  0  0  0
  147.2209  141.8401  157.6428 C   0  0  0  0  0  0  0  0  0  0  0  0
  147.6371  140.8843  158.2984 O   0  0  0  0  0  0  0  0  0  0  0  0
  146.4166  142.8122  158.1073 N   0  0  0  0  0  0  0  0  0  0  0  0
  145.8916  142.9698  159.4172 C   0  0  0  0  0  0  0  0  0  0  0  0
  146.6095  142.7798  160.5354 N   0  0  0  0  0  0  0  0  0  0  0  0
  145.8558  143.0017  161.6809 N   0  0  0  0  0  0  0  0  0  0  0  0
  144.6010  143.3496  161.3818 C   0  0  0  0  0  0  0  0  0  0  0  0
  144.2168  143.4393  159.6715 S   0  0  0  0  0  0  0  0  0  0  0  0
  149.8857  141.4374  155.9342 C   0  0  0  0  0  0  0  0  0  0  0  0
  150.7905  140.8176  155.3720 O   0  0  0  0  0  0  0  0  0  0  0  0
  150.1041  142.3398  156.9023 N   0  0  0  0  0  0  0  0  0  0  0  0
  151.4188  142.7364  157.3976 C   0  0  0  0  0  0  0  0  0  0  0  0
  151.5440  142.4339  158.9015 C   0  0  0  0  0  0  0  0  0  0  0  0
  151.4812  143.7880  159.6080 C   0  0  0  0  0  0  0  0  0  0  0  0
  152.1146  144.7550  158.6127 C   0  0  0  0  0  0  0  0  0  0  0  0
  151.6451  144.2551  157.2452 C   0  0  0  0  0  0  0  0  0  0  0  0
  148.8748  140.9708  153.4302 H   0  0  0  0  0  0  0  0  0  0  0  0
  148.4636  142.6218  153.8910 H   0  0  0  0  0  0  0  0  0  0  0  0
  147.2036  141.3999  153.7559 H   0  0  0  0  0  0  0  0  0  0  0  0
  148.1570  140.1441  155.7004 H   0  0  0  0  0  0  0  0  0  0  0  0
  147.1460  142.8537  155.8924 H   0  0  0  0  0  0  0  0  0  0  0  0
  146.1601  143.5331  157.4494 H   0  0  0  0  0  0  0  0  0  0  0  0
  143.8966  143.5556  162.1741 H   0  0  0  0  0  0  0  0  0  0  0  0
  149.3041  142.8003  157.3114 H   0  0  0  0  0  0  0  0  0  0  0  0
  152.1936  142.1830  156.8632 H   0  0  0  0  0  0  0  0  0  0  0  0
  150.7860  141.7415  159.2704 H   0  0  0  0  0  0  0  0  0  0  0  0
  152.5151  141.9760  159.0947 H   0  0  0  0  0  0  0  0  0  0  0  0
  150.4404  144.0660  159.7797 H   0  0  0  0  0  0  0  0  0  0  0  0
  151.9899  143.7831  160.5723 H   0  0  0  0  0  0  0  0  0  0  0  0
  151.8353  145.7924  158.7985 H   0  0  0  0  0  0  0  0  0  0  0  0
  153.2013  144.6859  158.6759 H   0  0  0  0  0  0  0  0  0  0  0  0
  152.3647  144.4857  156.4591 H   0  0  0  0  0  0  0  0  0  0  0  0
  150.7132  144.7593  156.9839 H   0  0  0  0  0  0  0  0  0  0  0  0
  1  2  1  0  0  0  0
  1 20  1  0  0  0  0
  1 21  1  0  0  0  0
  1 22  1  0  0  0  0
  2  3  1  0  0  0  0
  2 12  1  0  0  0  0
  2 23  1  0  0  0  0
  3  4  1  0  0  0  0
  3 24  1  0  0  0  0
  4  5  2  0  0  0  0
  4  6  1  0  0  0  0
  6  7  1  0  0  0  0
  6 25  1  0  0  0  0
  7 11  1  0  0  0  0
  7  8  2  0  0  0  0
  8  9  1  0  0  0  0
  9 10  2  0  0  0  0
 10 11  1  0  0  0  0
 10 26  1  0  0  0  0
 12 13  2  0  0  0  0
 12 14  1  0  0  0  0
 14 15  1  0  0  0  0
 14 27  1  0  0  0  0
 15 19  1  0  0  0  0
 15 16  1  0  0  0  0
 15 28  1  0  0  0  0
 16 17  1  0  0  0  0
 16 29  1  0  0  0  0
 16 30  1  0  0  0  0
 17 18  1  0  0  0  0
 17 31  1  0  0  0  0
 17 32  1  0  0  0  0
 18 19  1  0  0  0  0
 18 33  1  0  0  0  0
 18 34  1  0  0  0  0
 19 35  1  0  0  0  0
 19 36  1  0  0  0  0
M  END
> <s_m_source_file>
AV-unprocessed.smi

> <i_m_source_file_index>
813

> <i_lp_mmshare_version>
43012

> <i_f3d_flags>
0

> <s_epik_input>
W0NIMl0xW0NIMl1bQ0gyXVtDSDJdW0NIXTFbTkhdQyg9TylbQ0BIXShbQ0gzXSlbTkhdQyg9TylbTkhdYzJubltjSF1zMg==

> <s_epik_cmdline>
J2VwaWtfcHl0aG9uJywgJy1waCcsICc3LjAnLCAnLXRuJywgJzgnLCAnLW1hJywgJzIwMCcsICctbWV0YWxfYmluZGluZycsICctaW1hZScsICc8aW5maWxlLm1hZT4nLCAnLW9tYWUnLCAnPG91dGZpbGUubWFlPic=

> <r_lp_tautomer_probability>
1

> <r_epik_Ionization_Penalty>
0.00321247

> <r_epik_Ionization_Penalty_Charging>
0

> <r_epik_Ionization_Penalty_Neutral>
0.00321247

> <r_epik_State_Penalty>
-0

> <r_epik_Charging_Adjusted_Penalty>
0

> <i_epik_Tot_Q>
0

> <i_epik_Tot_abs_Q>
0

> <r_epik_Metal_State_Penalty>
0.363968

> <b_epik_Metal_Only>
0

> <s_lp_Force_Field>
OPLS_2005

> <r_lp_Energy>
16.3209

> <b_lp_Chiralities_Consistent>
1

> <s_lp_Variant>
AV-unprocessed.smi:813-1

> <Gold.Version>
5.8.1

> <Gold.Id.Protein>
6NUR|6NUR_protein|mol2

> <Gold.PLP.Fitness>
41.8368

> <Gold.PLP.PLP>
-34.9826

> <Gold.PLP.part.hbond>
-6.0000

> <Gold.PLP.part.metal>
0.0000

> <Gold.PLP.part.buried>
-4.3985

> <Gold.PLP.part.nonpolar>
-24.9493

> <Gold.PLP.part.repulsive>
0.2161

> <Gold.PLP.ligand.clash>
0.0000

> <Gold.PLP.ligand.torsion>
0.5207

> <Gold.PLP.Chemscore.Hbond>
2.6163

> <Gold.PLP.Chemscore.CHOScore>
0.0000

> <Gold.PLP.Chemscore.Metal>
0.0000

> <Gold.Chemscore.Hbonds>
donor molecule, donor type, donor heavy atom, donor atom, acceptor molecule, acceptor atom, score
      P1  H  6933  6944       L1     8  0.62
      P1  H  6934  6946       L1     8  0.95
      P1  H  7989  7998       L1    13  0.78

> <Gold.PLP.Chemscore.Internal.Correction>
0.0466

> <Gold.Rescore>
     Score         DG    S(hbond)    S(metal)    S(lipo)     H(rot)  DE(clash)    DE(int)     intcor
     14.49     -15.22       1.48        0.00      79.11       1.74       0.05       0.68       ----

> <Gold.Chemscore.Fitness>
14.4910

> <Gold.Chemscore.DG>
-15.2229

> <Gold.Chemscore.ZeroCoef>
-5.4800

> <Gold.Chemscore.Hbond>
1.4821

> <Gold.Chemscore.Metal>
0.0000

> <Gold.Chemscore.Lipo>
79.1051

> <Gold.Chemscore.Internal_Hbond>
0.0000

> <Gold.Chemscore.DEClash>
0.0495

> <Gold.Chemscore.DEInternal>
0.6823

> <Gold.Chemscore.Rot>
1.7433

> <Gold.Chemscore.Internal.Correction>
   9.000000E+99

> <Gold.Chemscore.Hbonds>
donor molecule, donor type, donor heavy atom, donor atom, acceptor molecule, acceptor atom, score
      P1  H  6933  6944       L1     8  0.13
      P1  H  6934  6946       L1     8  0.13
      P1  H  7989  7998       L1    13  0.73

> <Gold.Chemscore.Hbond.Weighted>
-4.9504

> <Gold.Chemscore.Metal.Weighted>
-0.0000

> <Gold.Chemscore.Lipo.Weighted>
-9.2553

> <Gold.Chemscore.Internal_Hbond.Weighted>
0.0000

> <Gold.Chemscore.DEClash.Weighted>
0.0495

> <Gold.Chemscore.DEInternal.Weighted>
0.6823

> <Gold.Chemscore.Rot.Weighted>
4.4628

> <Gold.Chemscore.Internal.Correction.Weighted>
   9.000000E+99

> <Gold.Protein.RotatedTorsions>
[ 6907 6896 6895 6894 ] final -140.27 input  -60.11 | X-H torsion
[ 7974 7965 7964 7962 ] final -176.99 input  175.53 | X-H torsion
[ 8008 7997 7996 7995 ] final   85.98 input   59.86 | X-H torsion
[ 10167 10162 10161 10158 ] final  -56.35 input  -65.29 | X-H torsion
[ 10718 10713 10712 10709 ] final  -37.42 input   66.30 | X-H torsion
[ 10763 10752 10751 10750 ] final   34.11 input  -60.55 | X-H torsion
[ 11005 11000 10999 10996 ] final  -59.67 input  -57.11 | X-H torsion

> <Gold.Protein.ActiveResidues>
 VAL166  LYS551  ARG553  GLY616  TRP617  ASP618  TYR619  PRO620  LYS621  CYS622 
 ASP623  PHE694  ASN695  SER759  ASP760  ASP761  ALA762  ILE779  LEU786  VAL792 
 PHE793  MET794  SER795  GLU796  ALA797  LYS798  CYS799  TRP800  GLU811  SER814 

> <Gold.Protein.RotatedAtoms>
  151.0585  133.5564  159.2636 H   0  0  0  0  0  0  0  0  0  0  0  0  # atno 6907 bound_to 6896
  151.2548  135.0633  159.9085 H   0  0  0  0  0  0  0  0  0  0  0  0  # atno 6908 bound_to 6896
  152.5394  134.0340  159.8091 H   0  0  0  0  0  0  0  0  0  0  0  0  # atno 6909 bound_to 6896
  144.7127  140.1086  143.6412 H   0  0  0  0  0  0  0  0  0  0  0  0  # atno 7974 bound_to 7965
  155.9570  140.3396  155.6457 H   0  0  0  0  0  0  0  0  0  0  0  0  # atno 8008 bound_to 7997
  155.6847  140.0742  157.2489 H   0  0  0  0  0  0  0  0  0  0  0  0  # atno 8009 bound_to 7997
  154.4134  140.1668  156.2008 H   0  0  0  0  0  0  0  0  0  0  0  0  # atno 8010 bound_to 7997
  140.6322  143.2465  151.5212 H   0  0  0  0  0  0  0  0  0  0  0  0  # atno 10167 bound_to 10162
  156.3154  130.4258  149.8010 H   0  0  0  0  0  0  0  0  0  0  0  0  # atno 10718 bound_to 10713
  153.0179  135.6369  154.1617 H   0  0  0  0  0  0  0  0  0  0  0  0  # atno 10763 bound_to 10752
  154.1355  135.2838  155.3176 H   0  0  0  0  0  0  0  0  0  0  0  0  # atno 10764 bound_to 10752
  154.6163  135.5540  153.7588 H   0  0  0  0  0  0  0  0  0  0  0  0  # atno 10765 bound_to 10752
  141.1257  133.6617  156.5107 H   0  0  0  0  0  0  0  0  0  0  0  0  # atno 11005 bound_to 11000
  145.9474  139.2710  143.1232 LP  0  0  0  0  0  0  0  0  0  0  0  0  # atno 17320 bound_to 7965
  145.9359  140.9015  143.0332 LP  0  0  0  0  0  0  0  0  0  0  0  0  # atno 17321 bound_to 7965
  139.5535  144.2335  152.1572 LP  0  0  0  0  0  0  0  0  0  0  0  0  # atno 17342 bound_to 10162
  140.1582  144.5051  150.6648 LP  0  0  0  0  0  0  0  0  0  0  0  0  # atno 17343 bound_to 10162
  156.5337  130.8269  151.3246 LP  0  0  0  0  0  0  0  0  0  0  0  0  # atno 17370 bound_to 10713
  157.7400  130.9843  150.2352 LP  0  0  0  0  0  0  0  0  0  0  0  0  # atno 17371 bound_to 10713
  140.4371  134.7049  157.4972 LP  0  0  0  0  0  0  0  0  0  0  0  0  # atno 17394 bound_to 11000
  140.0254  134.6484  155.9180 LP  0  0  0  0  0  0  0  0  0  0  0  0  # atno 17395 bound_to 11000

$$$$
