#       Name:                AV-unprocessed.smi:1029
#       Creating user name   scv26
#       Creation time:       Fri Mar 27 02:45:08 2020


#       File generated by GOLD software.
#

@<TRIPOS>MOLECULE
AV-unprocessed.smi:1029
    53    54     1
SMALL
NO_CHARGES


@<TRIPOS>ATOM
      1 ****        -7.8121   4.5239  -1.3485 C.3            1 S1                 0.0000
      2 ****        -6.3298   4.3453  -1.2011 C.2            1 S1                 0.0000
      3 ****        -5.5942   3.1336  -1.0805 C.2            1 S1                 0.0000
      4 ****        -4.3011   3.5729  -0.9775 C.2            1 S1                 0.0000
      5 ****        -3.1667   2.8368  -0.8467 N.am           1 S1                 0.0000
      6 ****        -3.0354   1.5036  -0.7300 C.2            1 S1                 0.0000
      7 ****        -3.9604   0.6917  -0.7034 O.2            1 S1                 0.0000
      8 ****        -1.7471   1.1474  -0.6406 N.am           1 S1                 0.0000
      9 ****        -1.2867  -0.2304  -0.5237 C.3            1 S1                 0.0000
     10 ****         0.2448  -0.2956  -0.3938 C.3            1 S1                 0.0000
     11 ****         0.8079  -0.0370  -1.6655 O.3            1 S1                 0.0000
     12 ****         0.7128  -1.6956   0.0537 C.3            1 S1                 0.0000
     13 ****         2.1781  -1.7618   0.2918 N.4            1 S1                 1.0000
     14 ****         2.7136  -3.1368   0.1191 C.3            1 S1                 0.0000
     15 ****         4.2471  -3.1576   0.2360 C.3            1 S1                 0.0000
     16 ****         4.7126  -2.5675   1.5772 C.3            1 S1                 0.0000
     17 ****         6.2430  -2.5596   1.6957 C.3            1 S1                 0.0000
     18 ****         4.1196  -1.1582   1.7403 C.3            1 S1                 0.0000
     19 ****         2.5885  -1.1772   1.5966 C.3            1 S1                 0.0000
     20 ****        -4.2360   4.9252  -1.0330 O.3            1 S1                 0.0000
     21 ****        -5.5416   5.4101  -1.1739 N.2            1 S1                 0.0000
     22 ****        -8.3232   3.5617  -1.3852 H              1 S1                 0.0000
     23 ****        -8.0539   5.0623  -2.2653 H              1 S1                 0.0000
     24 ****        -8.2250   5.0868  -0.5109 H              1 S1                 0.0000
     25 ****        -5.9722   2.1224  -1.0749 H              1 S1                 0.0000
     26 ****        -2.3101   3.3706  -0.8364 H              1 S1                 0.0000
     27 ****        -1.0418   1.8693  -0.6733 H              1 S1                 0.0000
     28 ****        -1.7455  -0.6598   0.3686 H              1 S1                 0.0000
     29 ****        -1.6346  -0.8216  -1.3729 H              1 S1                 0.0000
     30 ****         0.5817   0.4645   0.3109 H              1 S1                 0.0000
     31 ****         0.4260  -0.6319  -2.2932 H              1 S1                 0.0000
     32 ****         0.1916  -2.0035   0.9615 H              1 S1                 0.0000
     33 ****         0.4276  -2.4162  -0.7149 H              1 S1                 0.0000
     34 ****         2.2692  -3.7984   0.8646 H              1 S1                 0.0000
     35 ****         2.4277  -3.5236  -0.8598 H              1 S1                 0.0000
     36 ****         4.6081  -4.1816   0.1330 H              1 S1                 0.0000
     37 ****         4.6829  -2.5924  -0.5893 H              1 S1                 0.0000
     38 ****         4.3219  -3.1961   2.3788 H              1 S1                 0.0000
     39 ****         6.6995  -1.9451   0.9189 H              1 S1                 0.0000
     40 ****         6.6489  -3.5675   1.6041 H              1 S1                 0.0000
     41 ****         6.5598  -2.1648   2.6616 H              1 S1                 0.0000
     42 ****         4.3908  -0.7501   2.7148 H              1 S1                 0.0000
     43 ****         4.5471  -0.4862   0.9946 H              1 S1                 0.0000
     44 ****         2.2136  -0.1590   1.6924 H              1 S1                 0.0000
     45 ****         2.1448  -1.7531   2.4103 H              1 S1                 0.0000
     46 ****         2.6065  -1.2018  -0.4319 H              1 S1                 0.0000
     47 ****        -4.9062   1.0090  -0.7716 LP             1 S1                 0.0000
     48 ****        -3.7659  -0.2850  -0.6135 LP             1 S1                 0.0000
     49 ****         1.7976  -0.1755  -1.6296 LP             1 S1                 0.0000
     50 ****         0.6130   0.9063  -1.9342 LP             1 S1                 0.0000
     51 ****        -3.6817   5.2074  -1.8160 LP             1 S1                 0.0000
     52 ****        -3.8296   5.2812  -0.1914 LP             1 S1                 0.0000
     53 ****        -5.8228   6.3675  -1.2406 LP             1 S1                 0.0000
@<TRIPOS>BOND
    1    1    2 1     
    2    1   22 1     
    3    1   23 1     
    4    1   24 1     
    5    2   21 2     
    6    2    3 1     
    7    3    4 2     
    8    3   25 1     
    9    4    5 1     
   10    4   20 1     
   11    5    6 am    
   12    5   26 1     
   13    6    7 2     
   14    6    8 am    
   15    8    9 1     
   16    8   27 1     
   17    9   10 1     
   18    9   28 1     
   19    9   29 1     
   20   10   11 1     
   21   10   12 1     
   22   10   30 1     
   23   11   31 1     
   24   12   13 1     
   25   12   32 1     
   26   12   33 1     
   27   13   19 1     
   28   13   14 1     
   29   13   46 1     
   30   14   15 1     
   31   14   34 1     
   32   14   35 1     
   33   15   16 1     
   34   15   36 1     
   35   15   37 1     
   36   16   17 1     
   37   16   18 1     
   38   16   38 1     
   39   17   39 1     
   40   17   40 1     
   41   17   41 1     
   42   18   19 1     
   43   18   42 1     
   44   18   43 1     
   45   19   44 1     
   46   19   45 1     
   47   20   21 1     
   48    7   47 1     
   49    7   48 1     
   50   11   49 1     
   51   11   50 1     
   52   20   51 1     
   53   20   52 1     
   54   21   53 1     
@<TRIPOS>SUBSTRUCTURE
      1 S1             1
@<TRIPOS>SET
LONE_PAIRS      STATIC     ATOMS    <user>   **** ""
7 47 48 49 50 51 52 53
DONOR_HYDROGENS      STATIC     ATOMS    <user>   **** ""
4 26 27 31 46
ATOM$BLUE        STATIC     ATOMS    COLORGROUP SYSTEM
7 47 48 49 50 51 52 53
ATOM$RED        STATIC     ATOMS    COLORGROUP SYSTEM
4 26 27 31 46
