#       Name:                AV-unprocessed.smi:447
#       Creating user name   scv26
#       Creation time:       Thu Mar 26 22:59:10 2020


#       File generated by GOLD software.
#

@<TRIPOS>MOLECULE
AV-unprocessed.smi:447
    50    52     1
SMALL
NO_CHARGES


@<TRIPOS>ATOM
      1 ****        -2.4846   4.6204   1.0156 C.3            1 S1                 0.0000
      2 ****        -2.0416   3.1992   0.6858 C.2            1 S1                 0.0000
      3 ****        -1.9427   2.8411  -0.4869 O.2            1 S1                 0.0000
      4 ****        -1.7776   2.4035   1.7335 N.am           1 S1                 0.0000
      5 ****        -1.3223   1.0148   1.6574 C.3            1 S1                 0.0000
      6 ****        -1.7431   0.2662   2.9292 C.3            1 S1                 0.0000
      7 ****         0.1750   0.9861   1.4600 C.2            1 S1                 0.0000
      8 ****         0.9902   1.8904   2.0128 N.2            1 S1                 0.0000
      9 ****         2.2389   1.4807   1.5924 C.ar           1 S1                 0.0000
     10 ****         3.5166   2.0354   1.8317 C.ar           1 S1                 0.0000
     11 ****         4.6700   1.4289   1.2925 C.ar           1 S1                 0.0000
     12 ****         4.5625   0.2608   0.5101 C.ar           1 S1                 0.0000
     13 ****         3.2987  -0.3086   0.2618 C.ar           1 S1                 0.0000
     14 ****         2.1505   0.3029   0.8000 C.ar           1 S1                 0.0000
     15 ****         0.7926   0.0053   0.7493 N.pl3          1 S1                 0.0000
     16 ****         0.2048  -1.1424   0.0689 C.3            1 S1                 0.0000
     17 ****         0.0757  -0.9343  -1.4530 C.3            1 S1                 0.0000
     18 ****        -0.6940   0.2202  -1.7230 O.3            1 S1                 0.0000
     19 ****        -0.4900  -2.1722  -2.1309 C.ar           1 S1                 0.0000
     20 ****         0.3727  -3.0677  -2.7992 C.ar           1 S1                 0.0000
     21 ****        -0.1449  -4.2202  -3.4223 C.ar           1 S1                 0.0000
     22 ****        -1.5273  -4.4847  -3.3789 C.ar           1 S1                 0.0000
     23 ****        -2.3922  -3.5974  -2.7101 C.ar           1 S1                 0.0000
     24 ****        -1.8752  -2.4452  -2.0866 C.ar           1 S1                 0.0000
     25 ****        -1.7979   5.0810   1.7266 H              1 S1                 0.0000
     26 ****        -3.4839   4.6143   1.4521 H              1 S1                 0.0000
     27 ****        -2.5077   5.2375   0.1166 H              1 S1                 0.0000
     28 ****        -1.8799   2.7943   2.6587 H              1 S1                 0.0000
     29 ****        -1.8140   0.5476   0.8038 H              1 S1                 0.0000
     30 ****        -1.4350  -0.7789   2.8884 H              1 S1                 0.0000
     31 ****        -2.8258   0.2854   3.0559 H              1 S1                 0.0000
     32 ****        -1.2939   0.7096   3.8187 H              1 S1                 0.0000
     33 ****         3.6089   2.9291   2.4308 H              1 S1                 0.0000
     34 ****         5.6416   1.8615   1.4812 H              1 S1                 0.0000
     35 ****         5.4509  -0.1981   0.1014 H              1 S1                 0.0000
     36 ****         3.2126  -1.2035  -0.3364 H              1 S1                 0.0000
     37 ****         0.8397  -2.0072   0.2661 H              1 S1                 0.0000
     38 ****        -0.7607  -1.3816   0.5130 H              1 S1                 0.0000
     39 ****         1.0677  -0.7443  -1.8651 H              1 S1                 0.0000
     40 ****        -0.6691   0.3879  -2.6526 H              1 S1                 0.0000
     41 ****         1.4349  -2.8747  -2.8358 H              1 S1                 0.0000
     42 ****         0.5191  -4.9022  -3.9330 H              1 S1                 0.0000
     43 ****        -1.9241  -5.3686  -3.8564 H              1 S1                 0.0000
     44 ****        -3.4524  -3.8009  -2.6741 H              1 S1                 0.0000
     45 ****        -2.5458  -1.7722  -1.5721 H              1 S1                 0.0000
     46 ****        -2.1529   3.4823  -1.2249 LP             1 S1                 0.0000
     47 ****        -1.6520   1.9088  -0.7021 LP             1 S1                 0.0000
     48 ****         0.7530   2.6721   2.5896 LP             1 S1                 0.0000
     49 ****        -0.3134   1.0021  -1.2291 LP             1 S1                 0.0000
     50 ****        -1.6391   0.0706  -1.4327 LP             1 S1                 0.0000
@<TRIPOS>BOND
    1    1    2 1     
    2    1   25 1     
    3    1   26 1     
    4    1   27 1     
    5    2    3 2     
    6    2    4 am    
    7    4    5 1     
    8    4   28 1     
    9    5    6 1     
   10    5    7 1     
   11    5   29 1     
   12    6   30 1     
   13    6   31 1     
   14    6   32 1     
   15    7   15 1     
   16    7    8 2     
   17    8    9 1     
   18    9   14 ar    
   19    9   10 ar    
   20   10   11 ar    
   21   10   33 1     
   22   11   12 ar    
   23   11   34 1     
   24   12   13 ar    
   25   12   35 1     
   26   13   14 ar    
   27   13   36 1     
   28   14   15 1     
   29   15   16 1     
   30   16   17 1     
   31   16   37 1     
   32   16   38 1     
   33   17   18 1     
   34   17   19 1     
   35   17   39 1     
   36   18   40 1     
   37   19   24 ar    
   38   19   20 ar    
   39   20   21 ar    
   40   20   41 1     
   41   21   22 ar    
   42   21   42 1     
   43   22   23 ar    
   44   22   43 1     
   45   23   24 ar    
   46   23   44 1     
   47   24   45 1     
   48    3   46 1     
   49    3   47 1     
   50    8   48 1     
   51   18   49 1     
   52   18   50 1     
@<TRIPOS>SUBSTRUCTURE
      1 S1             1
@<TRIPOS>SET
LONE_PAIRS      STATIC     ATOMS    <user>   **** ""
5 46 47 48 49 50
DONOR_HYDROGENS      STATIC     ATOMS    <user>   **** ""
2 28 40
ATOM$BLUE        STATIC     ATOMS    COLORGROUP SYSTEM
5 46 47 48 49 50
ATOM$RED        STATIC     ATOMS    COLORGROUP SYSTEM
2 28 40
