#       Name:                AV-unprocessed.smi:2063
#       Creating user name   scv26
#       Creation time:       Fri Mar 27 11:09:50 2020


#       File generated by GOLD software.
#

@<TRIPOS>MOLECULE
AV-unprocessed.smi:2063
    45    46     1
SMALL
NO_CHARGES


@<TRIPOS>ATOM
      1 ****        -6.2480   1.7151   1.1727 C.3            1 S1                 0.0000
      2 ****        -5.3021   2.0405   0.0075 C.3            1 S1                 0.0000
      3 ****        -5.9007   1.7070  -1.3668 C.3            1 S1                 0.0000
      4 ****        -3.9466   1.4332   0.1948 C.2            1 S1                 0.0000
      5 ****        -3.7382   0.1099   0.2273 N.2            1 S1                 0.0000
      6 ****        -2.4001  -0.2099   0.4067 N.2            1 S1                 0.0000
      7 ****        -1.6336   0.8845   0.5067 C.2            1 S1                 0.0000
      8 ****        -0.2257   0.8476   0.6892 N.am           1 S1                 0.0000
      9 ****         0.5719  -0.2292   0.8006 C.2            1 S1                 0.0000
     10 ****         0.1924  -1.4002   0.7813 O.2            1 S1                 0.0000
     11 ****         1.8568   0.1328   0.9341 N.am           1 S1                 0.0000
     12 ****         2.9925  -0.7768   1.0817 C.3            1 S1                 0.0000
     13 ****         3.9118  -0.2404   2.1889 C.3            1 S1                 0.0000
     14 ****         3.7411  -0.9326  -0.2588 C.3            1 S1                 0.0000
     15 ****         2.8982  -1.4728  -1.4156 C.3            1 S1                 0.0000
     16 ****         3.9618  -2.0283  -2.3337 C.3            1 S1                 0.0000
     17 ****         4.9575  -2.6189  -1.3396 C.3            1 S1                 0.0000
     18 ****         4.8062  -1.8724  -0.1341 O.3            1 S1                 0.0000
     19 ****        -2.4941   2.4096   0.3885 S.3            1 S1                 0.0000
     20 ****        -5.8261   2.0429   2.1232 H              1 S1                 0.0000
     21 ****        -6.4367   0.6433   1.2437 H              1 S1                 0.0000
     22 ****        -7.2096   2.2139   1.0487 H              1 S1                 0.0000
     23 ****        -5.1582   3.1216   0.0236 H              1 S1                 0.0000
     24 ****        -5.2375   2.0270  -2.1711 H              1 S1                 0.0000
     25 ****        -6.8587   2.2075  -1.5101 H              1 S1                 0.0000
     26 ****        -6.0666   0.6350  -1.4780 H              1 S1                 0.0000
     27 ****         0.2288   1.7476   0.7315 H              1 S1                 0.0000
     28 ****         2.0705   1.1193   0.9354 H              1 S1                 0.0000
     29 ****         2.6395  -1.7603   1.3972 H              1 S1                 0.0000
     30 ****         4.7522  -0.9125   2.3636 H              1 S1                 0.0000
     31 ****         3.3734  -0.1400   3.1319 H              1 S1                 0.0000
     32 ****         4.3176   0.7384   1.9305 H              1 S1                 0.0000
     33 ****         4.1770   0.0227  -0.5570 H              1 S1                 0.0000
     34 ****         2.2446  -2.2769  -1.0739 H              1 S1                 0.0000
     35 ****         2.2824  -0.7081  -1.8897 H              1 S1                 0.0000
     36 ****         3.5785  -2.7632  -3.0422 H              1 S1                 0.0000
     37 ****         4.4275  -1.2188  -2.8975 H              1 S1                 0.0000
     38 ****         4.7181  -3.6622  -1.1319 H              1 S1                 0.0000
     39 ****         5.9824  -2.5740  -1.7084 H              1 S1                 0.0000
     40 ****        -4.4651  -0.5704   0.1329 LP             1 S1                 0.0000
     41 ****        -2.0497  -1.1453   0.4555 LP             1 S1                 0.0000
     42 ****        -0.7799  -1.6091   0.6759 LP             1 S1                 0.0000
     43 ****         0.8564  -2.1426   0.8709 LP             1 S1                 0.0000
     44 ****         4.6052  -2.4997   0.6183 LP             1 S1                 0.0000
     45 ****         5.6564  -1.3825   0.0585 LP             1 S1                 0.0000
@<TRIPOS>BOND
    1    1    2 1     
    2    1   20 1     
    3    1   21 1     
    4    1   22 1     
    5    2    3 1     
    6    2    4 1     
    7    2   23 1     
    8    3   24 1     
    9    3   25 1     
   10    3   26 1     
   11    4   19 1     
   12    4    5 2     
   13    5    6 1     
   14    6    7 2     
   15    7    8 1     
   16    7   19 1     
   17    8    9 am    
   18    8   27 1     
   19    9   10 2     
   20    9   11 am    
   21   11   12 1     
   22   11   28 1     
   23   12   13 1     
   24   12   14 1     
   25   12   29 1     
   26   13   30 1     
   27   13   31 1     
   28   13   32 1     
   29   14   18 1     
   30   14   15 1     
   31   14   33 1     
   32   15   16 1     
   33   15   34 1     
   34   15   35 1     
   35   16   17 1     
   36   16   36 1     
   37   16   37 1     
   38   17   18 1     
   39   17   38 1     
   40   17   39 1     
   41    5   40 1     
   42    6   41 1     
   43   10   42 1     
   44   10   43 1     
   45   18   44 1     
   46   18   45 1     
@<TRIPOS>SUBSTRUCTURE
      1 S1             1
@<TRIPOS>SET
LONE_PAIRS      STATIC     ATOMS    <user>   **** ""
6 40 41 42 43 44 45
DONOR_HYDROGENS      STATIC     ATOMS    <user>   **** ""
2 27 28
ATOM$BLUE        STATIC     ATOMS    COLORGROUP SYSTEM
6 40 41 42 43 44 45
ATOM$RED        STATIC     ATOMS    COLORGROUP SYSTEM
2 27 28
