AV-unprocessed.smi:53|AV-procd|sdf|519|dock1
  -GOLD-   2262016393D 1   1.00000     0.00000
 Structure written by MMmdl.
 30 31  0  0  0  0  0  0  0  0  1 V2000
  152.8456  140.8910  159.1218 N   0  0  0  0  0  0  0  0  0  0  0  0
  152.0599  140.9619  158.0383 C   0  0  0  0  0  0  0  0  0  0  0  0
  150.9236  141.8549  158.0181 C   0  0  0  0  0  0  0  0  0  0  0  0
  150.1787  141.8710  156.8908 C   0  0  0  0  0  0  0  0  0  0  0  0
  150.4799  141.0731  155.7943 N   0  0  0  0  0  0  0  0  0  0  0  0
  149.6421  141.0872  154.5283 C   0  0  2  0  0  0  0  0  0  0  0  0
  148.6686  142.0878  154.6185 O   0  0  0  0  0  0  0  0  0  0  0  0
  147.3784  141.5064  154.7879 C   0  0  1  0  0  0  0  0  0  0  0  0
  146.3000  142.4842  154.2971 C   0  0  0  0  0  0  0  0  0  0  0  0
  145.0182  141.9998  154.6369 O   0  0  0  0  0  0  0  0  0  0  0  0
  147.4976  140.2423  153.9382 C   0  0  2  0  0  0  0  0  0  0  0  0
  146.4857  139.2905  154.2101 O   0  0  0  0  0  0  0  0  0  0  0  0
  148.9027  139.7512  154.2721 C   0  0  2  0  0  0  0  0  0  0  0  0
  148.9074  138.8738  155.3891 O   0  0  0  0  0  0  0  0  0  0  0  0
  151.5977  140.2061  155.8472 C   0  0  0  0  0  0  0  0  0  0  0  0
  151.8894  139.4711  154.9043 O   0  0  0  0  0  0  0  0  0  0  0  0
  152.3413  140.2041  156.9963 N   0  0  0  0  0  0  0  0  0  0  0  0
  150.3220  141.3692  153.7221 H   0  0  0  0  0  0  0  0  0  0  0  0
  147.2200  141.2324  155.8327 H   0  0  0  0  0  0  0  0  0  0  0  0
  147.4561  140.5091  152.8808 H   0  0  0  0  0  0  0  0  0  0  0  0
  149.3594  139.2362  153.4264 H   0  0  0  0  0  0  0  0  0  0  0  0
  153.6381  140.2654  159.1324 H   0  0  0  0  0  0  0  0  0  0  0  0
  152.6421  141.4649  159.9273 H   0  0  0  0  0  0  0  0  0  0  0  0
  150.6538  142.4929  158.8477 H   0  0  0  0  0  0  0  0  0  0  0  0
  149.3283  142.5352  156.8714 H   0  0  0  0  0  0  0  0  0  0  0  0
  146.4516  143.4825  154.7088 H   0  0  0  0  0  0  0  0  0  0  0  0
  146.3382  142.5720  153.2109 H   0  0  0  0  0  0  0  0  0  0  0  0
  144.7357  141.3993  153.9641 H   0  0  0  0  0  0  0  0  0  0  0  0
  146.8913  138.5174  154.5718 H   0  0  0  0  0  0  0  0  0  0  0  0
  148.1460  138.3163  155.3320 H   0  0  0  0  0  0  0  0  0  0  0  0
  1  2  1  0  0  0  0
  1 22  1  0  0  0  0
  1 23  1  0  0  0  0
  2 17  2  0  0  0  0
  2  3  1  0  0  0  0
  3  4  2  0  0  0  0
  3 24  1  0  0  0  0
  4  5  1  0  0  0  0
  4 25  1  0  0  0  0
  5  6  1  0  0  0  0
  5 15  1  0  0  0  0
  6 18  1  0  0  0  0
  6 13  1  0  0  0  0
  6  7  1  0  0  0  0
  7  8  1  0  0  0  0
  8 19  1  0  0  0  0
  8  9  1  0  0  0  0
  8 11  1  0  0  0  0
  9 10  1  0  0  0  0
  9 26  1  0  0  0  0
  9 27  1  0  0  0  0
 10 28  1  0  0  0  0
 11 20  1  0  0  0  0
 11 12  1  0  0  0  0
 11 13  1  0  0  0  0
 12 29  1  0  0  0  0
 13 21  1  0  0  0  0
 13 14  1  0  0  0  0
 14 30  1  0  0  0  0
 15 16  2  0  0  0  0
 15 17  1  0  0  0  0
M  END
> <s_m_source_file>
AV-unprocessed.smi

> <i_m_source_file_index>
53

> <i_lp_mmshare_version>
43012

> <i_f3d_flags>
0

> <s_epik_input>
W05IMl1jMVtjSF1bY0hdbihjKD1PKW4xKVtDQEBIXTJPW0NASF0oW0NIMl1bT0hdKVtDQEBIXShbT0hdKVtDQEBIXTJbT0hd

> <s_epik_cmdline>
J2VwaWtfcHl0aG9uJywgJy1waCcsICc3LjAnLCAnLXRuJywgJzgnLCAnLW1hJywgJzIwMCcsICctbWV0YWxfYmluZGluZycsICctaW1hZScsICc8aW5maWxlLm1hZT4nLCAnLW9tYWUnLCAnPG91dGZpbGUubWFlPic=

> <r_lp_tautomer_probability>
0.99996

> <r_epik_Ionization_Penalty>
0.00069087

> <r_epik_Ionization_Penalty_Charging>
2.61959e-08

> <r_epik_Ionization_Penalty_Neutral>
0.000690844

> <r_epik_State_Penalty>
1.15523e-05

> <r_epik_Charging_Adjusted_Penalty>
1.15785e-05

> <i_epik_Tot_Q>
0

> <i_epik_Tot_abs_Q>
0

> <r_epik_Metal_State_Penalty>
-0

> <b_epik_Metal_Only>
0

> <s_epik_Chemistry_Notes>
This compound contains an acetal/aminal-like group ( X-CH(R)-Y where X, Y are N, S, or O) that may be acid/base labile, releasing an aldehyde.

> <s_lp_Force_Field>
OPLS_2005

> <r_lp_Energy>
37.6577

> <b_lp_Chiralities_Consistent>
1

> <s_lp_Variant>
AV-unprocessed.smi:53-7

> <Gold.Version>
5.8.1

> <Gold.Id.Protein>
6NUR|6NUR_protein|mol2

> <Gold.PLP.Fitness>
37.1212

> <Gold.PLP.PLP>
-25.9409

> <Gold.PLP.part.hbond>
-3.7130

> <Gold.PLP.part.metal>
0.0000

> <Gold.PLP.part.buried>
-1.7321

> <Gold.PLP.part.nonpolar>
-22.7460

> <Gold.PLP.part.repulsive>
2.2586

> <Gold.PLP.ligand.clash>
0.0000

> <Gold.PLP.ligand.torsion>
0.1440

> <Gold.PLP.Chemscore.Hbond>
2.7936

> <Gold.PLP.Chemscore.CHOScore>
1.0000

> <Gold.PLP.Chemscore.Metal>
0.0000

> <Gold.Chemscore.Hbonds>
donor molecule, donor type, donor heavy atom, donor atom, acceptor molecule, acceptor atom, score
      L1  H    10    28       P1 10175  1.00
      P1  H  7989  7998       L1    16  0.79
      P1  H  7997  8008       L1    17  0.93
      L1  C     4    25       P1  8028  0.99

> <Gold.PLP.Chemscore.Internal.Correction>
0.0875

> <Gold.Rescore>
     Score         DG    S(hbond)    S(metal)    S(lipo)     H(rot)  DE(clash)    DE(int)     intcor
      6.95      -7.61       2.44        0.00      29.68       3.71       0.41       0.25       ----

> <Gold.Chemscore.Fitness>
6.9464

> <Gold.Chemscore.DG>
-7.6088

> <Gold.Chemscore.ZeroCoef>
-5.4800

> <Gold.Chemscore.Hbond>
2.4410

> <Gold.Chemscore.Metal>
0.0000

> <Gold.Chemscore.Lipo>
29.6764

> <Gold.Chemscore.Internal_Hbond>
0.0000

> <Gold.Chemscore.DEClash>
0.4147

> <Gold.Chemscore.DEInternal>
0.2477

> <Gold.Chemscore.Rot>
3.7095

> <Gold.Chemscore.Internal.Correction>
   9.000000E+99

> <Gold.Chemscore.Hbonds>
donor molecule, donor type, donor heavy atom, donor atom, acceptor molecule, acceptor atom, score
      L1  H    10    28       P1 10175  0.33
      P1  H  7989  7998       L1    16  0.11
      P1  H  7997  8008       L1    17  0.54

> <Gold.Chemscore.Hbond.Weighted>
-8.1531

> <Gold.Chemscore.Metal.Weighted>
-0.0000

> <Gold.Chemscore.Lipo.Weighted>
-3.4721

> <Gold.Chemscore.Internal_Hbond.Weighted>
0.0000

> <Gold.Chemscore.DEClash.Weighted>
0.4147

> <Gold.Chemscore.DEInternal.Weighted>
0.2477

> <Gold.Chemscore.Rot.Weighted>
9.4964

> <Gold.Chemscore.Internal.Correction.Weighted>
   9.000000E+99

> <Gold.Protein.RotatedTorsions>
[ 6907 6896 6895 6894 ] final  156.32 input  -60.11 | X-H torsion
[ 7974 7965 7964 7962 ] final  123.34 input  175.53 | X-H torsion
[ 8008 7997 7996 7995 ] final  -51.25 input   59.86 | X-H torsion
[ 10167 10162 10161 10158 ] final   13.16 input  -65.29 | X-H torsion
[ 10718 10713 10712 10709 ] final   80.17 input   66.30 | X-H torsion
[ 10763 10752 10751 10750 ] final   36.45 input  -60.55 | X-H torsion
[ 11005 11000 10999 10996 ] final  -94.84 input  -57.11 | X-H torsion

> <Gold.Protein.ActiveResidues>
 VAL166  LYS551  ARG553  GLY616  TRP617  ASP618  TYR619  PRO620  LYS621  CYS622 
 ASP623  PHE694  ASN695  SER759  ASP760  ASP761  ALA762  ILE779  LEU786  VAL792 
 PHE793  MET794  SER795  GLU796  ALA797  LYS798  CYS799  TRP800  GLU811  SER814 

> <Gold.Protein.RotatedAtoms>
  152.0313  133.3938  159.4298 H   0  0  0  0  0  0  0  0  0  0  0  0  # atno 6907 bound_to 6896
  150.6882  134.3517  159.4921 H   0  0  0  0  0  0  0  0  0  0  0  0  # atno 6908 bound_to 6896
  152.1304  134.9139  160.0609 H   0  0  0  0  0  0  0  0  0  0  0  0  # atno 6909 bound_to 6896
  145.0970  139.3545  143.4831 H   0  0  0  0  0  0  0  0  0  0  0  0  # atno 7974 bound_to 7965
  154.4079  140.1252  156.4799 H   0  0  0  0  0  0  0  0  0  0  0  0  # atno 8008 bound_to 7997
  155.7095  140.3494  155.4948 H   0  0  0  0  0  0  0  0  0  0  0  0  # atno 8009 bound_to 7997
  155.9313  140.1070  157.1120 H   0  0  0  0  0  0  0  0  0  0  0  0  # atno 8010 bound_to 7997
  140.6021  143.8583  150.6976 H   0  0  0  0  0  0  0  0  0  0  0  0  # atno 10167 bound_to 10162
  157.6798  130.9947  150.2039 H   0  0  0  0  0  0  0  0  0  0  0  0  # atno 10718 bound_to 10713
  153.0077  135.6305  154.1987 H   0  0  0  0  0  0  0  0  0  0  0  0  # atno 10763 bound_to 10752
  154.1730  135.2817  155.3077 H   0  0  0  0  0  0  0  0  0  0  0  0  # atno 10764 bound_to 10752
  154.5894  135.5622  153.7323 H   0  0  0  0  0  0  0  0  0  0  0  0  # atno 10765 bound_to 10752
  141.1459  133.7984  157.0353 H   0  0  0  0  0  0  0  0  0  0  0  0  # atno 11005 bound_to 11000
  146.3530  140.0831  142.8616 LP  0  0  0  0  0  0  0  0  0  0  0  0  # atno 17320 bound_to 7965
  145.0999  140.9339  143.4719 LP  0  0  0  0  0  0  0  0  0  0  0  0  # atno 17321 bound_to 7965
  140.2131  143.3867  152.1702 LP  0  0  0  0  0  0  0  0  0  0  0  0  # atno 17342 bound_to 10162
  139.5298  144.7146  151.5095 LP  0  0  0  0  0  0  0  0  0  0  0  0  # atno 17343 bound_to 10162
  156.2724  130.3723  149.8018 LP  0  0  0  0  0  0  0  0  0  0  0  0  # atno 17370 bound_to 10713
  156.5730  130.8433  151.3362 LP  0  0  0  0  0  0  0  0  0  0  0  0  # atno 17371 bound_to 10713
  140.0728  134.9693  157.1495 LP  0  0  0  0  0  0  0  0  0  0  0  0  # atno 17394 bound_to 11000
  140.3687  134.2414  155.7180 LP  0  0  0  0  0  0  0  0  0  0  0  0  # atno 17395 bound_to 11000

$$$$
