AV-unprocessed.smi:135|AV-procd|sdf|1169|dock5
  -GOLD-   2262018313D 1   1.00000     0.00000
 Structure written by MMmdl.
 51 54  0  0  0  0  0  0  0  0  1 V2000
  147.8438  136.1153  155.2429 O   0  0  0  0  0  0  0  0  0  0  0  0
  148.9390  136.4997  155.6550 C   0  0  0  0  0  0  0  0  0  0  0  0
  149.9135  135.5158  156.3200 C   0  0  0  0  0  0  0  0  0  0  0  0
  149.2946  134.7119  157.3960 N   0  0  0  0  0  0  0  0  0  0  0  0
  149.4767  133.3072  157.3790 C   0  0  0  0  0  0  0  0  0  0  0  0
  150.1397  132.7598  156.4968 O   0  0  0  0  0  0  0  0  0  0  0  0
  148.8254  132.5750  158.4590 C   0  0  0  0  0  0  0  0  0  0  0  0
  148.9403  131.2374  158.5190 F   0  0  0  0  0  0  0  0  0  0  0  0
  148.1049  133.2185  159.4006 C   0  0  0  0  0  0  0  0  0  0  0  0
  147.9400  134.5927  159.4089 N   0  0  0  0  0  0  0  0  0  0  0  0
  147.1000  135.2973  160.4556 C   0  0  2  0  0  0  0  0  0  0  0  0
  147.9869  136.1363  161.3986 C   0  0  0  0  0  0  0  0  0  0  0  0
  147.5963  135.6296  162.7734 C   0  0  0  0  0  0  0  0  0  0  0  0
  147.1585  134.2043  162.4743 C   0  0  0  0  0  0  0  0  0  0  0  0
  146.4451  134.3534  161.2546 O   0  0  0  0  0  0  0  0  0  0  0  0
  148.5227  135.3692  158.3833 C   0  0  0  0  0  0  0  0  0  0  0  0
  148.3566  136.5905  158.3506 O   0  0  0  0  0  0  0  0  0  0  0  0
  149.3776  137.7673  155.5685 N   0  0  0  0  0  0  0  0  0  0  0  0
  148.7195  138.8783  154.9779 C   0  0  0  0  0  0  0  0  0  0  0  0
  147.3610  138.8264  154.5839 C   0  0  0  0  0  0  0  0  0  0  0  0
  146.7348  139.9642  154.0408 C   0  0  0  0  0  0  0  0  0  0  0  0
  147.4542  141.1650  153.8993 C   0  0  0  0  0  0  0  0  0  0  0  0
  148.8012  141.2277  154.3020 C   0  0  0  0  0  0  0  0  0  0  0  0
  149.4392  140.0893  154.8361 C   0  0  0  0  0  0  0  0  0  0  0  0
  150.7542  140.1821  155.2191 O   0  0  0  0  0  0  0  0  0  0  0  0
  151.0169  140.7860  156.4235 C   0  0  0  0  0  0  0  0  0  0  0  0
  151.7014  140.1016  157.4523 C   0  0  0  0  0  0  0  0  0  0  0  0
  151.9569  140.7420  158.6805 C   0  0  0  0  0  0  0  0  0  0  0  0
  151.5345  142.0697  158.8845 C   0  0  0  0  0  0  0  0  0  0  0  0
  150.8612  142.7589  157.8578 C   0  0  0  0  0  0  0  0  0  0  0  0
  150.6066  142.1191  156.6293 C   0  0  0  0  0  0  0  0  0  0  0  0
  150.3417  134.8650  155.5553 H   0  0  0  0  0  0  0  0  0  0  0  0
  150.7686  136.0831  156.6903 H   0  0  0  0  0  0  0  0  0  0  0  0
  147.6441  132.6149  160.1674 H   0  0  0  0  0  0  0  0  0  0  0  0
  146.3666  135.8788  159.8942 H   0  0  0  0  0  0  0  0  0  0  0  0
  149.0425  135.9393  161.2060 H   0  0  0  0  0  0  0  0  0  0  0  0
  147.7957  137.2014  161.2670 H   0  0  0  0  0  0  0  0  0  0  0  0
  148.4103  135.6841  163.4967 H   0  0  0  0  0  0  0  0  0  0  0  0
  146.7540  136.2049  163.1601 H   0  0  0  0  0  0  0  0  0  0  0  0
  148.0223  133.5537  162.3304 H   0  0  0  0  0  0  0  0  0  0  0  0
  146.5317  133.7801  163.2586 H   0  0  0  0  0  0  0  0  0  0  0  0
  150.3340  137.9269  155.8498 H   0  0  0  0  0  0  0  0  0  0  0  0
  146.7803  137.9245  154.7068 H   0  0  0  0  0  0  0  0  0  0  0  0
  145.6982  139.9175  153.7412 H   0  0  0  0  0  0  0  0  0  0  0  0
  146.9717  142.0390  153.4873 H   0  0  0  0  0  0  0  0  0  0  0  0
  149.3503  142.1518  154.1963 H   0  0  0  0  0  0  0  0  0  0  0  0
  152.0302  139.0839  157.3038 H   0  0  0  0  0  0  0  0  0  0  0  0
  152.4768  140.2143  159.4664 H   0  0  0  0  0  0  0  0  0  0  0  0
  151.7285  142.5596  159.8273 H   0  0  0  0  0  0  0  0  0  0  0  0
  150.5375  143.7774  158.0131 H   0  0  0  0  0  0  0  0  0  0  0  0
  150.0872  142.6508  155.8459 H   0  0  0  0  0  0  0  0  0  0  0  0
  1  2  2  0  0  0  0
  2  3  1  0  0  0  0
  2 18  1  0  0  0  0
  3  4  1  0  0  0  0
  3 32  1  0  0  0  0
  3 33  1  0  0  0  0
  4 16  1  0  0  0  0
  4  5  1  0  0  0  0
  5  6  2  0  0  0  0
  5  7  1  0  0  0  0
  7  8  1  0  0  0  0
  7  9  2  0  0  0  0
  9 10  1  0  0  0  0
  9 34  1  0  0  0  0
 10 11  1  0  0  0  0
 10 16  1  0  0  0  0
 11 15  1  0  0  0  0
 11 12  1  0  0  0  0
 11 35  1  0  0  0  0
 12 13  1  0  0  0  0
 12 36  1  0  0  0  0
 12 37  1  0  0  0  0
 13 14  1  0  0  0  0
 13 38  1  0  0  0  0
 13 39  1  0  0  0  0
 14 15  1  0  0  0  0
 14 40  1  0  0  0  0
 14 41  1  0  0  0  0
 16 17  2  0  0  0  0
 18 19  1  0  0  0  0
 18 42  1  0  0  0  0
 19 24  1  0  0  0  0
 19 20  2  0  0  0  0
 20 21  1  0  0  0  0
 20 43  1  0  0  0  0
 21 22  2  0  0  0  0
 21 44  1  0  0  0  0
 22 23  1  0  0  0  0
 22 45  1  0  0  0  0
 23 24  2  0  0  0  0
 23 46  1  0  0  0  0
 24 25  1  0  0  0  0
 25 26  1  0  0  0  0
 26 31  1  0  0  0  0
 26 27  2  0  0  0  0
 27 28  1  0  0  0  0
 27 47  1  0  0  0  0
 28 29  2  0  0  0  0
 28 48  1  0  0  0  0
 29 30  1  0  0  0  0
 29 49  1  0  0  0  0
 30 31  2  0  0  0  0
 30 50  1  0  0  0  0
 31 51  1  0  0  0  0
M  END
> <s_m_source_file>
AV-unprocessed.smi

> <i_m_source_file_index>
135

> <i_lp_mmshare_version>
43012

> <i_f3d_flags>
0

> <s_epik_input>
TzFbQ0gyXVtDSDJdW0NIMl1bQ0BIXTFuKGMyPU8pW2NIXWMoRiljKD1PKW4yW0NIMl1DKD1PKVtOSF1jM1tjSF1bY0hdW2NIXVtjSF1jM09jNFtjSF1bY0hdW2NIXVtjSF1bY0hdNA==

> <s_epik_cmdline>
J2VwaWtfcHl0aG9uJywgJy1waCcsICc3LjAnLCAnLXRuJywgJzgnLCAnLW1hJywgJzIwMCcsICctbWV0YWxfYmluZGluZycsICctaW1hZScsICc8aW5maWxlLm1hZT4nLCAnLW9tYWUnLCAnPG91dGZpbGUubWFlPic=

> <r_lp_tautomer_probability>
1

> <r_epik_Ionization_Penalty>
1.89877e-06

> <r_epik_Ionization_Penalty_Charging>
3.88729e-08

> <r_epik_Ionization_Penalty_Neutral>
1.8599e-06

> <r_epik_State_Penalty>
-0

> <r_epik_Charging_Adjusted_Penalty>
3.88729e-08

> <i_epik_Tot_Q>
0

> <i_epik_Tot_abs_Q>
0

> <r_epik_Metal_State_Penalty>
-0

> <b_epik_Metal_Only>
0

> <s_epik_Chemistry_Notes>
This compound contains an acetal/aminal-like group ( X-CH(R)-Y where X, Y are N, S, or O) that may be acid/base labile, releasing an aldehyde.

> <s_lp_Force_Field>
OPLS_2005

> <r_lp_Energy>
40.0565

> <b_lp_Chiralities_Consistent>
1

> <s_lp_Variant>
AV-unprocessed.smi:135-1

> <Gold.Version>
5.8.1

> <Gold.Id.Protein>
6NUR|6NUR_protein|mol2

> <Gold.PLP.Fitness>
48.3951

> <Gold.PLP.PLP>
-46.6066

> <Gold.PLP.part.hbond>
-1.0000

> <Gold.PLP.part.metal>
0.0000

> <Gold.PLP.part.buried>
-6.2527

> <Gold.PLP.part.nonpolar>
-39.8874

> <Gold.PLP.part.repulsive>
0.1267

> <Gold.PLP.ligand.clash>
0.0000

> <Gold.PLP.ligand.torsion>
0.6299

> <Gold.PLP.Chemscore.Hbond>
1.0000

> <Gold.PLP.Chemscore.CHOScore>
0.0000

> <Gold.PLP.Chemscore.Metal>
0.0000

> <Gold.Chemscore.Hbonds>
donor molecule, donor type, donor heavy atom, donor atom, acceptor molecule, acceptor atom, score
      P1  H  7989  7998       L1    25  0.96

> <Gold.PLP.Chemscore.Internal.Correction>
0.0483

> <Gold.Rescore>
     Score         DG    S(hbond)    S(metal)    S(lipo)     H(rot)  DE(clash)    DE(int)     intcor
     12.51     -15.93       0.55        0.00     118.30       2.04       0.32       3.11       ----

> <Gold.Chemscore.Fitness>
12.5070

> <Gold.Chemscore.DG>
-15.9328

> <Gold.Chemscore.ZeroCoef>
-5.4800

> <Gold.Chemscore.Hbond>
0.5474

> <Gold.Chemscore.Metal>
0.0000

> <Gold.Chemscore.Lipo>
118.2985

> <Gold.Chemscore.Internal_Hbond>
0.0000

> <Gold.Chemscore.DEClash>
0.3168

> <Gold.Chemscore.DEInternal>
3.1090

> <Gold.Chemscore.Rot>
2.0377

> <Gold.Chemscore.Internal.Correction>
   9.000000E+99

> <Gold.Chemscore.Hbonds>
donor molecule, donor type, donor heavy atom, donor atom, acceptor molecule, acceptor atom, score
      P1  H  7989  7998       L1    25  0.30

> <Gold.Chemscore.Hbond.Weighted>
-1.8284

> <Gold.Chemscore.Metal.Weighted>
-0.0000

> <Gold.Chemscore.Lipo.Weighted>
-13.8409

> <Gold.Chemscore.Internal_Hbond.Weighted>
0.0000

> <Gold.Chemscore.DEClash.Weighted>
0.3168

> <Gold.Chemscore.DEInternal.Weighted>
3.1090

> <Gold.Chemscore.Rot.Weighted>
5.2165

> <Gold.Chemscore.Internal.Correction.Weighted>
   9.000000E+99

> <Gold.Protein.RotatedTorsions>
[ 6907 6896 6895 6894 ] final  140.75 input  -60.11 | X-H torsion
[ 7974 7965 7964 7962 ] final  -42.48 input  175.53 | X-H torsion
[ 8008 7997 7996 7995 ] final  -34.03 input   59.86 | X-H torsion
[ 10167 10162 10161 10158 ] final   64.02 input  -65.29 | X-H torsion
[ 10718 10713 10712 10709 ] final   40.37 input   66.30 | X-H torsion
[ 10763 10752 10751 10750 ] final   60.95 input  -60.55 | X-H torsion
[ 11005 11000 10999 10996 ] final   46.31 input  -57.11 | X-H torsion

> <Gold.Protein.ActiveResidues>
 VAL166  LYS551  ARG553  GLY616  TRP617  ASP618  TYR619  PRO620  LYS621  CYS622 
 ASP623  PHE694  ASN695  SER759  ASP760  ASP761  ALA762  ILE779  LEU786  VAL792 
 PHE793  MET794  SER795  GLU796  ALA797  LYS798  CYS799  TRP800  GLU811  SER814 

> <Gold.Protein.RotatedAtoms>
  152.2393  133.5122  159.5260 H   0  0  0  0  0  0  0  0  0  0  0  0  # atno 6907 bound_to 6896
  150.7060  134.1111  159.4009 H   0  0  0  0  0  0  0  0  0  0  0  0  # atno 6908 bound_to 6896
  151.9031  135.0370  160.0559 H   0  0  0  0  0  0  0  0  0  0  0  0  # atno 6909 bound_to 6896
  146.0112  140.6962  142.9223 H   0  0  0  0  0  0  0  0  0  0  0  0  # atno 7974 bound_to 7965
  154.4132  140.1695  156.1984 H   0  0  0  0  0  0  0  0  0  0  0  0  # atno 8008 bound_to 7997
  155.9545  140.3398  155.6413 H   0  0  0  0  0  0  0  0  0  0  0  0  # atno 8009 bound_to 7997
  155.6828  140.0724  157.2469 H   0  0  0  0  0  0  0  0  0  0  0  0  # atno 8010 bound_to 7997
  140.1267  144.4681  150.6889 H   0  0  0  0  0  0  0  0  0  0  0  0  # atno 10167 bound_to 10162
  157.3814  130.7755  149.7196 H   0  0  0  0  0  0  0  0  0  0  0  0  # atno 10718 bound_to 10713
  152.9936  135.5518  154.5956 H   0  0  0  0  0  0  0  0  0  0  0  0  # atno 10763 bound_to 10752
  154.5308  135.2813  155.1183 H   0  0  0  0  0  0  0  0  0  0  0  0  # atno 10764 bound_to 10752
  154.2499  135.6401  153.5289 H   0  0  0  0  0  0  0  0  0  0  0  0  # atno 10765 bound_to 10752
  140.1380  134.4619  155.8471 H   0  0  0  0  0  0  0  0  0  0  0  0  # atno 11005 bound_to 11000
  144.6954  140.3402  143.7200 LP  0  0  0  0  0  0  0  0  0  0  0  0  # atno 17320 bound_to 7965
  145.7339  139.1744  143.2414 LP  0  0  0  0  0  0  0  0  0  0  0  0  # atno 17321 bound_to 7965
  140.6841  143.2341  151.5307 LP  0  0  0  0  0  0  0  0  0  0  0  0  # atno 17342 bound_to 10162
  139.5541  144.2321  152.1581 LP  0  0  0  0  0  0  0  0  0  0  0  0  # atno 17343 bound_to 10162
  155.9776  130.4060  150.3698 LP  0  0  0  0  0  0  0  0  0  0  0  0  # atno 17370 bound_to 10713
  157.1803  131.0390  151.2752 LP  0  0  0  0  0  0  0  0  0  0  0  0  # atno 17371 bound_to 10713
  141.2181  133.6822  156.7194 LP  0  0  0  0  0  0  0  0  0  0  0  0  # atno 17394 bound_to 11000
  140.2757  134.8356  157.3888 LP  0  0  0  0  0  0  0  0  0  0  0  0  # atno 17395 bound_to 11000

$$$$
