AV-unprocessed.smi:1718|AV-procd|sdf|6923|dock6
  -GOLD-   22720 8133D 1   1.00000     0.00000
 Structure written by MMmdl.
 40 41  0  0  0  0  0  0  0  0  1 V2000
  149.6950  137.6274  156.5123 C   0  0  0  0  0  0  0  0  0  0  0  0
  148.9791  138.2944  157.6965 C   0  0  1  0  0  0  0  0  0  0  0  0
  149.1292  137.4373  158.8251 O   0  0  0  0  0  0  0  0  0  0  0  0
  147.9796  136.6731  159.1718 C   0  0  0  0  0  0  0  0  0  0  0  0
  148.0894  136.2579  160.6436 C   0  0  2  0  0  0  0  0  0  0  0  0
  147.1179  135.1567  161.0598 C   0  0  0  0  0  0  0  0  0  0  0  0
  147.0640  135.3555  162.5577 C   0  0  0  0  0  0  0  0  0  0  0  0
  147.1473  136.8760  162.6893 C   0  0  0  0  0  0  0  0  0  0  0  0
  147.7682  137.3514  161.4962 O   0  0  0  0  0  0  0  0  0  0  0  0
  149.5655  139.6834  157.9984 C   0  0  0  0  0  0  0  0  0  0  0  0
  148.8713  140.6849  157.8240 O   0  0  0  0  0  0  0  0  0  0  0  0
  150.8363  139.6893  158.4475 N   0  0  0  0  0  0  0  0  0  0  0  0
  151.6670  140.7793  158.7571 C   0  0  0  0  0  0  0  0  0  0  0  0
  151.2374  142.0558  158.9369 C   0  0  0  0  0  0  0  0  0  0  0  0
  152.1534  143.1427  159.2392 C   0  0  0  0  0  0  0  0  0  0  0  0
  151.6524  144.5514  159.5177 C   0  0  0  0  0  0  0  0  0  0  0  0
  151.9445  144.9322  160.7621 F   0  0  0  0  0  0  0  0  0  0  0  0
  152.2254  145.4099  158.6754 F   0  0  0  0  0  0  0  0  0  0  0  0
  150.3314  144.6302  159.3552 F   0  0  0  0  0  0  0  0  0  0  0  0
  153.4559  142.8193  159.3408 C   0  0  0  0  0  0  0  0  0  0  0  0
  153.9084  141.5141  159.1348 N   0  0  0  0  0  0  0  0  0  0  0  0
  153.1031  140.4674  158.8454 C   0  0  0  0  0  0  0  0  0  0  0  0
  153.5796  139.3456  158.6752 O   0  0  0  0  0  0  0  0  0  0  0  0
  154.9028  141.3556  159.2117 H   0  0  0  0  0  0  0  0  0  0  0  0
  149.6282  138.2402  155.6126 H   0  0  0  0  0  0  0  0  0  0  0  0
  149.2462  136.6600  156.2857 H   0  0  0  0  0  0  0  0  0  0  0  0
  150.7510  137.4566  156.7252 H   0  0  0  0  0  0  0  0  0  0  0  0
  147.9194  138.3828  157.4483 H   0  0  0  0  0  0  0  0  0  0  0  0
  147.0720  137.2613  159.0331 H   0  0  0  0  0  0  0  0  0  0  0  0
  147.8982  135.7915  158.5341 H   0  0  0  0  0  0  0  0  0  0  0  0
  149.1117  135.9500  160.8702 H   0  0  0  0  0  0  0  0  0  0  0  0
  146.1322  135.3256  160.6237 H   0  0  0  0  0  0  0  0  0  0  0  0
  147.4553  134.1606  160.7718 H   0  0  0  0  0  0  0  0  0  0  0  0
  146.1673  134.9363  163.0148 H   0  0  0  0  0  0  0  0  0  0  0  0
  147.9336  134.8908  163.0244 H   0  0  0  0  0  0  0  0  0  0  0  0
  146.1509  137.3131  162.7596 H   0  0  0  0  0  0  0  0  0  0  0  0
  147.7107  137.1771  163.5729 H   0  0  0  0  0  0  0  0  0  0  0  0
  151.2531  138.7844  158.6143 H   0  0  0  0  0  0  0  0  0  0  0  0
  150.1949  142.3101  158.8366 H   0  0  0  0  0  0  0  0  0  0  0  0
  154.2396  143.5205  159.5874 H   0  0  0  0  0  0  0  0  0  0  0  0
  1  2  1  0  0  0  0
  1 25  1  0  0  0  0
  1 26  1  0  0  0  0
  1 27  1  0  0  0  0
  2  3  1  0  0  0  0
  2 10  1  0  0  0  0
  2 28  1  0  0  0  0
  3  4  1  0  0  0  0
  4  5  1  0  0  0  0
  4 29  1  0  0  0  0
  4 30  1  0  0  0  0
  5  9  1  0  0  0  0
  5  6  1  0  0  0  0
  5 31  1  0  0  0  0
  6  7  1  0  0  0  0
  6 32  1  0  0  0  0
  6 33  1  0  0  0  0
  7  8  1  0  0  0  0
  7 34  1  0  0  0  0
  7 35  1  0  0  0  0
  8  9  1  0  0  0  0
  8 36  1  0  0  0  0
  8 37  1  0  0  0  0
 10 11  2  0  0  0  0
 10 12  1  0  0  0  0
 12 13  1  0  0  0  0
 12 38  1  0  0  0  0
 13 22  1  0  0  0  0
 13 14  2  0  0  0  0
 14 15  1  0  0  0  0
 14 39  1  0  0  0  0
 15 16  1  0  0  0  0
 15 20  2  0  0  0  0
 16 17  1  0  0  0  0
 16 18  1  0  0  0  0
 16 19  1  0  0  0  0
 20 21  1  0  0  0  0
 20 40  1  0  0  0  0
 21 24  1  0  0  0  0
 21 22  1  0  0  0  0
 22 23  2  0  0  0  0
M  END
> <s_m_source_file>
AV-unprocessed.smi

> <i_m_source_file_index>
1718

> <i_lp_mmshare_version>
43012

> <i_f3d_flags>
0

> <s_epik_input>
TzFbQ0gyXVtDSDJdW0NIMl1bQ0BIXTFbQ0gyXU9bQ0BASF0oW0NIM10pQyg9TylbTkhdYzJbY0hdYyhDKEYpKEYpRilbY0hdW25IXWMyPU8=

> <s_epik_cmdline>
J2VwaWtfcHl0aG9uJywgJy1waCcsICc3LjAnLCAnLXRuJywgJzgnLCAnLW1hJywgJzIwMCcsICctbWV0YWxfYmluZGluZycsICctaW1hZScsICc8aW5maWxlLm1hZT4nLCAnLW9tYWUnLCAnPG91dGZpbGUubWFlPic=

> <r_lp_tautomer_probability>
0.999

> <r_epik_Ionization_Penalty>
0.00894336

> <r_epik_Ionization_Penalty_Charging>
0.00894326

> <r_epik_Ionization_Penalty_Neutral>
1.00145e-07

> <r_epik_State_Penalty>
0.00676626

> <r_epik_Charging_Adjusted_Penalty>
0.0157095

> <i_epik_Tot_Q>
0

> <i_epik_Tot_abs_Q>
0

> <r_epik_Metal_State_Penalty>
0.321145

> <b_epik_Metal_Only>
0

> <s_lp_Force_Field>
OPLS_2005

> <r_lp_Energy>
34.2201

> <b_lp_Chiralities_Consistent>
1

> <s_lp_Variant>
AV-unprocessed.smi:1718-2

> <Gold.Version>
5.8.1

> <Gold.Id.Protein>
6NUR|6NUR_protein|mol2

> <Gold.PLP.Fitness>
48.7051

> <Gold.PLP.PLP>
-43.5529

> <Gold.PLP.part.hbond>
-2.9851

> <Gold.PLP.part.metal>
0.0000

> <Gold.PLP.part.buried>
-2.9272

> <Gold.PLP.part.nonpolar>
-37.1294

> <Gold.PLP.part.repulsive>
0.2635

> <Gold.PLP.ligand.clash>
0.0000

> <Gold.PLP.ligand.torsion>
1.0308

> <Gold.PLP.Chemscore.Hbond>
2.3643

> <Gold.PLP.Chemscore.CHOScore>
0.0000

> <Gold.PLP.Chemscore.Metal>
0.0000

> <Gold.Chemscore.Hbonds>
donor molecule, donor type, donor heavy atom, donor atom, acceptor molecule, acceptor atom, score
      P1  H  6931  6943       L1     9  0.94
      P1  H  6934  6947       L1     9  0.70
      P1  H  7997  8010       L1    23  0.55

> <Gold.PLP.Chemscore.Internal.Correction>
0.1210

> <Gold.Rescore>
     Score         DG    S(hbond)    S(metal)    S(lipo)     H(rot)  DE(clash)    DE(int)     intcor
     13.39     -16.32       1.87        0.00      80.28       1.88       0.97       1.96       ----

> <Gold.Chemscore.Fitness>
13.3917

> <Gold.Chemscore.DG>
-16.3200

> <Gold.Chemscore.ZeroCoef>
-5.4800

> <Gold.Chemscore.Hbond>
1.8733

> <Gold.Chemscore.Metal>
0.0000

> <Gold.Chemscore.Lipo>
80.2837

> <Gold.Chemscore.Internal_Hbond>
0.0000

> <Gold.Chemscore.DEClash>
0.9728

> <Gold.Chemscore.DEInternal>
1.9554

> <Gold.Chemscore.Rot>
1.8790

> <Gold.Chemscore.Internal.Correction>
   9.000000E+99

> <Gold.Chemscore.Hbonds>
donor molecule, donor type, donor heavy atom, donor atom, acceptor molecule, acceptor atom, score
      P1  H  6931  6943       L1     9  0.52
      P1  H  6934  6947       L1     9  0.62
      P1  H  7997  8010       L1    23  0.03

> <Gold.Chemscore.Hbond.Weighted>
-6.2569

> <Gold.Chemscore.Metal.Weighted>
-0.0000

> <Gold.Chemscore.Lipo.Weighted>
-9.3932

> <Gold.Chemscore.Internal_Hbond.Weighted>
0.0000

> <Gold.Chemscore.DEClash.Weighted>
0.9728

> <Gold.Chemscore.DEInternal.Weighted>
1.9554

> <Gold.Chemscore.Rot.Weighted>
4.8102

> <Gold.Chemscore.Internal.Correction.Weighted>
   9.000000E+99

> <Gold.Protein.RotatedTorsions>
[ 6907 6896 6895 6894 ] final   24.57 input  -60.11 | X-H torsion
[ 7974 7965 7964 7962 ] final  -43.68 input  175.53 | X-H torsion
[ 8008 7997 7996 7995 ] final   24.96 input   59.86 | X-H torsion
[ 10167 10162 10161 10158 ] final  -50.64 input  -65.29 | X-H torsion
[ 10718 10713 10712 10709 ] final   31.47 input   66.30 | X-H torsion
[ 10763 10752 10751 10750 ] final  -83.72 input  -60.55 | X-H torsion
[ 11005 11000 10999 10996 ] final  129.14 input  -57.11 | X-H torsion

> <Gold.Protein.ActiveResidues>
 VAL166  LYS551  ARG553  GLY616  TRP617  ASP618  TYR619  PRO620  LYS621  CYS622 
 ASP623  PHE694  ASN695  SER759  ASP760  ASP761  ALA762  ILE779  LEU786  VAL792 
 PHE793  MET794  SER795  GLU796  ALA797  LYS798  CYS799  TRP800  GLU811  SER814 

> <Gold.Protein.RotatedAtoms>
  151.9595  135.0130  160.0546 H   0  0  0  0  0  0  0  0  0  0  0  0  # atno 6907 bound_to 6896
  152.1881  133.4749  159.5002 H   0  0  0  0  0  0  0  0  0  0  0  0  # atno 6908 bound_to 6896
  150.6930  134.1665  159.4239 H   0  0  0  0  0  0  0  0  0  0  0  0  # atno 6909 bound_to 6896
  145.9996  140.7090  142.9277 H   0  0  0  0  0  0  0  0  0  0  0  0  # atno 7974 bound_to 7965
  155.0043  140.3129  155.4855 H   0  0  0  0  0  0  0  0  0  0  0  0  # atno 8008 bound_to 7997
  156.2920  140.2226  156.5095 H   0  0  0  0  0  0  0  0  0  0  0  0  # atno 8009 bound_to 7997
  154.7591  140.0460  157.0946 H   0  0  0  0  0  0  0  0  0  0  0  0  # atno 8010 bound_to 7997
  140.6628  143.2650  151.4388 H   0  0  0  0  0  0  0  0  0  0  0  0  # atno 10167 bound_to 10162
  157.2729  130.7217  149.6514 H   0  0  0  0  0  0  0  0  0  0  0  0  # atno 10718 bound_to 10713
  154.5911  135.5546  153.7279 H   0  0  0  0  0  0  0  0  0  0  0  0  # atno 10763 bound_to 10752
  153.0117  135.6343  154.1848 H   0  0  0  0  0  0  0  0  0  0  0  0  # atno 10764 bound_to 10752
  154.1789  135.2888  155.3038 H   0  0  0  0  0  0  0  0  0  0  0  0  # atno 10765 bound_to 10752
  139.9599  134.9605  156.9104 H   0  0  0  0  0  0  0  0  0  0  0  0  # atno 11005 bound_to 11000
  144.6915  140.3209  143.7232 LP  0  0  0  0  0  0  0  0  0  0  0  0  # atno 17320 bound_to 7965
  145.7508  139.1793  143.2322 LP  0  0  0  0  0  0  0  0  0  0  0  0  # atno 17321 bound_to 7965
  139.5866  144.1590  152.2037 LP  0  0  0  0  0  0  0  0  0  0  0  0  # atno 17342 bound_to 10162
  140.0932  144.5603  150.7040 LP  0  0  0  0  0  0  0  0  0  0  0  0  # atno 17343 bound_to 10162
  155.9663  130.4362  150.5123 LP  0  0  0  0  0  0  0  0  0  0  0  0  # atno 17370 bound_to 10713
  157.3051  131.0653  151.2040 LP  0  0  0  0  0  0  0  0  0  0  0  0  # atno 17371 bound_to 10713
  140.5524  134.0614  155.7373 LP  0  0  0  0  0  0  0  0  0  0  0  0  # atno 17394 bound_to 11000
  141.1275  133.9359  157.2605 LP  0  0  0  0  0  0  0  0  0  0  0  0  # atno 17395 bound_to 11000

$$$$
