AV-unprocessed.smi:1901|AV-procd|sdf|7716|dock6
  -GOLD-   22720 9453D 1   1.00000     0.00000
 Structure written by MMmdl.
 28 29  0  0  0  0  0  0  0  0  1 V2000
  150.4197  140.6156  156.5364 O   0  0  0  0  0  0  0  0  0  0  0  0
  150.0860  141.7824  156.3269 C   0  0  0  0  0  0  0  0  0  0  0  0
  149.2542  142.1467  155.3405 N   0  0  0  0  0  0  0  0  0  0  0  0
  148.6341  141.2309  154.3891 C   0  0  0  0  0  0  0  0  0  0  0  0
  147.1169  141.4666  154.2634 C   0  0  2  0  0  0  0  0  0  0  0  0
  146.7222  142.8817  153.8887 C   0  0  0  0  0  0  0  0  0  0  0  0
  145.2582  142.9181  154.3135 C   0  0  0  0  0  0  0  0  0  0  0  0
  145.1644  142.0621  155.4483 O   0  0  0  0  0  0  0  0  0  0  0  0
  146.3497  141.2807  155.5725 C   0  0  0  0  0  0  0  0  0  0  0  0
  150.4945  142.8478  157.0379 N   0  0  0  0  0  0  0  0  0  0  0  0
  151.3659  142.8734  158.1584 C   0  0  0  0  0  0  0  0  0  0  0  0
  151.8483  141.7823  158.7648 N   0  0  0  0  0  0  0  0  0  0  0  0
  152.6794  142.1042  159.8408 C   0  0  0  0  0  0  0  0  0  0  0  0
  152.8204  143.4550  160.0400 C   0  0  0  0  0  0  0  0  0  0  0  0
  151.9107  144.3820  158.8768 S   0  0  0  0  0  0  0  0  0  0  0  0
  149.0337  143.1266  155.2389 H   0  0  0  0  0  0  0  0  0  0  0  0
  149.1131  141.3283  153.4134 H   0  0  0  0  0  0  0  0  0  0  0  0
  148.8293  140.2123  154.7259 H   0  0  0  0  0  0  0  0  0  0  0  0
  146.6993  140.7820  153.5228 H   0  0  0  0  0  0  0  0  0  0  0  0
  147.2982  143.6054  154.4673 H   0  0  0  0  0  0  0  0  0  0  0  0
  146.8605  143.1012  152.8296 H   0  0  0  0  0  0  0  0  0  0  0  0
  144.9148  143.9267  154.5444 H   0  0  0  0  0  0  0  0  0  0  0  0
  144.6237  142.5163  153.5225 H   0  0  0  0  0  0  0  0  0  0  0  0
  146.1162  140.2344  155.7710 H   0  0  0  0  0  0  0  0  0  0  0  0
  146.9237  141.6639  156.4173 H   0  0  0  0  0  0  0  0  0  0  0  0
  150.1347  143.7454  156.7487 H   0  0  0  0  0  0  0  0  0  0  0  0
  153.1308  141.3071  160.4131 H   0  0  0  0  0  0  0  0  0  0  0  0
  153.4021  143.9583  160.7979 H   0  0  0  0  0  0  0  0  0  0  0  0
  1  2  2  0  0  0  0
  2  3  1  0  0  0  0
  2 10  1  0  0  0  0
  3  4  1  0  0  0  0
  3 16  1  0  0  0  0
  4  5  1  0  0  0  0
  4 17  1  0  0  0  0
  4 18  1  0  0  0  0
  5  9  1  0  0  0  0
  5  6  1  0  0  0  0
  5 19  1  0  0  0  0
  6  7  1  0  0  0  0
  6 20  1  0  0  0  0
  6 21  1  0  0  0  0
  7  8  1  0  0  0  0
  7 22  1  0  0  0  0
  7 23  1  0  0  0  0
  8  9  1  0  0  0  0
  9 24  1  0  0  0  0
  9 25  1  0  0  0  0
 10 11  1  0  0  0  0
 10 26  1  0  0  0  0
 11 15  1  0  0  0  0
 11 12  2  0  0  0  0
 12 13  1  0  0  0  0
 13 14  2  0  0  0  0
 13 27  1  0  0  0  0
 14 15  1  0  0  0  0
 14 28  1  0  0  0  0
M  END
> <s_m_source_file>
AV-unprocessed.smi

> <i_m_source_file_index>
1901

> <i_lp_mmshare_version>
43012

> <i_f3d_flags>
0

> <s_epik_input>
czFbY0hdW2NIXW5jMVtOSF1DKD1PKVtOSF1bQ0gyXVtDQEBIXTJbQ0gyXVtDSDJdT1tDSDJdMg==

> <s_epik_cmdline>
J2VwaWtfcHl0aG9uJywgJy1waCcsICc3LjAnLCAnLXRuJywgJzgnLCAnLW1hJywgJzIwMCcsICctbWV0YWxfYmluZGluZycsICctaW1hZScsICc8aW5maWxlLm1hZT4nLCAnLW9tYWUnLCAnPG91dGZpbGUubWFlPic=

> <r_lp_tautomer_probability>
0.999

> <r_epik_Ionization_Penalty>
0.000365592

> <r_epik_Ionization_Penalty_Charging>
0

> <r_epik_Ionization_Penalty_Neutral>
0.000365592

> <r_epik_State_Penalty>
0.000177984

> <r_epik_Charging_Adjusted_Penalty>
0.000177984

> <i_epik_Tot_Q>
0

> <i_epik_Tot_abs_Q>
0

> <r_epik_Metal_State_Penalty>
0.00682492

> <b_epik_Metal_Only>
0

> <s_lp_Force_Field>
OPLS_2005

> <r_lp_Energy>
16.9403

> <b_lp_Chiralities_Consistent>
1

> <s_lp_Variant>
AV-unprocessed.smi:1901-1

> <Gold.Version>
5.8.1

> <Gold.Id.Protein>
6NUR|6NUR_protein|mol2

> <Gold.PLP.Fitness>
38.8311

> <Gold.PLP.PLP>
-33.0805

> <Gold.PLP.part.hbond>
-2.0000

> <Gold.PLP.part.metal>
0.0000

> <Gold.PLP.part.buried>
-5.1195

> <Gold.PLP.part.nonpolar>
-26.7952

> <Gold.PLP.part.repulsive>
0.3767

> <Gold.PLP.ligand.clash>
0.0000

> <Gold.PLP.ligand.torsion>
0.0673

> <Gold.PLP.Chemscore.Hbond>
1.9600

> <Gold.PLP.Chemscore.CHOScore>
0.0000

> <Gold.PLP.Chemscore.Metal>
0.0000

> <Gold.Chemscore.Hbonds>
donor molecule, donor type, donor heavy atom, donor atom, acceptor molecule, acceptor atom, score
      L1  H     3    16       P1  8028  1.00
      L1  H    10    26       P1  8028  0.98

> <Gold.PLP.Chemscore.Internal.Correction>
0.0053

> <Gold.Rescore>
     Score         DG    S(hbond)    S(metal)    S(lipo)     H(rot)  DE(clash)    DE(int)     intcor
     15.21     -16.52       1.93        0.00      67.98       1.32       0.00       1.31       ----

> <Gold.Chemscore.Fitness>
15.2065

> <Gold.Chemscore.DG>
-16.5244

> <Gold.Chemscore.ZeroCoef>
-5.4800

> <Gold.Chemscore.Hbond>
1.9343

> <Gold.Chemscore.Metal>
0.0000

> <Gold.Chemscore.Lipo>
67.9797

> <Gold.Chemscore.Internal_Hbond>
0.0000

> <Gold.Chemscore.DEClash>
0.0038

> <Gold.Chemscore.DEInternal>
1.3141

> <Gold.Chemscore.Rot>
1.3163

> <Gold.Chemscore.Internal.Correction>
   9.000000E+99

> <Gold.Chemscore.Hbonds>
donor molecule, donor type, donor heavy atom, donor atom, acceptor molecule, acceptor atom, score
      L1  H     3    16       P1  8028  0.99
      L1  H    10    26       P1  8028  0.93

> <Gold.Chemscore.Hbond.Weighted>
-6.4607

> <Gold.Chemscore.Metal.Weighted>
-0.0000

> <Gold.Chemscore.Lipo.Weighted>
-7.9536

> <Gold.Chemscore.Internal_Hbond.Weighted>
0.0000

> <Gold.Chemscore.DEClash.Weighted>
0.0038

> <Gold.Chemscore.DEInternal.Weighted>
1.3141

> <Gold.Chemscore.Rot.Weighted>
3.3698

> <Gold.Chemscore.Internal.Correction.Weighted>
   9.000000E+99

> <Gold.Protein.RotatedTorsions>
[ 6907 6896 6895 6894 ] final  141.84 input  -60.11 | X-H torsion
[ 7974 7965 7964 7962 ] final   92.64 input  175.53 | X-H torsion
[ 8008 7997 7996 7995 ] final  -42.53 input   59.86 | X-H torsion
[ 10167 10162 10161 10158 ] final  -57.39 input  -65.29 | X-H torsion
[ 10718 10713 10712 10709 ] final -138.64 input   66.30 | X-H torsion
[ 10763 10752 10751 10750 ] final   38.59 input  -60.55 | X-H torsion
[ 11005 11000 10999 10996 ] final   89.40 input  -57.11 | X-H torsion

> <Gold.Protein.ActiveResidues>
 VAL166  LYS551  ARG553  GLY616  TRP617  ASP618  TYR619  PRO620  LYS621  CYS622 
 ASP623  PHE694  ASN695  SER759  ASP760  ASP761  ALA762  ILE779  LEU786  VAL792 
 PHE793  MET794  SER795  GLU796  ALA797  LYS798  CYS799  TRP800  GLU811  SER814 

> <Gold.Protein.RotatedAtoms>
  152.2260  133.5020  159.5188 H   0  0  0  0  0  0  0  0  0  0  0  0  # atno 6907 bound_to 6896
  150.7025  134.1279  159.4068 H   0  0  0  0  0  0  0  0  0  0  0  0  # atno 6908 bound_to 6896
  151.9200  135.0302  160.0572 H   0  0  0  0  0  0  0  0  0  0  0  0  # atno 6909 bound_to 6896
  145.4896  139.2277  143.2837 H   0  0  0  0  0  0  0  0  0  0  0  0  # atno 7974 bound_to 7965
  154.3999  140.1471  156.3370 H   0  0  0  0  0  0  0  0  0  0  0  0  # atno 8008 bound_to 7997
  155.8391  140.3462  155.5599 H   0  0  0  0  0  0  0  0  0  0  0  0  # atno 8009 bound_to 7997
  155.8106  140.0883  157.1896 H   0  0  0  0  0  0  0  0  0  0  0  0  # atno 8010 bound_to 7997
  140.6261  143.2439  151.5360 H   0  0  0  0  0  0  0  0  0  0  0  0  # atno 10167 bound_to 10162
  156.3017  130.7432  151.1485 H   0  0  0  0  0  0  0  0  0  0  0  0  # atno 10718 bound_to 10713
  152.9996  135.6245  154.2329 H   0  0  0  0  0  0  0  0  0  0  0  0  # atno 10763 bound_to 10752
  154.2071  135.2801  155.2973 H   0  0  0  0  0  0  0  0  0  0  0  0  # atno 10764 bound_to 10752
  154.5637  135.5697  153.7089 H   0  0  0  0  0  0  0  0  0  0  0  0  # atno 10765 bound_to 10752
  139.8876  134.8549  156.3137 H   0  0  0  0  0  0  0  0  0  0  0  0  # atno 11005 bound_to 11000
  146.2292  140.5688  142.8983 LP  0  0  0  0  0  0  0  0  0  0  0  0  # atno 17320 bound_to 7965
  144.7842  140.5902  143.6585 LP  0  0  0  0  0  0  0  0  0  0  0  0  # atno 17321 bound_to 7965
  139.5481  144.2468  152.1480 LP  0  0  0  0  0  0  0  0  0  0  0  0  # atno 17342 bound_to 10162
  140.1699  144.4945  150.6585 LP  0  0  0  0  0  0  0  0  0  0  0  0  # atno 17343 bound_to 10162
  157.7369  131.0557  150.5385 LP  0  0  0  0  0  0  0  0  0  0  0  0  # atno 17370 bound_to 10713
  156.5513  130.4232  149.6106 LP  0  0  0  0  0  0  0  0  0  0  0  0  # atno 17371 bound_to 10713
  140.9833  133.7254  156.0704 LP  0  0  0  0  0  0  0  0  0  0  0  0  # atno 17394 bound_to 11000
  140.7721  134.3821  157.5505 LP  0  0  0  0  0  0  0  0  0  0  0  0  # atno 17395 bound_to 11000

$$$$
