AV-unprocessed.smi:862|AV-procd|sdf|3983|dock2
  -GOLD-   22720 1463D 1   1.00000     0.00000
 Structure written by MMmdl.
 45 47  0  0  0  0  0  0  0  0  3 V2000
  149.1623  138.4830  153.4372 N   0  0  0  0  0  0  0  0  0  0  0  0
  148.6914  138.3221  154.6777 C   0  0  0  0  0  0  0  0  0  0  0  0
  148.4809  137.1998  155.1340 O   0  0  0  0  0  0  0  0  0  0  0  0
  148.5139  139.4676  155.3834 N   0  0  0  0  0  0  0  0  0  0  0  0
  148.3412  139.5707  156.8422 C   0  0  0  0  0  0  0  0  0  0  0  0
  149.6411  140.1172  157.4612 C   0  0  0  0  0  0  0  0  0  0  0  0
  150.0264  141.4798  156.8397 C   0  0  0  0  0  0  0  0  0  0  0  0
  151.3503  141.9395  157.3178 N   0  3  0  0  0  0  0  0  0  0  0  0
  151.7829  141.4256  158.6390 C   0  0  1  0  0  0  0  0  0  0  0  0
  152.4339  140.0410  158.5752 C   0  0  0  0  0  0  0  0  0  0  0  0
  153.2689  139.9382  159.8559 C   0  0  0  0  0  0  0  0  0  0  0  0
  153.5997  141.3791  160.2753 C   0  0  0  0  0  0  0  0  0  0  0  0
  152.8892  142.2925  159.2606 C   0  0  2  0  0  0  0  0  0  0  0  0
  152.4088  143.5583  159.8396 N   0  0  0  0  0  0  0  0  0  0  0  0
  151.9499  144.6531  159.1514 C   0  0  0  0  0  0  0  0  0  0  0  0
  151.6143  145.5959  160.0889 C   0  0  0  0  0  0  0  0  0  0  0  0
  151.8811  145.0395  161.3105 N   0  3  0  0  0  0  0  0  0  0  0  0
  152.3632  143.8020  161.1581 C   0  0  0  0  0  0  0  0  0  0  0  0
  150.0290  141.3894  155.2996 C   0  0  0  0  0  0  0  0  0  0  0  0
  148.7115  140.7896  154.7763 C   0  0  0  0  0  0  0  0  0  0  0  0
  149.3273  137.6727  152.8578 H   0  0  0  0  0  0  0  0  0  0  0  0
  149.3598  139.4087  153.0866 H   0  0  0  0  0  0  0  0  0  0  0  0
  147.5129  140.2477  157.0566 H   0  0  0  0  0  0  0  0  0  0  0  0
  148.0750  138.6292  157.3222 H   0  0  0  0  0  0  0  0  0  0  0  0
  149.5144  140.2043  158.5391 H   0  0  0  0  0  0  0  0  0  0  0  0
  150.4452  139.3969  157.3031 H   0  0  0  0  0  0  0  0  0  0  0  0
  149.2715  142.2169  157.1189 H   0  0  0  0  0  0  0  0  0  0  0  0
  152.0484  141.7247  156.6199 H   0  0  0  0  0  0  0  0  0  0  0  0
  150.9263  141.3855  159.3139 H   0  0  0  0  0  0  0  0  0  0  0  0
  151.7032  139.2351  158.5009 H   0  0  0  0  0  0  0  0  0  0  0  0
  153.0936  139.9761  157.7084 H   0  0  0  0  0  0  0  0  0  0  0  0
  152.6866  139.4535  160.6407 H   0  0  0  0  0  0  0  0  0  0  0  0
  154.1669  139.3388  159.7020 H   0  0  0  0  0  0  0  0  0  0  0  0
  153.2513  141.5478  161.2951 H   0  0  0  0  0  0  0  0  0  0  0  0
  154.6756  141.5591  160.2729 H   0  0  0  0  0  0  0  0  0  0  0  0
  153.6107  142.5457  158.4811 H   0  0  0  0  0  0  0  0  0  0  0  0
  151.8998  144.6845  158.0722 H   0  0  0  0  0  0  0  0  0  0  0  0
  151.2184  146.5956  159.9808 H   0  0  0  0  0  0  0  0  0  0  0  0
  152.6625  143.1356  161.9476 H   0  0  0  0  0  0  0  0  0  0  0  0
  150.1815  142.3787  154.8666 H   0  0  0  0  0  0  0  0  0  0  0  0
  150.8631  140.7716  154.9626 H   0  0  0  0  0  0  0  0  0  0  0  0
  148.7241  140.7528  153.6860 H   0  0  0  0  0  0  0  0  0  0  0  0
  147.8727  141.4361  155.0382 H   0  0  0  0  0  0  0  0  0  0  0  0
  151.2912  142.9440  157.4050 H   0  0  0  0  0  0  0  0  0  0  0  0
  151.7406  145.4989  162.2020 H   0  0  0  0  0  0  0  0  0  0  0  0
  1  2  1  0  0  0  0
  1 21  1  0  0  0  0
  1 22  1  0  0  0  0
  2  3  2  0  0  0  0
  2  4  1  0  0  0  0
  4 20  1  0  0  0  0
  4  5  1  0  0  0  0
  5  6  1  0  0  0  0
  5 23  1  0  0  0  0
  5 24  1  0  0  0  0
  6  7  1  0  0  0  0
  6 25  1  0  0  0  0
  6 26  1  0  0  0  0
  7  8  1  0  0  0  0
  7 19  1  0  0  0  0
  7 27  1  0  0  0  0
  8  9  1  0  0  0  0
  8 28  1  0  0  0  0
  8 44  1  0  0  0  0
  9 13  1  0  0  0  0
  9 10  1  0  0  0  0
  9 29  1  0  0  0  0
 10 11  1  0  0  0  0
 10 30  1  0  0  0  0
 10 31  1  0  0  0  0
 11 12  1  0  0  0  0
 11 32  1  0  0  0  0
 11 33  1  0  0  0  0
 12 13  1  0  0  0  0
 12 34  1  0  0  0  0
 12 35  1  0  0  0  0
 13 14  1  0  0  0  0
 13 36  1  0  0  0  0
 14 18  1  0  0  0  0
 14 15  1  0  0  0  0
 15 16  2  0  0  0  0
 15 37  1  0  0  0  0
 16 17  1  0  0  0  0
 16 38  1  0  0  0  0
 17 18  2  0  0  0  0
 17 45  1  0  0  0  0
 18 39  1  0  0  0  0
 19 20  1  0  0  0  0
 19 40  1  0  0  0  0
 19 41  1  0  0  0  0
 20 42  1  0  0  0  0
 20 43  1  0  0  0  0
M  CHG  1   8   1
M  CHG  1  17   1
M  END
> <s_m_source_file>
AV-unprocessed.smi

> <i_m_source_file_index>
862

> <i_lp_mmshare_version>
43012

> <i_f3d_flags>
0

> <s_epik_input>
W05IMl1DKD1PKU4xW0NIMl1bQ0gyXVtDSF0oW0NIMl1bQ0gyXTEpW05IXVtDQEBIXTJbQ0gyXVtDSDJdW0NIMl1bQ0BIXTJuM1tjSF1bY0hdbltjSF0z

> <s_epik_cmdline>
J2VwaWtfcHl0aG9uJywgJy1waCcsICc3LjAnLCAnLXRuJywgJzgnLCAnLW1hJywgJzIwMCcsICctbWV0YWxfYmluZGluZycsICctaW1hZScsICc8aW5maWxlLm1hZT4nLCAnLW9tYWUnLCAnPG91dGZpbGUubWFlPic=

> <r_lp_tautomer_probability>
1

> <r_epik_Ionization_Penalty>
1.30217

> <r_epik_Ionization_Penalty_Charging>
0.00439521

> <r_epik_Ionization_Penalty_Neutral>
1.29777

> <r_epik_State_Penalty>
0.977606

> <r_epik_Charging_Adjusted_Penalty>
0.982001

> <i_epik_Tot_Q>
2

> <i_epik_Tot_abs_Q>
2

> <r_epik_Metal_State_Penalty>
1.03289

> <b_epik_Metal_Only>
0

> <s_lp_Force_Field>
OPLS_2005

> <r_lp_Energy>
66.2462

> <b_lp_Chiralities_Consistent>
1

> <s_lp_Variant>
AV-unprocessed.smi:862-8

> <Gold.Version>
5.8.1

> <Gold.Id.Protein>
6NUR|6NUR_protein|mol2

> <Gold.PLP.Fitness>
45.0013

> <Gold.PLP.PLP>
-43.7323

> <Gold.PLP.part.hbond>
-3.0000

> <Gold.PLP.part.metal>
0.0000

> <Gold.PLP.part.buried>
-6.0541

> <Gold.PLP.part.nonpolar>
-34.7827

> <Gold.PLP.part.repulsive>
0.3167

> <Gold.PLP.ligand.clash>
1.6238

> <Gold.PLP.ligand.torsion>
0.9432

> <Gold.PLP.Chemscore.Hbond>
1.5760

> <Gold.PLP.Chemscore.CHOScore>
0.0000

> <Gold.PLP.Chemscore.Metal>
0.0000

> <Gold.Chemscore.Hbonds>
donor molecule, donor type, donor heavy atom, donor atom, acceptor molecule, acceptor atom, score
      L1  H     1    21       P1  7948  1.00
      L1  H     1    22       P1  7957  0.56

> <Gold.PLP.Chemscore.Internal.Correction>
0.0512

> <Gold.Rescore>
     Score         DG    S(hbond)    S(metal)    S(lipo)     H(rot)  DE(clash)    DE(int)     intcor
     14.75     -16.74       1.50        0.00      90.28       1.68       1.15       0.84       ----

> <Gold.Chemscore.Fitness>
14.7541

> <Gold.Chemscore.DG>
-16.7447

> <Gold.Chemscore.ZeroCoef>
-5.4800

> <Gold.Chemscore.Hbond>
1.4990

> <Gold.Chemscore.Metal>
0.0000

> <Gold.Chemscore.Lipo>
90.2757

> <Gold.Chemscore.Internal_Hbond>
0.0000

> <Gold.Chemscore.DEClash>
1.1538

> <Gold.Chemscore.DEInternal>
0.8369

> <Gold.Chemscore.Rot>
1.6814

> <Gold.Chemscore.Internal.Correction>
   9.000000E+99

> <Gold.Chemscore.Hbonds>
donor molecule, donor type, donor heavy atom, donor atom, acceptor molecule, acceptor atom, score
      L1  H     1    21       P1  7948  0.94
      L1  H     1    22       P1  7957  0.54

> <Gold.Chemscore.Hbond.Weighted>
-5.0068

> <Gold.Chemscore.Metal.Weighted>
-0.0000

> <Gold.Chemscore.Lipo.Weighted>
-10.5623

> <Gold.Chemscore.Internal_Hbond.Weighted>
0.0000

> <Gold.Chemscore.DEClash.Weighted>
1.1538

> <Gold.Chemscore.DEInternal.Weighted>
0.8369

> <Gold.Chemscore.Rot.Weighted>
4.3043

> <Gold.Chemscore.Internal.Correction.Weighted>
   9.000000E+99

> <Gold.Protein.RotatedTorsions>
[ 6907 6896 6895 6894 ] final  -53.35 input  -60.11 | X-H torsion
[ 7974 7965 7964 7962 ] final  -32.27 input  175.53 | X-H torsion
[ 8008 7997 7996 7995 ] final   73.78 input   59.86 | X-H torsion
[ 10167 10162 10161 10158 ] final  -74.54 input  -65.29 | X-H torsion
[ 10718 10713 10712 10709 ] final -118.66 input   66.30 | X-H torsion
[ 10763 10752 10751 10750 ] final -140.03 input  -60.55 | X-H torsion
[ 11005 11000 10999 10996 ] final  -95.45 input  -57.11 | X-H torsion

> <Gold.Protein.ActiveResidues>
 VAL166  LYS551  ARG553  GLY616  TRP617  ASP618  TYR619  PRO620  LYS621  CYS622 
 ASP623  PHE694  ASN695  SER759  ASP760  ASP761  ALA762  ILE779  LEU786  VAL792 
 PHE793  MET794  SER795  GLU796  ALA797  LYS798  CYS799  TRP800  GLU811  SER814 

> <Gold.Protein.RotatedAtoms>
  150.8434  134.7735  159.6950 H   0  0  0  0  0  0  0  0  0  0  0  0  # atno 6907 bound_to 6896
  152.4517  134.5377  159.9839 H   0  0  0  0  0  0  0  0  0  0  0  0  # atno 6908 bound_to 6896
  151.5512  133.3379  159.2989 H   0  0  0  0  0  0  0  0  0  0  0  0  # atno 6909 bound_to 6896
  146.1003  140.5771  142.8824 H   0  0  0  0  0  0  0  0  0  0  0  0  # atno 7974 bound_to 7965
  155.7887  140.3480  155.5337 H   0  0  0  0  0  0  0  0  0  0  0  0  # atno 8008 bound_to 7997
  155.8656  140.0978  157.1605 H   0  0  0  0  0  0  0  0  0  0  0  0  # atno 8009 bound_to 7997
  154.4014  140.1350  156.4001 H   0  0  0  0  0  0  0  0  0  0  0  0  # atno 8010 bound_to 7997
  140.5018  143.2360  151.7740 H   0  0  0  0  0  0  0  0  0  0  0  0  # atno 10167 bound_to 10162
  156.1122  130.6258  150.9318 H   0  0  0  0  0  0  0  0  0  0  0  0  # atno 10718 bound_to 10713
  154.8591  135.3565  154.5642 H   0  0  0  0  0  0  0  0  0  0  0  0  # atno 10763 bound_to 10752
  153.6257  135.7004  153.5299 H   0  0  0  0  0  0  0  0  0  0  0  0  # atno 10764 bound_to 10752
  153.3092  135.4183  155.1280 H   0  0  0  0  0  0  0  0  0  0  0  0  # atno 10765 bound_to 10752
  141.1441  133.8027  157.0437 H   0  0  0  0  0  0  0  0  0  0  0  0  # atno 11005 bound_to 11000
  144.7427  140.4986  143.6857 LP  0  0  0  0  0  0  0  0  0  0  0  0  # atno 17320 bound_to 7965
  145.5868  139.1492  143.3205 LP  0  0  0  0  0  0  0  0  0  0  0  0  # atno 17321 bound_to 7965
  139.4874  144.4511  151.9652 LP  0  0  0  0  0  0  0  0  0  0  0  0  # atno 17342 bound_to 10162
  140.3601  144.2984  150.5935 LP  0  0  0  0  0  0  0  0  0  0  0  0  # atno 17343 bound_to 10162
  157.6304  131.0921  150.8452 LP  0  0  0  0  0  0  0  0  0  0  0  0  # atno 17370 bound_to 10713
  156.8561  130.5097  149.5307 LP  0  0  0  0  0  0  0  0  0  0  0  0  # atno 17371 bound_to 10713
  140.0676  134.9720  157.1412 LP  0  0  0  0  0  0  0  0  0  0  0  0  # atno 17394 bound_to 11000
  140.3757  134.2341  155.7174 LP  0  0  0  0  0  0  0  0  0  0  0  0  # atno 17395 bound_to 11000

$$$$
