AV-unprocessed.smi:2118|AV-procd|sdf|8628|dock2
  -GOLD-   2272011373D 1   1.00000     0.00000
 Structure written by MMmdl.
 40 41  0  0  0  0  0  0  0  0  1 V2000
  148.2472  140.6813  154.4778 C   0  0  0  0  0  0  0  0  0  0  0  0
  149.7010  140.1920  154.4174 C   0  0  0  0  0  0  0  0  0  0  0  0
  149.7864  138.6572  154.4607 C   0  0  0  0  0  0  0  0  0  0  0  0
  151.2471  138.1724  154.4277 C   0  0  0  0  0  0  0  0  0  0  0  0
  152.0472  138.7914  155.5031 N   0  0  0  0  0  0  0  0  0  0  0  0
  152.2447  137.9413  157.0080 S   0  0  0  0  0  0  0  0  0  0  0  0
  150.9194  137.7001  157.5989 O   0  0  0  0  0  0  0  0  0  0  0  0
  153.1959  136.8360  156.8144 O   0  0  0  0  0  0  0  0  0  0  0  0
  153.0282  139.1618  157.9357 N   0  0  0  0  0  0  0  0  0  0  0  0
  152.2994  139.7747  159.0418 C   0  0  0  0  0  0  0  0  0  0  0  0
  153.2740  140.4992  159.9785 C   0  0  0  0  0  0  0  0  0  0  0  0
  152.9132  141.9603  160.1602 C   0  0  0  0  0  0  0  0  0  0  0  0
  152.8834  142.8410  159.0593 C   0  0  0  0  0  0  0  0  0  0  0  0
  152.5408  144.1893  159.2781 C   0  0  0  0  0  0  0  0  0  0  0  0
  152.2411  144.6001  160.5924 C   0  0  0  0  0  0  0  0  0  0  0  0
  152.2651  143.7653  161.6540 N   0  0  0  0  0  0  0  0  0  0  0  0
  152.5947  142.4740  161.4353 C   0  0  0  0  0  0  0  0  0  0  0  0
  151.9972  140.2668  155.5102 C   0  0  0  0  0  0  0  0  0  0  0  0
  150.5473  140.7828  155.5574 C   0  0  0  0  0  0  0  0  0  0  0  0
  147.7647  140.3784  155.4077 H   0  0  0  0  0  0  0  0  0  0  0  0
  147.6624  140.2757  153.6517 H   0  0  0  0  0  0  0  0  0  0  0  0
  148.1960  141.7687  154.4146 H   0  0  0  0  0  0  0  0  0  0  0  0
  150.1262  140.5282  153.4705 H   0  0  0  0  0  0  0  0  0  0  0  0
  149.2889  138.2799  155.3541 H   0  0  0  0  0  0  0  0  0  0  0  0
  149.2466  138.2329  153.6134 H   0  0  0  0  0  0  0  0  0  0  0  0
  151.2909  137.0859  154.5015 H   0  0  0  0  0  0  0  0  0  0  0  0
  151.6961  138.4332  153.4688 H   0  0  0  0  0  0  0  0  0  0  0  0
  153.9793  138.8957  158.1885 H   0  0  0  0  0  0  0  0  0  0  0  0
  151.5641  140.4733  158.6409 H   0  0  0  0  0  0  0  0  0  0  0  0
  151.7537  138.9999  159.5817 H   0  0  0  0  0  0  0  0  0  0  0  0
  153.2865  140.0135  160.9553 H   0  0  0  0  0  0  0  0  0  0  0  0
  154.2902  140.4299  159.5874 H   0  0  0  0  0  0  0  0  0  0  0  0
  153.1178  142.4915  158.0644 H   0  0  0  0  0  0  0  0  0  0  0  0
  152.5081  144.8918  158.4585 H   0  0  0  0  0  0  0  0  0  0  0  0
  151.9740  145.6264  160.7965 H   0  0  0  0  0  0  0  0  0  0  0  0
  152.6029  141.8318  162.3037 H   0  0  0  0  0  0  0  0  0  0  0  0
  152.5712  140.6605  156.3486 H   0  0  0  0  0  0  0  0  0  0  0  0
  152.4850  140.6324  154.6058 H   0  0  0  0  0  0  0  0  0  0  0  0
  150.5500  141.8712  155.4893 H   0  0  0  0  0  0  0  0  0  0  0  0
  150.0970  140.5422  156.5204 H   0  0  0  0  0  0  0  0  0  0  0  0
  1  2  1  0  0  0  0
  1 20  1  0  0  0  0
  1 21  1  0  0  0  0
  1 22  1  0  0  0  0
  2 19  1  0  0  0  0
  2  3  1  0  0  0  0
  2 23  1  0  0  0  0
  3  4  1  0  0  0  0
  3 24  1  0  0  0  0
  3 25  1  0  0  0  0
  4  5  1  0  0  0  0
  4 26  1  0  0  0  0
  4 27  1  0  0  0  0
  5  6  1  0  0  0  0
  5 18  1  0  0  0  0
  6  7  2  0  0  0  0
  6  8  2  0  0  0  0
  6  9  1  0  0  0  0
  9 10  1  0  0  0  0
  9 28  1  0  0  0  0
 10 11  1  0  0  0  0
 10 29  1  0  0  0  0
 10 30  1  0  0  0  0
 11 12  1  0  0  0  0
 11 31  1  0  0  0  0
 11 32  1  0  0  0  0
 12 17  1  0  0  0  0
 12 13  2  0  0  0  0
 13 14  1  0  0  0  0
 13 33  1  0  0  0  0
 14 15  2  0  0  0  0
 14 34  1  0  0  0  0
 15 16  1  0  0  0  0
 15 35  1  0  0  0  0
 16 17  2  0  0  0  0
 17 36  1  0  0  0  0
 18 19  1  0  0  0  0
 18 37  1  0  0  0  0
 18 38  1  0  0  0  0
 19 39  1  0  0  0  0
 19 40  1  0  0  0  0
M  END
> <s_m_source_file>
AV-unprocessed.smi

> <i_m_source_file_index>
2118

> <i_lp_mmshare_version>
43012

> <i_f3d_flags>
0

> <s_epik_input>
W0NIM11bQ0hdMVtDSDJdW0NIMl1OKFtDSDJdW0NIMl0xKVMoPU8pKD1PKVtOSF1bQ0gyXVtDSDJdYzJbY0hdW2NIXVtjSF1uW2NIXTI=

> <s_epik_cmdline>
J2VwaWtfcHl0aG9uJywgJy1waCcsICc3LjAnLCAnLXRuJywgJzgnLCAnLW1hJywgJzIwMCcsICctbWV0YWxfYmluZGluZycsICctaW1hZScsICc8aW5maWxlLm1hZT4nLCAnLW9tYWUnLCAnPG91dGZpbGUubWFlPic=

> <r_epik_Ionization_Penalty>
0.0259724

> <r_epik_Ionization_Penalty_Charging>
0

> <r_epik_Ionization_Penalty_Neutral>
0.0259724

> <r_epik_State_Penalty>
0.0167858

> <r_epik_Charging_Adjusted_Penalty>
0.0167858

> <i_epik_Tot_Q>
0

> <i_epik_Tot_abs_Q>
0

> <r_epik_Metal_State_Penalty>
0.268382

> <b_epik_Metal_Only>
0

> <s_lp_Force_Field>
OPLS_2005

> <r_lp_Energy>
6.97296

> <b_lp_Chiralities_Consistent>
1

> <s_lp_Variant>
AV-unprocessed.smi:2118-1

> <Gold.Version>
5.8.1

> <Gold.Id.Protein>
6NUR|6NUR_protein|mol2

> <Gold.PLP.Fitness>
45.2776

> <Gold.PLP.PLP>
-44.1590

> <Gold.PLP.part.hbond>
-2.0000

> <Gold.PLP.part.metal>
0.0000

> <Gold.PLP.part.buried>
-2.6049

> <Gold.PLP.part.nonpolar>
-39.4465

> <Gold.PLP.part.repulsive>
0.1532

> <Gold.PLP.ligand.clash>
0.0000

> <Gold.PLP.ligand.torsion>
1.8176

> <Gold.PLP.Chemscore.Hbond>
0.8723

> <Gold.PLP.Chemscore.CHOScore>
0.0000

> <Gold.PLP.Chemscore.Metal>
0.0000

> <Gold.Chemscore.Hbonds>
donor molecule, donor type, donor heavy atom, donor atom, acceptor molecule, acceptor atom, score
      P1  H 10752 10765       L1     8  0.71

> <Gold.PLP.Chemscore.Internal.Correction>
2.1369

> <Gold.Rescore>
     Score         DG    S(hbond)    S(metal)    S(lipo)     H(rot)  DE(clash)    DE(int)     intcor
     16.31     -18.12       0.96        0.00     112.98       1.47       0.07       1.74       ----

> <Gold.Chemscore.Fitness>
16.3097

> <Gold.Chemscore.DG>
-18.1218

> <Gold.Chemscore.ZeroCoef>
-5.4800

> <Gold.Chemscore.Hbond>
0.9560

> <Gold.Chemscore.Metal>
0.0000

> <Gold.Chemscore.Lipo>
112.9770

> <Gold.Chemscore.Internal_Hbond>
0.0000

> <Gold.Chemscore.DEClash>
0.0684

> <Gold.Chemscore.DEInternal>
1.7437

> <Gold.Chemscore.Rot>
1.4725

> <Gold.Chemscore.Internal.Correction>
   9.000000E+99

> <Gold.Chemscore.Hbonds>
donor molecule, donor type, donor heavy atom, donor atom, acceptor molecule, acceptor atom, score
      P1  H 10752 10765       L1     8  0.69

> <Gold.Chemscore.Hbond.Weighted>
-3.1932

> <Gold.Chemscore.Metal.Weighted>
-0.0000

> <Gold.Chemscore.Lipo.Weighted>
-13.2183

> <Gold.Chemscore.Internal_Hbond.Weighted>
0.0000

> <Gold.Chemscore.DEClash.Weighted>
0.0684

> <Gold.Chemscore.DEInternal.Weighted>
1.7437

> <Gold.Chemscore.Rot.Weighted>
3.7697

> <Gold.Chemscore.Internal.Correction.Weighted>
   9.000000E+99

> <Gold.Protein.RotatedTorsions>
[ 6907 6896 6895 6894 ] final  -52.88 input  -60.11 | X-H torsion
[ 7974 7965 7964 7962 ] final   90.80 input  175.53 | X-H torsion
[ 8008 7997 7996 7995 ] final  -72.74 input   59.86 | X-H torsion
[ 10167 10162 10161 10158 ] final  -18.16 input  -65.29 | X-H torsion
[ 10718 10713 10712 10709 ] final  -83.32 input   66.30 | X-H torsion
[ 10763 10752 10751 10750 ] final -111.68 input  -60.55 | X-H torsion
[ 11005 11000 10999 10996 ] final   98.79 input  -57.11 | X-H torsion

> <Gold.Protein.ActiveResidues>
 VAL166  LYS551  ARG553  GLY616  TRP617  ASP618  TYR619  PRO620  LYS621  CYS622 
 ASP623  PHE694  ASN695  SER759  ASP760  ASP761  ALA762  ILE779  LEU786  VAL792 
 PHE793  MET794  SER795  GLU796  ALA797  LYS798  CYS799  TRP800  GLU811  SER814 

> <Gold.Protein.RotatedAtoms>
  150.8477  134.7792  159.6983 H   0  0  0  0  0  0  0  0  0  0  0  0  # atno 6907 bound_to 6896
  152.4550  134.5308  159.9820 H   0  0  0  0  0  0  0  0  0  0  0  0  # atno 6908 bound_to 6896
  151.5435  133.3391  159.2975 H   0  0  0  0  0  0  0  0  0  0  0  0  # atno 6909 bound_to 6896
  145.5141  139.2277  143.2708 H   0  0  0  0  0  0  0  0  0  0  0  0  # atno 7974 bound_to 7965
  154.5191  140.0791  156.8137 H   0  0  0  0  0  0  0  0  0  0  0  0  # atno 8008 bound_to 7997
  155.3616  140.3418  155.4223 H   0  0  0  0  0  0  0  0  0  0  0  0  # atno 8009 bound_to 7997
  156.1661  140.1604  156.8516 H   0  0  0  0  0  0  0  0  0  0  0  0  # atno 8010 bound_to 7997
  140.7255  143.4943  150.9951 H   0  0  0  0  0  0  0  0  0  0  0  0  # atno 10167 bound_to 10162
  156.0020  130.4662  150.4240 H   0  0  0  0  0  0  0  0  0  0  0  0  # atno 10718 bound_to 10713
  154.8312  135.4518  154.1076 H   0  0  0  0  0  0  0  0  0  0  0  0  # atno 10763 bound_to 10752
  153.2348  135.6909  153.7856 H   0  0  0  0  0  0  0  0  0  0  0  0  # atno 10764 bound_to 10752
  153.7225  135.3339  155.3246 H   0  0  0  0  0  0  0  0  0  0  0  0  # atno 10765 bound_to 10752
  139.8771  134.9065  156.4509 H   0  0  0  0  0  0  0  0  0  0  0  0  # atno 11005 bound_to 11000
  146.2148  140.5950  142.9043 LP  0  0  0  0  0  0  0  0  0  0  0  0  # atno 17320 bound_to 7965
  144.7711  140.5640  143.6669 LP  0  0  0  0  0  0  0  0  0  0  0  0  # atno 17321 bound_to 7965
  139.8649  143.7266  152.3171 LP  0  0  0  0  0  0  0  0  0  0  0  0  # atno 17342 bound_to 10162
  139.7495  144.7538  151.0528 LP  0  0  0  0  0  0  0  0  0  0  0  0  # atno 17343 bound_to 10162
  157.2294  131.0500  151.2501 LP  0  0  0  0  0  0  0  0  0  0  0  0  # atno 17370 bound_to 10713
  157.3725  130.7189  149.6575 LP  0  0  0  0  0  0  0  0  0  0  0  0  # atno 17371 bound_to 10713
  140.8933  133.7832  155.9596 LP  0  0  0  0  0  0  0  0  0  0  0  0  # atno 17394 bound_to 11000
  140.8730  134.2703  157.5181 LP  0  0  0  0  0  0  0  0  0  0  0  0  # atno 17395 bound_to 11000

$$$$
