AV-unprocessed.smi:1796|AV-procd|sdf|7252|dock1
  -GOLD-   22720 8503D 1   1.00000     0.00000
 Structure written by MMmdl.
 42 43  0  0  0  0  0  0  0  0  1 V2000
  150.8107  137.6344  154.5246 C   0  0  0  0  0  0  0  0  0  0  0  0
  150.4926  139.1169  154.7315 C   0  0  0  0  0  0  0  0  0  0  0  0
  151.4361  139.8982  154.8552 O   0  0  0  0  0  0  0  0  0  0  0  0
  149.1990  139.5178  154.7742 N   0  0  0  0  0  0  0  0  0  0  0  0
  148.7435  140.9094  154.8910 C   0  0  0  0  0  0  0  0  0  0  0  0
  148.1185  141.3403  153.5520 C   0  0  0  0  0  0  0  0  0  0  0  0
  146.9797  140.3869  153.1427 C   0  0  0  0  0  0  0  0  0  0  0  0
  147.4275  138.9075  153.1926 C   0  0  2  0  0  0  0  0  0  0  0  0
  146.2493  137.9669  152.9114 C   0  0  0  0  0  0  0  0  0  0  0  0
  145.1122  138.2687  153.2755 O   0  0  0  0  0  0  0  0  0  0  0  0
  146.5387  136.8325  152.2567 N   0  0  0  0  0  0  0  0  0  0  0  0
  145.5721  135.8240  151.8282 C   0  0  2  0  0  0  0  0  0  0  0  0
  144.5481  135.5814  152.9466 C   0  0  0  0  0  0  0  0  0  0  0  0
  146.3036  134.5262  151.4346 C   0  0  0  0  0  0  0  0  0  0  0  0
  145.3819  133.4693  151.0546 N   0  0  0  0  0  0  0  0  0  0  0  0
  145.6502  132.1328  150.8461 C   0  0  0  0  0  0  0  0  0  0  0  0
  144.4702  131.5278  150.5206 C   0  0  0  0  0  0  0  0  0  0  0  0
  143.5242  132.5902  150.5560 C   0  0  0  0  0  0  0  0  0  0  0  0
  144.0729  133.7513  150.8746 N   0  0  0  0  0  0  0  0  0  0  0  0
  148.0764  138.5955  154.5600 C   0  0  0  0  0  0  0  0  0  0  0  0
  150.3650  137.0287  155.3141 H   0  0  0  0  0  0  0  0  0  0  0  0
  151.8881  137.4669  154.5465 H   0  0  0  0  0  0  0  0  0  0  0  0
  150.4396  137.2905  153.5588 H   0  0  0  0  0  0  0  0  0  0  0  0
  148.0003  140.9760  155.6871 H   0  0  0  0  0  0  0  0  0  0  0  0
  149.5319  141.6058  155.1726 H   0  0  0  0  0  0  0  0  0  0  0  0
  147.7424  142.3613  153.6233 H   0  0  0  0  0  0  0  0  0  0  0  0
  148.8864  141.3465  152.7771 H   0  0  0  0  0  0  0  0  0  0  0  0
  146.1348  140.5420  153.8158 H   0  0  0  0  0  0  0  0  0  0  0  0
  146.6265  140.6417  152.1427 H   0  0  0  0  0  0  0  0  0  0  0  0
  148.1823  138.7545  152.4185 H   0  0  0  0  0  0  0  0  0  0  0  0
  147.5018  136.6732  151.9974 H   0  0  0  0  0  0  0  0  0  0  0  0
  145.0321  136.1813  150.9492 H   0  0  0  0  0  0  0  0  0  0  0  0
  143.8071  134.8406  152.6454 H   0  0  0  0  0  0  0  0  0  0  0  0
  144.0128  136.4983  153.1960 H   0  0  0  0  0  0  0  0  0  0  0  0
  145.0307  135.2195  153.8551 H   0  0  0  0  0  0  0  0  0  0  0  0
  146.9989  134.7090  150.6134 H   0  0  0  0  0  0  0  0  0  0  0  0
  146.9005  134.1641  152.2725 H   0  0  0  0  0  0  0  0  0  0  0  0
  146.6464  131.7283  150.9495 H   0  0  0  0  0  0  0  0  0  0  0  0
  144.3069  130.4847  150.2934 H   0  0  0  0  0  0  0  0  0  0  0  0
  142.4626  132.5527  150.3611 H   0  0  0  0  0  0  0  0  0  0  0  0
  148.3819  137.5486  154.6020 H   0  0  0  0  0  0  0  0  0  0  0  0
  147.3539  138.7234  155.3680 H   0  0  0  0  0  0  0  0  0  0  0  0
  1  2  1  0  0  0  0
  1 21  1  0  0  0  0
  1 22  1  0  0  0  0
  1 23  1  0  0  0  0
  2  3  2  0  0  0  0
  2  4  1  0  0  0  0
  4 20  1  0  0  0  0
  4  5  1  0  0  0  0
  5  6  1  0  0  0  0
  5 24  1  0  0  0  0
  5 25  1  0  0  0  0
  6  7  1  0  0  0  0
  6 26  1  0  0  0  0
  6 27  1  0  0  0  0
  7  8  1  0  0  0  0
  7 28  1  0  0  0  0
  7 29  1  0  0  0  0
  8  9  1  0  0  0  0
  8 20  1  0  0  0  0
  8 30  1  0  0  0  0
  9 10  2  0  0  0  0
  9 11  1  0  0  0  0
 11 12  1  0  0  0  0
 11 31  1  0  0  0  0
 12 13  1  0  0  0  0
 12 14  1  0  0  0  0
 12 32  1  0  0  0  0
 13 33  1  0  0  0  0
 13 34  1  0  0  0  0
 13 35  1  0  0  0  0
 14 15  1  0  0  0  0
 14 36  1  0  0  0  0
 14 37  1  0  0  0  0
 15 19  1  0  0  0  0
 15 16  1  0  0  0  0
 16 17  2  0  0  0  0
 16 38  1  0  0  0  0
 17 18  1  0  0  0  0
 17 39  1  0  0  0  0
 18 19  2  0  0  0  0
 18 40  1  0  0  0  0
 20 41  1  0  0  0  0
 20 42  1  0  0  0  0
M  END
> <s_m_source_file>
AV-unprocessed.smi

> <i_m_source_file_index>
1796

> <i_lp_mmshare_version>
43012

> <i_f3d_flags>
0

> <s_epik_input>
W0NIM11DKD1PKU4xW0NIMl1bQ0gyXVtDSDJdW0NASF0oW0NIMl0xKUMoPU8pW05IXVtDQEhdKFtDSDNdKVtDSDJdbjJbY0hdW2NIXVtjSF1uMg==

> <s_epik_cmdline>
J2VwaWtfcHl0aG9uJywgJy1waCcsICc3LjAnLCAnLXRuJywgJzgnLCAnLW1hJywgJzIwMCcsICctbWV0YWxfYmluZGluZycsICctaW1hZScsICc8aW5maWxlLm1hZT4nLCAnLW9tYWUnLCAnPG91dGZpbGUubWFlPic=

> <r_lp_tautomer_probability>
1

> <r_epik_Ionization_Penalty>
0.000315051

> <r_epik_Ionization_Penalty_Charging>
0

> <r_epik_Ionization_Penalty_Neutral>
0.000315051

> <r_epik_State_Penalty>
-0

> <r_epik_Charging_Adjusted_Penalty>
0

> <i_epik_Tot_Q>
0

> <i_epik_Tot_abs_Q>
0

> <r_epik_Metal_State_Penalty>
-0

> <b_epik_Metal_Only>
0

> <s_lp_Force_Field>
OPLS_2005

> <r_lp_Energy>
23.6711

> <b_lp_Chiralities_Consistent>
1

> <s_lp_Variant>
AV-unprocessed.smi:1796-2

> <Gold.Version>
5.8.1

> <Gold.Id.Protein>
6NUR|6NUR_protein|mol2

> <Gold.PLP.Fitness>
44.9565

> <Gold.PLP.PLP>
-34.7155

> <Gold.PLP.part.hbond>
-2.0000

> <Gold.PLP.part.metal>
0.0000

> <Gold.PLP.part.buried>
-5.3034

> <Gold.PLP.part.nonpolar>
-31.0430

> <Gold.PLP.part.repulsive>
2.1705

> <Gold.PLP.ligand.clash>
0.0000

> <Gold.PLP.ligand.torsion>
1.0555

> <Gold.PLP.Chemscore.Hbond>
2.0000

> <Gold.PLP.Chemscore.CHOScore>
2.0994

> <Gold.PLP.Chemscore.Metal>
0.0000

> <Gold.Chemscore.Hbonds>
donor molecule, donor type, donor heavy atom, donor atom, acceptor molecule, acceptor atom, score
      L1  H    11    31       P1  7948  0.94
      P1  H  7989  7998       L1     3  1.00
      L1  C    16    38       P1 10747  0.89
      L1  C    18    40       P1 10186  0.96
      L1  C    18    40       P1 10952  0.20

> <Gold.PLP.Chemscore.Internal.Correction>
0.0536

> <Gold.Rescore>
     Score         DG    S(hbond)    S(metal)    S(lipo)     H(rot)  DE(clash)    DE(int)     intcor
     13.46     -16.93       1.89        0.00      79.49       1.63       0.10       3.37       ----

> <Gold.Chemscore.Fitness>
13.4590

> <Gold.Chemscore.DG>
-16.9260

> <Gold.Chemscore.ZeroCoef>
-5.4800

> <Gold.Chemscore.Hbond>
1.8944

> <Gold.Chemscore.Metal>
0.0000

> <Gold.Chemscore.Lipo>
79.4939

> <Gold.Chemscore.Internal_Hbond>
0.0000

> <Gold.Chemscore.DEClash>
0.0965

> <Gold.Chemscore.DEInternal>
3.3705

> <Gold.Chemscore.Rot>
1.6336

> <Gold.Chemscore.Internal.Correction>
   9.000000E+99

> <Gold.Chemscore.Hbonds>
donor molecule, donor type, donor heavy atom, donor atom, acceptor molecule, acceptor atom, score
      L1  H    11    31       P1  7948  0.90
      P1  H  7989  7998       L1     3  0.85

> <Gold.Chemscore.Hbond.Weighted>
-6.3274

> <Gold.Chemscore.Metal.Weighted>
-0.0000

> <Gold.Chemscore.Lipo.Weighted>
-9.3008

> <Gold.Chemscore.Internal_Hbond.Weighted>
0.0000

> <Gold.Chemscore.DEClash.Weighted>
0.0965

> <Gold.Chemscore.DEInternal.Weighted>
3.3705

> <Gold.Chemscore.Rot.Weighted>
4.1821

> <Gold.Chemscore.Internal.Correction.Weighted>
   9.000000E+99

> <Gold.Protein.RotatedTorsions>
[ 6907 6896 6895 6894 ] final  140.20 input  -60.11 | X-H torsion
[ 7974 7965 7964 7962 ] final  -89.13 input  175.53 | X-H torsion
[ 8008 7997 7996 7995 ] final   83.38 input   59.86 | X-H torsion
[ 10167 10162 10161 10158 ] final  170.64 input  -65.29 | X-H torsion
[ 10718 10713 10712 10709 ] final  -84.78 input   66.30 | X-H torsion
[ 10763 10752 10751 10750 ] final -160.96 input  -60.55 | X-H torsion
[ 11005 11000 10999 10996 ] final  175.43 input  -57.11 | X-H torsion

> <Gold.Protein.ActiveResidues>
 VAL166  LYS551  ARG553  GLY616  TRP617  ASP618  TYR619  PRO620  LYS621  CYS622 
 ASP623  PHE694  ASN695  SER759  ASP760  ASP761  ALA762  ILE779  LEU786  VAL792 
 PHE793  MET794  SER795  GLU796  ALA797  LYS798  CYS799  TRP800  GLU811  SER814 

> <Gold.Protein.RotatedAtoms>
  152.2459  133.5174  159.5296 H   0  0  0  0  0  0  0  0  0  0  0  0  # atno 6907 bound_to 6896
  150.7078  134.1026  159.3980 H   0  0  0  0  0  0  0  0  0  0  0  0  # atno 6908 bound_to 6896
  151.8947  135.0402  160.0551 H   0  0  0  0  0  0  0  0  0  0  0  0  # atno 6909 bound_to 6896
  145.4440  140.9559  143.2059 H   0  0  0  0  0  0  0  0  0  0  0  0  # atno 7974 bound_to 7965
  155.9231  140.3420  155.6189 H   0  0  0  0  0  0  0  0  0  0  0  0  # atno 8008 bound_to 7997
  155.7249  140.0788  157.2333 H   0  0  0  0  0  0  0  0  0  0  0  0  # atno 8009 bound_to 7997
  154.4073  140.1598  156.2431 H   0  0  0  0  0  0  0  0  0  0  0  0  # atno 8010 bound_to 7997
  139.5024  144.3574  151.9860 H   0  0  0  0  0  0  0  0  0  0  0  0  # atno 10167 bound_to 10162
  156.0003  130.4709  150.4462 H   0  0  0  0  0  0  0  0  0  0  0  0  # atno 10718 bound_to 10713
  154.7345  135.3054  154.8834 H   0  0  0  0  0  0  0  0  0  0  0  0  # atno 10763 bound_to 10752
  153.9667  135.6746  153.4750 H   0  0  0  0  0  0  0  0  0  0  0  0  # atno 10764 bound_to 10752
  153.0950  135.4940  154.8683 H   0  0  0  0  0  0  0  0  0  0  0  0  # atno 10765 bound_to 10752
  140.3621  134.7103  157.4338 H   0  0  0  0  0  0  0  0  0  0  0  0  # atno 11005 bound_to 11000
  144.8104  139.5973  143.7032 LP  0  0  0  0  0  0  0  0  0  0  0  0  # atno 17320 bound_to 7965
  146.2541  139.6263  142.9407 LP  0  0  0  0  0  0  0  0  0  0  0  0  # atno 17321 bound_to 7965
  140.3011  144.3646  150.6060 LP  0  0  0  0  0  0  0  0  0  0  0  0  # atno 17342 bound_to 10162
  140.5873  143.2169  151.7319 LP  0  0  0  0  0  0  0  0  0  0  0  0  # atno 17343 bound_to 10162
  157.2499  131.0544  151.2386 LP  0  0  0  0  0  0  0  0  0  0  0  0  # atno 17370 bound_to 10713
  157.3539  130.7096  149.6458 LP  0  0  0  0  0  0  0  0  0  0  0  0  # atno 17371 bound_to 10713
  140.0618  134.5985  155.8740 LP  0  0  0  0  0  0  0  0  0  0  0  0  # atno 17394 bound_to 11000
  141.1981  133.6599  156.5773 LP  0  0  0  0  0  0  0  0  0  0  0  0  # atno 17395 bound_to 11000

$$$$
