AV-unprocessed.smi:157|AV-procd|sdf|1299|dock4
  -GOLD-   2262018583D 1   1.00000     0.00000
 Structure written by MMmdl.
 35 37  0  0  0  0  0  0  0  0  1 V2000
  155.5013  136.6945  156.3574 O   0  0  0  0  0  0  0  0  0  0  0  0
  154.6979  136.3604  157.4693 C   0  0  0  0  0  0  0  0  0  0  0  0
  154.6045  137.5653  158.4308 C   0  0  1  0  0  0  0  0  0  0  0  0
  154.0627  138.6660  157.6937 O   0  0  0  0  0  0  0  0  0  0  0  0
  152.7468  138.9341  158.0845 C   0  0  1  0  0  0  0  0  0  0  0  0
  151.8819  139.0330  156.8664 N   0  0  0  0  0  0  0  0  0  0  0  0
  151.9142  138.2327  155.7920 C   0  0  0  0  0  0  0  0  0  0  0  0
  151.0283  138.5321  154.8573 N   0  0  0  0  0  0  0  0  0  0  0  0
  150.3577  139.6401  155.3720 C   0  0  0  0  0  0  0  0  0  0  0  0
  150.8748  139.9696  156.6166 C   0  0  0  0  0  0  0  0  0  0  0  0
  150.6190  140.9275  157.5792 N   0  0  0  0  0  0  0  0  0  0  0  0
  149.9591  141.9848  157.2242 C   0  0  0  0  0  0  0  0  0  0  0  0
  149.3559  142.3001  156.0149 N   0  0  0  0  0  0  0  0  0  0  0  0
  148.4828  141.3862  155.2982 C   0  0  0  0  0  0  0  0  0  0  0  0
  149.2333  140.2529  154.5882 C   0  0  1  0  0  0  0  0  0  0  0  0
  149.7889  140.7452  153.3860 O   0  0  0  0  0  0  0  0  0  0  0  0
  152.2979  137.7716  158.9632 C   0  0  0  0  0  0  0  0  0  0  0  0
  153.6160  137.3930  159.5982 C   0  0  1  0  0  0  0  0  0  0  0  0
  153.5799  136.0968  160.1606 O   0  0  0  0  0  0  0  0  0  0  0  0
  155.5948  137.8118  158.8168 H   0  0  0  0  0  0  0  0  0  0  0  0
  152.6917  139.9073  158.5741 H   0  0  0  0  0  0  0  0  0  0  0  0
  148.5129  139.4828  154.3108 H   0  0  0  0  0  0  0  0  0  0  0  0
  153.8549  138.1099  160.3851 H   0  0  0  0  0  0  0  0  0  0  0  0
  155.8871  137.5435  156.5096 H   0  0  0  0  0  0  0  0  0  0  0  0
  153.7142  136.0276  157.1384 H   0  0  0  0  0  0  0  0  0  0  0  0
  155.1778  135.5102  157.9536 H   0  0  0  0  0  0  0  0  0  0  0  0
  152.6010  137.4056  155.6898 H   0  0  0  0  0  0  0  0  0  0  0  0
  149.8218  142.7802  157.9581 H   0  0  0  0  0  0  0  0  0  0  0  0
  149.1010  143.2615  155.8401 H   0  0  0  0  0  0  0  0  0  0  0  0
  147.8000  140.9514  156.0297 H   0  0  0  0  0  0  0  0  0  0  0  0
  147.8617  141.9409  154.5944 H   0  0  0  0  0  0  0  0  0  0  0  0
  149.6323  140.1072  152.7064 H   0  0  0  0  0  0  0  0  0  0  0  0
  151.5312  138.0821  159.6738 H   0  0  0  0  0  0  0  0  0  0  0  0
  151.9100  136.9621  158.3421 H   0  0  0  0  0  0  0  0  0  0  0  0
  154.0169  136.1209  160.9983 H   0  0  0  0  0  0  0  0  0  0  0  0
  1  2  1  0  0  0  0
  1 24  1  0  0  0  0
  2  3  1  0  0  0  0
  2 25  1  0  0  0  0
  2 26  1  0  0  0  0
  3 20  1  0  0  0  0
  3 18  1  0  0  0  0
  3  4  1  0  0  0  0
  4  5  1  0  0  0  0
  5 21  1  0  0  0  0
  5  6  1  0  0  0  0
  5 17  1  0  0  0  0
  6 10  1  0  0  0  0
  6  7  1  0  0  0  0
  7  8  2  0  0  0  0
  7 27  1  0  0  0  0
  8  9  1  0  0  0  0
  9 15  1  0  0  0  0
  9 10  2  0  0  0  0
 10 11  1  0  0  0  0
 11 12  2  0  0  0  0
 12 13  1  0  0  0  0
 12 28  1  0  0  0  0
 13 14  1  0  0  0  0
 13 29  1  0  0  0  0
 14 15  1  0  0  0  0
 14 30  1  0  0  0  0
 14 31  1  0  0  0  0
 15 22  1  0  0  0  0
 15 16  1  0  0  0  0
 16 32  1  0  0  0  0
 17 18  1  0  0  0  0
 17 33  1  0  0  0  0
 17 34  1  0  0  0  0
 18 23  1  0  0  0  0
 18 19  1  0  0  0  0
 19 35  1  0  0  0  0
M  END
> <s_m_source_file>
AV-unprocessed.smi

> <i_m_source_file_index>
157

> <i_lp_mmshare_version>
43012

> <i_f3d_flags>
0

> <s_epik_input>
W09IXVtDSDJdW0NASF0xT1tDQEhdKFtDSDJdW0NAQEhdMVtPSF0pbihbY0hdbjIpYyhjMjMpTj1bQ0hdW05IXVtDSDJdW0NASF0zW09IXQ==

> <s_epik_cmdline>
J2VwaWtfcHl0aG9uJywgJy1waCcsICc3LjAnLCAnLXRuJywgJzgnLCAnLW1hJywgJzIwMCcsICctbWV0YWxfYmluZGluZycsICctaW1hZScsICc8aW5maWxlLm1hZT4nLCAnLW9tYWUnLCAnPG91dGZpbGUubWFlPic=

> <r_lp_tautomer_probability>
1

> <r_epik_Ionization_Penalty>
0.0357149

> <r_epik_Ionization_Penalty_Charging>
0.0355056

> <r_epik_Ionization_Penalty_Neutral>
0.000209255

> <r_epik_State_Penalty>
0.0296046

> <r_epik_Charging_Adjusted_Penalty>
0.0651102

> <i_epik_Tot_Q>
0

> <i_epik_Tot_abs_Q>
0

> <r_epik_Metal_State_Penalty>
3.03559e-05

> <b_epik_Metal_Only>
0

> <s_epik_Chemistry_Notes>
This compound has an imine and may undergo hydrolysis. This compound contains an acetal/aminal-like group ( X-CH(R)-Y where X, Y are N, S, or O) that may be acid/base labile, releasing an aldehyde.

> <s_lp_Force_Field>
OPLS_2005

> <r_lp_Energy>
47.2619

> <b_lp_Chiralities_Consistent>
1

> <s_lp_Variant>
AV-unprocessed.smi:157-9

> <Gold.Version>
5.8.1

> <Gold.Id.Protein>
6NUR|6NUR_protein|mol2

> <Gold.PLP.Fitness>
40.9922

> <Gold.PLP.PLP>
-24.5792

> <Gold.PLP.part.hbond>
-5.8806

> <Gold.PLP.part.metal>
0.0000

> <Gold.PLP.part.buried>
-4.2715

> <Gold.PLP.part.nonpolar>
-14.9625

> <Gold.PLP.part.repulsive>
0.2378

> <Gold.PLP.ligand.clash>
0.0000

> <Gold.PLP.ligand.torsion>
0.4450

> <Gold.PLP.Chemscore.Hbond>
5.7629

> <Gold.PLP.Chemscore.CHOScore>
0.0000

> <Gold.PLP.Chemscore.Metal>
0.0000

> <Gold.Chemscore.Hbonds>
donor molecule, donor type, donor heavy atom, donor atom, acceptor molecule, acceptor atom, score
      L1  H    13    29       P1  8028  0.88
      L1  H    16    32       P1  7957  0.77
      P1  H  6896  6909       L1    19  1.00
      P1  H  7989  7998       L1    16  0.32
      P1  H  7997  8009       L1     4  1.00
      P1  H  8011  8017       L1    16  1.00
      P1  H 10752 10764       L1     1  0.64

> <Gold.PLP.Chemscore.Internal.Correction>
0.0144

> <Gold.Rescore>
     Score         DG    S(hbond)    S(metal)    S(lipo)     H(rot)  DE(clash)    DE(int)     intcor
     15.14     -15.58       4.56        0.00      35.58       3.64       0.03       0.41       ----

> <Gold.Chemscore.Fitness>
15.1392

> <Gold.Chemscore.DG>
-15.5773

> <Gold.Chemscore.ZeroCoef>
-5.4800

> <Gold.Chemscore.Hbond>
4.5639

> <Gold.Chemscore.Metal>
0.0000

> <Gold.Chemscore.Lipo>
35.5782

> <Gold.Chemscore.Internal_Hbond>
0.0000

> <Gold.Chemscore.DEClash>
0.0312

> <Gold.Chemscore.DEInternal>
0.4069

> <Gold.Chemscore.Rot>
3.6362

> <Gold.Chemscore.Internal.Correction>
   9.000000E+99

> <Gold.Chemscore.Hbonds>
donor molecule, donor type, donor heavy atom, donor atom, acceptor molecule, acceptor atom, score
      L1  H    13    29       P1  8028  0.86
      L1  H    16    32       P1  7957  0.72
      P1  H  6896  6909       L1    19  0.88
      P1  H  7989  7998       L1    16  0.12
      P1  H  7997  8009       L1     4  0.61
      P1  H  8011  8017       L1    16  0.25
      P1  H 10752 10764       L1     1  0.19

> <Gold.Chemscore.Hbond.Weighted>
-15.2434

> <Gold.Chemscore.Metal.Weighted>
-0.0000

> <Gold.Chemscore.Lipo.Weighted>
-4.1627

> <Gold.Chemscore.Internal_Hbond.Weighted>
0.0000

> <Gold.Chemscore.DEClash.Weighted>
0.0312

> <Gold.Chemscore.DEInternal.Weighted>
0.4069

> <Gold.Chemscore.Rot.Weighted>
9.3087

> <Gold.Chemscore.Internal.Correction.Weighted>
   9.000000E+99

> <Gold.Protein.RotatedTorsions>
[ 6907 6896 6895 6894 ] final  161.67 input  -60.11 | X-H torsion
[ 7974 7965 7964 7962 ] final    9.19 input  175.53 | X-H torsion
[ 8008 7997 7996 7995 ] final  148.90 input   59.86 | X-H torsion
[ 10167 10162 10161 10158 ] final -165.81 input  -65.29 | X-H torsion
[ 10718 10713 10712 10709 ] final -104.96 input   66.30 | X-H torsion
[ 10763 10752 10751 10750 ] final   79.99 input  -60.55 | X-H torsion
[ 11005 11000 10999 10996 ] final   44.04 input  -57.11 | X-H torsion

> <Gold.Protein.ActiveResidues>
 VAL166  LYS551  ARG553  GLY616  TRP617  ASP618  TYR619  PRO620  LYS621  CYS622 
 ASP623  PHE694  ASN695  SER759  ASP760  ASP761  ALA762  ILE779  LEU786  VAL792 
 PHE793  MET794  SER795  GLU796  ALA797  LYS798  CYS799  TRP800  GLU811  SER814 

> <Gold.Protein.RotatedAtoms>
  151.9521  133.3669  159.4003 H   0  0  0  0  0  0  0  0  0  0  0  0  # atno 6907 bound_to 6896
  150.6979  134.4329  159.5266 H   0  0  0  0  0  0  0  0  0  0  0  0  # atno 6908 bound_to 6896
  152.2004  134.8593  160.0559 H   0  0  0  0  0  0  0  0  0  0  0  0  # atno 6909 bound_to 6896
  146.2407  139.9820  142.8435 H   0  0  0  0  0  0  0  0  0  0  0  0  # atno 7974 bound_to 7965
  156.2775  140.2116  156.5772 H   0  0  0  0  0  0  0  0  0  0  0  0  # atno 8008 bound_to 7997
  154.7088  140.0514  157.0553 H   0  0  0  0  0  0  0  0  0  0  0  0  # atno 8009 bound_to 7997
  155.0634  140.3169  155.4656 H   0  0  0  0  0  0  0  0  0  0  0  0  # atno 8010 bound_to 7997
  139.6157  144.0725  152.1885 H   0  0  0  0  0  0  0  0  0  0  0  0  # atno 10167 bound_to 10162
  156.0326  130.5540  150.7471 H   0  0  0  0  0  0  0  0  0  0  0  0  # atno 10718 bound_to 10713
  153.0997  135.4819  154.8845 H   0  0  0  0  0  0  0  0  0  0  0  0  # atno 10763 bound_to 10752
  154.7365  135.3072  154.8805 H   0  0  0  0  0  0  0  0  0  0  0  0  # atno 10764 bound_to 10752
  153.9425  135.6832  153.4797 H   0  0  0  0  0  0  0  0  0  0  0  0  # atno 10765 bound_to 10752
  140.1588  134.4367  155.8331 H   0  0  0  0  0  0  0  0  0  0  0  0  # atno 11005 bound_to 11000
  145.1583  140.9659  143.4392 LP  0  0  0  0  0  0  0  0  0  0  0  0  # atno 17320 bound_to 7965
  145.0140  139.3484  143.6106 LP  0  0  0  0  0  0  0  0  0  0  0  0  # atno 17321 bound_to 7965
  140.0354  144.6048  150.7453 LP  0  0  0  0  0  0  0  0  0  0  0  0  # atno 17342 bound_to 10162
  140.7349  143.2734  151.3816 LP  0  0  0  0  0  0  0  0  0  0  0  0  # atno 17343 bound_to 10162
  157.5025  131.0919  151.0297 LP  0  0  0  0  0  0  0  0  0  0  0  0  # atno 17370 bound_to 10713
  157.0675  130.5850  149.5396 LP  0  0  0  0  0  0  0  0  0  0  0  0  # atno 17371 bound_to 10713
  141.2207  133.6904  156.7556 LP  0  0  0  0  0  0  0  0  0  0  0  0  # atno 17394 bound_to 11000
  140.2514  134.8537  157.3671 LP  0  0  0  0  0  0  0  0  0  0  0  0  # atno 17395 bound_to 11000

$$$$
