AV-unprocessed.smi:1948|AV-procd|sdf|7875|dock1
  -GOLD-   2272010 23D 1   1.00000     0.00000
 Structure written by MMmdl.
 29 30  0  0  0  0  0  0  0  0  2 V2000
  146.9805  132.0687  153.3421 O   0  0  0  0  0  0  0  0  0  0  0  0
  147.6801  133.0654  153.1469 C   0  0  0  0  0  0  0  0  0  0  0  0
  148.7473  133.4513  153.8828 N   0  5  0  0  0  0  0  0  0  0  0  0
  149.5798  132.5292  154.3939 C   0  0  0  0  0  0  0  0  0  0  0  0
  150.5583  132.8458  155.2570 N   0  0  0  0  0  0  0  0  0  0  0  0
  151.3002  131.7467  155.6684 N   0  0  0  0  0  0  0  0  0  0  0  0
  150.8540  130.6224  155.1086 C   0  0  0  0  0  0  0  0  0  0  0  0
  149.4869  130.8038  154.0300 S   0  0  0  0  0  0  0  0  0  0  0  0
  147.4071  133.8857  152.1216 N   0  0  0  0  0  0  0  0  0  0  0  0
  146.3174  133.7315  151.1612 C   0  0  2  0  0  0  0  0  0  0  0  0
  144.9491  133.8342  151.8674 C   0  0  0  0  0  0  0  0  0  0  0  0
  143.7907  133.5973  150.8850 C   0  0  0  0  0  0  0  0  0  0  0  0
  143.9399  132.2448  150.1679 C   0  0  1  0  0  0  0  0  0  0  0  0
  142.8991  132.0929  149.2256 O   0  0  0  0  0  0  0  0  0  0  0  0
  145.2986  132.1443  149.4540 C   0  0  0  0  0  0  0  0  0  0  0  0
  146.4580  132.3797  150.4356 C   0  0  0  0  0  0  0  0  0  0  0  0
  151.3313  129.6807  155.3341 H   0  0  0  0  0  0  0  0  0  0  0  0
  148.0092  134.6869  152.0006 H   0  0  0  0  0  0  0  0  0  0  0  0
  146.3898  134.5236  150.4134 H   0  0  0  0  0  0  0  0  0  0  0  0
  144.8942  133.1022  152.6744 H   0  0  0  0  0  0  0  0  0  0  0  0
  144.8368  134.8142  152.3327 H   0  0  0  0  0  0  0  0  0  0  0  0
  142.8409  133.6368  151.4193 H   0  0  0  0  0  0  0  0  0  0  0  0
  143.7693  134.4061  150.1530 H   0  0  0  0  0  0  0  0  0  0  0  0
  143.8538  131.4376  150.8964 H   0  0  0  0  0  0  0  0  0  0  0  0
  142.2888  132.8058  149.3365 H   0  0  0  0  0  0  0  0  0  0  0  0
  145.4054  131.1651  148.9856 H   0  0  0  0  0  0  0  0  0  0  0  0
  145.3518  132.8802  148.6502 H   0  0  0  0  0  0  0  0  0  0  0  0
  147.4066  132.3413  149.8987 H   0  0  0  0  0  0  0  0  0  0  0  0
  146.4830  131.5689  151.1653 H   0  0  0  0  0  0  0  0  0  0  0  0
  1  2  2  0  0  0  0
  2  3  1  0  0  0  0
  2  9  1  0  0  0  0
  3  4  1  0  0  0  0
  4  8  1  0  0  0  0
  4  5  2  0  0  0  0
  5  6  1  0  0  0  0
  6  7  2  0  0  0  0
  7  8  1  0  0  0  0
  7 17  1  0  0  0  0
  9 10  1  0  0  0  0
  9 18  1  0  0  0  0
 10 16  1  0  0  0  0
 10 11  1  0  0  0  0
 10 19  1  0  0  0  0
 11 12  1  0  0  0  0
 11 20  1  0  0  0  0
 11 21  1  0  0  0  0
 12 13  1  0  0  0  0
 12 22  1  0  0  0  0
 12 23  1  0  0  0  0
 13 14  1  0  0  0  0
 13 15  1  0  0  0  0
 13 24  1  0  0  0  0
 14 25  1  0  0  0  0
 15 16  1  0  0  0  0
 15 26  1  0  0  0  0
 15 27  1  0  0  0  0
 16 28  1  0  0  0  0
 16 29  1  0  0  0  0
M  CHG  1   3  -1
M  END
> <s_m_source_file>
AV-unprocessed.smi

> <i_m_source_file_index>
1948

> <i_lp_mmshare_version>
43012

> <i_f3d_flags>
0

> <s_epik_input>
czFbY0hdbm5jMVtOSF1DKD1PKVtOSF1bQ0BASF0yW0NIMl1bQ0gyXVtDQEBIXShbT0hdKVtDSDJdW0NIMl0y

> <s_epik_cmdline>
J2VwaWtfcHl0aG9uJywgJy1waCcsICc3LjAnLCAnLXRuJywgJzgnLCAnLW1hJywgJzIwMCcsICctbWV0YWxfYmluZGluZycsICctaW1hZScsICc8aW5maWxlLm1hZT4nLCAnLW9tYWUnLCAnPG91dGZpbGUubWFlPic=

> <r_lp_tautomer_probability>
1

> <r_epik_Ionization_Penalty>
4.52057

> <r_epik_Ionization_Penalty_Charging>
4.4725

> <r_epik_Ionization_Penalty_Neutral>
0.048076

> <r_epik_State_Penalty>
4.47218

> <r_epik_Charging_Adjusted_Penalty>
8.94468

> <i_epik_Tot_Q>
-1

> <i_epik_Tot_abs_Q>
1

> <r_epik_Metal_State_Penalty>
0.805713

> <b_epik_Metal_Only>
1

> <s_lp_Force_Field>
OPLS_2005

> <r_lp_Energy>
5.07153

> <b_lp_Chiralities_Consistent>
1

> <s_lp_Variant>
AV-unprocessed.smi:1948-3

> <Gold.Version>
5.8.1

> <Gold.Id.Protein>
6NUR|6NUR_protein|mol2

> <Gold.PLP.Fitness>
38.8028

> <Gold.PLP.PLP>
-30.5964

> <Gold.PLP.part.hbond>
-4.0000

> <Gold.PLP.part.metal>
0.0000

> <Gold.PLP.part.buried>
-2.7696

> <Gold.PLP.part.nonpolar>
-23.7600

> <Gold.PLP.part.repulsive>
0.2877

> <Gold.PLP.ligand.clash>
0.0000

> <Gold.PLP.ligand.torsion>
0.2869

> <Gold.PLP.Chemscore.Hbond>
2.9175

> <Gold.PLP.Chemscore.CHOScore>
0.0000

> <Gold.PLP.Chemscore.Metal>
0.0000

> <Gold.Chemscore.Hbonds>
donor molecule, donor type, donor heavy atom, donor atom, acceptor molecule, acceptor atom, score
      L1  H     9    18       P1  7948  1.00
      L1  H    14    25       P1 10186  0.91
      P1  H 10785 10796       L1    14  0.95

> <Gold.PLP.Chemscore.Internal.Correction>
0.0277

> <Gold.Rescore>
     Score         DG    S(hbond)    S(metal)    S(lipo)     H(rot)  DE(clash)    DE(int)     intcor
     12.13     -15.00       1.97        0.00      58.68       1.53       0.07       2.81       ----

> <Gold.Chemscore.Fitness>
12.1289

> <Gold.Chemscore.DG>
-15.0048

> <Gold.Chemscore.ZeroCoef>
-5.4800

> <Gold.Chemscore.Hbond>
1.9716

> <Gold.Chemscore.Metal>
0.0000

> <Gold.Chemscore.Lipo>
58.6814

> <Gold.Chemscore.Internal_Hbond>
0.0000

> <Gold.Chemscore.DEClash>
0.0691

> <Gold.Chemscore.DEInternal>
2.8068

> <Gold.Chemscore.Rot>
1.5337

> <Gold.Chemscore.Internal.Correction>
   9.000000E+99

> <Gold.Chemscore.Hbonds>
donor molecule, donor type, donor heavy atom, donor atom, acceptor molecule, acceptor atom, score
      L1  H     9    18       P1  7948  0.26
      L1  H    14    25       P1 10186  0.89
      P1  H 10785 10796       L1    14  0.20

> <Gold.Chemscore.Hbond.Weighted>
-6.5853

> <Gold.Chemscore.Metal.Weighted>
-0.0000

> <Gold.Chemscore.Lipo.Weighted>
-6.8657

> <Gold.Chemscore.Internal_Hbond.Weighted>
0.0000

> <Gold.Chemscore.DEClash.Weighted>
0.0691

> <Gold.Chemscore.DEInternal.Weighted>
2.8068

> <Gold.Chemscore.Rot.Weighted>
3.9262

> <Gold.Chemscore.Internal.Correction.Weighted>
   9.000000E+99

> <Gold.Protein.RotatedTorsions>
[ 6907 6896 6895 6894 ] final   56.30 input  -60.11 | X-H torsion
[ 7974 7965 7964 7962 ] final  -48.82 input  175.53 | X-H torsion
[ 8008 7997 7996 7995 ] final   19.89 input   59.86 | X-H torsion
[ 10167 10162 10161 10158 ] final -120.96 input  -65.29 | X-H torsion
[ 10718 10713 10712 10709 ] final  -55.19 input   66.30 | X-H torsion
[ 10763 10752 10751 10750 ] final -147.19 input  -60.55 | X-H torsion
[ 11005 11000 10999 10996 ] final   -1.46 input  -57.11 | X-H torsion

> <Gold.Protein.ActiveResidues>
 VAL166  LYS551  ARG553  GLY616  TRP617  ASP618  TYR619  PRO620  LYS621  CYS622 
 ASP623  PHE694  ASN695  SER759  ASP760  ASP761  ALA762  ILE779  LEU786  VAL792 
 PHE793  MET794  SER795  GLU796  ALA797  LYS798  CYS799  TRP800  GLU811  SER814 

> <Gold.Protein.RotatedAtoms>
  152.3623  134.6855  160.0202 H   0  0  0  0  0  0  0  0  0  0  0  0  # atno 6907 bound_to 6896
  151.7174  133.3308  159.3314 H   0  0  0  0  0  0  0  0  0  0  0  0  # atno 6908 bound_to 6896
  150.7613  134.6413  159.6283 H   0  0  0  0  0  0  0  0  0  0  0  0  # atno 6909 bound_to 6896
  145.9471  140.7608  142.9523 H   0  0  0  0  0  0  0  0  0  0  0  0  # atno 7974 bound_to 7965
  154.9274  140.3035  155.5185 H   0  0  0  0  0  0  0  0  0  0  0  0  # atno 8008 bound_to 7997
  156.3006  140.2360  156.4267 H   0  0  0  0  0  0  0  0  0  0  0  0  # atno 8009 bound_to 7997
  154.8271  140.0420  157.1440 H   0  0  0  0  0  0  0  0  0  0  0  0  # atno 8010 bound_to 7997
  140.0302  143.5256  152.2180 H   0  0  0  0  0  0  0  0  0  0  0  0  # atno 10167 bound_to 10162
  156.1389  130.4155  150.0138 H   0  0  0  0  0  0  0  0  0  0  0  0  # atno 10718 bound_to 10713
  154.8298  135.3366  154.6780 H   0  0  0  0  0  0  0  0  0  0  0  0  # atno 10763 bound_to 10752
  153.7401  135.6946  153.4973 H   0  0  0  0  0  0  0  0  0  0  0  0  # atno 10764 bound_to 10752
  153.2250  135.4436  155.0483 H   0  0  0  0  0  0  0  0  0  0  0  0  # atno 10765 bound_to 10752
  140.6475  133.9434  155.8361 H   0  0  0  0  0  0  0  0  0  0  0  0  # atno 11005 bound_to 11000
  144.6789  140.2374  143.7348 LP  0  0  0  0  0  0  0  0  0  0  0  0  # atno 17320 bound_to 7965
  145.8222  139.2048  143.1931 LP  0  0  0  0  0  0  0  0  0  0  0  0  # atno 17321 bound_to 7965
  139.6081  144.7601  151.3015 LP  0  0  0  0  0  0  0  0  0  0  0  0  # atno 17342 bound_to 10162
  140.7305  143.6878  150.7947 LP  0  0  0  0  0  0  0  0  0  0  0  0  # atno 17343 bound_to 10162
  156.8029  130.9297  151.3645 LP  0  0  0  0  0  0  0  0  0  0  0  0  # atno 17370 bound_to 10713
  157.6557  130.8923  149.9725 LP  0  0  0  0  0  0  0  0  0  0  0  0  # atno 17371 bound_to 10713
  141.0561  134.0414  157.3720 LP  0  0  0  0  0  0  0  0  0  0  0  0  # atno 17394 bound_to 11000
  139.9057  135.0179  156.7476 LP  0  0  0  0  0  0  0  0  0  0  0  0  # atno 17395 bound_to 11000

$$$$
