AV-unprocessed.smi:3324|AV-procd|sdf|12782|dock8
  -GOLD-   2272019133D 1   1.00000     0.00000
 Structure written by MMmdl.
 30 30  0  0  0  0  0  0  0  0  1 V2000
  146.0397  138.8911  154.3738 O   0  0  0  0  0  0  0  0  0  0  0  0
  146.7992  138.3401  153.5777 C   0  0  0  0  0  0  0  0  0  0  0  0
  146.4514  138.3021  152.0907 C   0  0  0  0  0  0  0  0  0  0  0  0
  145.2016  137.5747  151.8485 N   0  0  0  0  0  0  0  0  0  0  0  0
  145.4524  136.1463  151.7348 C   0  0  0  0  0  0  0  0  0  0  0  0
  144.5722  135.5630  150.6203 C   0  0  0  0  0  0  0  0  0  0  0  0
  144.9691  134.2105  150.2813 N   0  0  0  0  0  0  0  0  0  0  0  0
  144.3763  133.3426  149.3888 C   0  0  0  0  0  0  0  0  0  0  0  0
  145.0987  132.1841  149.4087 C   0  0  0  0  0  0  0  0  0  0  0  0
  146.1264  132.4431  150.3585 C   0  0  0  0  0  0  0  0  0  0  0  0
  146.0439  133.6558  150.8817 N   0  0  0  0  0  0  0  0  0  0  0  0
  147.9517  137.7546  153.9369 N   0  0  0  0  0  0  0  0  0  0  0  0
  148.4734  137.6849  155.2980 C   0  0  0  0  0  0  0  0  0  0  0  0
  149.7402  138.5386  155.4752 C   0  0  0  0  0  0  0  0  0  0  0  0
  150.1369  138.4717  156.7453 F   0  0  0  0  0  0  0  0  0  0  0  0
  150.7198  138.0772  154.6971 F   0  0  0  0  0  0  0  0  0  0  0  0
  149.5017  139.8144  155.1711 F   0  0  0  0  0  0  0  0  0  0  0  0
  146.3649  139.3218  151.7113 H   0  0  0  0  0  0  0  0  0  0  0  0
  147.2721  137.8247  151.5528 H   0  0  0  0  0  0  0  0  0  0  0  0
  144.7486  137.8973  151.0049 H   0  0  0  0  0  0  0  0  0  0  0  0
  146.5065  135.9723  151.5118 H   0  0  0  0  0  0  0  0  0  0  0  0
  145.2302  135.6531  152.6824 H   0  0  0  0  0  0  0  0  0  0  0  0
  143.5261  135.5455  150.9299 H   0  0  0  0  0  0  0  0  0  0  0  0
  144.6262  136.1813  149.7226 H   0  0  0  0  0  0  0  0  0  0  0  0
  143.4999  133.6189  148.8213 H   0  0  0  0  0  0  0  0  0  0  0  0
  144.9204  131.2882  148.8327 H   0  0  0  0  0  0  0  0  0  0  0  0
  146.9240  131.7903  150.6818 H   0  0  0  0  0  0  0  0  0  0  0  0
  148.5095  137.3273  153.2117 H   0  0  0  0  0  0  0  0  0  0  0  0
  147.7094  137.9840  156.0176 H   0  0  0  0  0  0  0  0  0  0  0  0
  148.7029  136.6409  155.5130 H   0  0  0  0  0  0  0  0  0  0  0  0
  1  2  2  0  0  0  0
  2  3  1  0  0  0  0
  2 12  1  0  0  0  0
  3  4  1  0  0  0  0
  3 18  1  0  0  0  0
  3 19  1  0  0  0  0
  4  5  1  0  0  0  0
  4 20  1  0  0  0  0
  5  6  1  0  0  0  0
  5 21  1  0  0  0  0
  5 22  1  0  0  0  0
  6  7  1  0  0  0  0
  6 23  1  0  0  0  0
  6 24  1  0  0  0  0
  7 11  1  0  0  0  0
  7  8  1  0  0  0  0
  8  9  2  0  0  0  0
  8 25  1  0  0  0  0
  9 10  1  0  0  0  0
  9 26  1  0  0  0  0
 10 11  2  0  0  0  0
 10 27  1  0  0  0  0
 12 13  1  0  0  0  0
 12 28  1  0  0  0  0
 13 14  1  0  0  0  0
 13 29  1  0  0  0  0
 13 30  1  0  0  0  0
 14 15  1  0  0  0  0
 14 16  1  0  0  0  0
 14 17  1  0  0  0  0
M  END
> <s_m_source_file>
AV-unprocessed.smi

> <i_m_source_file_index>
3324

> <i_lp_mmshare_version>
43012

> <i_f3d_flags>
0

> <s_epik_input>
RkMoRikoRilbQ0gyXVtOSF1DKD1PKVtDSDJdW05IXVtDSDJdW0NIMl1uMVtjSF1bY0hdW2NIXW4x

> <s_epik_cmdline>
J2VwaWtfcHl0aG9uJywgJy1waCcsICc3LjAnLCAnLXRuJywgJzgnLCAnLW1hJywgJzIwMCcsICctbWV0YWxfYmluZGluZycsICctaW1hZScsICc8aW5maWxlLm1hZT4nLCAnLW9tYWUnLCAnPG91dGZpbGUubWFlPic=

> <r_lp_tautomer_probability>
1

> <r_epik_Ionization_Penalty>
0.533356

> <r_epik_Ionization_Penalty_Charging>
0

> <r_epik_Ionization_Penalty_Neutral>
0.533356

> <r_epik_State_Penalty>
0.540813

> <r_epik_Charging_Adjusted_Penalty>
0.540813

> <i_epik_Tot_Q>
0

> <i_epik_Tot_abs_Q>
0

> <r_epik_Metal_State_Penalty>
0.549553

> <b_epik_Metal_Only>
0

> <s_lp_Force_Field>
OPLS_2005

> <r_lp_Energy>
3.03628

> <b_lp_Chiralities_Consistent>
1

> <s_lp_Variant>
AV-unprocessed.smi:3324-2

> <Gold.Version>
5.8.1

> <Gold.Id.Protein>
6NUR|6NUR_protein|mol2

> <Gold.PLP.Fitness>
44.4946

> <Gold.PLP.PLP>
-33.3391

> <Gold.PLP.part.hbond>
-2.3621

> <Gold.PLP.part.metal>
0.0000

> <Gold.PLP.part.buried>
-3.7083

> <Gold.PLP.part.nonpolar>
-28.2813

> <Gold.PLP.part.repulsive>
0.3261

> <Gold.PLP.ligand.clash>
0.0000

> <Gold.PLP.ligand.torsion>
0.5076

> <Gold.PLP.Chemscore.Hbond>
2.0000

> <Gold.PLP.Chemscore.CHOScore>
2.0000

> <Gold.PLP.Chemscore.Metal>
0.0000

> <Gold.Chemscore.Hbonds>
donor molecule, donor type, donor heavy atom, donor atom, acceptor molecule, acceptor atom, score
      L1  H     4    20       P1 10171  1.00
      L1  H    12    28       P1  7948  1.00
      L1  C     8    25       P1 10186  0.55
      L1  C    10    27       P1 10747  1.00

> <Gold.PLP.Chemscore.Internal.Correction>
0.1707

> <Gold.Rescore>
     Score         DG    S(hbond)    S(metal)    S(lipo)     H(rot)  DE(clash)    DE(int)     intcor
     11.07     -11.86       1.98        0.00      59.97       2.83       0.02       0.77       ----

> <Gold.Chemscore.Fitness>
11.0735

> <Gold.Chemscore.DG>
-11.8624

> <Gold.Chemscore.ZeroCoef>
-5.4800

> <Gold.Chemscore.Hbond>
1.9795

> <Gold.Chemscore.Metal>
0.0000

> <Gold.Chemscore.Lipo>
59.9731

> <Gold.Chemscore.Internal_Hbond>
0.0000

> <Gold.Chemscore.DEClash>
0.0196

> <Gold.Chemscore.DEInternal>
0.7693

> <Gold.Chemscore.Rot>
2.8305

> <Gold.Chemscore.Internal.Correction>
   9.000000E+99

> <Gold.Chemscore.Hbonds>
donor molecule, donor type, donor heavy atom, donor atom, acceptor molecule, acceptor atom, score
      L1  H     4    20       P1 10171  1.00
      L1  H    12    28       P1  7948  1.00

> <Gold.Chemscore.Hbond.Weighted>
-6.6117

> <Gold.Chemscore.Metal.Weighted>
-0.0000

> <Gold.Chemscore.Lipo.Weighted>
-7.0169

> <Gold.Chemscore.Internal_Hbond.Weighted>
0.0000

> <Gold.Chemscore.DEClash.Weighted>
0.0196

> <Gold.Chemscore.DEInternal.Weighted>
0.7693

> <Gold.Chemscore.Rot.Weighted>
7.2461

> <Gold.Chemscore.Internal.Correction.Weighted>
   9.000000E+99

> <Gold.Protein.RotatedTorsions>
[ 6907 6896 6895 6894 ] final  169.22 input  -60.11 | X-H torsion
[ 7974 7965 7964 7962 ] final   94.33 input  175.53 | X-H torsion
[ 8008 7997 7996 7995 ] final -116.06 input   59.86 | X-H torsion
[ 10167 10162 10161 10158 ] final   14.21 input  -65.29 | X-H torsion
[ 10718 10713 10712 10709 ] final  155.42 input   66.30 | X-H torsion
[ 10763 10752 10751 10750 ] final  -47.80 input  -60.55 | X-H torsion
[ 11005 11000 10999 10996 ] final -176.70 input  -57.11 | X-H torsion

> <Gold.Protein.ActiveResidues>
 VAL166  LYS551  ARG553  GLY616  TRP617  ASP618  TYR619  PRO620  LYS621  CYS622 
 ASP623  PHE694  ASN695  SER759  ASP760  ASP761  ALA762  ILE779  LEU786  VAL792 
 PHE793  MET794  SER795  GLU796  ALA797  LYS798  CYS799  TRP800  GLU811  SER814 

> <Gold.Protein.RotatedAtoms>
  151.8353  133.3415  159.3625 H   0  0  0  0  0  0  0  0  0  0  0  0  # atno 6907 bound_to 6896
  150.7251  134.5443  159.5772 H   0  0  0  0  0  0  0  0  0  0  0  0  # atno 6908 bound_to 6896
  152.2905  134.7727  160.0430 H   0  0  0  0  0  0  0  0  0  0  0  0  # atno 6909 bound_to 6896
  145.4670  139.2284  143.2956 H   0  0  0  0  0  0  0  0  0  0  0  0  # atno 7974 bound_to 7965
  155.0619  140.0393  157.2579 H   0  0  0  0  0  0  0  0  0  0  0  0  # atno 8008 bound_to 7997
  154.7052  140.2681  155.6657 H   0  0  0  0  0  0  0  0  0  0  0  0  # atno 8009 bound_to 7997
  156.2773  140.2732  156.1676 H   0  0  0  0  0  0  0  0  0  0  0  0  # atno 8010 bound_to 7997
  140.5951  143.8717  150.6910 H   0  0  0  0  0  0  0  0  0  0  0  0  # atno 10167 bound_to 10162
  157.2186  131.0713  151.1926 H   0  0  0  0  0  0  0  0  0  0  0  0  # atno 10718 bound_to 10713
  154.0674  135.6609  153.4819 H   0  0  0  0  0  0  0  0  0  0  0  0  # atno 10763 bound_to 10752
  153.0404  135.5149  154.7600 H   0  0  0  0  0  0  0  0  0  0  0  0  # atno 10764 bound_to 10752
  154.6655  135.3021  154.9778 H   0  0  0  0  0  0  0  0  0  0  0  0  # atno 10765 bound_to 10752
  140.4492  134.6360  157.4793 H   0  0  0  0  0  0  0  0  0  0  0  0  # atno 11005 bound_to 11000
  146.2419  140.5444  142.8930 LP  0  0  0  0  0  0  0  0  0  0  0  0  # atno 17320 bound_to 7965
  144.7968  140.6138  143.6504 LP  0  0  0  0  0  0  0  0  0  0  0  0  # atno 17321 bound_to 7965
  140.2250  143.3780  152.1612 LP  0  0  0  0  0  0  0  0  0  0  0  0  # atno 17342 bound_to 10162
  139.5253  144.7094  151.5254 LP  0  0  0  0  0  0  0  0  0  0  0  0  # atno 17343 bound_to 10162
  157.3599  130.7126  149.6495 LP  0  0  0  0  0  0  0  0  0  0  0  0  # atno 17370 bound_to 10713
  155.9684  130.4228  150.4535 LP  0  0  0  0  0  0  0  0  0  0  0  0  # atno 17371 bound_to 10713
  140.0018  134.6824  155.9518 LP  0  0  0  0  0  0  0  0  0  0  0  0  # atno 17394 bound_to 11000
  141.1672  133.6537  156.4521 LP  0  0  0  0  0  0  0  0  0  0  0  0  # atno 17395 bound_to 11000

$$$$
