AV-unprocessed.smi:2919|AV-procd|sdf|11193|dock2
  -GOLD-   2272016 83D 1   1.00000     0.00000
 Structure written by MMmdl.
 34 36  0  0  0  0  0  0  0  0  1 V2000
  147.6569  140.1672  153.6146 C   0  0  0  0  0  0  0  0  0  0  0  0
  148.6070  140.5804  154.7245 C   0  0  0  0  0  0  0  0  0  0  0  0
  148.1181  141.5068  155.5778 N   0  0  0  0  0  0  0  0  0  0  0  0
  148.8600  141.9480  156.5946 N   0  0  0  0  0  0  0  0  0  0  0  0
  150.1166  141.4823  156.7938 C   0  0  0  0  0  0  0  0  0  0  0  0
  150.8364  141.9952  157.8885 N   0  0  0  0  0  0  0  0  0  0  0  0
  151.1177  143.4236  157.9967 C   0  0  1  0  0  0  0  0  0  0  0  0
  150.4266  144.0782  159.1951 C   0  0  0  0  0  0  0  0  0  0  0  0
  151.6055  144.7533  159.9102 C   0  0  1  0  0  0  0  0  0  0  0  0
  152.4779  143.7294  160.6477 C   0  0  0  0  0  0  0  0  0  0  0  0
  153.1886  143.0350  159.4878 C   0  0  0  0  0  0  0  0  0  0  0  0
  152.5970  143.7644  158.2693 C   0  0  2  0  0  0  0  0  0  0  0  0
  152.4456  145.0655  158.8117 O   0  0  0  0  0  0  0  0  0  0  0  0
  150.6926  140.5077  155.9381 C   0  0  0  0  0  0  0  0  0  0  0  0
  152.0494  140.0103  156.1576 C   0  0  0  0  0  0  0  0  0  0  0  0
  153.1234  139.6161  156.3311 N   0  0  0  0  0  0  0  0  0  0  0  0
  149.9077  140.0361  154.8560 C   0  0  0  0  0  0  0  0  0  0  0  0
  150.4461  138.9904  153.8827 C   0  0  0  0  0  0  0  0  0  0  0  0
  147.4539  139.0971  153.6653 H   0  0  0  0  0  0  0  0  0  0  0  0
  148.0873  140.3962  152.6394 H   0  0  0  0  0  0  0  0  0  0  0  0
  146.7026  140.6910  153.6885 H   0  0  0  0  0  0  0  0  0  0  0  0
  151.4374  141.3643  158.3989 H   0  0  0  0  0  0  0  0  0  0  0  0
  150.7864  143.9298  157.0888 H   0  0  0  0  0  0  0  0  0  0  0  0
  149.7026  144.8190  158.8539 H   0  0  0  0  0  0  0  0  0  0  0  0
  149.9060  143.3725  159.8441 H   0  0  0  0  0  0  0  0  0  0  0  0
  151.3212  145.6120  160.5190 H   0  0  0  0  0  0  0  0  0  0  0  0
  153.2003  144.2274  161.2956 H   0  0  0  0  0  0  0  0  0  0  0  0
  151.8886  143.0426  161.2562 H   0  0  0  0  0  0  0  0  0  0  0  0
  154.2641  143.2042  159.5486 H   0  0  0  0  0  0  0  0  0  0  0  0
  153.0204  141.9581  159.4675 H   0  0  0  0  0  0  0  0  0  0  0  0
  153.2311  143.7252  157.3832 H   0  0  0  0  0  0  0  0  0  0  0  0
  151.3593  139.3517  153.4084 H   0  0  0  0  0  0  0  0  0  0  0  0
  149.7468  138.7394  153.0871 H   0  0  0  0  0  0  0  0  0  0  0  0
  150.6796  138.0673  154.4144 H   0  0  0  0  0  0  0  0  0  0  0  0
  1  2  1  0  0  0  0
  1 19  1  0  0  0  0
  1 20  1  0  0  0  0
  1 21  1  0  0  0  0
  2 17  1  0  0  0  0
  2  3  2  0  0  0  0
  3  4  1  0  0  0  0
  4  5  2  0  0  0  0
  5  6  1  0  0  0  0
  5 14  1  0  0  0  0
  6  7  1  0  0  0  0
  6 22  1  0  0  0  0
  7 12  1  0  0  0  0
  7  8  1  0  0  0  0
  7 23  1  0  0  0  0
  8  9  1  0  0  0  0
  8 24  1  0  0  0  0
  8 25  1  0  0  0  0
  9 13  1  0  0  0  0
  9 10  1  0  0  0  0
  9 26  1  0  0  0  0
 10 11  1  0  0  0  0
 10 27  1  0  0  0  0
 10 28  1  0  0  0  0
 11 12  1  0  0  0  0
 11 29  1  0  0  0  0
 11 30  1  0  0  0  0
 12 13  1  0  0  0  0
 12 31  1  0  0  0  0
 14 15  1  0  0  0  0
 14 17  2  0  0  0  0
 15 16  3  0  0  0  0
 17 18  1  0  0  0  0
 18 32  1  0  0  0  0
 18 33  1  0  0  0  0
 18 34  1  0  0  0  0
M  END
> <s_m_source_file>
AV-unprocessed.smi

> <i_m_source_file_index>
2919

> <i_lp_mmshare_version>
43012

> <i_f3d_flags>
0

> <s_epik_input>
W0NIM11jMW5uYyhjKEMjTiljMVtDSDNdKVtOSF1bQ0BIXShbQ0gyXVtDQEBIXTIzKVtDQEBIXShPMylbQ0gyXVtDSDJdMg==

> <s_epik_cmdline>
J2VwaWtfcHl0aG9uJywgJy1waCcsICc3LjAnLCAnLXRuJywgJzgnLCAnLW1hJywgJzIwMCcsICctbWV0YWxfYmluZGluZycsICctaW1hZScsICc8aW5maWxlLm1hZT4nLCAnLW9tYWUnLCAnPG91dGZpbGUubWFlPic=

> <r_lp_tautomer_probability>
1

> <r_epik_Ionization_Penalty>
0.00143865

> <r_epik_Ionization_Penalty_Charging>
0

> <r_epik_Ionization_Penalty_Neutral>
0.00143865

> <r_epik_State_Penalty>
-0

> <r_epik_Charging_Adjusted_Penalty>
0

> <i_epik_Tot_Q>
0

> <i_epik_Tot_abs_Q>
0

> <r_epik_Metal_State_Penalty>
-0

> <b_epik_Metal_Only>
0

> <s_lp_Force_Field>
OPLS_2005

> <r_lp_Energy>
49.159

> <b_lp_Chiralities_Consistent>
1

> <s_lp_Variant>
AV-unprocessed.smi:2919-2

> <Gold.Version>
5.8.1

> <Gold.Id.Protein>
6NUR|6NUR_protein|mol2

> <Gold.PLP.Fitness>
37.6040

> <Gold.PLP.PLP>
-35.8156

> <Gold.PLP.part.hbond>
-1.0000

> <Gold.PLP.part.metal>
0.0000

> <Gold.PLP.part.buried>
-5.3541

> <Gold.PLP.part.nonpolar>
-32.1489

> <Gold.PLP.part.repulsive>
2.0009

> <Gold.PLP.ligand.clash>
0.0000

> <Gold.PLP.ligand.torsion>
0.6109

> <Gold.PLP.Chemscore.Hbond>
1.0000

> <Gold.PLP.Chemscore.CHOScore>
0.0000

> <Gold.PLP.Chemscore.Metal>
0.0000

> <Gold.Chemscore.Hbonds>
donor molecule, donor type, donor heavy atom, donor atom, acceptor molecule, acceptor atom, score
      P1  H  7997  8008       L1    16  0.47

> <Gold.PLP.Chemscore.Internal.Correction>
0.0102

> <Gold.Rescore>
     Score         DG    S(hbond)    S(metal)    S(lipo)     H(rot)  DE(clash)    DE(int)     intcor
     17.06     -17.80       0.99        0.00      98.84       1.00       0.15       0.59       ----

> <Gold.Chemscore.Fitness>
17.0577

> <Gold.Chemscore.DG>
-17.8009

> <Gold.Chemscore.ZeroCoef>
-5.4800

> <Gold.Chemscore.Hbond>
0.9932

> <Gold.Chemscore.Metal>
0.0000

> <Gold.Chemscore.Lipo>
98.8354

> <Gold.Chemscore.Internal_Hbond>
0.0000

> <Gold.Chemscore.DEClash>
0.1515

> <Gold.Chemscore.DEInternal>
0.5918

> <Gold.Chemscore.Rot>
1.0000

> <Gold.Chemscore.Internal.Correction>
   9.000000E+99

> <Gold.Chemscore.Hbonds>
donor molecule, donor type, donor heavy atom, donor atom, acceptor molecule, acceptor atom, score
      P1  H  7997  8008       L1    16  0.48

> <Gold.Chemscore.Hbond.Weighted>
-3.3172

> <Gold.Chemscore.Metal.Weighted>
-0.0000

> <Gold.Chemscore.Lipo.Weighted>
-11.5637

> <Gold.Chemscore.Internal_Hbond.Weighted>
0.0000

> <Gold.Chemscore.DEClash.Weighted>
0.1515

> <Gold.Chemscore.DEInternal.Weighted>
0.5918

> <Gold.Chemscore.Rot.Weighted>
2.5600

> <Gold.Chemscore.Internal.Correction.Weighted>
   9.000000E+99

> <Gold.Protein.RotatedTorsions>
[ 6907 6896 6895 6894 ] final  -87.51 input  -60.11 | X-H torsion
[ 7974 7965 7964 7962 ] final -125.73 input  175.53 | X-H torsion
[ 8008 7997 7996 7995 ] final  -51.59 input   59.86 | X-H torsion
[ 10167 10162 10161 10158 ] final   56.83 input  -65.29 | X-H torsion
[ 10718 10713 10712 10709 ] final   16.93 input   66.30 | X-H torsion
[ 10763 10752 10751 10750 ] final  143.10 input  -60.55 | X-H torsion
[ 11005 11000 10999 10996 ] final  -28.23 input  -57.11 | X-H torsion

> <Gold.Protein.ActiveResidues>
 VAL166  LYS551  ARG553  GLY616  TRP617  ASP618  TYR619  PRO620  LYS621  CYS622 
 ASP623  PHE694  ASN695  SER759  ASP760  ASP761  ALA762  ILE779  LEU786  VAL792 
 PHE793  MET794  SER795  GLU796  ALA797  LYS798  CYS799  TRP800  GLU811  SER814 

> <Gold.Protein.RotatedAtoms>
  150.6866  134.2885  159.4656 H   0  0  0  0  0  0  0  0  0  0  0  0  # atno 6907 bound_to 6896
  152.0792  134.9480  160.0583 H   0  0  0  0  0  0  0  0  0  0  0  0  # atno 6908 bound_to 6896
  152.0839  133.4132  159.4550 H   0  0  0  0  0  0  0  0  0  0  0  0  # atno 6909 bound_to 6896
  144.9945  140.7763  143.4533 H   0  0  0  0  0  0  0  0  0  0  0  0  # atno 7974 bound_to 7965
  154.4086  140.1244  156.4853 H   0  0  0  0  0  0  0  0  0  0  0  0  # atno 8008 bound_to 7997
  155.7044  140.3494  155.4927 H   0  0  0  0  0  0  0  0  0  0  0  0  # atno 8009 bound_to 7997
  155.9356  140.1077  157.1087 H   0  0  0  0  0  0  0  0  0  0  0  0  # atno 8010 bound_to 7997
  140.2045  144.3953  150.6515 H   0  0  0  0  0  0  0  0  0  0  0  0  # atno 10167 bound_to 10162
  157.0749  130.6363  149.5813 H   0  0  0  0  0  0  0  0  0  0  0  0  # atno 10718 bound_to 10713
  153.9668  135.2954  155.3430 H   0  0  0  0  0  0  0  0  0  0  0  0  # atno 10763 bound_to 10752
  154.7344  135.5053  153.9020 H   0  0  0  0  0  0  0  0  0  0  0  0  # atno 10764 bound_to 10752
  153.0919  135.6710  153.9948 H   0  0  0  0  0  0  0  0  0  0  0  0  # atno 10765 bound_to 10752
  140.9190  133.7411  156.0775 H   0  0  0  0  0  0  0  0  0  0  0  0  # atno 11005 bound_to 11000
  145.2238  139.2146  143.5079 LP  0  0  0  0  0  0  0  0  0  0  0  0  # atno 17320 bound_to 7965
  146.3439  140.2102  142.8590 LP  0  0  0  0  0  0  0  0  0  0  0  0  # atno 17321 bound_to 7965
  140.6367  143.2196  151.6379 LP  0  0  0  0  0  0  0  0  0  0  0  0  # atno 17342 bound_to 10162
  139.5204  144.3224  152.0899 LP  0  0  0  0  0  0  0  0  0  0  0  0  # atno 17343 bound_to 10162
  155.9940  130.5002  150.7402 LP  0  0  0  0  0  0  0  0  0  0  0  0  # atno 17370 bound_to 10713
  157.4848  131.0905  151.0495 LP  0  0  0  0  0  0  0  0  0  0  0  0  # atno 17371 bound_to 10713
  140.8012  134.3506  157.5439 LP  0  0  0  0  0  0  0  0  0  0  0  0  # atno 17394 bound_to 11000
  139.8771  134.9199  156.3237 LP  0  0  0  0  0  0  0  0  0  0  0  0  # atno 17395 bound_to 11000

$$$$
