AV-unprocessed.smi:1512|AV-procd|sdf|6107|dock3
  -GOLD-   22720 6243D 1   1.00000     0.00000
 Structure written by MMmdl.
 44 46  0  0  0  0  0  0  0  0  3 V2000
  151.0794  140.2933  157.4863 C   0  0  0  0  0  0  0  0  0  0  0  0
  150.9350  141.7890  157.1616 C   0  0  1  0  0  0  0  0  0  0  0  0
  149.6999  141.9829  156.4037 N   0  0  0  0  0  0  0  0  0  0  0  0
  149.3791  141.3762  155.2505 C   0  0  0  0  0  0  0  0  0  0  0  0
  150.0795  140.5164  154.7148 O   0  0  0  0  0  0  0  0  0  0  0  0
  148.0555  141.8111  154.6067 C   0  0  0  0  0  0  0  0  0  0  0  0
  147.1585  140.6758  154.3299 N   0  0  0  0  0  0  0  0  0  0  0  0
  147.4952  139.8450  153.2448 C   0  0  0  0  0  0  0  0  0  0  0  0
  146.7397  138.7937  152.8964 C   0  0  0  0  0  0  0  0  0  0  0  0
  145.5532  138.5192  153.6694 C   0  0  0  0  0  0  0  0  0  0  0  0
  145.2100  139.3024  154.7179 C   0  0  0  0  0  0  0  0  0  0  0  0
  144.0113  138.9685  155.4523 N   0  3  0  0  0  0  0  0  0  0  0  0
  143.3742  137.9718  155.1260 O   0  0  0  0  0  0  0  0  0  0  0  0
  143.6635  139.7042  156.3715 O   0  5  0  0  0  0  0  0  0  0  0  0
  146.0417  140.4641  155.0946 C   0  0  0  0  0  0  0  0  0  0  0  0
  145.7576  141.2144  156.0307 O   0  0  0  0  0  0  0  0  0  0  0  0
  150.9168  142.6702  158.4354 C   0  0  1  0  0  0  0  0  0  0  0  0
  151.9459  142.2318  159.5060 C   0  0  0  0  0  0  0  0  0  0  0  0
  152.7388  143.5208  159.7862 C   0  0  2  0  0  0  0  0  0  0  0  0
  151.8406  144.5274  160.5275 C   0  0  0  0  0  0  0  0  0  0  0  0
  150.8663  144.9843  159.4261 C   0  0  0  0  0  0  0  0  0  0  0  0
  151.3151  144.1530  158.2091 C   0  0  1  0  0  0  0  0  0  0  0  0
  152.8281  144.1347  158.3956 C   0  0  0  0  0  0  0  0  0  0  0  0
  152.0135  140.0844  158.0074 H   0  0  0  0  0  0  0  0  0  0  0  0
  151.0764  139.6936  156.5754 H   0  0  0  0  0  0  0  0  0  0  0  0
  150.2621  139.9430  158.1175 H   0  0  0  0  0  0  0  0  0  0  0  0
  151.7935  142.0789  156.5540 H   0  0  0  0  0  0  0  0  0  0  0  0
  149.0542  142.6691  156.7664 H   0  0  0  0  0  0  0  0  0  0  0  0
  147.5787  142.5336  155.2704 H   0  0  0  0  0  0  0  0  0  0  0  0
  148.2533  142.3580  153.6827 H   0  0  0  0  0  0  0  0  0  0  0  0
  148.3945  140.1202  152.7131 H   0  0  0  0  0  0  0  0  0  0  0  0
  147.0110  138.1696  152.0576 H   0  0  0  0  0  0  0  0  0  0  0  0
  144.9433  137.6685  153.4016 H   0  0  0  0  0  0  0  0  0  0  0  0
  149.9102  142.6309  158.8554 H   0  0  0  0  0  0  0  0  0  0  0  0
  151.4679  141.8359  160.4027 H   0  0  0  0  0  0  0  0  0  0  0  0
  152.6186  141.4624  159.1250 H   0  0  0  0  0  0  0  0  0  0  0  0
  153.6975  143.3466  160.2756 H   0  0  0  0  0  0  0  0  0  0  0  0
  151.3270  144.0748  161.3766 H   0  0  0  0  0  0  0  0  0  0  0  0
  152.4233  145.3717  160.8980 H   0  0  0  0  0  0  0  0  0  0  0  0
  149.8230  144.8091  159.6909 H   0  0  0  0  0  0  0  0  0  0  0  0
  150.9843  146.0508  159.2296 H   0  0  0  0  0  0  0  0  0  0  0  0
  150.9793  144.5808  157.2647 H   0  0  0  0  0  0  0  0  0  0  0  0
  153.2769  145.1297  158.3892 H   0  0  0  0  0  0  0  0  0  0  0  0
  153.3494  143.5042  157.6737 H   0  0  0  0  0  0  0  0  0  0  0  0
  1  2  1  0  0  0  0
  1 24  1  0  0  0  0
  1 25  1  0  0  0  0
  1 26  1  0  0  0  0
  2  3  1  0  0  0  0
  2 17  1  0  0  0  0
  2 27  1  0  0  0  0
  3  4  1  0  0  0  0
  3 28  1  0  0  0  0
  4  5  2  0  0  0  0
  4  6  1  0  0  0  0
  6  7  1  0  0  0  0
  6 29  1  0  0  0  0
  6 30  1  0  0  0  0
  7 15  1  0  0  0  0
  7  8  1  0  0  0  0
  8  9  2  0  0  0  0
  8 31  1  0  0  0  0
  9 10  1  0  0  0  0
  9 32  1  0  0  0  0
 10 11  2  0  0  0  0
 10 33  1  0  0  0  0
 11 12  1  0  0  0  0
 11 15  1  0  0  0  0
 12 13  2  0  0  0  0
 12 14  1  0  0  0  0
 15 16  2  0  0  0  0
 17 22  1  0  0  0  0
 17 18  1  0  0  0  0
 17 34  1  0  0  0  0
 18 19  1  0  0  0  0
 18 35  1  0  0  0  0
 18 36  1  0  0  0  0
 19 23  1  0  0  0  0
 19 20  1  0  0  0  0
 19 37  1  0  0  0  0
 20 21  1  0  0  0  0
 20 38  1  0  0  0  0
 20 39  1  0  0  0  0
 21 22  1  0  0  0  0
 21 40  1  0  0  0  0
 21 41  1  0  0  0  0
 22 23  1  0  0  0  0
 22 42  1  0  0  0  0
 23 43  1  0  0  0  0
 23 44  1  0  0  0  0
M  CHG  1  12   1
M  CHG  1  14  -1
M  END
> <s_m_source_file>
AV-unprocessed.smi

> <i_m_source_file_index>
1512

> <i_lp_mmshare_version>
43012

> <i_f3d_flags>
0

> <s_epik_input>
W0NIMl0xW0NIMl1bQ0BIXShbQ0gyXTIpW0NAQEhdKFtDSDJdW0NAQEhdMTIpW0NASF0oW0NIM10pW05IXUMoPU8pW0NIMl1uM1tjSF1bY0hdW2NIXWMoW04rXSg9TylbTy1dKWMzPU8=

> <s_epik_cmdline>
J2VwaWtfcHl0aG9uJywgJy1waCcsICc3LjAnLCAnLXRuJywgJzgnLCAnLW1hJywgJzIwMCcsICctbWV0YWxfYmluZGluZycsICctaW1hZScsICc8aW5maWxlLm1hZT4nLCAnLW9tYWUnLCAnPG91dGZpbGUubWFlPic=

> <r_lp_tautomer_probability>
1

> <r_epik_Ionization_Penalty>
2.17697e-08

> <r_epik_Ionization_Penalty_Charging>
1.42735e-10

> <r_epik_Ionization_Penalty_Neutral>
2.16269e-08

> <r_epik_State_Penalty>
-0

> <r_epik_Charging_Adjusted_Penalty>
1.42735e-10

> <i_epik_Tot_Q>
0

> <i_epik_Tot_abs_Q>
2

> <r_epik_Metal_State_Penalty>
-0

> <b_epik_Metal_Only>
0

> <s_lp_Force_Field>
OPLS_2005

> <r_lp_Energy>
63.9552

> <b_lp_Chiralities_Consistent>
1

> <s_lp_Variant>
AV-unprocessed.smi:1512-8

> <Gold.Version>
5.8.1

> <Gold.Id.Protein>
6NUR|6NUR_protein|mol2

> <Gold.PLP.Fitness>
48.2221

> <Gold.PLP.PLP>
-43.3494

> <Gold.PLP.part.hbond>
-2.0000

> <Gold.PLP.part.metal>
0.0000

> <Gold.PLP.part.buried>
-5.5598

> <Gold.PLP.part.nonpolar>
-37.5831

> <Gold.PLP.part.repulsive>
0.2770

> <Gold.PLP.ligand.clash>
0.0000

> <Gold.PLP.ligand.torsion>
0.5858

> <Gold.PLP.Chemscore.Hbond>
0.9944

> <Gold.PLP.Chemscore.CHOScore>
1.0000

> <Gold.PLP.Chemscore.Metal>
0.0000

> <Gold.Chemscore.Hbonds>
donor molecule, donor type, donor heavy atom, donor atom, acceptor molecule, acceptor atom, score
      L1  H     3    28       P1  8028  0.09
      P1  H  7989  7998       L1     5  0.91
      L1  C     8    31       P1  7957  0.84

> <Gold.PLP.Chemscore.Internal.Correction>
0.0610

> <Gold.Rescore>
     Score         DG    S(hbond)    S(metal)    S(lipo)     H(rot)  DE(clash)    DE(int)     intcor
     15.73     -19.47       1.29        0.00     121.09       1.75       0.10       3.64       ----

> <Gold.Chemscore.Fitness>
15.7338

> <Gold.Chemscore.DG>
-19.4669

> <Gold.Chemscore.ZeroCoef>
-5.4800

> <Gold.Chemscore.Hbond>
1.2853

> <Gold.Chemscore.Metal>
0.0000

> <Gold.Chemscore.Lipo>
121.0895

> <Gold.Chemscore.Internal_Hbond>
0.0000

> <Gold.Chemscore.DEClash>
0.0961

> <Gold.Chemscore.DEInternal>
3.6370

> <Gold.Chemscore.Rot>
1.7474

> <Gold.Chemscore.Internal.Correction>
   9.000000E+99

> <Gold.Chemscore.Hbonds>
donor molecule, donor type, donor heavy atom, donor atom, acceptor molecule, acceptor atom, score
      L1  H     3    28       P1  8028  0.09
      P1  H  7989  7998       L1     5  0.86

> <Gold.Chemscore.Hbond.Weighted>
-4.2928

> <Gold.Chemscore.Metal.Weighted>
-0.0000

> <Gold.Chemscore.Lipo.Weighted>
-14.1675

> <Gold.Chemscore.Internal_Hbond.Weighted>
0.0000

> <Gold.Chemscore.DEClash.Weighted>
0.0961

> <Gold.Chemscore.DEInternal.Weighted>
3.6370

> <Gold.Chemscore.Rot.Weighted>
4.4733

> <Gold.Chemscore.Internal.Correction.Weighted>
   9.000000E+99

> <Gold.Protein.RotatedTorsions>
[ 6907 6896 6895 6894 ] final -166.65 input  -60.11 | X-H torsion
[ 7974 7965 7964 7962 ] final  114.37 input  175.53 | X-H torsion
[ 8008 7997 7996 7995 ] final  -83.23 input   59.86 | X-H torsion
[ 10167 10162 10161 10158 ] final -159.70 input  -65.29 | X-H torsion
[ 10718 10713 10712 10709 ] final -146.66 input   66.30 | X-H torsion
[ 10763 10752 10751 10750 ] final   45.79 input  -60.55 | X-H torsion
[ 11005 11000 10999 10996 ] final  -88.78 input  -57.11 | X-H torsion

> <Gold.Protein.ActiveResidues>
 VAL166  LYS551  ARG553  GLY616  TRP617  ASP618  TYR619  PRO620  LYS621  CYS622 
 ASP623  PHE694  ASN695  SER759  ASP760  ASP761  ALA762  ILE779  LEU786  VAL792 
 PHE793  MET794  SER795  GLU796  ALA797  LYS798  CYS799  TRP800  GLU811  SER814 

> <Gold.Protein.RotatedAtoms>
  151.4469  133.3628  159.2789 H   0  0  0  0  0  0  0  0  0  0  0  0  # atno 6907 bound_to 6896
  150.9118  134.8537  159.7441 H   0  0  0  0  0  0  0  0  0  0  0  0  # atno 6908 bound_to 6896
  152.4936  134.4399  159.9592 H   0  0  0  0  0  0  0  0  0  0  0  0  # atno 6909 bound_to 6896
  145.2053  139.2932  143.4297 H   0  0  0  0  0  0  0  0  0  0  0  0  # atno 7974 bound_to 7965
  154.6169  140.0622  156.9566 H   0  0  0  0  0  0  0  0  0  0  0  0  # atno 8008 bound_to 7997
  155.1881  140.3305  155.4345 H   0  0  0  0  0  0  0  0  0  0  0  0  # atno 8009 bound_to 7997
  156.2409  140.1886  156.6973 H   0  0  0  0  0  0  0  0  0  0  0  0  # atno 8010 bound_to 7997
  139.6595  143.9938  152.2216 H   0  0  0  0  0  0  0  0  0  0  0  0  # atno 10167 bound_to 10162
  156.3977  130.7918  151.2126 H   0  0  0  0  0  0  0  0  0  0  0  0  # atno 10718 bound_to 10713
  152.9819  135.6028  154.3495 H   0  0  0  0  0  0  0  0  0  0  0  0  # atno 10763 bound_to 10752
  154.3185  135.2770  155.2533 H   0  0  0  0  0  0  0  0  0  0  0  0  # atno 10764 bound_to 10752
  154.4710  135.5942  153.6377 H   0  0  0  0  0  0  0  0  0  0  0  0  # atno 10765 bound_to 10752
  141.1596  133.7590  156.9500 H   0  0  0  0  0  0  0  0  0  0  0  0  # atno 11005 bound_to 11000
  146.3409  140.2311  142.8593 LP  0  0  0  0  0  0  0  0  0  0  0  0  # atno 17320 bound_to 7965
  144.9908  140.8545  143.5341 LP  0  0  0  0  0  0  0  0  0  0  0  0  # atno 17321 bound_to 7965
  139.9673  144.6517  150.8022 LP  0  0  0  0  0  0  0  0  0  0  0  0  # atno 17342 bound_to 10162
  140.7574  143.3085  151.2903 LP  0  0  0  0  0  0  0  0  0  0  0  0  # atno 17343 bound_to 10162
  157.7502  131.0296  150.4101 LP  0  0  0  0  0  0  0  0  0  0  0  0  # atno 17370 bound_to 10713
  156.4375  130.3984  149.6719 LP  0  0  0  0  0  0  0  0  0  0  0  0  # atno 17371 bound_to 10713
  140.1263  134.9384  157.2275 LP  0  0  0  0  0  0  0  0  0  0  0  0  # atno 17394 bound_to 11000
  140.3008  134.3133  155.7290 LP  0  0  0  0  0  0  0  0  0  0  0  0  # atno 17395 bound_to 11000

$$$$
