#       Name:                AV-unprocessed.smi:609
#       Creating user name   scv26
#       Creation time:       Thu Mar 26 23:57:24 2020


#       File generated by GOLD software.
#

@<TRIPOS>MOLECULE
AV-unprocessed.smi:609
    46    48     1
SMALL
NO_CHARGES


@<TRIPOS>ATOM
      1 ****        -3.8088   3.5331   3.0131 C.3            1 S1                 0.0000
      2 ****        -3.1739   2.4987   2.0992 C.ar           1 S1                 0.0000
      3 ****        -3.1234   2.7640   0.7122 C.ar           1 S1                 0.0000
      4 ****        -2.5358   1.7991  -0.0974 C.ar           1 S1                 0.0000
      5 ****        -2.3330   1.7651  -1.4787 N.pl3          1 S1                 1.0000
      6 ****        -1.7079   0.6037  -1.8176 C.2            1 S1                 0.0000
      7 ****        -1.5097  -0.1051  -0.6735 N.pl3          1 S1                 0.0000
      8 ****        -0.8775  -1.4184  -0.4840 C.3            1 S1                 0.0000
      9 ****         0.6539  -1.3276  -0.3424 C.3            1 S1                 0.0000
     10 ****         0.9911  -0.5631   0.7990 O.3            1 S1                 0.0000
     11 ****         1.3026  -2.7195  -0.2240 C.3            1 S1                 0.0000
     12 ****         3.1229  -2.6564  -0.2502 S.3            1 S1                 0.0000
     13 ****         3.3975  -2.1554  -1.9236 C.2            1 S1                 0.0000
     14 ****         2.5686  -2.3921  -2.9376 N.2            1 S1                 0.0000
     15 ****         3.1854  -1.8281  -4.0484 C.2            1 S1                 0.0000
     16 ****         4.3793  -1.2664  -3.6675 C.2            1 S1                 0.0000
     17 ****         4.5027  -1.4867  -2.3022 N.pl3          1 S1                 0.0000
     18 ****         5.6108  -1.0671  -1.4668 C.3            1 S1                 0.0000
     19 ****        -2.0104   0.6018   0.4264 C.ar           1 S1                 0.0000
     20 ****        -2.0525   0.3251   1.7909 C.ar           1 S1                 0.0000
     21 ****        -2.6452   1.2942   2.6315 C.ar           1 S1                 0.0000
     22 ****        -2.7028   1.0193   4.1245 C.3            1 S1                 0.0000
     23 ****        -4.1132   4.4218   2.4592 H              1 S1                 0.0000
     24 ****        -3.1060   3.8482   3.7846 H              1 S1                 0.0000
     25 ****        -4.6944   3.1213   3.4977 H              1 S1                 0.0000
     26 ****        -3.5236   3.6787   0.2998 H              1 S1                 0.0000
     27 ****        -1.4199   0.3002  -2.8139 H              1 S1                 0.0000
     28 ****        -1.3300  -1.9194   0.3721 H              1 S1                 0.0000
     29 ****        -1.1305  -2.0199  -1.3580 H              1 S1                 0.0000
     30 ****         1.0502  -0.8089  -1.2154 H              1 S1                 0.0000
     31 ****         1.9334  -0.5215   0.8629 H              1 S1                 0.0000
     32 ****         0.9911  -3.1959   0.7063 H              1 S1                 0.0000
     33 ****         0.9606  -3.3730  -1.0268 H              1 S1                 0.0000
     34 ****         2.7271  -1.8702  -5.0255 H              1 S1                 0.0000
     35 ****         5.1314  -0.7434  -4.2399 H              1 S1                 0.0000
     36 ****         6.3530  -0.5364  -2.0639 H              1 S1                 0.0000
     37 ****         6.0814  -1.9393  -1.0123 H              1 S1                 0.0000
     38 ****         5.2496  -0.4030  -0.6811 H              1 S1                 0.0000
     39 ****        -1.6439  -0.5881   2.1976 H              1 S1                 0.0000
     40 ****        -2.2925   0.0383   4.3659 H              1 S1                 0.0000
     41 ****        -3.7332   1.0454   4.4799 H              1 S1                 0.0000
     42 ****        -2.1271   1.7653   4.6728 H              1 S1                 0.0000
     43 ****        -2.5990   2.4806  -2.1429 H              1 S1                 0.0000
     44 ****         0.6159  -0.9963   1.6184 LP             1 S1                 0.0000
     45 ****         0.6177   0.3602   0.7093 LP             1 S1                 0.0000
     46 ****         1.6918  -2.8719  -2.9071 LP             1 S1                 0.0000
@<TRIPOS>BOND
    1    1    2 1     
    2    1   23 1     
    3    1   24 1     
    4    1   25 1     
    5    2   21 ar    
    6    2    3 ar    
    7    3    4 ar    
    8    3   26 1     
    9    4   19 ar    
   10    4    5 1     
   11    5    6 2     
   12    5   43 1     
   13    6    7 1     
   14    6   27 1     
   15    7    8 1     
   16    7   19 1     
   17    8    9 1     
   18    8   28 1     
   19    8   29 1     
   20    9   10 1     
   21    9   11 1     
   22    9   30 1     
   23   10   31 1     
   24   11   12 1     
   25   11   32 1     
   26   11   33 1     
   27   12   13 1     
   28   13   17 1     
   29   13   14 2     
   30   14   15 1     
   31   15   16 2     
   32   15   34 1     
   33   16   17 1     
   34   16   35 1     
   35   17   18 1     
   36   18   36 1     
   37   18   37 1     
   38   18   38 1     
   39   19   20 ar    
   40   20   21 ar    
   41   20   39 1     
   42   21   22 1     
   43   22   40 1     
   44   22   41 1     
   45   22   42 1     
   46   10   44 1     
   47   10   45 1     
   48   14   46 1     
@<TRIPOS>SUBSTRUCTURE
      1 S1             1
@<TRIPOS>SET
LONE_PAIRS      STATIC     ATOMS    <user>   **** ""
3 44 45 46
DONOR_HYDROGENS      STATIC     ATOMS    <user>   **** ""
2 43 31
ATOM$BLUE        STATIC     ATOMS    COLORGROUP SYSTEM
3 44 45 46
ATOM$RED        STATIC     ATOMS    COLORGROUP SYSTEM
2 43 31
