AV-unprocessed.smi:72|AV-procd|sdf|663|dock7
  -GOLD-   2262016563D 1   1.00000     0.00000
 Structure written by MMmdl.
 29 30  0  0  0  0  0  0  0  0  1 V2000
  151.0407  134.7299  156.7957 N   0  0  0  0  0  0  0  0  0  0  0  0
  151.0321  135.8898  156.2423 C   0  0  0  0  0  0  0  0  0  0  0  0
  151.2140  136.1363  154.8729 N   0  0  0  0  0  0  0  0  0  0  0  0
  151.1673  137.3618  154.4495 C   0  0  0  0  0  0  0  0  0  0  0  0
  150.9239  138.4821  155.3450 N   0  0  0  0  0  0  0  0  0  0  0  0
  150.8843  139.9032  154.8309 C   0  0  2  0  0  0  0  0  0  0  0  0
  151.4423  140.7541  155.7912 O   0  0  0  0  0  0  0  0  0  0  0  0
  150.5672  141.8526  156.0137 C   0  0  2  0  0  0  0  0  0  0  0  0
  150.8101  142.4799  157.3986 C   0  0  0  0  0  0  0  0  0  0  0  0
  149.8537  143.4721  157.7109 O   0  0  0  0  0  0  0  0  0  0  0  0
  149.1693  141.2962  155.7340 C   0  0  1  0  0  0  0  0  0  0  0  0
  148.2214  142.3036  155.4343 O   0  0  0  0  0  0  0  0  0  0  0  0
  149.4310  140.3428  154.5709 C   0  0  1  0  0  0  0  0  0  0  0  0
  149.3154  140.9719  153.3078 O   0  0  0  0  0  0  0  0  0  0  0  0
  150.7723  138.2545  156.7343 C   0  0  0  0  0  0  0  0  0  0  0  0
  150.6120  139.1691  157.5423 O   0  0  0  0  0  0  0  0  0  0  0  0
  150.8237  136.9614  157.1215 N   0  0  0  0  0  0  0  0  0  0  0  0
  151.5167  139.9275  153.9417 H   0  0  0  0  0  0  0  0  0  0  0  0
  150.8128  142.5938  155.2506 H   0  0  0  0  0  0  0  0  0  0  0  0
  148.8105  140.7148  156.5837 H   0  0  0  0  0  0  0  0  0  0  0  0
  148.7516  139.4892  154.5898 H   0  0  0  0  0  0  0  0  0  0  0  0
  151.1950  134.0088  156.1063 H   0  0  0  0  0  0  0  0  0  0  0  0
  151.3106  137.6289  153.4020 H   0  0  0  0  0  0  0  0  0  0  0  0
  150.8071  141.7124  158.1730 H   0  0  0  0  0  0  0  0  0  0  0  0
  151.7940  142.9492  157.4190 H   0  0  0  0  0  0  0  0  0  0  0  0
  149.7776  144.0584  156.9737 H   0  0  0  0  0  0  0  0  0  0  0  0
  148.6531  143.1431  155.4767 H   0  0  0  0  0  0  0  0  0  0  0  0
  149.3382  140.3060  152.6376 H   0  0  0  0  0  0  0  0  0  0  0  0
  150.7120  136.7660  158.1055 H   0  0  0  0  0  0  0  0  0  0  0  0
  1  2  2  0  0  0  0
  1 22  1  0  0  0  0
  2 17  1  0  0  0  0
  2  3  1  0  0  0  0
  3  4  2  0  0  0  0
  4  5  1  0  0  0  0
  4 23  1  0  0  0  0
  5  6  1  0  0  0  0
  5 15  1  0  0  0  0
  6 18  1  0  0  0  0
  6 13  1  0  0  0  0
  6  7  1  0  0  0  0
  7  8  1  0  0  0  0
  8 19  1  0  0  0  0
  8  9  1  0  0  0  0
  8 11  1  0  0  0  0
  9 10  1  0  0  0  0
  9 24  1  0  0  0  0
  9 25  1  0  0  0  0
 10 26  1  0  0  0  0
 11 20  1  0  0  0  0
 11 12  1  0  0  0  0
 11 13  1  0  0  0  0
 12 27  1  0  0  0  0
 13 21  1  0  0  0  0
 13 14  1  0  0  0  0
 14 28  1  0  0  0  0
 15 16  2  0  0  0  0
 15 17  1  0  0  0  0
 17 29  1  0  0  0  0
M  END
> <s_m_source_file>
AV-unprocessed.smi

> <i_m_source_file_index>
72

> <i_lp_mmshare_version>
43012

> <i_f3d_flags>
0

> <s_epik_input>
W05IMl1jMW5bY0hdbihjKD1PKW4xKVtDQEBIXTJPW0NASF0oW0NIMl1bT0hdKVtDQEBIXShbT0hdKVtDQEhdMltPSF0=

> <s_epik_cmdline>
J2VwaWtfcHl0aG9uJywgJy1waCcsICc3LjAnLCAnLXRuJywgJzgnLCAnLW1hJywgJzIwMCcsICctbWV0YWxfYmluZGluZycsICctaW1hZScsICc8aW5maWxlLm1hZT4nLCAnLW9tYWUnLCAnPG91dGZpbGUubWFlPic=

> <r_lp_tautomer_probability>
7.17554e-07

> <r_epik_Ionization_Penalty>
0.0066451

> <r_epik_Ionization_Penalty_Charging>
0.00663793

> <r_epik_Ionization_Penalty_Neutral>
7.17052e-06

> <r_epik_State_Penalty>
0.419231

> <r_epik_Charging_Adjusted_Penalty>
0.425868

> <i_epik_Tot_Q>
0

> <i_epik_Tot_abs_Q>
0

> <r_epik_Metal_State_Penalty>
1.44144

> <b_epik_Metal_Only>
0

> <s_epik_Chemistry_Notes>
This compound contains an acetal/aminal-like group ( X-CH(R)-Y where X, Y are N, S, or O) that may be acid/base labile, releasing an aldehyde.

> <s_lp_Force_Field>
OPLS_2005

> <r_lp_Energy>
44.3383

> <b_lp_Chiralities_Consistent>
1

> <s_lp_Variant>
AV-unprocessed.smi:72-1

> <Gold.Version>
5.8.1

> <Gold.Id.Protein>
6NUR|6NUR_protein|mol2

> <Gold.PLP.Fitness>
41.6967

> <Gold.PLP.PLP>
-25.8391

> <Gold.PLP.part.hbond>
-7.2022

> <Gold.PLP.part.metal>
0.0000

> <Gold.PLP.part.buried>
-2.0043

> <Gold.PLP.part.nonpolar>
-17.6447

> <Gold.PLP.part.repulsive>
0.2444

> <Gold.PLP.ligand.clash>
0.0000

> <Gold.PLP.ligand.torsion>
0.7196

> <Gold.PLP.Chemscore.Hbond>
4.8655

> <Gold.PLP.Chemscore.CHOScore>
0.8978

> <Gold.PLP.Chemscore.Metal>
0.0000

> <Gold.Chemscore.Hbonds>
donor molecule, donor type, donor heavy atom, donor atom, acceptor molecule, acceptor atom, score
      L1  H    10    26       P1  8028  1.00
      L1  H    12    27       P1  8028  1.00
      L1  H    14    28       P1  7957  0.87
      P1  H  8011  8017       L1    14  1.00
      P1  H 10752 10765       L1     3  1.00
      L1  C     4    23       P1  7949  0.89

> <Gold.PLP.Chemscore.Internal.Correction>
0.0070

> <Gold.Rescore>
     Score         DG    S(hbond)    S(metal)    S(lipo)     H(rot)  DE(clash)    DE(int)     intcor
      5.64      -9.60       3.36        0.00      28.26       4.06       0.99       2.97       ----

> <Gold.Chemscore.Fitness>
5.6438

> <Gold.Chemscore.DG>
-9.6011

> <Gold.Chemscore.ZeroCoef>
-5.4800

> <Gold.Chemscore.Hbond>
3.3559

> <Gold.Chemscore.Metal>
0.0000

> <Gold.Chemscore.Lipo>
28.2556

> <Gold.Chemscore.Internal_Hbond>
0.0000

> <Gold.Chemscore.DEClash>
0.9879

> <Gold.Chemscore.DEInternal>
2.9695

> <Gold.Chemscore.Rot>
4.0600

> <Gold.Chemscore.Internal.Correction>
   9.000000E+99

> <Gold.Chemscore.Hbonds>
donor molecule, donor type, donor heavy atom, donor atom, acceptor molecule, acceptor atom, score
      L1  H    10    26       P1  8028  0.82
      L1  H    12    27       P1  8028  0.98
      L1  H    14    28       P1  7957  0.80
      P1  H  8011  8017       L1    14  0.25
      P1  H 10752 10765       L1     3  0.24

> <Gold.Chemscore.Hbond.Weighted>
-11.2088

> <Gold.Chemscore.Metal.Weighted>
-0.0000

> <Gold.Chemscore.Lipo.Weighted>
-3.3059

> <Gold.Chemscore.Internal_Hbond.Weighted>
0.0000

> <Gold.Chemscore.DEClash.Weighted>
0.9879

> <Gold.Chemscore.DEInternal.Weighted>
2.9695

> <Gold.Chemscore.Rot.Weighted>
10.3936

> <Gold.Chemscore.Internal.Correction.Weighted>
   9.000000E+99

> <Gold.Protein.RotatedTorsions>
[ 6907 6896 6895 6894 ] final  -88.87 input  -60.11 | X-H torsion
[ 7974 7965 7964 7962 ] final -103.97 input  175.53 | X-H torsion
[ 8008 7997 7996 7995 ] final   33.09 input   59.86 | X-H torsion
[ 10167 10162 10161 10158 ] final  -82.10 input  -65.29 | X-H torsion
[ 10718 10713 10712 10709 ] final -138.92 input   66.30 | X-H torsion
[ 10763 10752 10751 10750 ] final  171.48 input  -60.55 | X-H torsion
[ 11005 11000 10999 10996 ] final  -29.10 input  -57.11 | X-H torsion

> <Gold.Protein.ActiveResidues>
 VAL166  LYS551  ARG553  GLY616  TRP617  ASP618  TYR619  PRO620  LYS621  CYS622 
 ASP623  PHE694  ASN695  SER759  ASP760  ASP761  ALA762  ILE779  LEU786  VAL792 
 PHE793  MET794  SER795  GLU796  ALA797  LYS798  CYS799  TRP800  GLU811  SER814 

> <Gold.Protein.RotatedAtoms>
  150.6870  134.2674  159.4573 H   0  0  0  0  0  0  0  0  0  0  0  0  # atno 6907 bound_to 6896
  152.0599  134.9598  160.0584 H   0  0  0  0  0  0  0  0  0  0  0  0  # atno 6908 bound_to 6896
  152.1029  133.4224  159.4632 H   0  0  0  0  0  0  0  0  0  0  0  0  # atno 6909 bound_to 6896
  145.2491  140.9232  143.3106 H   0  0  0  0  0  0  0  0  0  0  0  0  # atno 7974 bound_to 7965
  155.1330  140.3259  155.4470 H   0  0  0  0  0  0  0  0  0  0  0  0  # atno 8008 bound_to 7997
  156.2628  140.2007  156.6397 H   0  0  0  0  0  0  0  0  0  0  0  0  # atno 8009 bound_to 7997
  154.6598  140.0548  157.0037 H   0  0  0  0  0  0  0  0  0  0  0  0  # atno 8010 bound_to 7997
  140.4351  143.2534  151.8705 H   0  0  0  0  0  0  0  0  0  0  0  0  # atno 10167 bound_to 10162
  156.3048  130.7449  151.1510 H   0  0  0  0  0  0  0  0  0  0  0  0  # atno 10718 bound_to 10713
  154.4126  135.2756  155.2027 H   0  0  0  0  0  0  0  0  0  0  0  0  # atno 10763 bound_to 10752
  154.4007  135.6045  153.5899 H   0  0  0  0  0  0  0  0  0  0  0  0  # atno 10764 bound_to 10752
  152.9831  135.5925  154.4409 H   0  0  0  0  0  0  0  0  0  0  0  0  # atno 10765 bound_to 10752
  140.9267  133.7364  156.0878 H   0  0  0  0  0  0  0  0  0  0  0  0  # atno 11005 bound_to 11000
  144.9519  139.4073  143.6398 LP  0  0  0  0  0  0  0  0  0  0  0  0  # atno 17320 bound_to 7965
  146.3307  139.8531  142.8869 LP  0  0  0  0  0  0  0  0  0  0  0  0  # atno 17321 bound_to 7965
  139.4786  144.5291  151.8692 LP  0  0  0  0  0  0  0  0  0  0  0  0  # atno 17342 bound_to 10162
  140.4383  144.2022  150.5890 LP  0  0  0  0  0  0  0  0  0  0  0  0  # atno 17343 bound_to 10162
  157.7377  131.0549  150.5341 LP  0  0  0  0  0  0  0  0  0  0  0  0  # atno 17370 bound_to 10713
  156.5473  130.4223  149.6125 LP  0  0  0  0  0  0  0  0  0  0  0  0  # atno 17371 bound_to 10713
  140.7917  134.3610  157.5463 LP  0  0  0  0  0  0  0  0  0  0  0  0  # atno 17394 bound_to 11000
  139.8787  134.9144  156.3106 LP  0  0  0  0  0  0  0  0  0  0  0  0  # atno 17395 bound_to 11000

$$$$
