AV-unprocessed.smi:1554|AV-procd|sdf|6251|dock6
  -GOLD-   22720 6433D 1   1.00000     0.00000
 Structure written by MMmdl.
 48 50  0  0  0  0  0  0  0  0  2 V2000
  152.5633  143.3926  160.9415 C   0  0  0  0  0  0  0  0  0  0  0  0
  152.1865  142.6485  159.6725 C   0  0  0  0  0  0  0  0  0  0  0  0
  152.7881  141.3981  159.4047 C   0  0  0  0  0  0  0  0  0  0  0  0
  152.4668  140.6755  158.2348 C   0  0  0  0  0  0  0  0  0  0  0  0
  152.9267  139.4521  157.7780 N   0  0  0  0  0  0  0  0  0  0  0  0
  152.2591  139.3244  156.6350 C   0  0  0  0  0  0  0  0  0  0  0  0
  151.4216  140.3234  156.2954 N   0  0  0  0  0  0  0  0  0  0  0  0
  150.5970  140.4159  155.1040 C   0  0  0  0  0  0  0  0  0  0  0  0
  149.6636  139.2004  154.9455 C   0  0  1  0  0  0  0  0  0  0  0  0
  148.8007  139.4155  153.8447 O   0  0  0  0  0  0  0  0  0  0  0  0
  150.4484  137.8939  154.7166 C   0  0  0  0  0  0  0  0  0  0  0  0
  149.5593  136.7097  154.5961 N   0  3  2  0  0  0  0  0  0  0  0  0
  148.3349  136.7947  155.4304 C   0  0  0  0  0  0  0  0  0  0  0  0
  147.4501  135.5572  155.2089 C   0  0  0  0  0  0  0  0  0  0  0  0
  148.1946  134.3797  155.4950 O   0  0  0  0  0  0  0  0  0  0  0  0
  149.3267  134.2352  154.6444 C   0  0  2  0  0  0  0  0  0  0  0  0
  150.0047  132.9005  154.9735 C   0  0  0  0  0  0  0  0  0  0  0  0
  150.2710  135.4353  154.8541 C   0  0  0  0  0  0  0  0  0  0  0  0
  151.5214  141.2441  157.3323 C   0  0  0  0  0  0  0  0  0  0  0  0
  150.9143  142.4863  157.5885 C   0  0  0  0  0  0  0  0  0  0  0  0
  151.2451  143.1939  158.7628 C   0  0  0  0  0  0  0  0  0  0  0  0
  150.5830  144.5340  159.0314 C   0  0  0  0  0  0  0  0  0  0  0  0
  153.2734  142.8228  161.5417 H   0  0  0  0  0  0  0  0  0  0  0  0
  151.6808  143.5764  161.5545 H   0  0  0  0  0  0  0  0  0  0  0  0
  153.0226  144.3513  160.6989 H   0  0  0  0  0  0  0  0  0  0  0  0
  153.5040  140.9819  160.0983 H   0  0  0  0  0  0  0  0  0  0  0  0
  152.3899  138.4562  156.0052 H   0  0  0  0  0  0  0  0  0  0  0  0
  150.0217  141.3420  155.1441 H   0  0  0  0  0  0  0  0  0  0  0  0
  151.2602  140.4969  154.2417 H   0  0  0  0  0  0  0  0  0  0  0  0
  149.0522  139.1177  155.8432 H   0  0  0  0  0  0  0  0  0  0  0  0
  149.3250  139.5900  153.0777 H   0  0  0  0  0  0  0  0  0  0  0  0
  151.0443  138.0016  153.8087 H   0  0  0  0  0  0  0  0  0  0  0  0
  151.1589  137.7261  155.5275 H   0  0  0  0  0  0  0  0  0  0  0  0
  148.6125  136.8690  156.4831 H   0  0  0  0  0  0  0  0  0  0  0  0
  147.7632  137.6897  155.1883 H   0  0  0  0  0  0  0  0  0  0  0  0
  146.5828  135.5944  155.8682 H   0  0  0  0  0  0  0  0  0  0  0  0
  147.0719  135.5256  154.1856 H   0  0  0  0  0  0  0  0  0  0  0  0
  148.9932  134.2075  153.6052 H   0  0  0  0  0  0  0  0  0  0  0  0
  150.8787  132.7372  154.3425 H   0  0  0  0  0  0  0  0  0  0  0  0
  149.3206  132.0666  154.8142 H   0  0  0  0  0  0  0  0  0  0  0  0
  150.3313  132.8679  156.0133 H   0  0  0  0  0  0  0  0  0  0  0  0
  151.1257  135.3493  154.1817 H   0  0  0  0  0  0  0  0  0  0  0  0
  150.6623  135.4370  155.8731 H   0  0  0  0  0  0  0  0  0  0  0  0
  150.1999  142.8904  156.8867 H   0  0  0  0  0  0  0  0  0  0  0  0
  149.8664  144.7875  158.2496 H   0  0  0  0  0  0  0  0  0  0  0  0
  151.3294  145.3273  159.0725 H   0  0  0  0  0  0  0  0  0  0  0  0
  150.0465  144.5129  159.9802 H   0  0  0  0  0  0  0  0  0  0  0  0
  149.2598  136.6760  153.6314 H   0  0  0  0  0  0  0  0  0  0  0  0
  1  2  1  0  0  0  0
  1 23  1  0  0  0  0
  1 24  1  0  0  0  0
  1 25  1  0  0  0  0
  2 21  1  0  0  0  0
  2  3  2  0  0  0  0
  3  4  1  0  0  0  0
  3 26  1  0  0  0  0
  4 19  2  0  0  0  0
  4  5  1  0  0  0  0
  5  6  2  0  0  0  0
  6  7  1  0  0  0  0
  6 27  1  0  0  0  0
  7  8  1  0  0  0  0
  7 19  1  0  0  0  0
  8  9  1  0  0  0  0
  8 28  1  0  0  0  0
  8 29  1  0  0  0  0
  9 10  1  0  0  0  0
  9 11  1  0  0  0  0
  9 30  1  0  0  0  0
 10 31  1  0  0  0  0
 11 12  1  0  0  0  0
 11 32  1  0  0  0  0
 11 33  1  0  0  0  0
 12 18  1  0  0  0  0
 12 13  1  0  0  0  0
 12 48  1  0  0  0  0
 13 14  1  0  0  0  0
 13 34  1  0  0  0  0
 13 35  1  0  0  0  0
 14 15  1  0  0  0  0
 14 36  1  0  0  0  0
 14 37  1  0  0  0  0
 15 16  1  0  0  0  0
 16 17  1  0  0  0  0
 16 18  1  0  0  0  0
 16 38  1  0  0  0  0
 17 39  1  0  0  0  0
 17 40  1  0  0  0  0
 17 41  1  0  0  0  0
 18 42  1  0  0  0  0
 18 43  1  0  0  0  0
 19 20  1  0  0  0  0
 20 21  2  0  0  0  0
 20 44  1  0  0  0  0
 21 22  1  0  0  0  0
 22 45  1  0  0  0  0
 22 46  1  0  0  0  0
 22 47  1  0  0  0  0
M  CHG  1  12   1
M  END
> <s_m_source_file>
AV-unprocessed.smi

> <i_m_source_file_index>
1554

> <i_lp_mmshare_version>
43012

> <i_f3d_flags>
0

> <s_epik_input>
W0NIM11jKFtjSF0xKWMoW0NIM10pW2NIXWMoYzEyKW4oW2NIXW4yKVtDSDJdW0NASF0oW09IXSlbQ0gyXU4zW0NIMl1bQ0gyXU9bQ0BASF0oW0NIM10pW0NIMl0z

> <s_epik_cmdline>
J2VwaWtfcHl0aG9uJywgJy1waCcsICc3LjAnLCAnLXRuJywgJzgnLCAnLW1hJywgJzIwMCcsICctbWV0YWxfYmluZGluZycsICctaW1hZScsICc8aW5maWxlLm1hZT4nLCAnLW9tYWUnLCAnPG91dGZpbGUubWFlPic=

> <r_epik_Ionization_Penalty>
0.695251

> <r_epik_Ionization_Penalty_Charging>
0.608065

> <r_epik_Ionization_Penalty_Neutral>
0.0871863

> <r_epik_State_Penalty>
0.731955

> <r_epik_Charging_Adjusted_Penalty>
1.34002

> <i_epik_Tot_Q>
1

> <i_epik_Tot_abs_Q>
1

> <r_epik_Metal_State_Penalty>
0.652186

> <b_epik_Metal_Only>
0

> <s_lp_Force_Field>
OPLS_2005

> <r_lp_Energy>
20.6032

> <b_lp_Chiralities_Consistent>
1

> <s_lp_Variant>
AV-unprocessed.smi:1554-12

> <Gold.Version>
5.8.1

> <Gold.Id.Protein>
6NUR|6NUR_protein|mol2

> <Gold.PLP.Fitness>
51.9580

> <Gold.PLP.PLP>
-40.4883

> <Gold.PLP.part.hbond>
-3.0000

> <Gold.PLP.part.metal>
0.0000

> <Gold.PLP.part.buried>
-2.5788

> <Gold.PLP.part.nonpolar>
-34.9969

> <Gold.PLP.part.repulsive>
0.0770

> <Gold.PLP.ligand.clash>
0.0000

> <Gold.PLP.ligand.torsion>
0.2805

> <Gold.PLP.Chemscore.Hbond>
4.0000

> <Gold.PLP.Chemscore.CHOScore>
0.0000

> <Gold.PLP.Chemscore.Metal>
0.0000

> <Gold.Chemscore.Hbonds>
donor molecule, donor type, donor heavy atom, donor atom, acceptor molecule, acceptor atom, score
      L1  H    10    31       P1  7957  1.00
      L1  H    12    48       P1  7948  2.00
      P1  H  7997  8010       L1     5  0.95

> <Gold.PLP.Chemscore.Internal.Correction>
0.0307

> <Gold.Rescore>
     Score         DG    S(hbond)    S(metal)    S(lipo)     H(rot)  DE(clash)    DE(int)     intcor
     18.59     -20.21       2.16        0.00     109.14       2.05       0.29       1.32       ----

> <Gold.Chemscore.Fitness>
18.5943

> <Gold.Chemscore.DG>
-20.2057

> <Gold.Chemscore.ZeroCoef>
-5.4800

> <Gold.Chemscore.Hbond>
2.1607

> <Gold.Chemscore.Metal>
0.0000

> <Gold.Chemscore.Lipo>
109.1352

> <Gold.Chemscore.Internal_Hbond>
0.0000

> <Gold.Chemscore.DEClash>
0.2924

> <Gold.Chemscore.DEInternal>
1.3190

> <Gold.Chemscore.Rot>
2.0546

> <Gold.Chemscore.Internal.Correction>
   9.000000E+99

> <Gold.Chemscore.Hbonds>
donor molecule, donor type, donor heavy atom, donor atom, acceptor molecule, acceptor atom, score
      L1  H    10    31       P1  7957  0.95
      L1  H    12    48       P1  7948  0.97
      P1  H  7997  8010       L1     5  0.06

> <Gold.Chemscore.Hbond.Weighted>
-7.2166

> <Gold.Chemscore.Metal.Weighted>
-0.0000

> <Gold.Chemscore.Lipo.Weighted>
-12.7688

> <Gold.Chemscore.Internal_Hbond.Weighted>
0.0000

> <Gold.Chemscore.DEClash.Weighted>
0.2924

> <Gold.Chemscore.DEInternal.Weighted>
1.3190

> <Gold.Chemscore.Rot.Weighted>
5.2597

> <Gold.Chemscore.Internal.Correction.Weighted>
   9.000000E+99

> <Gold.Protein.RotatedTorsions>
[ 6907 6896 6895 6894 ] final  146.40 input  -60.11 | X-H torsion
[ 7974 7965 7964 7962 ] final  -25.16 input  175.53 | X-H torsion
[ 8008 7997 7996 7995 ] final   25.46 input   59.86 | X-H torsion
[ 10167 10162 10161 10158 ] final   35.19 input  -65.29 | X-H torsion
[ 10718 10713 10712 10709 ] final   -1.35 input   66.30 | X-H torsion
[ 10763 10752 10751 10750 ] final  138.37 input  -60.55 | X-H torsion
[ 11005 11000 10999 10996 ] final  141.61 input  -57.11 | X-H torsion

> <Gold.Protein.ActiveResidues>
 VAL166  LYS551  ARG553  GLY616  TRP617  ASP618  TYR619  PRO620  LYS621  CYS622 
 ASP623  PHE694  ASN695  SER759  ASP760  ASP761  ALA762  ILE779  LEU786  VAL792 
 PHE793  MET794  SER795  GLU796  ALA797  LYS798  CYS799  TRP800  GLU811  SER814 

> <Gold.Protein.RotatedAtoms>
  152.1683  133.4627  159.4895 H   0  0  0  0  0  0  0  0  0  0  0  0  # atno 6907 bound_to 6896
  150.6916  134.1985  159.4322 H   0  0  0  0  0  0  0  0  0  0  0  0  # atno 6908 bound_to 6896
  151.9890  134.9988  160.0611 H   0  0  0  0  0  0  0  0  0  0  0  0  # atno 6909 bound_to 6896
  146.1509  140.4849  142.8612 H   0  0  0  0  0  0  0  0  0  0  0  0  # atno 7974 bound_to 7965
  155.0121  140.3138  155.4826 H   0  0  0  0  0  0  0  0  0  0  0  0  # atno 8008 bound_to 7997
  156.2907  140.2213  156.5177 H   0  0  0  0  0  0  0  0  0  0  0  0  # atno 8009 bound_to 7997
  154.7525  140.0465  157.0894 H   0  0  0  0  0  0  0  0  0  0  0  0  # atno 8010 bound_to 7997
  140.4245  144.1412  150.6151 H   0  0  0  0  0  0  0  0  0  0  0  0  # atno 10167 bound_to 10162
  156.8069  130.5411  149.5714 H   0  0  0  0  0  0  0  0  0  0  0  0  # atno 10718 bound_to 10713
  153.8885  135.3036  155.3447 H   0  0  0  0  0  0  0  0  0  0  0  0  # atno 10763 bound_to 10752
  154.7728  135.4877  153.9686 H   0  0  0  0  0  0  0  0  0  0  0  0  # atno 10764 bound_to 10752
  153.1311  135.6804  153.9275 H   0  0  0  0  0  0  0  0  0  0  0  0  # atno 10765 bound_to 10752
  140.0414  134.9303  157.0850 H   0  0  0  0  0  0  0  0  0  0  0  0  # atno 11005 bound_to 11000
  144.7902  140.6017  143.6546 LP  0  0  0  0  0  0  0  0  0  0  0  0  # atno 17320 bound_to 7965
  145.4826  139.1494  143.3753 LP  0  0  0  0  0  0  0  0  0  0  0  0  # atno 17321 bound_to 7965
  140.4496  143.2492  151.9365 LP  0  0  0  0  0  0  0  0  0  0  0  0  # atno 17342 bound_to 10162
  139.4783  144.5575  151.8291 LP  0  0  0  0  0  0  0  0  0  0  0  0  # atno 17343 bound_to 10162
  156.1067  130.6010  150.9982 LP  0  0  0  0  0  0  0  0  0  0  0  0  # atno 17370 bound_to 10713
  157.6525  131.0894  150.8019 LP  0  0  0  0  0  0  0  0  0  0  0  0  # atno 17371 bound_to 10713
  140.4063  134.2029  155.7163 LP  0  0  0  0  0  0  0  0  0  0  0  0  # atno 17394 bound_to 11000
  141.1885  133.8259  157.0993 LP  0  0  0  0  0  0  0  0  0  0  0  0  # atno 17395 bound_to 11000

$$$$
