AV-unprocessed.smi:2339|AV-procd|sdf|9343|dock3
  -GOLD-   2272012563D 1   1.00000     0.00000
 Structure written by MMmdl.
 49 52  0  0  0  0  0  0  0  0  1 V2000
  146.6604  131.3061  161.5562 C   0  0  0  0  0  0  0  0  0  0  0  0
  147.2779  132.2658  160.5332 C   0  0  0  0  0  0  0  0  0  0  0  0
  147.3580  133.6248  161.0486 N   0  0  0  0  0  0  0  0  0  0  0  0
  146.8803  133.9479  162.3145 C   0  0  0  0  0  0  0  0  0  0  0  0
  146.8736  135.1953  162.8229 C   0  0  0  0  0  0  0  0  0  0  0  0
  147.3954  136.3113  162.0089 C   0  0  0  0  0  0  0  0  0  0  0  0
  147.4047  137.4636  162.4422 O   0  0  0  0  0  0  0  0  0  0  0  0
  147.9018  135.9665  160.6544 C   0  0  0  0  0  0  0  0  0  0  0  0
  148.3807  137.0374  159.8845 N   0  0  0  0  0  0  0  0  0  0  0  0
  149.4933  137.1282  159.1286 C   0  0  0  0  0  0  0  0  0  0  0  0
  150.3545  136.2585  159.0195 O   0  0  0  0  0  0  0  0  0  0  0  0
  149.5980  138.2930  158.4652 N   0  0  0  0  0  0  0  0  0  0  0  0
  150.6737  138.7127  157.5643 C   0  0  1  0  0  0  0  0  0  0  0  0
  150.1328  139.1682  156.1993 C   0  0  2  0  0  0  0  0  0  0  0  0
  150.4621  138.3775  154.9627 C   0  0  0  0  0  0  0  0  0  0  0  0
  151.6705  139.1252  154.3931 C   0  0  0  0  0  0  0  0  0  0  0  0
  152.2148  139.8286  155.5074 O   0  0  0  0  0  0  0  0  0  0  0  0
  151.1223  140.3203  156.2801 C   0  0  2  0  0  0  0  0  0  0  0  0
  151.2168  140.1430  157.8105 C   0  0  0  0  0  0  0  0  0  0  0  0
  150.3945  141.1349  158.6381 C   0  0  0  0  0  0  0  0  0  0  0  0
  151.3046  142.3316  158.9228 C   0  0  0  0  0  0  0  0  0  0  0  0
  152.7349  141.7909  158.8275 C   0  0  0  0  0  0  0  0  0  0  0  0
  152.5962  140.3151  158.4422 C   0  0  0  0  0  0  0  0  0  0  0  0
  147.8467  134.6677  160.2641 C   0  0  0  0  0  0  0  0  0  0  0  0
  146.6047  130.2945  161.1540 H   0  0  0  0  0  0  0  0  0  0  0  0
  145.6497  131.6141  161.8255 H   0  0  0  0  0  0  0  0  0  0  0  0
  147.2554  131.2689  162.4693 H   0  0  0  0  0  0  0  0  0  0  0  0
  148.2757  131.9223  160.2576 H   0  0  0  0  0  0  0  0  0  0  0  0
  146.6881  132.2576  159.6159 H   0  0  0  0  0  0  0  0  0  0  0  0
  146.5092  133.1051  162.8793 H   0  0  0  0  0  0  0  0  0  0  0  0
  146.4937  135.3989  163.8131 H   0  0  0  0  0  0  0  0  0  0  0  0
  147.7882  137.8550  159.8961 H   0  0  0  0  0  0  0  0  0  0  0  0
  148.8473  138.9558  158.5939 H   0  0  0  0  0  0  0  0  0  0  0  0
  151.4768  137.9803  157.4535 H   0  0  0  0  0  0  0  0  0  0  0  0
  149.1024  139.5248  156.2522 H   0  0  0  0  0  0  0  0  0  0  0  0
  150.7255  137.3503  155.2164 H   0  0  0  0  0  0  0  0  0  0  0  0
  149.6362  138.3462  154.2514 H   0  0  0  0  0  0  0  0  0  0  0  0
  152.4044  138.4578  153.9413 H   0  0  0  0  0  0  0  0  0  0  0  0
  151.3535  139.8469  153.6387 H   0  0  0  0  0  0  0  0  0  0  0  0
  150.7293  141.2744  155.9262 H   0  0  0  0  0  0  0  0  0  0  0  0
  149.4758  141.4412  158.1365 H   0  0  0  0  0  0  0  0  0  0  0  0
  150.1021  140.6904  159.5899 H   0  0  0  0  0  0  0  0  0  0  0  0
  151.1519  143.1066  158.1707 H   0  0  0  0  0  0  0  0  0  0  0  0
  151.0950  142.7725  159.8978 H   0  0  0  0  0  0  0  0  0  0  0  0
  153.2871  142.3338  158.0594 H   0  0  0  0  0  0  0  0  0  0  0  0
  153.2787  141.9053  159.7659 H   0  0  0  0  0  0  0  0  0  0  0  0
  152.6722  139.7058  159.3424 H   0  0  0  0  0  0  0  0  0  0  0  0
  153.4060  139.9977  157.7850 H   0  0  0  0  0  0  0  0  0  0  0  0
  148.1806  134.3294  159.2963 H   0  0  0  0  0  0  0  0  0  0  0  0
  1  2  1  0  0  0  0
  1 25  1  0  0  0  0
  1 26  1  0  0  0  0
  1 27  1  0  0  0  0
  2  3  1  0  0  0  0
  2 28  1  0  0  0  0
  2 29  1  0  0  0  0
  3 24  1  0  0  0  0
  3  4  1  0  0  0  0
  4  5  2  0  0  0  0
  4 30  1  0  0  0  0
  5  6  1  0  0  0  0
  5 31  1  0  0  0  0
  6  7  2  0  0  0  0
  6  8  1  0  0  0  0
  8  9  1  0  0  0  0
  8 24  2  0  0  0  0
  9 10  1  0  0  0  0
  9 32  1  0  0  0  0
 10 11  2  0  0  0  0
 10 12  1  0  0  0  0
 12 13  1  0  0  0  0
 12 33  1  0  0  0  0
 13 19  1  0  0  0  0
 13 14  1  0  0  0  0
 13 34  1  0  0  0  0
 14 18  1  0  0  0  0
 14 15  1  0  0  0  0
 14 35  1  0  0  0  0
 15 16  1  0  0  0  0
 15 36  1  0  0  0  0
 15 37  1  0  0  0  0
 16 17  1  0  0  0  0
 16 38  1  0  0  0  0
 16 39  1  0  0  0  0
 17 18  1  0  0  0  0
 18 19  1  0  0  0  0
 18 40  1  0  0  0  0
 19 23  1  0  0  0  0
 19 20  1  0  0  0  0
 20 21  1  0  0  0  0
 20 41  1  0  0  0  0
 20 42  1  0  0  0  0
 21 22  1  0  0  0  0
 21 43  1  0  0  0  0
 21 44  1  0  0  0  0
 22 23  1  0  0  0  0
 22 45  1  0  0  0  0
 22 46  1  0  0  0  0
 23 47  1  0  0  0  0
 23 48  1  0  0  0  0
 24 49  1  0  0  0  0
M  END
> <s_m_source_file>
AV-unprocessed.smi

> <i_m_source_file_index>
2339

> <i_lp_mmshare_version>
43012

> <i_f3d_flags>
0

> <s_epik_input>
W0NIM11bQ0gyXW4xW2NIXVtjSF1jKD1PKWMoW2NIXTEpW05IXUMoPU8pW05IXVtDQEBIXTJbQ0BASF0oW0NIMl1bQ0gyXU8zKVtDQEBIXTNDMjRbQ0gyXVtDSDJdW0NIMl1bQ0gyXTQ=

> <s_epik_cmdline>
J2VwaWtfcHl0aG9uJywgJy1waCcsICc3LjAnLCAnLXRuJywgJzgnLCAnLW1hJywgJzIwMCcsICctbWV0YWxfYmluZGluZycsICctaW1hZScsICc8aW5maWxlLm1hZT4nLCAnLW9tYWUnLCAnPG91dGZpbGUubWFlPic=

> <r_lp_tautomer_probability>
1

> <r_epik_Ionization_Penalty>
0.00145966

> <r_epik_Ionization_Penalty_Charging>
0.00143969

> <r_epik_Ionization_Penalty_Neutral>
1.99697e-05

> <r_epik_State_Penalty>
0.000961843

> <r_epik_Charging_Adjusted_Penalty>
0.00240153

> <i_epik_Tot_Q>
0

> <i_epik_Tot_abs_Q>
0

> <r_epik_Metal_State_Penalty>
-0

> <b_epik_Metal_Only>
0

> <s_lp_Force_Field>
OPLS_2005

> <r_lp_Energy>
57.3281

> <b_lp_Chiralities_Consistent>
1

> <s_lp_Variant>
AV-unprocessed.smi:2339-8

> <Gold.Version>
5.8.1

> <Gold.Id.Protein>
6NUR|6NUR_protein|mol2

> <Gold.PLP.Fitness>
51.0525

> <Gold.PLP.PLP>
-42.0815

> <Gold.PLP.part.hbond>
-3.8079

> <Gold.PLP.part.metal>
0.0000

> <Gold.PLP.part.buried>
-3.5053

> <Gold.PLP.part.nonpolar>
-34.9194

> <Gold.PLP.part.repulsive>
0.3920

> <Gold.PLP.ligand.clash>
0.0000

> <Gold.PLP.ligand.torsion>
0.4698

> <Gold.PLP.Chemscore.Hbond>
3.2393

> <Gold.PLP.Chemscore.CHOScore>
0.0000

> <Gold.PLP.Chemscore.Metal>
0.0000

> <Gold.Chemscore.Hbonds>
donor molecule, donor type, donor heavy atom, donor atom, acceptor molecule, acceptor atom, score
      P1  H  6896  6909       L1    11  1.00
      P1  H  6931  6943       L1     7  0.69
      P1  H  6934  6947       L1     7  0.32
      P1  H  7997  8008       L1    17  0.44

> <Gold.PLP.Chemscore.Internal.Correction>
0.1929

> <Gold.Rescore>
     Score         DG    S(hbond)    S(metal)    S(lipo)     H(rot)  DE(clash)    DE(int)     intcor
     23.27     -24.05       3.10        0.00      95.69       1.17       0.32       0.47       ----

> <Gold.Chemscore.Fitness>
23.2694

> <Gold.Chemscore.DG>
-24.0539

> <Gold.Chemscore.ZeroCoef>
-5.4800

> <Gold.Chemscore.Hbond>
3.1036

> <Gold.Chemscore.Metal>
0.0000

> <Gold.Chemscore.Lipo>
95.6854

> <Gold.Chemscore.Internal_Hbond>
0.0000

> <Gold.Chemscore.DEClash>
0.3163

> <Gold.Chemscore.DEInternal>
0.4681

> <Gold.Chemscore.Rot>
1.1670

> <Gold.Chemscore.Internal.Correction>
   9.000000E+99

> <Gold.Chemscore.Hbonds>
donor molecule, donor type, donor heavy atom, donor atom, acceptor molecule, acceptor atom, score
      P1  H  6896  6909       L1    11  0.98
      P1  H  6931  6943       L1     7  0.44
      P1  H  6934  6947       L1     7  0.30
      P1  H  7997  8008       L1    17  0.43

> <Gold.Chemscore.Hbond.Weighted>
-10.3661

> <Gold.Chemscore.Metal.Weighted>
-0.0000

> <Gold.Chemscore.Lipo.Weighted>
-11.1952

> <Gold.Chemscore.Internal_Hbond.Weighted>
0.0000

> <Gold.Chemscore.DEClash.Weighted>
0.3163

> <Gold.Chemscore.DEInternal.Weighted>
0.4681

> <Gold.Chemscore.Rot.Weighted>
2.9874

> <Gold.Chemscore.Internal.Correction.Weighted>
   9.000000E+99

> <Gold.Protein.RotatedTorsions>
[ 6907 6896 6895 6894 ] final   74.20 input  -60.11 | X-H torsion
[ 7974 7965 7964 7962 ] final  -69.59 input  175.53 | X-H torsion
[ 8008 7997 7996 7995 ] final  -27.06 input   59.86 | X-H torsion
[ 10167 10162 10161 10158 ] final  -83.45 input  -65.29 | X-H torsion
[ 10718 10713 10712 10709 ] final  118.31 input   66.30 | X-H torsion
[ 10763 10752 10751 10750 ] final -155.68 input  -60.55 | X-H torsion
[ 11005 11000 10999 10996 ] final  104.53 input  -57.11 | X-H torsion

> <Gold.Protein.ActiveResidues>
 VAL166  LYS551  ARG553  GLY616  TRP617  ASP618  TYR619  PRO620  LYS621  CYS622 
 ASP623  PHE694  ASN695  SER759  ASP760  ASP761  ALA762  ILE779  LEU786  VAL792 
 PHE793  MET794  SER795  GLU796  ALA797  LYS798  CYS799  TRP800  GLU811  SER814 

> <Gold.Protein.RotatedAtoms>
  152.4963  134.4307  159.9510 H   0  0  0  0  0  0  0  0  0  0  0  0  # atno 6907 bound_to 6896
  151.4285  133.3671  159.2773 H   0  0  0  0  0  0  0  0  0  0  0  0  # atno 6908 bound_to 6896
  150.9171  134.8612  159.7524 H   0  0  0  0  0  0  0  0  0  0  0  0  # atno 6909 bound_to 6896
  145.7019  140.9113  143.0727 H   0  0  0  0  0  0  0  0  0  0  0  0  # atno 7974 bound_to 7965
  154.4395  140.1882  156.0872 H   0  0  0  0  0  0  0  0  0  0  0  0  # atno 8008 bound_to 7997
  156.0393  140.3321  155.7200 H   0  0  0  0  0  0  0  0  0  0  0  0  # atno 8009 bound_to 7997
  155.5723  140.0614  157.2794 H   0  0  0  0  0  0  0  0  0  0  0  0  # atno 8010 bound_to 7997
  140.4225  143.2579  151.8870 H   0  0  0  0  0  0  0  0  0  0  0  0  # atno 10167 bound_to 10162
  157.6039  131.1046  150.7738 H   0  0  0  0  0  0  0  0  0  0  0  0  # atno 10718 bound_to 10713
  154.7769  135.3162  154.8073 H   0  0  0  0  0  0  0  0  0  0  0  0  # atno 10763 bound_to 10752
  153.8794  135.6836  153.4772 H   0  0  0  0  0  0  0  0  0  0  0  0  # atno 10764 bound_to 10752
  153.1395  135.4745  154.9410 H   0  0  0  0  0  0  0  0  0  0  0  0  # atno 10765 bound_to 10752
  139.8793  134.9304  156.5376 H   0  0  0  0  0  0  0  0  0  0  0  0  # atno 11005 bound_to 11000
  144.6966  139.8959  143.7456 LP  0  0  0  0  0  0  0  0  0  0  0  0  # atno 17320 bound_to 7965
  146.0790  139.3778  143.0476 LP  0  0  0  0  0  0  0  0  0  0  0  0  # atno 17321 bound_to 7965
  139.4783  144.5422  151.8511 LP  0  0  0  0  0  0  0  0  0  0  0  0  # atno 17342 bound_to 10162
  140.4518  144.1845  150.5898 LP  0  0  0  0  0  0  0  0  0  0  0  0  # atno 17343 bound_to 10162
  156.8130  130.4959  149.5353 LP  0  0  0  0  0  0  0  0  0  0  0  0  # atno 17370 bound_to 10713
  156.1119  130.6047  151.0061 LP  0  0  0  0  0  0  0  0  0  0  0  0  # atno 17371 bound_to 10713
  140.8334  133.8261  155.9006 LP  0  0  0  0  0  0  0  0  0  0  0  0  # atno 17394 bound_to 11000
  140.9307  134.2026  157.4866 LP  0  0  0  0  0  0  0  0  0  0  0  0  # atno 17395 bound_to 11000

$$$$
