AV-unprocessed.smi:2881|AV-procd|sdf|11055|dock9
  -GOLD-   2272015523D 1   1.00000     0.00000
 Structure written by MMmdl.
 40 42  0  0  0  0  0  0  0  0  1 V2000
  156.5280  140.6014  165.1978 C   0  0  0  0  0  0  0  0  0  0  0  0
  155.7102  140.4872  163.9566 C   0  0  0  0  0  0  0  0  0  0  0  0
  155.3174  139.3995  163.2289 C   0  0  0  0  0  0  0  0  0  0  0  0
  154.5544  139.9488  162.1550 C   0  0  0  0  0  0  0  0  0  0  0  0
  153.8752  139.2173  161.0281 C   0  0  0  0  0  0  0  0  0  0  0  0
  153.6638  140.1541  159.8384 C   0  0  0  0  0  0  0  0  0  0  0  0
  154.2287  139.9270  158.7688 O   0  0  0  0  0  0  0  0  0  0  0  0
  152.8470  141.2000  160.0398 N   0  0  0  0  0  0  0  0  0  0  0  0
  152.4831  142.1962  159.0353 C   0  0  2  0  0  0  0  0  0  0  0  0
  152.8800  143.6116  159.5101 C   0  0  1  0  0  0  0  0  0  0  0  0
  152.8463  144.5664  158.3032 C   0  0  0  0  0  0  0  0  0  0  0  0
  151.3361  144.7176  158.0406 C   0  0  0  0  0  0  0  0  0  0  0  0
  150.7041  143.8228  159.1291 C   0  0  2  0  0  0  0  0  0  0  0  0
  151.6529  144.0664  160.2956 C   0  0  0  0  0  0  0  0  0  0  0  0
  150.9473  142.3193  158.8540 C   0  0  1  0  0  0  0  0  0  0  0  0
  150.4092  141.8117  157.5021 C   0  0  0  0  0  0  0  0  0  0  0  0
  149.1616  142.4072  157.2188 O   0  0  0  0  0  0  0  0  0  0  0  0
  154.4871  141.2717  162.2113 N   0  0  0  0  0  0  0  0  0  0  0  0
  155.1920  141.5871  163.3133 N   0  0  0  0  0  0  0  0  0  0  0  0
  155.3110  142.5455  163.6093 H   0  0  0  0  0  0  0  0  0  0  0  0
  156.6763  139.6242  165.6574 H   0  0  0  0  0  0  0  0  0  0  0  0
  156.0385  141.2462  165.9283 H   0  0  0  0  0  0  0  0  0  0  0  0
  157.5090  141.0228  164.9771 H   0  0  0  0  0  0  0  0  0  0  0  0
  155.5393  138.3622  163.4323 H   0  0  0  0  0  0  0  0  0  0  0  0
  154.4683  138.3614  160.7021 H   0  0  0  0  0  0  0  0  0  0  0  0
  152.9163  138.8178  161.3609 H   0  0  0  0  0  0  0  0  0  0  0  0
  152.4325  141.3061  160.9543 H   0  0  0  0  0  0  0  0  0  0  0  0
  152.9855  141.9692  158.0928 H   0  0  0  0  0  0  0  0  0  0  0  0
  153.8216  143.6490  160.0597 H   0  0  0  0  0  0  0  0  0  0  0  0
  153.2885  145.5305  158.5574 H   0  0  0  0  0  0  0  0  0  0  0  0
  153.3832  144.1704  157.4404 H   0  0  0  0  0  0  0  0  0  0  0  0
  151.0329  145.7562  158.1795 H   0  0  0  0  0  0  0  0  0  0  0  0
  151.0532  144.4321  157.0282 H   0  0  0  0  0  0  0  0  0  0  0  0
  149.6607  144.0619  159.3364 H   0  0  0  0  0  0  0  0  0  0  0  0
  151.4396  143.4454  161.1674 H   0  0  0  0  0  0  0  0  0  0  0  0
  151.7004  145.1117  160.6065 H   0  0  0  0  0  0  0  0  0  0  0  0
  150.4368  141.7672  159.6462 H   0  0  0  0  0  0  0  0  0  0  0  0
  151.1004  142.0677  156.6989 H   0  0  0  0  0  0  0  0  0  0  0  0
  150.2902  140.7283  157.4983 H   0  0  0  0  0  0  0  0  0  0  0  0
  149.3023  143.1451  156.6455 H   0  0  0  0  0  0  0  0  0  0  0  0
  1  2  1  0  0  0  0
  1 21  1  0  0  0  0
  1 22  1  0  0  0  0
  1 23  1  0  0  0  0
  2 19  1  0  0  0  0
  2  3  2  0  0  0  0
  3  4  1  0  0  0  0
  3 24  1  0  0  0  0
  4  5  1  0  0  0  0
  4 18  2  0  0  0  0
  5  6  1  0  0  0  0
  5 25  1  0  0  0  0
  5 26  1  0  0  0  0
  6  7  2  0  0  0  0
  6  8  1  0  0  0  0
  8  9  1  0  0  0  0
  8 27  1  0  0  0  0
  9 15  1  0  0  0  0
  9 10  1  0  0  0  0
  9 28  1  0  0  0  0
 10 14  1  0  0  0  0
 10 11  1  0  0  0  0
 10 29  1  0  0  0  0
 11 12  1  0  0  0  0
 11 30  1  0  0  0  0
 11 31  1  0  0  0  0
 12 13  1  0  0  0  0
 12 32  1  0  0  0  0
 12 33  1  0  0  0  0
 13 14  1  0  0  0  0
 13 15  1  0  0  0  0
 13 34  1  0  0  0  0
 14 35  1  0  0  0  0
 14 36  1  0  0  0  0
 15 16  1  0  0  0  0
 15 37  1  0  0  0  0
 16 17  1  0  0  0  0
 16 38  1  0  0  0  0
 16 39  1  0  0  0  0
 17 40  1  0  0  0  0
 18 19  1  0  0  0  0
 19 20  1  0  0  0  0
M  END
> <s_m_source_file>
AV-unprocessed.smi

> <i_m_source_file_index>
2881

> <i_lp_mmshare_version>
43012

> <i_f3d_flags>
0

> <s_epik_input>
W0NIM11jMVtjSF1jKG5bbkhdMSlbQ0gyXUMoPU8pW05IXVtDQEhdKFtDQEBIXTIzKVtDQEhdKFtDSDJdW09IXSlbQ0BASF0oW0NIMl0zKVtDSDJdW0NIMl0y

> <s_epik_cmdline>
J2VwaWtfcHl0aG9uJywgJy1waCcsICc3LjAnLCAnLXRuJywgJzgnLCAnLW1hJywgJzIwMCcsICctbWV0YWxfYmluZGluZycsICctaW1hZScsICc8aW5maWxlLm1hZT4nLCAnLW9tYWUnLCAnPG91dGZpbGUubWFlPic=

> <r_lp_tautomer_probability>
0.5

> <r_epik_Ionization_Penalty>
9.4349e-05

> <r_epik_Ionization_Penalty_Charging>
0

> <r_epik_Ionization_Penalty_Neutral>
9.4349e-05

> <r_epik_State_Penalty>
0.41068

> <r_epik_Charging_Adjusted_Penalty>
0.41068

> <i_epik_Tot_Q>
0

> <i_epik_Tot_abs_Q>
0

> <r_epik_Metal_State_Penalty>
0.4107

> <b_epik_Metal_Only>
0

> <s_lp_Force_Field>
OPLS_2005

> <r_lp_Energy>
47.7549

> <b_lp_Chiralities_Consistent>
1

> <s_lp_Variant>
AV-unprocessed.smi:2881-1

> <Gold.Version>
5.8.1

> <Gold.Id.Protein>
6NUR|6NUR_protein|mol2

> <Gold.PLP.Fitness>
43.0763

> <Gold.PLP.PLP>
-38.1609

> <Gold.PLP.part.hbond>
-3.5253

> <Gold.PLP.part.metal>
0.0000

> <Gold.PLP.part.buried>
-3.2496

> <Gold.PLP.part.nonpolar>
-31.0551

> <Gold.PLP.part.repulsive>
0.1159

> <Gold.PLP.ligand.clash>
0.0000

> <Gold.PLP.ligand.torsion>
0.5567

> <Gold.PLP.Chemscore.Hbond>
2.0000

> <Gold.PLP.Chemscore.CHOScore>
0.0000

> <Gold.PLP.Chemscore.Metal>
0.0000

> <Gold.Chemscore.Hbonds>
donor molecule, donor type, donor heavy atom, donor atom, acceptor molecule, acceptor atom, score
      L1  H    17    40       P1  8028  1.00
      P1  H  7997  8008       L1     7  1.00

> <Gold.PLP.Chemscore.Internal.Correction>
0.0289

> <Gold.Rescore>
     Score         DG    S(hbond)    S(metal)    S(lipo)     H(rot)  DE(clash)    DE(int)     intcor
     16.73     -19.81       1.87        0.00     118.73       2.28       0.91       2.17       ----

> <Gold.Chemscore.Fitness>
16.7279

> <Gold.Chemscore.DG>
-19.8080

> <Gold.Chemscore.ZeroCoef>
-5.4800

> <Gold.Chemscore.Hbond>
1.8747

> <Gold.Chemscore.Metal>
0.0000

> <Gold.Chemscore.Lipo>
118.7334

> <Gold.Chemscore.Internal_Hbond>
0.0000

> <Gold.Chemscore.DEClash>
0.9057

> <Gold.Chemscore.DEInternal>
2.1744

> <Gold.Chemscore.Rot>
2.2755

> <Gold.Chemscore.Internal.Correction>
   9.000000E+99

> <Gold.Chemscore.Hbonds>
donor molecule, donor type, donor heavy atom, donor atom, acceptor molecule, acceptor atom, score
      L1  H    17    40       P1  8028  0.99
      P1  H  7997  8008       L1     7  0.94

> <Gold.Chemscore.Hbond.Weighted>
-6.2614

> <Gold.Chemscore.Metal.Weighted>
-0.0000

> <Gold.Chemscore.Lipo.Weighted>
-13.8918

> <Gold.Chemscore.Internal_Hbond.Weighted>
0.0000

> <Gold.Chemscore.DEClash.Weighted>
0.9057

> <Gold.Chemscore.DEInternal.Weighted>
2.1744

> <Gold.Chemscore.Rot.Weighted>
5.8252

> <Gold.Chemscore.Internal.Correction.Weighted>
   9.000000E+99

> <Gold.Protein.RotatedTorsions>
[ 6907 6896 6895 6894 ] final   -7.18 input  -60.11 | X-H torsion
[ 7974 7965 7964 7962 ] final -147.55 input  175.53 | X-H torsion
[ 8008 7997 7996 7995 ] final -119.88 input   59.86 | X-H torsion
[ 10167 10162 10161 10158 ] final   37.22 input  -65.29 | X-H torsion
[ 10718 10713 10712 10709 ] final   88.32 input   66.30 | X-H torsion
[ 10763 10752 10751 10750 ] final  177.73 input  -60.55 | X-H torsion
[ 11005 11000 10999 10996 ] final  -84.42 input  -57.11 | X-H torsion

> <Gold.Protein.ActiveResidues>
 VAL166  LYS551  ARG553  GLY616  TRP617  ASP618  TYR619  PRO620  LYS621  CYS622 
 ASP623  PHE694  ASN695  SER759  ASP760  ASP761  ALA762  ILE779  LEU786  VAL792 
 PHE793  MET794  SER795  GLU796  ALA797  LYS798  CYS799  TRP800  GLU811  SER814 

> <Gold.Protein.RotatedAtoms>
  151.4537  135.1032  159.9704 H   0  0  0  0  0  0  0  0  0  0  0  0  # atno 6907 bound_to 6896
  152.4879  133.8417  159.7166 H   0  0  0  0  0  0  0  0  0  0  0  0  # atno 6908 bound_to 6896
  150.9005  133.7065  159.2907 H   0  0  0  0  0  0  0  0  0  0  0  0  # atno 6909 bound_to 6896
  144.8086  140.5312  143.5658 H   0  0  0  0  0  0  0  0  0  0  0  0  # atno 7974 bound_to 7965
  155.1229  140.0399  157.2754 H   0  0  0  0  0  0  0  0  0  0  0  0  # atno 8008 bound_to 7997
  154.6600  140.2589  155.7093 H   0  0  0  0  0  0  0  0  0  0  0  0  # atno 8009 bound_to 7997
  156.2615  140.2819  156.1068 H   0  0  0  0  0  0  0  0  0  0  0  0  # atno 8010 bound_to 7997
  140.4054  144.1667  150.6136 H   0  0  0  0  0  0  0  0  0  0  0  0  # atno 10167 bound_to 10162
  157.6948  131.0290  150.3257 H   0  0  0  0  0  0  0  0  0  0  0  0  # atno 10718 bound_to 10713
  154.4983  135.2782  155.1441 H   0  0  0  0  0  0  0  0  0  0  0  0  # atno 10763 bound_to 10752
  154.3084  135.6234  153.5458 H   0  0  0  0  0  0  0  0  0  0  0  0  # atno 10764 bound_to 10752
  152.9898  135.5714  154.5421 H   0  0  0  0  0  0  0  0  0  0  0  0  # atno 10765 bound_to 10752
  141.1650  133.7345  156.8865 H   0  0  0  0  0  0  0  0  0  0  0  0  # atno 11005 bound_to 11000
  145.5378  139.1475  143.3464 LP  0  0  0  0  0  0  0  0  0  0  0  0  # atno 17320 bound_to 7965
  146.2381  140.5518  142.8946 LP  0  0  0  0  0  0  0  0  0  0  0  0  # atno 17321 bound_to 7965
  140.4696  143.2418  151.9108 LP  0  0  0  0  0  0  0  0  0  0  0  0  # atno 17342 bound_to 10162
  139.4783  144.5384  151.8565 LP  0  0  0  0  0  0  0  0  0  0  0  0  # atno 17343 bound_to 10162
  156.3738  130.3868  149.7155 LP  0  0  0  0  0  0  0  0  0  0  0  0  # atno 17370 bound_to 10713
  156.4560  130.7929  151.2950 LP  0  0  0  0  0  0  0  0  0  0  0  0  # atno 17371 bound_to 10713
  140.1678  134.9121  157.2796 LP  0  0  0  0  0  0  0  0  0  0  0  0  # atno 17394 bound_to 11000
  140.2537  134.3653  155.7432 LP  0  0  0  0  0  0  0  0  0  0  0  0  # atno 17395 bound_to 11000

$$$$
