AV-unprocessed.smi:618|AV-procd|sdf|3085|dock3
  -GOLD-   22720 0 03D 1   1.00000     0.00000
 Structure written by MMmdl.
 40 42  0  0  0  0  0  0  0  0  1 V2000
  144.6232  137.0327  152.3256 O   0  0  0  0  0  0  0  0  0  0  0  0
  145.8248  136.8464  152.1364 C   0  0  0  0  0  0  0  0  0  0  0  0
  146.7622  137.7795  152.3543 N   0  0  0  0  0  0  0  0  0  0  0  0
  146.5083  139.1262  152.8555 C   0  0  0  0  0  0  0  0  0  0  0  0
  147.4483  139.4839  154.0189 C   0  0  1  0  0  0  0  0  0  0  0  0
  148.8591  138.8823  153.8213 C   0  0  0  0  0  0  0  0  0  0  0  0
  149.7414  139.3340  154.8801 N   0  0  0  0  0  0  0  0  0  0  0  0
  151.1232  138.9211  154.8013 C   0  0  0  0  0  0  0  0  0  0  0  0
  151.8565  139.8631  155.7729 C   0  0  0  0  0  0  0  0  0  0  0  0
  150.9026  141.0677  155.9356 C   0  0  0  0  0  0  0  0  0  0  0  0
  149.8061  140.7701  154.9118 C   0  0  2  0  0  0  0  0  0  0  0  0
  148.4151  141.3706  155.1596 C   0  0  0  0  0  0  0  0  0  0  0  0
  147.5477  140.9106  154.1206 O   0  0  0  0  0  0  0  0  0  0  0  0
  146.3765  135.6973  151.7101 N   0  0  0  0  0  0  0  0  0  0  0  0
  145.7329  134.4769  151.3693 C   0  0  0  0  0  0  0  0  0  0  0  0
  144.3310  134.2783  151.3934 C   0  0  0  0  0  0  0  0  0  0  0  0
  143.8158  133.0235  151.0149 C   0  0  0  0  0  0  0  0  0  0  0  0
  144.7181  132.0169  150.6200 C   0  0  0  0  0  0  0  0  0  0  0  0
  146.0553  132.1960  150.5796 N   0  0  0  0  0  0  0  0  0  0  0  0
  146.5418  133.4017  150.9437 C   0  0  0  0  0  0  0  0  0  0  0  0
  147.7255  137.5363  152.1759 H   0  0  0  0  0  0  0  0  0  0  0  0
  146.6723  139.8178  152.0287 H   0  0  0  0  0  0  0  0  0  0  0  0
  145.4648  139.2454  153.1520 H   0  0  0  0  0  0  0  0  0  0  0  0
  147.0265  139.0988  154.9492 H   0  0  0  0  0  0  0  0  0  0  0  0
  148.8078  137.7931  153.8201 H   0  0  0  0  0  0  0  0  0  0  0  0
  149.2577  139.1827  152.8509 H   0  0  0  0  0  0  0  0  0  0  0  0
  151.2447  137.8694  155.0620 H   0  0  0  0  0  0  0  0  0  0  0  0
  151.5025  139.0658  153.7883 H   0  0  0  0  0  0  0  0  0  0  0  0
  152.0237  139.3792  156.7358 H   0  0  0  0  0  0  0  0  0  0  0  0
  152.8266  140.1599  155.3735 H   0  0  0  0  0  0  0  0  0  0  0  0
  150.4928  141.0885  156.9464 H   0  0  0  0  0  0  0  0  0  0  0  0
  151.3937  142.0227  155.7475 H   0  0  0  0  0  0  0  0  0  0  0  0
  150.1565  141.1280  153.9411 H   0  0  0  0  0  0  0  0  0  0  0  0
  148.0225  141.0725  156.1330 H   0  0  0  0  0  0  0  0  0  0  0  0
  148.4550  142.4598  155.1410 H   0  0  0  0  0  0  0  0  0  0  0  0
  147.3854  135.6762  151.6794 H   0  0  0  0  0  0  0  0  0  0  0  0
  143.6433  135.0592  151.6782 H   0  0  0  0  0  0  0  0  0  0  0  0
  142.7517  132.8386  151.0225 H   0  0  0  0  0  0  0  0  0  0  0  0
  144.3556  131.0440  150.3225 H   0  0  0  0  0  0  0  0  0  0  0  0
  147.6159  133.5094  150.8969 H   0  0  0  0  0  0  0  0  0  0  0  0
  1  2  2  0  0  0  0
  2  3  1  0  0  0  0
  2 14  1  0  0  0  0
  3  4  1  0  0  0  0
  3 21  1  0  0  0  0
  4  5  1  0  0  0  0
  4 22  1  0  0  0  0
  4 23  1  0  0  0  0
  5 13  1  0  0  0  0
  5  6  1  0  0  0  0
  5 24  1  0  0  0  0
  6  7  1  0  0  0  0
  6 25  1  0  0  0  0
  6 26  1  0  0  0  0
  7 11  1  0  0  0  0
  7  8  1  0  0  0  0
  8  9  1  0  0  0  0
  8 27  1  0  0  0  0
  8 28  1  0  0  0  0
  9 10  1  0  0  0  0
  9 29  1  0  0  0  0
  9 30  1  0  0  0  0
 10 11  1  0  0  0  0
 10 31  1  0  0  0  0
 10 32  1  0  0  0  0
 11 12  1  0  0  0  0
 11 33  1  0  0  0  0
 12 13  1  0  0  0  0
 12 34  1  0  0  0  0
 12 35  1  0  0  0  0
 14 15  1  0  0  0  0
 14 36  1  0  0  0  0
 15 20  1  0  0  0  0
 15 16  2  0  0  0  0
 16 17  1  0  0  0  0
 16 37  1  0  0  0  0
 17 18  2  0  0  0  0
 17 38  1  0  0  0  0
 18 19  1  0  0  0  0
 18 39  1  0  0  0  0
 19 20  2  0  0  0  0
 20 40  1  0  0  0  0
M  END
> <s_m_source_file>
AV-unprocessed.smi

> <i_m_source_file_index>
618

> <i_lp_mmshare_version>
43012

> <i_f3d_flags>
0

> <s_epik_input>
W2NIXTFuW2NIXVtjSF1bY0hdYzFbTkhdQyg9TylbTkhdW0NIMl1bQ0BIXShbQ0gyXTIpT1tDSDJdW0NAQEhdKE4yMylbQ0gyXVtDSDJdW0NIMl0z

> <s_epik_cmdline>
J2VwaWtfcHl0aG9uJywgJy1waCcsICc3LjAnLCAnLXRuJywgJzgnLCAnLW1hJywgJzIwMCcsICctbWV0YWxfYmluZGluZycsICctaW1hZScsICc8aW5maWxlLm1hZT4nLCAnLW9tYWUnLCAnPG91dGZpbGUubWFlPic=

> <r_epik_Ionization_Penalty>
1.07277

> <r_epik_Ionization_Penalty_Charging>
0

> <r_epik_Ionization_Penalty_Neutral>
1.07277

> <r_epik_State_Penalty>
1.13623

> <r_epik_Charging_Adjusted_Penalty>
1.13623

> <i_epik_Tot_Q>
0

> <i_epik_Tot_abs_Q>
0

> <r_epik_Metal_State_Penalty>
1.13277

> <b_epik_Metal_Only>
0

> <s_lp_Force_Field>
OPLS_2005

> <r_lp_Energy>
50.6397

> <b_lp_Chiralities_Consistent>
1

> <s_lp_Variant>
AV-unprocessed.smi:618-12

> <Gold.Version>
5.8.1

> <Gold.Id.Protein>
6NUR|6NUR_protein|mol2

> <Gold.PLP.Fitness>
40.6229

> <Gold.PLP.PLP>
-35.3001

> <Gold.PLP.part.hbond>
-2.0000

> <Gold.PLP.part.metal>
0.0000

> <Gold.PLP.part.buried>
-2.9515

> <Gold.PLP.part.nonpolar>
-31.7524

> <Gold.PLP.part.repulsive>
1.4006

> <Gold.PLP.ligand.clash>
0.0000

> <Gold.PLP.ligand.torsion>
0.3031

> <Gold.PLP.Chemscore.Hbond>
1.9760

> <Gold.PLP.Chemscore.CHOScore>
0.0000

> <Gold.PLP.Chemscore.Metal>
0.0000

> <Gold.Chemscore.Hbonds>
donor molecule, donor type, donor heavy atom, donor atom, acceptor molecule, acceptor atom, score
      L1  H     3    21       P1  7948  0.98
      L1  H    14    36       P1  7948  1.00

> <Gold.PLP.Chemscore.Internal.Correction>
0.0010

> <Gold.Rescore>
     Score         DG    S(hbond)    S(metal)    S(lipo)     H(rot)  DE(clash)    DE(int)     intcor
     17.13     -18.70       1.95        0.00      84.76       1.25       0.06       1.51       ----

> <Gold.Chemscore.Fitness>
17.1347

> <Gold.Chemscore.DG>
-18.7034

> <Gold.Chemscore.ZeroCoef>
-5.4800

> <Gold.Chemscore.Hbond>
1.9451

> <Gold.Chemscore.Metal>
0.0000

> <Gold.Chemscore.Lipo>
84.7589

> <Gold.Chemscore.Internal_Hbond>
0.0000

> <Gold.Chemscore.DEClash>
0.0588

> <Gold.Chemscore.DEInternal>
1.5099

> <Gold.Chemscore.Rot>
1.2461

> <Gold.Chemscore.Internal.Correction>
   9.000000E+99

> <Gold.Chemscore.Hbonds>
donor molecule, donor type, donor heavy atom, donor atom, acceptor molecule, acceptor atom, score
      L1  H     3    21       P1  7948  0.93
      L1  H    14    36       P1  7948  0.99

> <Gold.Chemscore.Hbond.Weighted>
-6.4967

> <Gold.Chemscore.Metal.Weighted>
-0.0000

> <Gold.Chemscore.Lipo.Weighted>
-9.9168

> <Gold.Chemscore.Internal_Hbond.Weighted>
0.0000

> <Gold.Chemscore.DEClash.Weighted>
0.0588

> <Gold.Chemscore.DEInternal.Weighted>
1.5099

> <Gold.Chemscore.Rot.Weighted>
3.1901

> <Gold.Chemscore.Internal.Correction.Weighted>
   9.000000E+99

> <Gold.Protein.RotatedTorsions>
[ 6907 6896 6895 6894 ] final  102.83 input  -60.11 | X-H torsion
[ 7974 7965 7964 7962 ] final   36.59 input  175.53 | X-H torsion
[ 8008 7997 7996 7995 ] final   90.64 input   59.86 | X-H torsion
[ 10167 10162 10161 10158 ] final   81.05 input  -65.29 | X-H torsion
[ 10718 10713 10712 10709 ] final   56.70 input   66.30 | X-H torsion
[ 10763 10752 10751 10750 ] final   93.03 input  -60.55 | X-H torsion
[ 11005 11000 10999 10996 ] final  -67.35 input  -57.11 | X-H torsion

> <Gold.Protein.ActiveResidues>
 VAL166  LYS551  ARG553  GLY616  TRP617  ASP618  TYR619  PRO620  LYS621  CYS622 
 ASP623  PHE694  ASN695  SER759  ASP760  ASP761  ALA762  ILE779  LEU786  VAL792 
 PHE793  MET794  SER795  GLU796  ALA797  LYS798  CYS799  TRP800  GLU811  SER814 

> <Gold.Protein.RotatedAtoms>
  152.5313  133.9916  159.7853 H   0  0  0  0  0  0  0  0  0  0  0  0  # atno 6907 bound_to 6896
  151.0151  133.5921  159.2685 H   0  0  0  0  0  0  0  0  0  0  0  0  # atno 6908 bound_to 6896
  151.2981  135.0767  159.9282 H   0  0  0  0  0  0  0  0  0  0  0  0  # atno 6909 bound_to 6896
  146.1200  139.5999  142.9296 H   0  0  0  0  0  0  0  0  0  0  0  0  # atno 7974 bound_to 7965
  156.0143  140.3347  155.6973 H   0  0  0  0  0  0  0  0  0  0  0  0  # atno 8008 bound_to 7997
  155.6113  140.0665  157.2723 H   0  0  0  0  0  0  0  0  0  0  0  0  # atno 8009 bound_to 7997
  154.4292  140.1793  156.1263 H   0  0  0  0  0  0  0  0  0  0  0  0  # atno 8010 bound_to 7997
  139.9433  144.6075  150.8230 H   0  0  0  0  0  0  0  0  0  0  0  0  # atno 10167 bound_to 10162
  157.5453  130.8726  149.8882 H   0  0  0  0  0  0  0  0  0  0  0  0  # atno 10718 bound_to 10713
  153.2258  135.4340  155.0540 H   0  0  0  0  0  0  0  0  0  0  0  0  # atno 10763 bound_to 10752
  154.8272  135.3367  154.6860 H   0  0  0  0  0  0  0  0  0  0  0  0  # atno 10764 bound_to 10752
  153.7290  135.7012  153.5050 H   0  0  0  0  0  0  0  0  0  0  0  0  # atno 10765 bound_to 10752
  141.1506  133.6717  156.6279 H   0  0  0  0  0  0  0  0  0  0  0  0  # atno 11005 bound_to 11000
  145.5485  141.0415  143.2291 LP  0  0  0  0  0  0  0  0  0  0  0  0  # atno 17320 bound_to 7965
  144.7588  139.7007  143.7243 LP  0  0  0  0  0  0  0  0  0  0  0  0  # atno 17321 bound_to 7965
  140.7604  143.3151  151.2752 LP  0  0  0  0  0  0  0  0  0  0  0  0  # atno 17342 bound_to 10162
  139.6687  144.0059  152.2739 LP  0  0  0  0  0  0  0  0  0  0  0  0  # atno 17343 bound_to 10162
  156.0530  130.3714  150.1156 LP  0  0  0  0  0  0  0  0  0  0  0  0  # atno 17370 bound_to 10713
  156.9333  130.9721  151.3529 LP  0  0  0  0  0  0  0  0  0  0  0  0  # atno 17371 bound_to 10713
  140.3489  134.7785  157.4453 LP  0  0  0  0  0  0  0  0  0  0  0  0  # atno 17394 bound_to 11000
  140.0877  134.5644  155.8476 LP  0  0  0  0  0  0  0  0  0  0  0  0  # atno 17395 bound_to 11000

$$$$
