AV-unprocessed.smi:33|AV-procd|sdf|205|dock3
  -GOLD-   2262015493D 1   1.00000     0.00000
 Structure written by MMmdl.
 67 72  0  0  0  0  0  0  0  0  1 V2000
  147.7514  146.0591  159.9487 O   0  0  0  0  0  0  0  0  0  0  0  0
  147.6382  144.8711  159.6402 C   0  0  0  0  0  0  0  0  0  0  0  0
  148.6515  144.1252  159.1598 O   0  0  0  0  0  0  0  0  0  0  0  0
  149.9931  144.5582  159.3170 C   0  0  0  0  0  0  0  0  0  0  0  0
  150.8531  143.9727  158.1861 C   0  0  2  0  0  0  0  0  0  0  0  0
  150.2168  142.7802  157.7272 O   0  0  0  0  0  0  0  0  0  0  0  0
  151.0839  141.6884  157.8120 C   0  0  2  0  0  0  0  0  0  0  0  0
  150.3063  140.4419  158.1211 N   0  0  0  0  0  0  0  0  0  0  0  0
  148.9586  140.2128  157.9330 C   0  0  0  0  0  0  0  0  0  0  0  0
  148.5205  139.0534  158.3430 N   0  0  0  0  0  0  0  0  0  0  0  0
  149.6432  138.4468  158.8883 C   0  0  0  0  0  0  0  0  0  0  0  0
  149.8785  137.1994  159.5273 C   0  0  0  0  0  0  0  0  0  0  0  0
  148.9065  136.2781  159.7259 N   0  0  0  0  0  0  0  0  0  0  0  0
  149.0196  135.0113  158.9873 C   0  0  0  0  0  0  0  0  0  0  0  0
  150.1287  134.6218  158.6166 O   0  0  0  0  0  0  0  0  0  0  0  0
  147.8055  134.1635  158.7325 C   0  0  0  0  0  0  0  0  0  0  0  0
  147.9215  132.7564  158.7021 C   0  0  0  0  0  0  0  0  0  0  0  0
  146.7911  131.9559  158.4482 C   0  0  0  0  0  0  0  0  0  0  0  0
  145.5414  132.5571  158.2051 C   0  0  0  0  0  0  0  0  0  0  0  0
  145.4242  133.9600  158.2064 C   0  0  0  0  0  0  0  0  0  0  0  0
  146.5541  134.7613  158.4599 C   0  0  0  0  0  0  0  0  0  0  0  0
  147.8248  136.6329  160.6562 C   0  0  0  0  0  0  0  0  0  0  0  0
  147.5613  137.8194  160.8596 O   0  0  0  0  0  0  0  0  0  0  0  0
  147.0122  135.5591  161.3223 C   0  0  0  0  0  0  0  0  0  0  0  0
  147.6263  134.3520  161.7223 C   0  0  0  0  0  0  0  0  0  0  0  0
  146.8660  133.3394  162.3392 C   0  0  0  0  0  0  0  0  0  0  0  0
  145.4841  133.5187  162.5405 C   0  0  0  0  0  0  0  0  0  0  0  0
  144.8602  134.7074  162.1163 C   0  0  0  0  0  0  0  0  0  0  0  0
  145.6199  135.7216  161.5024 C   0  0  0  0  0  0  0  0  0  0  0  0
  151.1355  136.9353  159.9685 N   0  0  0  0  0  0  0  0  0  0  0  0
  152.1020  137.8412  159.7974 C   0  0  0  0  0  0  0  0  0  0  0  0
  152.0267  139.0435  159.2225 N   0  0  0  0  0  0  0  0  0  0  0  0
  150.7666  139.3114  158.7690 C   0  0  0  0  0  0  0  0  0  0  0  0
  152.1171  142.0523  158.8866 C   0  0  2  0  0  0  0  0  0  0  0  0
  151.6606  141.8023  160.2055 O   0  0  0  0  0  0  0  0  0  0  0  0
  152.2630  143.5356  158.6066 C   0  0  2  0  0  0  0  0  0  0  0  0
  152.7968  144.2204  159.6199 F   0  0  0  0  0  0  0  0  0  0  0  0
  146.3624  144.1076  159.7584 C   0  0  0  0  0  0  0  0  0  0  0  0
  145.4499  144.4371  160.7876 C   0  0  0  0  0  0  0  0  0  0  0  0
  144.2374  143.7333  160.9238 C   0  0  0  0  0  0  0  0  0  0  0  0
  143.9230  142.6907  160.0330 C   0  0  0  0  0  0  0  0  0  0  0  0
  144.8226  142.3528  159.0052 C   0  0  0  0  0  0  0  0  0  0  0  0
  146.0352  143.0561  158.8669 C   0  0  0  0  0  0  0  0  0  0  0  0
  150.0543  145.6468  159.3280 H   0  0  0  0  0  0  0  0  0  0  0  0
  150.3589  144.2026  160.2811 H   0  0  0  0  0  0  0  0  0  0  0  0
  150.9041  144.6825  157.3596 H   0  0  0  0  0  0  0  0  0  0  0  0
  151.5358  141.4996  156.8371 H   0  0  0  0  0  0  0  0  0  0  0  0
  148.3019  140.9381  157.4748 H   0  0  0  0  0  0  0  0  0  0  0  0
  148.8757  132.2842  158.8869 H   0  0  0  0  0  0  0  0  0  0  0  0
  146.8836  130.8799  158.4389 H   0  0  0  0  0  0  0  0  0  0  0  0
  144.6749  131.9424  158.0106 H   0  0  0  0  0  0  0  0  0  0  0  0
  144.4676  134.4223  158.0117 H   0  0  0  0  0  0  0  0  0  0  0  0
  146.4525  135.8371  158.4532 H   0  0  0  0  0  0  0  0  0  0  0  0
  148.6864  134.2045  161.5737 H   0  0  0  0  0  0  0  0  0  0  0  0
  147.3432  132.4244  162.6578 H   0  0  0  0  0  0  0  0  0  0  0  0
  144.9018  132.7419  163.0137 H   0  0  0  0  0  0  0  0  0  0  0  0
  143.7983  134.8414  162.2607 H   0  0  0  0  0  0  0  0  0  0  0  0
  145.1300  136.6282  161.1770 H   0  0  0  0  0  0  0  0  0  0  0  0
  153.0743  137.5650  160.1773 H   0  0  0  0  0  0  0  0  0  0  0  0
  153.0454  141.5054  158.7196 H   0  0  0  0  0  0  0  0  0  0  0  0
  151.0463  142.4799  160.4437 H   0  0  0  0  0  0  0  0  0  0  0  0
  152.9390  143.6693  157.7609 H   0  0  0  0  0  0  0  0  0  0  0  0
  145.6692  145.2340  161.4839 H   0  0  0  0  0  0  0  0  0  0  0  0
  143.5483  143.9947  161.7132 H   0  0  0  0  0  0  0  0  0  0  0  0
  142.9935  142.1510  160.1377 H   0  0  0  0  0  0  0  0  0  0  0  0
  144.5826  141.5524  158.3209 H   0  0  0  0  0  0  0  0  0  0  0  0
  146.7028  142.7708  158.0672 H   0  0  0  0  0  0  0  0  0  0  0  0
  1  2  2  0  0  0  0
  2  3  1  0  0  0  0
  2 38  1  0  0  0  0
  3  4  1  0  0  0  0
  4  5  1  0  0  0  0
  4 44  1  0  0  0  0
  4 45  1  0  0  0  0
  5 36  1  0  0  0  0
  5  6  1  0  0  0  0
  5 46  1  0  0  0  0
  6  7  1  0  0  0  0
  7  8  1  0  0  0  0
  7 34  1  0  0  0  0
  7 47  1  0  0  0  0
  8 33  1  0  0  0  0
  8  9  1  0  0  0  0
  9 10  2  0  0  0  0
  9 48  1  0  0  0  0
 10 11  1  0  0  0  0
 11 33  2  0  0  0  0
 11 12  1  0  0  0  0
 12 13  1  0  0  0  0
 12 30  2  0  0  0  0
 13 14  1  0  0  0  0
 13 22  1  0  0  0  0
 14 15  2  0  0  0  0
 14 16  1  0  0  0  0
 16 21  1  0  0  0  0
 16 17  2  0  0  0  0
 17 18  1  0  0  0  0
 17 49  1  0  0  0  0
 18 19  2  0  0  0  0
 18 50  1  0  0  0  0
 19 20  1  0  0  0  0
 19 51  1  0  0  0  0
 20 21  2  0  0  0  0
 20 52  1  0  0  0  0
 21 53  1  0  0  0  0
 22 23  2  0  0  0  0
 22 24  1  0  0  0  0
 24 29  1  0  0  0  0
 24 25  2  0  0  0  0
 25 26  1  0  0  0  0
 25 54  1  0  0  0  0
 26 27  2  0  0  0  0
 26 55  1  0  0  0  0
 27 28  1  0  0  0  0
 27 56  1  0  0  0  0
 28 29  2  0  0  0  0
 28 57  1  0  0  0  0
 29 58  1  0  0  0  0
 30 31  1  0  0  0  0
 31 32  2  0  0  0  0
 31 59  1  0  0  0  0
 32 33  1  0  0  0  0
 34 35  1  0  0  0  0
 34 36  1  0  0  0  0
 34 60  1  0  0  0  0
 35 61  1  0  0  0  0
 36 37  1  0  0  0  0
 36 62  1  0  0  0  0
 38 43  1  0  0  0  0
 38 39  2  0  0  0  0
 39 40  1  0  0  0  0
 39 63  1  0  0  0  0
 40 41  2  0  0  0  0
 40 64  1  0  0  0  0
 41 42  1  0  0  0  0
 41 65  1  0  0  0  0
 42 43  2  0  0  0  0
 42 66  1  0  0  0  0
 43 67  1  0  0  0  0
M  END
> <s_m_source_file>
AV-unprocessed.smi

> <i_m_source_file_index>
33

> <i_lp_mmshare_version>
43012

> <i_f3d_flags>
0

> <s_epik_input>
W2NIXTFbY0hdW2NIXVtjSF1bY0hdYzFDKD1PKU9bQ0gyXVtDQEBIXTJPW0NASF0oW0NAQEhdKFtPSF0pW0NAQEhdMkYpbihbY0hdbjMpYyhjMzQpbltjSF1uYzROKEMoPU8pYzVbY0hdW2NIXVtjSF1bY0hdW2NIXTUpQyg9TyljNltjSF1bY0hdW2NIXVtjSF1bY0hdNg==

> <s_epik_cmdline>
J2VwaWtfcHl0aG9uJywgJy1waCcsICc3LjAnLCAnLXRuJywgJzgnLCAnLW1hJywgJzIwMCcsICctbWV0YWxfYmluZGluZycsICctaW1hZScsICc8aW5maWxlLm1hZT4nLCAnLW9tYWUnLCAnPG91dGZpbGUubWFlPic=

> <r_lp_tautomer_probability>
1

> <r_epik_Ionization_Penalty>
0.00067664

> <r_epik_Ionization_Penalty_Charging>
0

> <r_epik_Ionization_Penalty_Neutral>
0.00067664

> <r_epik_State_Penalty>
0.000428095

> <r_epik_Charging_Adjusted_Penalty>
0.000428095

> <i_epik_Tot_Q>
0

> <i_epik_Tot_abs_Q>
0

> <r_epik_Metal_State_Penalty>
-0

> <b_epik_Metal_Only>
0

> <s_epik_Chemistry_Notes>
This compound has an ester and may undergo hydrolysis at high or low pH. This compound contains an acetal/aminal-like group ( X-CH(R)-Y where X, Y are N, S, or O) that may be acid/base labile, releasing an aldehyde.

> <s_lp_Force_Field>
OPLS_2005

> <r_lp_Energy>
85.1188

> <b_lp_Chiralities_Consistent>
1

> <s_lp_Variant>
AV-unprocessed.smi:33-7

> <Gold.Version>
5.8.1

> <Gold.Id.Protein>
6NUR|6NUR_protein|mol2

> <Gold.PLP.Fitness>
66.2913

> <Gold.PLP.PLP>
-61.9082

> <Gold.PLP.part.hbond>
-6.2395

> <Gold.PLP.part.metal>
0.0000

> <Gold.PLP.part.buried>
-10.0199

> <Gold.PLP.part.nonpolar>
-46.9963

> <Gold.PLP.part.repulsive>
0.5598

> <Gold.PLP.ligand.clash>
0.0000

> <Gold.PLP.ligand.torsion>
4.7006

> <Gold.PLP.Chemscore.Hbond>
3.2320

> <Gold.PLP.Chemscore.CHOScore>
0.0000

> <Gold.PLP.Chemscore.Metal>
0.0000

> <Gold.Chemscore.Hbonds>
donor molecule, donor type, donor heavy atom, donor atom, acceptor molecule, acceptor atom, score
      P1  H  6896  6907       L1    30  1.00
      P1  H  6896  6909       L1    15  0.10
      P1  H  6931  6943       L1    23  0.49
      P1  H  6934  6947       L1    23  0.29

> <Gold.PLP.Chemscore.Internal.Correction>
4.0882

> <Gold.Rescore>
     Score         DG    S(hbond)    S(metal)    S(lipo)     H(rot)  DE(clash)    DE(int)     intcor
     10.86     -21.77       2.78        0.00     115.09       2.52       1.52       9.40       ----

> <Gold.Chemscore.Fitness>
10.8554

> <Gold.Chemscore.DG>
-21.7737

> <Gold.Chemscore.ZeroCoef>
-5.4800

> <Gold.Chemscore.Hbond>
2.7819

> <Gold.Chemscore.Metal>
0.0000

> <Gold.Chemscore.Lipo>
115.0883

> <Gold.Chemscore.Internal_Hbond>
0.0000

> <Gold.Chemscore.DEClash>
1.5156

> <Gold.Chemscore.DEInternal>
9.4026

> <Gold.Chemscore.Rot>
2.5247

> <Gold.Chemscore.Internal.Correction>
   9.000000E+99

> <Gold.Chemscore.Hbonds>
donor molecule, donor type, donor heavy atom, donor atom, acceptor molecule, acceptor atom, score
      P1  H  6896  6907       L1    30  0.86
      P1  H  6896  6909       L1    15  0.10
      P1  H  6931  6943       L1    23  0.11
      P1  H  6934  6947       L1    23  0.29

> <Gold.Chemscore.Hbond.Weighted>
-9.2916

> <Gold.Chemscore.Metal.Weighted>
-0.0000

> <Gold.Chemscore.Lipo.Weighted>
-13.4653

> <Gold.Chemscore.Internal_Hbond.Weighted>
0.0000

> <Gold.Chemscore.DEClash.Weighted>
1.5156

> <Gold.Chemscore.DEInternal.Weighted>
9.4026

> <Gold.Chemscore.Rot.Weighted>
6.4633

> <Gold.Chemscore.Internal.Correction.Weighted>
   9.000000E+99

> <Gold.Protein.RotatedTorsions>
[ 6907 6896 6895 6894 ] final    0.21 input  -60.11 | X-H torsion
[ 7974 7965 7964 7962 ] final  -65.68 input  175.53 | X-H torsion
[ 8008 7997 7996 7995 ] final -175.70 input   59.86 | X-H torsion
[ 10167 10162 10161 10158 ] final  -53.61 input  -65.29 | X-H torsion
[ 10718 10713 10712 10709 ] final   92.67 input   66.30 | X-H torsion
[ 10763 10752 10751 10750 ] final   45.96 input  -60.55 | X-H torsion
[ 11005 11000 10999 10996 ] final    0.75 input  -57.11 | X-H torsion

> <Gold.Protein.ActiveResidues>
 VAL166  LYS551  ARG553  GLY616  TRP617  ASP618  TYR619  PRO620  LYS621  CYS622 
 ASP623  PHE694  ASN695  SER759  ASP760  ASP761  ALA762  ILE779  LEU786  VAL792 
 PHE793  MET794  SER795  GLU796  ALA797  LYS798  CYS799  TRP800  GLU811  SER814 

> <Gold.Protein.RotatedAtoms>
  151.5728  135.1062  159.9998 H   0  0  0  0  0  0  0  0  0  0  0  0  # atno 6907 bound_to 6896
  152.4392  133.7413  159.6653 H   0  0  0  0  0  0  0  0  0  0  0  0  # atno 6908 bound_to 6896
  150.8295  133.8046  159.3128 H   0  0  0  0  0  0  0  0  0  0  0  0  # atno 6909 bound_to 6896
  145.7513  140.8907  143.0478 H   0  0  0  0  0  0  0  0  0  0  0  0  # atno 7974 bound_to 7965
  155.9858  140.1191  157.0684 H   0  0  0  0  0  0  0  0  0  0  0  0  # atno 8008 bound_to 7997
  154.4196  140.1135  156.5566 H   0  0  0  0  0  0  0  0  0  0  0  0  # atno 8009 bound_to 7997
  155.6409  140.3473  155.4717 H   0  0  0  0  0  0  0  0  0  0  0  0  # atno 8010 bound_to 7997
  140.6476  143.2545  151.4816 H   0  0  0  0  0  0  0  0  0  0  0  0  # atno 10167 bound_to 10162
  157.6958  131.0451  150.3917 H   0  0  0  0  0  0  0  0  0  0  0  0  # atno 10718 bound_to 10713
  152.9817  135.6023  154.3521 H   0  0  0  0  0  0  0  0  0  0  0  0  # atno 10763 bound_to 10752
  154.3210  135.2769  155.2521 H   0  0  0  0  0  0  0  0  0  0  0  0  # atno 10764 bound_to 10752
  154.4688  135.5947  153.6363 H   0  0  0  0  0  0  0  0  0  0  0  0  # atno 10765 bound_to 10752
  140.6231  133.9643  155.8235 H   0  0  0  0  0  0  0  0  0  0  0  0  # atno 11005 bound_to 11000
  144.6849  139.9595  143.7480 LP  0  0  0  0  0  0  0  0  0  0  0  0  # atno 17320 bound_to 7965
  146.0354  139.3372  143.0730 LP  0  0  0  0  0  0  0  0  0  0  0  0  # atno 17321 bound_to 7965
  139.5687  144.1979  152.1804 LP  0  0  0  0  0  0  0  0  0  0  0  0  # atno 17342 bound_to 10162
  140.1269  144.5323  150.6827 LP  0  0  0  0  0  0  0  0  0  0  0  0  # atno 17343 bound_to 10162
  156.4320  130.3974  149.6754 LP  0  0  0  0  0  0  0  0  0  0  0  0  # atno 17370 bound_to 10713
  156.3968  130.7654  151.2659 LP  0  0  0  0  0  0  0  0  0  0  0  0  # atno 17371 bound_to 10713
  141.0728  134.0180  157.3501 LP  0  0  0  0  0  0  0  0  0  0  0  0  # atno 17394 bound_to 11000
  139.9145  135.0195  156.7827 LP  0  0  0  0  0  0  0  0  0  0  0  0  # atno 17395 bound_to 11000

$$$$
