AV-unprocessed.smi:157|AV-procd|sdf|1317|dock6
  -GOLD-   2262019 13D 1   1.00000     0.00000
 Structure written by MMmdl.
 36 38  0  0  0  0  0  0  0  0  2 V2000
  142.9083  132.2654  148.7056 O   0  0  0  0  0  0  0  0  0  0  0  0
  144.1268  132.0129  149.3722 C   0  0  0  0  0  0  0  0  0  0  0  0
  144.6369  133.2947  150.0539 C   0  0  1  0  0  0  0  0  0  0  0  0
  143.8616  133.6059  151.2084 O   0  0  0  0  0  0  0  0  0  0  0  0
  144.6482  134.2644  152.1582 C   0  0  2  0  0  0  0  0  0  0  0  0
  144.0716  135.6218  152.4015 N   0  0  0  0  0  0  0  0  0  0  0  0
  144.7137  136.8032  152.2794 C   0  0  0  0  0  0  0  0  0  0  0  0
  143.9706  137.8587  152.5664 N   0  3  0  0  0  0  0  0  0  0  0  0
  142.7263  137.3779  152.9141 C   0  0  0  0  0  0  0  0  0  0  0  0
  142.8126  135.9869  152.8188 C   0  0  0  0  0  0  0  0  0  0  0  0
  141.8424  135.0073  153.0787 N   0  0  0  0  0  0  0  0  0  0  0  0
  140.7635  135.2484  153.7501 C   0  0  0  0  0  0  0  0  0  0  0  0
  140.2979  136.4524  154.2529 N   0  0  0  0  0  0  0  0  0  0  0  0
  140.2587  137.6737  153.4679 C   0  0  0  0  0  0  0  0  0  0  0  0
  141.6325  138.3312  153.2800 C   0  0  1  0  0  0  0  0  0  0  0  0
  141.9386  139.0855  154.4336 O   0  0  0  0  0  0  0  0  0  0  0  0
  146.0640  134.3897  151.5865 C   0  0  0  0  0  0  0  0  0  0  0  0
  146.0890  133.2833  150.5526 C   0  0  1  0  0  0  0  0  0  0  0  0
  146.4467  132.0499  151.1471 O   0  0  0  0  0  0  0  0  0  0  0  0
  144.5165  134.1347  149.3672 H   0  0  0  0  0  0  0  0  0  0  0  0
  144.6003  133.7435  153.1150 H   0  0  0  0  0  0  0  0  0  0  0  0
  141.5446  139.0541  152.4682 H   0  0  0  0  0  0  0  0  0  0  0  0
  146.7944  133.4963  149.7488 H   0  0  0  0  0  0  0  0  0  0  0  0
  142.2386  131.7169  149.0852 H   0  0  0  0  0  0  0  0  0  0  0  0
  143.9538  131.2389  150.1201 H   0  0  0  0  0  0  0  0  0  0  0  0
  144.8573  131.6144  148.6677 H   0  0  0  0  0  0  0  0  0  0  0  0
  145.7424  136.8759  151.9742 H   0  0  0  0  0  0  0  0  0  0  0  0
  140.0856  134.4232  153.9731 H   0  0  0  0  0  0  0  0  0  0  0  0
  139.5526  136.4300  154.9347 H   0  0  0  0  0  0  0  0  0  0  0  0
  139.8549  137.4162  152.4875 H   0  0  0  0  0  0  0  0  0  0  0  0
  139.5502  138.3747  153.9108 H   0  0  0  0  0  0  0  0  0  0  0  0
  142.6024  139.7197  154.2086 H   0  0  0  0  0  0  0  0  0  0  0  0
  146.1810  135.3579  151.0964 H   0  0  0  0  0  0  0  0  0  0  0  0
  146.8198  134.2970  152.3674 H   0  0  0  0  0  0  0  0  0  0  0  0
  147.2000  131.7052  150.6917 H   0  0  0  0  0  0  0  0  0  0  0  0
  144.2612  138.8279  152.5349 H   0  0  0  0  0  0  0  0  0  0  0  0
  1  2  1  0  0  0  0
  1 24  1  0  0  0  0
  2  3  1  0  0  0  0
  2 25  1  0  0  0  0
  2 26  1  0  0  0  0
  3 20  1  0  0  0  0
  3 18  1  0  0  0  0
  3  4  1  0  0  0  0
  4  5  1  0  0  0  0
  5 21  1  0  0  0  0
  5  6  1  0  0  0  0
  5 17  1  0  0  0  0
  6 10  1  0  0  0  0
  6  7  1  0  0  0  0
  7  8  2  0  0  0  0
  7 27  1  0  0  0  0
  8  9  1  0  0  0  0
  8 36  1  0  0  0  0
  9 15  1  0  0  0  0
  9 10  2  0  0  0  0
 10 11  1  0  0  0  0
 11 12  2  0  0  0  0
 12 13  1  0  0  0  0
 12 28  1  0  0  0  0
 13 14  1  0  0  0  0
 13 29  1  0  0  0  0
 14 15  1  0  0  0  0
 14 30  1  0  0  0  0
 14 31  1  0  0  0  0
 15 22  1  0  0  0  0
 15 16  1  0  0  0  0
 16 32  1  0  0  0  0
 17 18  1  0  0  0  0
 17 33  1  0  0  0  0
 17 34  1  0  0  0  0
 18 23  1  0  0  0  0
 18 19  1  0  0  0  0
 19 35  1  0  0  0  0
M  CHG  1   8   1
M  END
> <s_m_source_file>
AV-unprocessed.smi

> <i_m_source_file_index>
157

> <i_lp_mmshare_version>
43012

> <i_f3d_flags>
0

> <s_epik_input>
W09IXVtDSDJdW0NASF0xT1tDQEhdKFtDSDJdW0NAQEhdMVtPSF0pbihbY0hdbjIpYyhjMjMpTj1bQ0hdW05IXVtDSDJdW0NASF0zW09IXQ==

> <s_epik_cmdline>
J2VwaWtfcHl0aG9uJywgJy1waCcsICc3LjAnLCAnLXRuJywgJzgnLCAnLW1hJywgJzIwMCcsICctbWV0YWxfYmluZGluZycsICctaW1hZScsICc8aW5maWxlLm1hZT4nLCAnLW9tYWUnLCAnPG91dGZpbGUubWFlPic=

> <r_epik_Ionization_Penalty>
1.68594

> <r_epik_Ionization_Penalty_Charging>
0

> <r_epik_Ionization_Penalty_Neutral>
1.68594

> <r_epik_State_Penalty>
1.79006

> <r_epik_Charging_Adjusted_Penalty>
1.79006

> <i_epik_Tot_Q>
1

> <i_epik_Tot_abs_Q>
1

> <r_epik_Metal_State_Penalty>
5.85324

> <b_epik_Metal_Only>
0

> <s_epik_Chemistry_Notes>
This compound has an imine and may undergo hydrolysis. This compound contains an acetal/aminal-like group ( X-CH(R)-Y where X, Y are N, S, or O) that may be acid/base labile, releasing an aldehyde.

> <s_lp_Force_Field>
OPLS_2005

> <r_lp_Energy>
54.1398

> <b_lp_Chiralities_Consistent>
1

> <s_lp_Variant>
AV-unprocessed.smi:157-27

> <Gold.Version>
5.8.1

> <Gold.Id.Protein>
6NUR|6NUR_protein|mol2

> <Gold.PLP.Fitness>
48.3084

> <Gold.PLP.PLP>
-32.4750

> <Gold.PLP.part.hbond>
-7.3025

> <Gold.PLP.part.metal>
0.0000

> <Gold.PLP.part.buried>
-1.1719

> <Gold.PLP.part.nonpolar>
-25.2612

> <Gold.PLP.part.repulsive>
0.4718

> <Gold.PLP.ligand.clash>
0.0000

> <Gold.PLP.ligand.torsion>
0.1333

> <Gold.PLP.Chemscore.Hbond>
4.7840

> <Gold.PLP.Chemscore.CHOScore>
0.5802

> <Gold.PLP.Chemscore.Metal>
0.0000

> <Gold.Chemscore.Hbonds>
donor molecule, donor type, donor heavy atom, donor atom, acceptor molecule, acceptor atom, score
      L1  H     1    24       P1 10952  1.00
      L1  H     8    36       P1 10175  1.70
      L1  H    16    32       P1 10175  0.61
      L1  H    19    35       P1 10747  1.00
      L1  C    12    28       P1 11000  0.28

> <Gold.PLP.Chemscore.Internal.Correction>
0.0074

> <Gold.Rescore>
     Score         DG    S(hbond)    S(metal)    S(lipo)     H(rot)  DE(clash)    DE(int)     intcor
     13.61     -14.80       3.85        0.00      49.91       3.67       1.04       0.16       ----

> <Gold.Chemscore.Fitness>
13.6075

> <Gold.Chemscore.DG>
-14.8009

> <Gold.Chemscore.ZeroCoef>
-5.4800

> <Gold.Chemscore.Hbond>
3.8523

> <Gold.Chemscore.Metal>
0.0000

> <Gold.Chemscore.Lipo>
49.9055

> <Gold.Chemscore.Internal_Hbond>
0.0000

> <Gold.Chemscore.DEClash>
1.0375

> <Gold.Chemscore.DEInternal>
0.1559

> <Gold.Chemscore.Rot>
3.6659

> <Gold.Chemscore.Internal.Correction>
   9.000000E+99

> <Gold.Chemscore.Hbonds>
donor molecule, donor type, donor heavy atom, donor atom, acceptor molecule, acceptor atom, score
      L1  H     1    24       P1 10952  0.94
      L1  H     8    36       P1 10175  0.85
      L1  H    16    32       P1 10175  0.63
      L1  H    19    35       P1 10747  0.95

> <Gold.Chemscore.Hbond.Weighted>
-12.8668

> <Gold.Chemscore.Metal.Weighted>
-0.0000

> <Gold.Chemscore.Lipo.Weighted>
-5.8389

> <Gold.Chemscore.Internal_Hbond.Weighted>
0.0000

> <Gold.Chemscore.DEClash.Weighted>
1.0375

> <Gold.Chemscore.DEInternal.Weighted>
0.1559

> <Gold.Chemscore.Rot.Weighted>
9.3848

> <Gold.Chemscore.Internal.Correction.Weighted>
   9.000000E+99

> <Gold.Protein.RotatedTorsions>
[ 6907 6896 6895 6894 ] final  126.42 input  -60.11 | X-H torsion
[ 7974 7965 7964 7962 ] final -139.49 input  175.53 | X-H torsion
[ 8008 7997 7996 7995 ] final  174.40 input   59.86 | X-H torsion
[ 10167 10162 10161 10158 ] final  -34.85 input  -65.29 | X-H torsion
[ 10718 10713 10712 10709 ] final  106.33 input   66.30 | X-H torsion
[ 10763 10752 10751 10750 ] final -128.60 input  -60.55 | X-H torsion
[ 11005 11000 10999 10996 ] final -174.05 input  -57.11 | X-H torsion

> <Gold.Protein.ActiveResidues>
 VAL166  LYS551  ARG553  GLY616  TRP617  ASP618  TYR619  PRO620  LYS621  CYS622 
 ASP623  PHE694  ASN695  SER759  ASP760  ASP761  ALA762  ILE779  LEU786  VAL792 
 PHE793  MET794  SER795  GLU796  ALA797  LYS798  CYS799  TRP800  GLU811  SER814 

> <Gold.Protein.RotatedAtoms>
  152.3905  133.6672  159.6233 H   0  0  0  0  0  0  0  0  0  0  0  0  # atno 6907 bound_to 6896
  150.7814  133.8962  159.3336 H   0  0  0  0  0  0  0  0  0  0  0  0  # atno 6908 bound_to 6896
  151.6749  135.0972  160.0256 H   0  0  0  0  0  0  0  0  0  0  0  0  # atno 6909 bound_to 6896
  144.8672  140.6312  143.5290 H   0  0  0  0  0  0  0  0  0  0  0  0  # atno 7974 bound_to 7965
  156.0978  140.1435  156.9507 H   0  0  0  0  0  0  0  0  0  0  0  0  # atno 8008 bound_to 7997
  154.4683  140.0918  156.7123 H   0  0  0  0  0  0  0  0  0  0  0  0  # atno 8009 bound_to 7997
  155.4811  140.3445  155.4342 H   0  0  0  0  0  0  0  0  0  0  0  0  # atno 8010 bound_to 7997
  140.7177  143.3519  151.2139 H   0  0  0  0  0  0  0  0  0  0  0  0  # atno 10167 bound_to 10162
  157.6672  131.0848  150.5991 H   0  0  0  0  0  0  0  0  0  0  0  0  # atno 10718 bound_to 10713
  154.8756  135.3923  154.3784 H   0  0  0  0  0  0  0  0  0  0  0  0  # atno 10763 bound_to 10752
  153.4534  135.7028  153.6100 H   0  0  0  0  0  0  0  0  0  0  0  0  # atno 10764 bound_to 10752
  153.4629  135.3808  155.2317 H   0  0  0  0  0  0  0  0  0  0  0  0  # atno 10765 bound_to 10752
  140.4788  134.6095  157.4911 H   0  0  0  0  0  0  0  0  0  0  0  0  # atno 11005 bound_to 11000
  145.4198  139.1566  143.4080 LP  0  0  0  0  0  0  0  0  0  0  0  0  # atno 17320 bound_to 7965
  146.2905  140.4308  142.8741 LP  0  0  0  0  0  0  0  0  0  0  0  0  # atno 17321 bound_to 7965
  139.7051  143.9468  152.2923 LP  0  0  0  0  0  0  0  0  0  0  0  0  # atno 17342 bound_to 10162
  139.9174  144.6820  150.8497 LP  0  0  0  0  0  0  0  0  0  0  0  0  # atno 17343 bound_to 10162
  156.6291  130.4427  149.5793 LP  0  0  0  0  0  0  0  0  0  0  0  0  # atno 17370 bound_to 10713
  156.2296  130.6786  151.1450 LP  0  0  0  0  0  0  0  0  0  0  0  0  # atno 17371 bound_to 10713
  139.9839  134.7093  155.9809 LP  0  0  0  0  0  0  0  0  0  0  0  0  # atno 17394 bound_to 11000
  141.1541  133.6545  156.4106 LP  0  0  0  0  0  0  0  0  0  0  0  0  # atno 17395 bound_to 11000

$$$$
