AV-unprocessed.smi:864|AV-procd|sdf|3988|dock1
  -GOLD-   22720 1463D 1   1.00000     0.00000
 Structure written by MMmdl.
 45 47  0  0  0  0  0  0  0  0  2 V2000
  151.5709  143.2440  158.6096 C   0  0  0  0  0  0  0  0  0  0  0  0
  151.2097  142.1835  157.5912 C   0  0  0  0  0  0  0  0  0  0  0  0
  151.7752  140.8901  157.6144 C   0  0  0  0  0  0  0  0  0  0  0  0
  151.3922  139.9529  156.6323 C   0  0  0  0  0  0  0  0  0  0  0  0
  150.4525  140.3274  155.6474 C   0  0  0  0  0  0  0  0  0  0  0  0
  150.0277  139.3437  154.5700 C   0  0  0  0  0  0  0  0  0  0  0  0
  148.6180  139.6126  154.0010 C   0  0  0  0  0  0  0  0  0  0  0  0
  148.1231  138.5421  153.1391 N   0  0  0  0  0  0  0  0  0  0  0  0
  146.8338  138.3140  152.8537 C   0  0  0  0  0  0  0  0  0  0  0  0
  145.8997  138.9782  153.3026 O   0  0  0  0  0  0  0  0  0  0  0  0
  146.6866  137.2993  151.9916 N   0  0  0  0  0  0  0  0  0  0  0  0
  145.4109  136.8727  151.4237 C   0  0  2  0  0  0  0  0  0  0  0  0
  144.5108  136.2108  152.4750 C   0  0  0  0  0  0  0  0  0  0  0  0
  144.0623  134.9219  151.8070 C   0  0  0  0  0  0  0  0  0  0  0  0
  143.2748  134.1412  152.3397 O   0  0  0  0  0  0  0  0  0  0  0  0
  144.6366  134.7640  150.6083 N   0  0  0  0  0  0  0  0  0  0  0  0
  144.5223  133.5856  149.7975 C   0  0  0  0  0  0  0  0  0  0  0  0
  143.6132  132.4373  150.1944 C   0  0  0  0  0  0  0  0  0  0  0  0
  145.1087  132.2984  150.3315 C   0  0  0  0  0  0  0  0  0  0  0  0
  145.6072  135.8111  150.3236 C   0  0  0  0  0  0  0  0  0  0  0  0
  149.9179  141.6342  155.6763 C   0  0  0  0  0  0  0  0  0  0  0  0
  150.3120  142.5031  156.6322 N   0  3  0  0  0  0  0  0  0  0  0  0
  152.2868  142.8622  159.3382 H   0  0  0  0  0  0  0  0  0  0  0  0
  150.6814  143.5733  159.1474 H   0  0  0  0  0  0  0  0  0  0  0  0
  152.0153  144.1087  158.1161 H   0  0  0  0  0  0  0  0  0  0  0  0
  152.4940  140.6164  158.3731 H   0  0  0  0  0  0  0  0  0  0  0  0
  151.8177  138.9597  156.6348 H   0  0  0  0  0  0  0  0  0  0  0  0
  150.7587  139.3678  153.7610 H   0  0  0  0  0  0  0  0  0  0  0  0
  150.0738  138.3339  154.9797 H   0  0  0  0  0  0  0  0  0  0  0  0
  147.9113  139.7108  154.8253 H   0  0  0  0  0  0  0  0  0  0  0  0
  148.5989  140.5626  153.4647 H   0  0  0  0  0  0  0  0  0  0  0  0
  148.8161  137.9384  152.7212 H   0  0  0  0  0  0  0  0  0  0  0  0
  147.5127  136.8084  151.6821 H   0  0  0  0  0  0  0  0  0  0  0  0
  144.8858  137.7361  151.0098 H   0  0  0  0  0  0  0  0  0  0  0  0
  145.0489  135.9701  153.3929 H   0  0  0  0  0  0  0  0  0  0  0  0
  143.6543  136.8354  152.7305 H   0  0  0  0  0  0  0  0  0  0  0  0
  144.6180  133.7421  148.7238 H   0  0  0  0  0  0  0  0  0  0  0  0
  143.0358  132.5005  151.1138 H   0  0  0  0  0  0  0  0  0  0  0  0
  143.1342  131.8815  149.3909 H   0  0  0  0  0  0  0  0  0  0  0  0
  145.6212  131.6495  149.6243 H   0  0  0  0  0  0  0  0  0  0  0  0
  145.5216  132.3071  151.3386 H   0  0  0  0  0  0  0  0  0  0  0  0
  145.4435  136.2442  149.3362 H   0  0  0  0  0  0  0  0  0  0  0  0
  146.6101  135.3805  150.3441 H   0  0  0  0  0  0  0  0  0  0  0  0
  149.1983  142.0110  154.9637 H   0  0  0  0  0  0  0  0  0  0  0  0
  149.9137  143.4425  156.6308 H   0  0  0  0  0  0  0  0  0  0  0  0
  1  2  1  0  0  0  0
  1 23  1  0  0  0  0
  1 24  1  0  0  0  0
  1 25  1  0  0  0  0
  2 22  1  0  0  0  0
  2  3  2  0  0  0  0
  3  4  1  0  0  0  0
  3 26  1  0  0  0  0
  4  5  2  0  0  0  0
  4 27  1  0  0  0  0
  5  6  1  0  0  0  0
  5 21  1  0  0  0  0
  6  7  1  0  0  0  0
  6 28  1  0  0  0  0
  6 29  1  0  0  0  0
  7  8  1  0  0  0  0
  7 30  1  0  0  0  0
  7 31  1  0  0  0  0
  8  9  1  0  0  0  0
  8 32  1  0  0  0  0
  9 10  2  0  0  0  0
  9 11  1  0  0  0  0
 11 12  1  0  0  0  0
 11 33  1  0  0  0  0
 12 20  1  0  0  0  0
 12 13  1  0  0  0  0
 12 34  1  0  0  0  0
 13 14  1  0  0  0  0
 13 35  1  0  0  0  0
 13 36  1  0  0  0  0
 14 15  2  0  0  0  0
 14 16  1  0  0  0  0
 16 17  1  0  0  0  0
 16 20  1  0  0  0  0
 17 19  1  0  0  0  0
 17 18  1  0  0  0  0
 17 37  1  0  0  0  0
 18 19  1  0  0  0  0
 18 38  1  0  0  0  0
 18 39  1  0  0  0  0
 19 40  1  0  0  0  0
 19 41  1  0  0  0  0
 20 42  1  0  0  0  0
 20 43  1  0  0  0  0
 21 22  2  0  0  0  0
 21 44  1  0  0  0  0
 22 45  1  0  0  0  0
M  CHG  1  22   1
M  END
> <s_m_source_file>
AV-unprocessed.smi

> <i_m_source_file_index>
864

> <i_lp_mmshare_version>
43012

> <i_f3d_flags>
0

> <s_epik_input>
W0NIM11jMVtjSF1bY0hdYyhbY0hdbjEpW0NIMl1bQ0gyXVtOSF1DKD1PKVtOSF1bQ0BASF0yW0NIMl1DKD1PKU4oW0NIMl0yKVtDSF0zW0NIMl1bQ0gyXTM=

> <s_epik_cmdline>
J2VwaWtfcHl0aG9uJywgJy1waCcsICc3LjAnLCAnLXRuJywgJzgnLCAnLW1hJywgJzIwMCcsICctbWV0YWxfYmluZGluZycsICctaW1hZScsICc8aW5maWxlLm1hZT4nLCAnLW9tYWUnLCAnPG91dGZpbGUubWFlPic=

> <r_epik_Ionization_Penalty>
1.42657

> <r_epik_Ionization_Penalty_Charging>
1.42653

> <r_epik_Ionization_Penalty_Neutral>
4.57062e-05

> <r_epik_State_Penalty>
1.51075

> <r_epik_Charging_Adjusted_Penalty>
2.93728

> <i_epik_Tot_Q>
1

> <i_epik_Tot_abs_Q>
1

> <r_epik_Metal_State_Penalty>
1.56242

> <b_epik_Metal_Only>
0

> <s_lp_Force_Field>
OPLS_2005

> <r_lp_Energy>
41.1174

> <b_lp_Chiralities_Consistent>
1

> <s_lp_Variant>
AV-unprocessed.smi:864-3

> <Gold.Version>
5.8.1

> <Gold.Id.Protein>
6NUR|6NUR_protein|mol2

> <Gold.PLP.Fitness>
50.3975

> <Gold.PLP.PLP>
-40.1436

> <Gold.PLP.part.hbond>
-3.9260

> <Gold.PLP.part.metal>
0.0000

> <Gold.PLP.part.buried>
-1.7714

> <Gold.PLP.part.nonpolar>
-36.4782

> <Gold.PLP.part.repulsive>
2.5041

> <Gold.PLP.ligand.clash>
0.0000

> <Gold.PLP.ligand.torsion>
0.7750

> <Gold.PLP.Chemscore.Hbond>
3.8480

> <Gold.PLP.Chemscore.CHOScore>
0.0000

> <Gold.PLP.Chemscore.Metal>
0.0000

> <Gold.Chemscore.Hbonds>
donor molecule, donor type, donor heavy atom, donor atom, acceptor molecule, acceptor atom, score
      L1  H     8    32       P1  7948  0.83
      L1  H    11    33       P1  7948  1.00
      L1  H    22    45       P1  8028  1.86

> <Gold.PLP.Chemscore.Internal.Correction>
0.2599

> <Gold.Rescore>
     Score         DG    S(hbond)    S(metal)    S(lipo)     H(rot)  DE(clash)    DE(int)     intcor
     18.36     -22.53       2.82        0.00     105.52       1.84       1.98       2.18       ----

> <Gold.Chemscore.Fitness>
18.3596

> <Gold.Chemscore.DG>
-22.5269

> <Gold.Chemscore.ZeroCoef>
-5.4800

> <Gold.Chemscore.Hbond>
2.8164

> <Gold.Chemscore.Metal>
0.0000

> <Gold.Chemscore.Lipo>
105.5176

> <Gold.Chemscore.Internal_Hbond>
0.0000

> <Gold.Chemscore.DEClash>
1.9838

> <Gold.Chemscore.DEInternal>
2.1836

> <Gold.Chemscore.Rot>
1.8381

> <Gold.Chemscore.Internal.Correction>
   9.000000E+99

> <Gold.Chemscore.Hbonds>
donor molecule, donor type, donor heavy atom, donor atom, acceptor molecule, acceptor atom, score
      L1  H     8    32       P1  7948  0.81
      L1  H    11    33       P1  7948  0.92
      L1  H    22    45       P1  8028  0.91

> <Gold.Chemscore.Hbond.Weighted>
-9.4068

> <Gold.Chemscore.Metal.Weighted>
-0.0000

> <Gold.Chemscore.Lipo.Weighted>
-12.3456

> <Gold.Chemscore.Internal_Hbond.Weighted>
0.0000

> <Gold.Chemscore.DEClash.Weighted>
1.9838

> <Gold.Chemscore.DEInternal.Weighted>
2.1836

> <Gold.Chemscore.Rot.Weighted>
4.7054

> <Gold.Chemscore.Internal.Correction.Weighted>
   9.000000E+99

> <Gold.Protein.RotatedTorsions>
[ 6907 6896 6895 6894 ] final -162.79 input  -60.11 | X-H torsion
[ 7974 7965 7964 7962 ] final  130.96 input  175.53 | X-H torsion
[ 8008 7997 7996 7995 ] final  136.64 input   59.86 | X-H torsion
[ 10167 10162 10161 10158 ] final   86.35 input  -65.29 | X-H torsion
[ 10718 10713 10712 10709 ] final -136.14 input   66.30 | X-H torsion
[ 10763 10752 10751 10750 ] final  -66.65 input  -60.55 | X-H torsion
[ 11005 11000 10999 10996 ] final   13.74 input  -57.11 | X-H torsion

> <Gold.Protein.ActiveResidues>
 VAL166  LYS551  ARG553  GLY616  TRP617  ASP618  TYR619  PRO620  LYS621  CYS622 
 ASP623  PHE694  ASN695  SER759  ASP760  ASP761  ALA762  ILE779  LEU786  VAL792 
 PHE793  MET794  SER795  GLU796  ALA797  LYS798  CYS799  TRP800  GLU811  SER814 

> <Gold.Protein.RotatedAtoms>
  151.3858  133.3805  159.2714 H   0  0  0  0  0  0  0  0  0  0  0  0  # atno 6907 bound_to 6896
  150.9543  134.8940  159.7701 H   0  0  0  0  0  0  0  0  0  0  0  0  # atno 6908 bound_to 6896
  152.5124  134.3815  159.9405 H   0  0  0  0  0  0  0  0  0  0  0  0  # atno 6909 bound_to 6896
  145.0123  139.4208  143.5238 H   0  0  0  0  0  0  0  0  0  0  0  0  # atno 7974 bound_to 7965
  156.3004  140.2440  156.3779 H   0  0  0  0  0  0  0  0  0  0  0  0  # atno 8008 bound_to 7997
  154.8728  140.0415  157.1755 H   0  0  0  0  0  0  0  0  0  0  0  0  # atno 8009 bound_to 7997
  154.8777  140.2944  155.5447 H   0  0  0  0  0  0  0  0  0  0  0  0  # atno 8010 bound_to 7997
  139.8884  144.6400  150.8766 H   0  0  0  0  0  0  0  0  0  0  0  0  # atno 10167 bound_to 10162
  156.2738  130.7281  151.1256 H   0  0  0  0  0  0  0  0  0  0  0  0  # atno 10718 bound_to 10713
  154.3629  135.6112  153.5700 H   0  0  0  0  0  0  0  0  0  0  0  0  # atno 10763 bound_to 10752
  152.9793  135.5819  154.4612 H   0  0  0  0  0  0  0  0  0  0  0  0  # atno 10764 bound_to 10752
  154.4352  135.2849  155.1862 H   0  0  0  0  0  0  0  0  0  0  0  0  # atno 10765 bound_to 10752
  140.4774  134.0970  155.7744 H   0  0  0  0  0  0  0  0  0  0  0  0  # atno 11005 bound_to 11000
  146.3472  139.9574  142.8721 LP  0  0  0  0  0  0  0  0  0  0  0  0  # atno 17320 bound_to 7965
  145.2006  140.9853  143.4158 LP  0  0  0  0  0  0  0  0  0  0  0  0  # atno 17321 bound_to 7965
  140.7731  143.3529  151.1978 LP  0  0  0  0  0  0  0  0  0  0  0  0  # atno 17342 bound_to 10162
  139.7132  143.9343  152.2956 LP  0  0  0  0  0  0  0  0  0  0  0  0  # atno 17343 bound_to 10162
  157.7292  131.0625  150.5782 LP  0  0  0  0  0  0  0  0  0  0  0  0  # atno 17370 bound_to 10713
  156.5881  130.4322  149.5948 LP  0  0  0  0  0  0  0  0  0  0  0  0  # atno 17371 bound_to 10713
  141.1548  133.8903  157.2006 LP  0  0  0  0  0  0  0  0  0  0  0  0  # atno 17394 bound_to 11000
  139.9847  135.0086  156.9835 LP  0  0  0  0  0  0  0  0  0  0  0  0  # atno 17395 bound_to 11000

$$$$
