#       Name:                AV-unprocessed.smi:1163
#       Creating user name   scv26
#       Creation time:       Fri Mar 27 03:50:42 2020


#       File generated by GOLD software.
#

@<TRIPOS>MOLECULE
AV-unprocessed.smi:1163
    45    46     1
SMALL
NO_CHARGES


@<TRIPOS>ATOM
      1 ****        -7.7345   1.9391   0.5052 C.3            1 S1                 0.0000
      2 ****        -7.0024   0.7374   0.7199 O.3            1 S1                 0.0000
      3 ****        -5.6527   0.7323   0.4329 C.ar           1 S1                 0.0000
      4 ****        -4.9185  -0.4477   0.6638 C.ar           1 S1                 0.0000
      5 ****        -3.5398  -0.4607   0.3782 C.ar           1 S1                 0.0000
      6 ****        -2.9359   0.7115  -0.1380 C.ar           1 S1                 0.0000
      7 ****        -1.5555   0.8445  -0.4554 N.am           1 S1                 0.0000
      8 ****        -0.6054  -0.1029  -0.5377 C.2            1 S1                 0.0000
      9 ****        -0.7789  -1.3107  -0.3794 O.2            1 S1                 0.0000
     10 ****         0.5885   0.4335  -0.8273 N.am           1 S1                 0.0000
     11 ****         1.8263  -0.3248  -0.9779 C.3            1 S1                 0.0000
     12 ****         2.9843   0.4995  -1.5390 C.3            1 S1                 0.0000
     13 ****         4.2459  -0.1553  -0.9495 C.3            1 S1                 0.0000
     14 ****         3.7900  -1.1404   0.0615 N.4            1 S1                 1.0000
     15 ****         4.6490  -1.2678   1.2636 C.3            1 S1                 0.0000
     16 ****         5.9805  -1.9803   0.9695 C.3            1 S1                 0.0000
     17 ****         6.6359  -2.1655   2.1143 F              1 S1                 0.0000
     18 ****         5.7502  -3.1683   0.4109 F              1 S1                 0.0000
     19 ****         6.7468  -1.2535   0.1572 F              1 S1                 0.0000
     20 ****         2.3845  -0.8135   0.3584 C.3            1 S1                 0.0000
     21 ****        -3.7596   1.8408  -0.3276 C.ar           1 S1                 0.0000
     22 ****        -5.0811   1.8604  -0.0552 N.ar           1 S1                 0.0000
     23 ****        -8.7770   1.7804   0.7809 H              1 S1                 0.0000
     24 ****        -7.7115   2.2390  -0.5434 H              1 S1                 0.0000
     25 ****        -7.3507   2.7547   1.1196 H              1 S1                 0.0000
     26 ****        -5.4038  -1.3280   1.0588 H              1 S1                 0.0000
     27 ****        -2.9841  -1.3636   0.5730 H              1 S1                 0.0000
     28 ****        -1.2569   1.7858  -0.6657 H              1 S1                 0.0000
     29 ****         0.6448   1.4341  -0.9508 H              1 S1                 0.0000
     30 ****         1.6556  -1.1816  -1.6331 H              1 S1                 0.0000
     31 ****         2.9916   0.5132  -2.6293 H              1 S1                 0.0000
     32 ****         2.9182   1.5331  -1.1957 H              1 S1                 0.0000
     33 ****         4.8240  -0.6694  -1.7180 H              1 S1                 0.0000
     34 ****         4.8875   0.6078  -0.5057 H              1 S1                 0.0000
     35 ****         4.8239  -0.2869   1.7082 H              1 S1                 0.0000
     36 ****         4.1049  -1.8516   2.0078 H              1 S1                 0.0000
     37 ****         2.3397  -0.0186   1.1058 H              1 S1                 0.0000
     38 ****         1.8473  -1.6790   0.7478 H              1 S1                 0.0000
     39 ****        -3.3455   2.7622  -0.7110 H              1 S1                 0.0000
     40 ****         3.7745  -2.0411  -0.3962 H              1 S1                 0.0000
     41 ****        -7.4271   0.0278   0.1577 LP             1 S1                 0.0000
     42 ****        -7.1003   0.5001   1.6863 LP             1 S1                 0.0000
     43 ****        -1.6915  -1.6614  -0.1696 LP             1 S1                 0.0000
     44 ****        -0.0073  -1.9415  -0.4607 LP             1 S1                 0.0000
     45 ****        -5.6245   2.6856  -0.2094 LP             1 S1                 0.0000
@<TRIPOS>BOND
    1    1    2 1     
    2    1   23 1     
    3    1   24 1     
    4    1   25 1     
    5    2    3 1     
    6    3   22 ar    
    7    3    4 ar    
    8    4    5 ar    
    9    4   26 1     
   10    5    6 ar    
   11    5   27 1     
   12    6    7 1     
   13    6   21 ar    
   14    7    8 am    
   15    7   28 1     
   16    8    9 2     
   17    8   10 am    
   18   10   11 1     
   19   10   29 1     
   20   11   20 1     
   21   11   12 1     
   22   11   30 1     
   23   12   13 1     
   24   12   31 1     
   25   12   32 1     
   26   13   14 1     
   27   13   33 1     
   28   13   34 1     
   29   14   15 1     
   30   14   20 1     
   31   14   40 1     
   32   15   16 1     
   33   15   35 1     
   34   15   36 1     
   35   16   17 1     
   36   16   18 1     
   37   16   19 1     
   38   20   37 1     
   39   20   38 1     
   40   21   22 ar    
   41   21   39 1     
   42    2   41 1     
   43    2   42 1     
   44    9   43 1     
   45    9   44 1     
   46   22   45 1     
@<TRIPOS>SUBSTRUCTURE
      1 S1             1
@<TRIPOS>SET
LONE_PAIRS      STATIC     ATOMS    <user>   **** ""
5 41 42 43 44 45
DONOR_HYDROGENS      STATIC     ATOMS    <user>   **** ""
3 28 29 40
ATOM$BLUE        STATIC     ATOMS    COLORGROUP SYSTEM
5 41 42 43 44 45
ATOM$RED        STATIC     ATOMS    COLORGROUP SYSTEM
3 28 29 40
