AV-unprocessed.smi:2976|AV-procd|sdf|11359|dock1
  -GOLD-   2272016273D 1   1.00000     0.00000
 Structure written by MMmdl.
 40 41  0  0  0  0  0  0  0  0  1 V2000
  149.4451  140.8858  154.1724 C   0  0  0  0  0  0  0  0  0  0  0  0
  149.9500  139.7722  155.1070 C   0  0  2  0  0  0  0  0  0  0  0  0
  151.4896  139.6944  155.0417 C   0  0  0  0  0  0  0  0  0  0  0  0
  152.0554  138.6080  155.9664 C   0  0  0  0  0  0  0  0  0  0  0  0
  151.4306  137.2391  155.6572 C   0  0  0  0  0  0  0  0  0  0  0  0
  149.8928  137.2812  155.7273 C   0  0  1  0  0  0  0  0  0  0  0  0
  149.4701  137.4620  157.1175 N   0  0  0  0  0  0  0  0  0  0  0  0
  149.8255  136.6994  158.1630 C   0  0  0  0  0  0  0  0  0  0  0  0
  150.6022  135.7475  158.0798 O   0  0  0  0  0  0  0  0  0  0  0  0
  149.2089  137.0779  159.5153 C   0  0  0  0  0  0  0  0  0  0  0  0
  148.3552  136.0109  160.0561 N   0  0  0  0  0  0  0  0  0  0  0  0
  148.4086  134.8257  159.3441 N   0  0  0  0  0  0  0  0  0  0  0  0
  147.6874  133.8267  159.7212 C   0  0  0  0  0  0  0  0  0  0  0  0
  146.8181  133.8954  160.8751 C   0  0  0  0  0  0  0  0  0  0  0  0
  145.8739  132.5219  161.3326 Cl  0  0  0  0  0  0  0  0  0  0  0  0
  146.7779  135.0601  161.5697 C   0  0  0  0  0  0  0  0  0  0  0  0
  145.7632  135.2191  162.9622 Cl  0  0  0  0  0  0  0  0  0  0  0  0
  147.5868  136.2199  161.1698 C   0  0  0  0  0  0  0  0  0  0  0  0
  147.5816  137.2923  161.7763 O   0  0  0  0  0  0  0  0  0  0  0  0
  149.3192  138.3857  154.7972 C   0  0  1  0  0  0  0  0  0  0  0  0
  147.7770  138.4065  154.8107 C   0  0  0  0  0  0  0  0  0  0  0  0
  149.6164  140.6336  153.1255 H   0  0  0  0  0  0  0  0  0  0  0  0
  149.9565  141.8273  154.3743 H   0  0  0  0  0  0  0  0  0  0  0  0
  148.3795  141.0713  154.3044 H   0  0  0  0  0  0  0  0  0  0  0  0
  149.6734  140.0554  156.1239 H   0  0  0  0  0  0  0  0  0  0  0  0
  151.8039  139.4943  154.0164 H   0  0  0  0  0  0  0  0  0  0  0  0
  151.9234  140.6578  155.3122 H   0  0  0  0  0  0  0  0  0  0  0  0
  153.1387  138.5545  155.8544 H   0  0  0  0  0  0  0  0  0  0  0  0
  151.8681  138.8779  157.0063 H   0  0  0  0  0  0  0  0  0  0  0  0
  151.7362  136.9248  154.6584 H   0  0  0  0  0  0  0  0  0  0  0  0
  151.8203  136.4862  156.3438 H   0  0  0  0  0  0  0  0  0  0  0  0
  149.5321  136.3146  155.3711 H   0  0  0  0  0  0  0  0  0  0  0  0
  148.8278  138.2209  157.2924 H   0  0  0  0  0  0  0  0  0  0  0  0
  150.0236  137.3024  160.2060 H   0  0  0  0  0  0  0  0  0  0  0  0
  148.6368  138.0038  159.4271 H   0  0  0  0  0  0  0  0  0  0  0  0
  147.6941  132.8747  159.1901 H   0  0  0  0  0  0  0  0  0  0  0  0
  149.6118  138.1182  153.7804 H   0  0  0  0  0  0  0  0  0  0  0  0
  147.3866  138.8054  155.7470 H   0  0  0  0  0  0  0  0  0  0  0  0
  147.3714  137.4028  154.6819 H   0  0  0  0  0  0  0  0  0  0  0  0
  147.3761  139.0139  153.9997 H   0  0  0  0  0  0  0  0  0  0  0  0
  1  2  1  0  0  0  0
  1 22  1  0  0  0  0
  1 23  1  0  0  0  0
  1 24  1  0  0  0  0
  2 20  1  0  0  0  0
  2  3  1  0  0  0  0
  2 25  1  0  0  0  0
  3  4  1  0  0  0  0
  3 26  1  0  0  0  0
  3 27  1  0  0  0  0
  4  5  1  0  0  0  0
  4 28  1  0  0  0  0
  4 29  1  0  0  0  0
  5  6  1  0  0  0  0
  5 30  1  0  0  0  0
  5 31  1  0  0  0  0
  6  7  1  0  0  0  0
  6 20  1  0  0  0  0
  6 32  1  0  0  0  0
  7  8  1  0  0  0  0
  7 33  1  0  0  0  0
  8  9  2  0  0  0  0
  8 10  1  0  0  0  0
 10 11  1  0  0  0  0
 10 34  1  0  0  0  0
 10 35  1  0  0  0  0
 11 18  1  0  0  0  0
 11 12  1  0  0  0  0
 12 13  2  0  0  0  0
 13 14  1  0  0  0  0
 13 36  1  0  0  0  0
 14 15  1  0  0  0  0
 14 16  2  0  0  0  0
 16 17  1  0  0  0  0
 16 18  1  0  0  0  0
 18 19  2  0  0  0  0
 20 21  1  0  0  0  0
 20 37  1  0  0  0  0
 21 38  1  0  0  0  0
 21 39  1  0  0  0  0
 21 40  1  0  0  0  0
M  END
> <s_m_source_file>
AV-unprocessed.smi

> <i_m_source_file_index>
2976

> <i_lp_mmshare_version>
43012

> <i_f3d_flags>
0

> <s_epik_input>
W0NIM11bQ0BASF0xW0NIMl1bQ0gyXVtDSDJdW0NASF0oW0NASF0xW0NIM10pW05IXUMoPU8pW0NIMl1uMm5bY0hdYyhDbCljKENsKWMyPU8=

> <s_epik_cmdline>
J2VwaWtfcHl0aG9uJywgJy1waCcsICc3LjAnLCAnLXRuJywgJzgnLCAnLW1hJywgJzIwMCcsICctbWV0YWxfYmluZGluZycsICctaW1hZScsICc8aW5maWxlLm1hZT4nLCAnLW9tYWUnLCAnPG91dGZpbGUubWFlPic=

> <r_lp_tautomer_probability>
1

> <r_epik_Ionization_Penalty>
1.90777e-08

> <r_epik_Ionization_Penalty_Charging>
3.07942e-11

> <r_epik_Ionization_Penalty_Neutral>
1.90469e-08

> <r_epik_State_Penalty>
-0

> <r_epik_Charging_Adjusted_Penalty>
3.07942e-11

> <i_epik_Tot_Q>
0

> <i_epik_Tot_abs_Q>
0

> <r_epik_Metal_State_Penalty>
-0

> <b_epik_Metal_Only>
0

> <s_lp_Force_Field>
OPLS_2005

> <r_lp_Energy>
25.2962

> <b_lp_Chiralities_Consistent>
1

> <s_lp_Variant>
AV-unprocessed.smi:2976-1

> <Gold.Version>
5.8.1

> <Gold.Id.Protein>
6NUR|6NUR_protein|mol2

> <Gold.PLP.Fitness>
38.5760

> <Gold.PLP.PLP>
-31.5444

> <Gold.PLP.part.hbond>
-4.0000

> <Gold.PLP.part.metal>
0.0000

> <Gold.PLP.part.buried>
-0.1177

> <Gold.PLP.part.nonpolar>
-27.6848

> <Gold.PLP.part.repulsive>
0.0030

> <Gold.PLP.ligand.clash>
0.0000

> <Gold.PLP.ligand.torsion>
0.0887

> <Gold.PLP.Chemscore.Hbond>
2.4000

> <Gold.PLP.Chemscore.CHOScore>
0.0000

> <Gold.PLP.Chemscore.Metal>
0.0000

> <Gold.Chemscore.Hbonds>
donor molecule, donor type, donor heavy atom, donor atom, acceptor molecule, acceptor atom, score
      P1  H  6896  6909       L1     9  0.61
      P1  H  6931  6943       L1    19  0.93
      P1  H  6934  6947       L1    19  0.70

> <Gold.PLP.Chemscore.Internal.Correction>
0.0090

> <Gold.Rescore>
     Score         DG    S(hbond)    S(metal)    S(lipo)     H(rot)  DE(clash)    DE(int)     intcor
     14.51     -17.86       2.23        0.00      74.63       1.49       0.72       2.63       ----

> <Gold.Chemscore.Fitness>
14.5111

> <Gold.Chemscore.DG>
-17.8603

> <Gold.Chemscore.ZeroCoef>
-5.4800

> <Gold.Chemscore.Hbond>
2.2320

> <Gold.Chemscore.Metal>
0.0000

> <Gold.Chemscore.Lipo>
74.6252

> <Gold.Chemscore.Internal_Hbond>
0.0000

> <Gold.Chemscore.DEClash>
0.7210

> <Gold.Chemscore.DEInternal>
2.6282

> <Gold.Chemscore.Rot>
1.4866

> <Gold.Chemscore.Internal.Correction>
   9.000000E+99

> <Gold.Chemscore.Hbonds>
donor molecule, donor type, donor heavy atom, donor atom, acceptor molecule, acceptor atom, score
      P1  H  6896  6909       L1     9  0.53
      P1  H  6931  6943       L1    19  0.89
      P1  H  6934  6947       L1    19  0.69

> <Gold.Chemscore.Hbond.Weighted>
-7.4548

> <Gold.Chemscore.Metal.Weighted>
-0.0000

> <Gold.Chemscore.Lipo.Weighted>
-8.7311

> <Gold.Chemscore.Internal_Hbond.Weighted>
0.0000

> <Gold.Chemscore.DEClash.Weighted>
0.7210

> <Gold.Chemscore.DEInternal.Weighted>
2.6282

> <Gold.Chemscore.Rot.Weighted>
3.8057

> <Gold.Chemscore.Internal.Correction.Weighted>
   9.000000E+99

> <Gold.Protein.RotatedTorsions>
[ 6907 6896 6895 6894 ] final   70.32 input  -60.11 | X-H torsion
[ 7974 7965 7964 7962 ] final  143.96 input  175.53 | X-H torsion
[ 8008 7997 7996 7995 ] final  163.48 input   59.86 | X-H torsion
[ 10167 10162 10161 10158 ] final   20.47 input  -65.29 | X-H torsion
[ 10718 10713 10712 10709 ] final  -17.63 input   66.30 | X-H torsion
[ 10763 10752 10751 10750 ] final   45.59 input  -60.55 | X-H torsion
[ 11005 11000 10999 10996 ] final  118.63 input  -57.11 | X-H torsion

> <Gold.Protein.ActiveResidues>
 VAL166  LYS551  ARG553  GLY616  TRP617  ASP618  TYR619  PRO620  LYS621  CYS622 
 ASP623  PHE694  ASN695  SER759  ASP760  ASP761  ALA762  ILE779  LEU786  VAL792 
 PHE793  MET794  SER795  GLU796  ALA797  LYS798  CYS799  TRP800  GLU811  SER814 

> <Gold.Protein.RotatedAtoms>
  152.4742  134.4886  159.9687 H   0  0  0  0  0  0  0  0  0  0  0  0  # atno 6907 bound_to 6896
  151.4906  133.3520  159.2860 H   0  0  0  0  0  0  0  0  0  0  0  0  # atno 6908 bound_to 6896
  150.8770  134.8181  159.7258 H   0  0  0  0  0  0  0  0  0  0  0  0  # atno 6909 bound_to 6896
  144.8876  139.5605  143.5813 H   0  0  0  0  0  0  0  0  0  0  0  0  # atno 7974 bound_to 7965
  156.1953  140.1722  156.8010 H   0  0  0  0  0  0  0  0  0  0  0  0  # atno 8008 bound_to 7997
  154.5522  140.0715  156.8718 H   0  0  0  0  0  0  0  0  0  0  0  0  # atno 8009 bound_to 7997
  155.3006  140.3361  155.4250 H   0  0  0  0  0  0  0  0  0  0  0  0  # atno 8010 bound_to 7997
  140.5501  143.9524  150.6572 H   0  0  0  0  0  0  0  0  0  0  0  0  # atno 10167 bound_to 10162
  156.5708  130.4749  149.6364 H   0  0  0  0  0  0  0  0  0  0  0  0  # atno 10718 bound_to 10713
  152.9822  135.6035  154.3461 H   0  0  0  0  0  0  0  0  0  0  0  0  # atno 10763 bound_to 10752
  154.3154  135.2770  155.2547 H   0  0  0  0  0  0  0  0  0  0  0  0  # atno 10764 bound_to 10752
  154.4738  135.5935  153.6396 H   0  0  0  0  0  0  0  0  0  0  0  0  # atno 10765 bound_to 10752
  139.9117  134.9622  156.7533 H   0  0  0  0  0  0  0  0  0  0  0  0  # atno 11005 bound_to 11000
  146.3034  139.7501  142.9074 LP  0  0  0  0  0  0  0  0  0  0  0  0  # atno 17320 bound_to 7965
  145.3840  141.0362  143.3161 LP  0  0  0  0  0  0  0  0  0  0  0  0  # atno 17321 bound_to 7965
  140.2948  143.3300  152.1028 LP  0  0  0  0  0  0  0  0  0  0  0  0  # atno 17342 bound_to 10162
  139.5024  144.6733  151.6189 LP  0  0  0  0  0  0  0  0  0  0  0  0  # atno 17343 bound_to 10162
  156.2716  130.7020  151.1819 LP  0  0  0  0  0  0  0  0  0  0  0  0  # atno 17370 bound_to 10713
  157.7348  131.0578  150.5502 LP  0  0  0  0  0  0  0  0  0  0  0  0  # atno 17371 bound_to 10713
  140.6756  133.9520  155.7881 LP  0  0  0  0  0  0  0  0  0  0  0  0  # atno 17394 bound_to 11000
  141.0546  134.0434  157.3738 LP  0  0  0  0  0  0  0  0  0  0  0  0  # atno 17395 bound_to 11000

$$$$
