AV-unprocessed.smi:50|AV-procd|sdf|498|dock7
  -GOLD-   2262016373D 1   1.00000     0.00000
 Structure written by MMmdl.
 42 43  0  0  0  0  0  0  0  0  2 V2000
  143.9980  133.1253  151.1072 C   0  0  0  0  0  0  0  0  0  0  0  0
  145.4005  133.6849  150.7907 C   0  0  0  0  0  0  0  0  0  0  0  0
  146.4026  133.1128  151.8104 C   0  0  0  0  0  0  0  0  0  0  0  0
  145.4860  135.2404  150.7411 C   0  0  1  0  0  0  0  0  0  0  0  0
  144.6122  135.7607  149.6884 N   0  0  0  0  0  0  0  0  0  0  0  0
  145.1753  135.9123  152.0914 C   0  0  0  0  0  0  0  0  0  0  0  0
  144.6521  135.3402  153.0498 O   0  0  0  0  0  0  0  0  0  0  0  0
  145.5689  137.1984  152.0698 O   0  0  0  0  0  0  0  0  0  0  0  0
  146.0038  137.8535  153.2526 C   0  0  0  0  0  0  0  0  0  0  0  0
  146.7607  139.1184  152.8409 C   0  0  0  0  0  0  0  0  0  0  0  0
  147.0439  139.8826  154.0052 O   0  0  0  0  0  0  0  0  0  0  0  0
  147.8326  141.0058  153.7749 C   0  0  0  0  0  0  0  0  0  0  0  0
  149.0679  140.8709  154.5287 N   0  0  0  0  0  0  0  0  0  0  0  0
  149.7163  141.8469  155.1936 C   0  0  0  0  0  0  0  0  0  0  0  0
  150.8407  141.4744  155.8032 N   0  0  0  0  0  0  0  0  0  0  0  0
  150.9057  140.1214  155.4899 C   0  0  0  0  0  0  0  0  0  0  0  0
  151.9087  139.0803  155.8196 C   0  0  0  0  0  0  0  0  0  0  0  0
  152.8856  139.3849  156.5015 O   0  0  0  0  0  0  0  0  0  0  0  0
  151.6512  137.8353  155.3148 N   0  5  0  0  0  0  0  0  0  0  0  0
  150.5011  137.6039  154.5472 C   0  0  0  0  0  0  0  0  0  0  0  0
  150.3938  136.2961  154.1268 N   0  0  0  0  0  0  0  0  0  0  0  0
  149.5761  138.4720  154.2182 N   0  0  0  0  0  0  0  0  0  0  0  0
  149.8410  139.7318  154.7226 C   0  0  0  0  0  0  0  0  0  0  0  0
  146.5089  135.5077  150.4726 H   0  0  0  0  0  0  0  0  0  0  0  0
  143.6097  133.5489  152.0330 H   0  0  0  0  0  0  0  0  0  0  0  0
  144.0205  132.0415  151.2245 H   0  0  0  0  0  0  0  0  0  0  0  0
  143.2809  133.3367  150.3140 H   0  0  0  0  0  0  0  0  0  0  0  0
  145.6776  133.2992  149.8083 H   0  0  0  0  0  0  0  0  0  0  0  0
  146.1777  133.4582  152.8202 H   0  0  0  0  0  0  0  0  0  0  0  0
  147.4269  133.4052  151.5792 H   0  0  0  0  0  0  0  0  0  0  0  0
  146.3750  132.0228  151.8207 H   0  0  0  0  0  0  0  0  0  0  0  0
  144.5059  136.7626  149.7585 H   0  0  0  0  0  0  0  0  0  0  0  0
  144.9840  135.5703  148.7690 H   0  0  0  0  0  0  0  0  0  0  0  0
  145.1509  138.0931  153.8879 H   0  0  0  0  0  0  0  0  0  0  0  0
  146.6742  137.2175  153.8322 H   0  0  0  0  0  0  0  0  0  0  0  0
  147.7022  138.8529  152.3590 H   0  0  0  0  0  0  0  0  0  0  0  0
  146.1710  139.6760  152.1125 H   0  0  0  0  0  0  0  0  0  0  0  0
  148.0865  141.0420  152.7151 H   0  0  0  0  0  0  0  0  0  0  0  0
  147.3202  141.9311  154.0437 H   0  0  0  0  0  0  0  0  0  0  0  0
  149.3544  142.8638  155.2250 H   0  0  0  0  0  0  0  0  0  0  0  0
  151.0707  135.5810  154.3478 H   0  0  0  0  0  0  0  0  0  0  0  0
  149.6285  135.9616  153.5600 H   0  0  0  0  0  0  0  0  0  0  0  0
  1  2  1  0  0  0  0
  1 25  1  0  0  0  0
  1 26  1  0  0  0  0
  1 27  1  0  0  0  0
  2  3  1  0  0  0  0
  2  4  1  0  0  0  0
  2 28  1  0  0  0  0
  3 29  1  0  0  0  0
  3 30  1  0  0  0  0
  3 31  1  0  0  0  0
  4 24  1  0  0  0  0
  4  5  1  0  0  0  0
  4  6  1  0  0  0  0
  5 32  1  0  0  0  0
  5 33  1  0  0  0  0
  6  7  2  0  0  0  0
  6  8  1  0  0  0  0
  8  9  1  0  0  0  0
  9 10  1  0  0  0  0
  9 34  1  0  0  0  0
  9 35  1  0  0  0  0
 10 11  1  0  0  0  0
 10 36  1  0  0  0  0
 10 37  1  0  0  0  0
 11 12  1  0  0  0  0
 12 13  1  0  0  0  0
 12 38  1  0  0  0  0
 12 39  1  0  0  0  0
 13 23  1  0  0  0  0
 13 14  1  0  0  0  0
 14 15  2  0  0  0  0
 14 40  1  0  0  0  0
 15 16  1  0  0  0  0
 16 23  2  0  0  0  0
 16 17  1  0  0  0  0
 17 18  2  0  0  0  0
 17 19  1  0  0  0  0
 19 20  1  0  0  0  0
 20 21  1  0  0  0  0
 20 22  2  0  0  0  0
 21 41  1  0  0  0  0
 21 42  1  0  0  0  0
 22 23  1  0  0  0  0
M  CHG  1  19  -1
M  END
> <s_m_source_file>
AV-unprocessed.smi

> <i_m_source_file_index>
50

> <i_lp_mmshare_version>
43012

> <i_f3d_flags>
0

> <s_epik_input>
W0NIM11bQ0hdKFtDSDNdKVtDQEhdKFtOSDJdKUMoPU8pT1tDSDJdW0NIMl1PW0NIMl1uKFtjSF1uMSljKGMxMiluYyhbTkgyXSlbbkhdYzI9Tw==

> <s_epik_cmdline>
J2VwaWtfcHl0aG9uJywgJy1waCcsICc3LjAnLCAnLXRuJywgJzgnLCAnLW1hJywgJzIwMCcsICctbWV0YWxfYmluZGluZycsICctaW1hZScsICc8aW5maWxlLm1hZT4nLCAnLW9tYWUnLCAnPG91dGZpbGUubWFlPic=

> <r_lp_tautomer_probability>
0.99994

> <r_epik_Ionization_Penalty>
4.26118

> <r_epik_Ionization_Penalty_Charging>
1.23364e-10

> <r_epik_Ionization_Penalty_Neutral>
4.26118

> <r_epik_State_Penalty>
4.27372

> <r_epik_Charging_Adjusted_Penalty>
4.27372

> <i_epik_Tot_Q>
-1

> <i_epik_Tot_abs_Q>
1

> <r_epik_Metal_State_Penalty>
1.24306

> <b_epik_Metal_Only>
1

> <s_epik_Chemistry_Notes>
This compound has an ester and may undergo hydrolysis at high or low pH. This compound contains an acetal/aminal-like group ( X-CH(R)-Y where X, Y are N, S, or O) that may be acid/base labile, releasing an aldehyde.

> <s_lp_Force_Field>
OPLS_2005

> <r_lp_Energy>
20.1027

> <b_lp_Chiralities_Consistent>
1

> <s_lp_Variant>
AV-unprocessed.smi:50-8

> <Gold.Version>
5.8.1

> <Gold.Id.Protein>
6NUR|6NUR_protein|mol2

> <Gold.PLP.Fitness>
50.5072

> <Gold.PLP.PLP>
-38.6905

> <Gold.PLP.part.hbond>
-5.3122

> <Gold.PLP.part.metal>
0.0000

> <Gold.PLP.part.buried>
-4.3794

> <Gold.PLP.part.nonpolar>
-30.3070

> <Gold.PLP.part.repulsive>
0.8523

> <Gold.PLP.ligand.clash>
0.0000

> <Gold.PLP.ligand.torsion>
1.3946

> <Gold.PLP.Chemscore.Hbond>
3.7520

> <Gold.PLP.Chemscore.CHOScore>
1.0000

> <Gold.PLP.Chemscore.Metal>
0.0000

> <Gold.Chemscore.Hbonds>
donor molecule, donor type, donor heavy atom, donor atom, acceptor molecule, acceptor atom, score
      L1  H     5    32       P1 10171  1.00
      L1  H     5    33       P1  7921  1.00
      L1  H    21    42       P1  7948  0.74
      P1  H  7997  8010       L1    18  1.00
      L1  C    14    40       P1  8028  0.81

> <Gold.PLP.Chemscore.Internal.Correction>
0.3498

> <Gold.Rescore>
     Score         DG    S(hbond)    S(metal)    S(lipo)     H(rot)  DE(clash)    DE(int)     intcor
      5.45      -9.64       3.35        0.00      43.28       4.72       0.33       3.86       ----

> <Gold.Chemscore.Fitness>
5.4525

> <Gold.Chemscore.DG>
-9.6365

> <Gold.Chemscore.ZeroCoef>
-5.4800

> <Gold.Chemscore.Hbond>
3.3491

> <Gold.Chemscore.Metal>
0.0000

> <Gold.Chemscore.Lipo>
43.2794

> <Gold.Chemscore.Internal_Hbond>
0.0000

> <Gold.Chemscore.DEClash>
0.3289

> <Gold.Chemscore.DEInternal>
3.8551

> <Gold.Chemscore.Rot>
4.7239

> <Gold.Chemscore.Internal.Correction>
   9.000000E+99

> <Gold.Chemscore.Hbonds>
donor molecule, donor type, donor heavy atom, donor atom, acceptor molecule, acceptor atom, score
      L1  H     5    32       P1 10171  1.00
      L1  H     5    33       P1  7921  0.98
      L1  H    21    42       P1  7948  0.19
      P1  H  7997  8010       L1    18  0.98

> <Gold.Chemscore.Hbond.Weighted>
-11.1861

> <Gold.Chemscore.Metal.Weighted>
-0.0000

> <Gold.Chemscore.Lipo.Weighted>
-5.0637

> <Gold.Chemscore.Internal_Hbond.Weighted>
0.0000

> <Gold.Chemscore.DEClash.Weighted>
0.3289

> <Gold.Chemscore.DEInternal.Weighted>
3.8551

> <Gold.Chemscore.Rot.Weighted>
12.0933

> <Gold.Chemscore.Internal.Correction.Weighted>
   9.000000E+99

> <Gold.Protein.RotatedTorsions>
[ 6907 6896 6895 6894 ] final  -51.34 input  -60.11 | X-H torsion
[ 7974 7965 7964 7962 ] final  -64.75 input  175.53 | X-H torsion
[ 8008 7997 7996 7995 ] final   86.38 input   59.86 | X-H torsion
[ 10167 10162 10161 10158 ] final   61.68 input  -65.29 | X-H torsion
[ 10718 10713 10712 10709 ] final  -33.70 input   66.30 | X-H torsion
[ 10763 10752 10751 10750 ] final -101.08 input  -60.55 | X-H torsion
[ 11005 11000 10999 10996 ] final  -95.54 input  -57.11 | X-H torsion

> <Gold.Protein.ActiveResidues>
 VAL166  LYS551  ARG553  GLY616  TRP617  ASP618  TYR619  PRO620  LYS621  CYS622 
 ASP623  PHE694  ASN695  SER759  ASP760  ASP761  ALA762  ILE779  LEU786  VAL792 
 PHE793  MET794  SER795  GLU796  ALA797  LYS798  CYS799  TRP800  GLU811  SER814 

> <Gold.Protein.RotatedAtoms>
  150.8621  134.7975  159.7090 H   0  0  0  0  0  0  0  0  0  0  0  0  # atno 6907 bound_to 6896
  152.4655  134.5083  159.9756 H   0  0  0  0  0  0  0  0  0  0  0  0  # atno 6908 bound_to 6896
  151.5185  133.3433  159.2933 H   0  0  0  0  0  0  0  0  0  0  0  0  # atno 6909 bound_to 6896
  145.7629  140.8852  143.0421 H   0  0  0  0  0  0  0  0  0  0  0  0  # atno 7974 bound_to 7965
  155.9620  140.3392  155.6499 H   0  0  0  0  0  0  0  0  0  0  0  0  # atno 8008 bound_to 7997
  155.6786  140.0735  157.2511 H   0  0  0  0  0  0  0  0  0  0  0  0  # atno 8009 bound_to 7997
  154.4145  140.1678  156.1945 H   0  0  0  0  0  0  0  0  0  0  0  0  # atno 8010 bound_to 7997
  140.1521  144.4453  150.6754 H   0  0  0  0  0  0  0  0  0  0  0  0  # atno 10167 bound_to 10162
  156.3595  130.4321  149.7636 H   0  0  0  0  0  0  0  0  0  0  0  0  # atno 10718 bound_to 10713
  154.7630  135.4911  153.9500 H   0  0  0  0  0  0  0  0  0  0  0  0  # atno 10763 bound_to 10752
  153.1274  135.6745  153.9242 H   0  0  0  0  0  0  0  0  0  0  0  0  # atno 10764 bound_to 10752
  153.8956  135.3116  155.3427 H   0  0  0  0  0  0  0  0  0  0  0  0  # atno 10765 bound_to 10752
  141.1439  133.8033  157.0448 H   0  0  0  0  0  0  0  0  0  0  0  0  # atno 11005 bound_to 11000
  144.6827  139.9747  143.7482 LP  0  0  0  0  0  0  0  0  0  0  0  0  # atno 17320 bound_to 7965
  146.0247  139.3281  143.0792 LP  0  0  0  0  0  0  0  0  0  0  0  0  # atno 17321 bound_to 7965
  140.6696  143.2280  151.5658 LP  0  0  0  0  0  0  0  0  0  0  0  0  # atno 17342 bound_to 10162
  139.5421  144.2620  152.1371 LP  0  0  0  0  0  0  0  0  0  0  0  0  # atno 17343 bound_to 10162
  156.4805  130.8039  151.3053 LP  0  0  0  0  0  0  0  0  0  0  0  0  # atno 17370 bound_to 10713
  157.7471  131.0007  150.2936 LP  0  0  0  0  0  0  0  0  0  0  0  0  # atno 17371 bound_to 10713
  140.0669  134.9724  157.1401 LP  0  0  0  0  0  0  0  0  0  0  0  0  # atno 17394 bound_to 11000
  140.3766  134.2332  155.7174 LP  0  0  0  0  0  0  0  0  0  0  0  0  # atno 17395 bound_to 11000

$$$$
