AV-unprocessed.smi:1816|AV-procd|sdf|7366|dock3
  -GOLD-   22720 9 33D 1   1.00000     0.00000
 Structure written by MMmdl.
 35 36  0  0  0  0  0  0  0  0  3 V2000
  146.8446  137.1504  154.7177 C   0  0  0  0  0  0  0  0  0  0  0  0
  147.4669  135.7965  155.1260 C   0  0  2  0  0  0  0  0  0  0  0  0
  148.7757  136.0265  155.9213 C   0  0  0  0  0  0  0  0  0  0  0  0
  148.5311  136.5876  157.2494 N   0  0  0  0  0  0  0  0  0  0  0  0
  148.8557  136.0353  158.4268 C   0  0  0  0  0  0  0  0  0  0  0  0
  149.3699  134.9160  158.4636 O   0  0  0  0  0  0  0  0  0  0  0  0
  148.5795  136.8238  159.4883 N   0  5  0  0  0  0  0  0  0  0  0  0
  148.0639  136.2871  160.6062 C   0  0  0  0  0  0  0  0  0  0  0  0
  147.7474  137.0143  161.6838 N   0  0  0  0  0  0  0  0  0  0  0  0
  147.2209  136.2549  162.7303 C   0  0  0  0  0  0  0  0  0  0  0  0
  147.1300  134.9193  162.4406 C   0  0  0  0  0  0  0  0  0  0  0  0
  147.7032  134.5737  160.8338 S   0  0  0  0  0  0  0  0  0  0  0  0
  147.6942  134.8986  153.9559 N   0  3  0  0  0  0  0  0  0  0  0  0
  148.5032  133.6958  154.2420 C   0  0  0  0  0  0  0  0  0  0  0  0
  148.3167  132.8000  153.0203 C   0  0  0  0  0  0  0  0  0  0  0  0
  146.9103  133.1284  152.5117 C   0  0  0  0  0  0  0  0  0  0  0  0
  146.4853  134.3953  153.2666 C   0  0  0  0  0  0  0  0  0  0  0  0
  146.7690  137.8176  155.5766 H   0  0  0  0  0  0  0  0  0  0  0  0
  145.8355  137.0351  154.3225 H   0  0  0  0  0  0  0  0  0  0  0  0
  147.4432  137.6569  153.9596 H   0  0  0  0  0  0  0  0  0  0  0  0
  146.7529  135.3041  155.7881 H   0  0  0  0  0  0  0  0  0  0  0  0
  149.2833  135.0721  156.0626 H   0  0  0  0  0  0  0  0  0  0  0  0
  149.4777  136.6462  155.3622 H   0  0  0  0  0  0  0  0  0  0  0  0
  148.1006  137.5008  157.2798 H   0  0  0  0  0  0  0  0  0  0  0  0
  146.9368  136.7485  163.6477 H   0  0  0  0  0  0  0  0  0  0  0  0
  146.7614  134.1226  163.0688 H   0  0  0  0  0  0  0  0  0  0  0  0
  149.5530  133.9216  154.4242 H   0  0  0  0  0  0  0  0  0  0  0  0
  148.1118  133.1933  155.1280 H   0  0  0  0  0  0  0  0  0  0  0  0
  149.0521  133.0630  152.2587 H   0  0  0  0  0  0  0  0  0  0  0  0
  148.4453  131.7429  153.2551 H   0  0  0  0  0  0  0  0  0  0  0  0
  146.9213  133.2940  151.4335 H   0  0  0  0  0  0  0  0  0  0  0  0
  146.2157  132.3118  152.7123 H   0  0  0  0  0  0  0  0  0  0  0  0
  145.7247  134.1330  154.0037 H   0  0  0  0  0  0  0  0  0  0  0  0
  146.0656  135.1483  152.5986 H   0  0  0  0  0  0  0  0  0  0  0  0
  148.2076  135.4335  153.2688 H   0  0  0  0  0  0  0  0  0  0  0  0
  1  2  1  0  0  0  0
  1 18  1  0  0  0  0
  1 19  1  0  0  0  0
  1 20  1  0  0  0  0
  2  3  1  0  0  0  0
  2 13  1  0  0  0  0
  2 21  1  0  0  0  0
  3  4  1  0  0  0  0
  3 22  1  0  0  0  0
  3 23  1  0  0  0  0
  4  5  1  0  0  0  0
  4 24  1  0  0  0  0
  5  6  2  0  0  0  0
  5  7  1  0  0  0  0
  7  8  1  0  0  0  0
  8 12  1  0  0  0  0
  8  9  2  0  0  0  0
  9 10  1  0  0  0  0
 10 11  2  0  0  0  0
 10 25  1  0  0  0  0
 11 12  1  0  0  0  0
 11 26  1  0  0  0  0
 13 17  1  0  0  0  0
 13 14  1  0  0  0  0
 13 35  1  0  0  0  0
 14 15  1  0  0  0  0
 14 27  1  0  0  0  0
 14 28  1  0  0  0  0
 15 16  1  0  0  0  0
 15 29  1  0  0  0  0
 15 30  1  0  0  0  0
 16 17  1  0  0  0  0
 16 31  1  0  0  0  0
 16 32  1  0  0  0  0
 17 33  1  0  0  0  0
 17 34  1  0  0  0  0
M  CHG  1   7  -1
M  CHG  1  13   1
M  END
> <s_m_source_file>
AV-unprocessed.smi

> <i_m_source_file_index>
1816

> <i_lp_mmshare_version>
43012

> <i_f3d_flags>
0

> <s_epik_input>
W0NIMl0xW0NIMl1bQ0gyXVtDSDJdTjFbQ0BIXShbQ0gzXSlbQ0gyXVtOSF1DKD1PKVtOSF1jMm5bY0hdW2NIXXMy

> <s_epik_cmdline>
J2VwaWtfcHl0aG9uJywgJy1waCcsICc3LjAnLCAnLXRuJywgJzgnLCAnLW1hJywgJzIwMCcsICctbWV0YWxfYmluZGluZycsICctaW1hZScsICc8aW5maWxlLm1hZT4nLCAnLW9tYWUnLCAnPG91dGZpbGUubWFlPic=

> <r_lp_tautomer_probability>
0.999

> <r_epik_Ionization_Penalty>
6.21769

> <r_epik_Ionization_Penalty_Charging>
5.38662

> <r_epik_Ionization_Penalty_Neutral>
0.831074

> <r_epik_State_Penalty>
5.38626

> <r_epik_Charging_Adjusted_Penalty>
10.7729

> <i_epik_Tot_Q>
0

> <i_epik_Tot_abs_Q>
2

> <r_epik_Metal_State_Penalty>
1.41347

> <b_epik_Metal_Only>
1

> <s_lp_Force_Field>
OPLS_2005

> <r_lp_Energy>
25.8125

> <b_lp_Chiralities_Consistent>
1

> <s_lp_Variant>
AV-unprocessed.smi:1816-3

> <Gold.Version>
5.8.1

> <Gold.Id.Protein>
6NUR|6NUR_protein|mol2

> <Gold.PLP.Fitness>
42.0614

> <Gold.PLP.PLP>
-28.7788

> <Gold.PLP.part.hbond>
-4.0000

> <Gold.PLP.part.metal>
0.0000

> <Gold.PLP.part.buried>
-3.3503

> <Gold.PLP.part.nonpolar>
-21.4426

> <Gold.PLP.part.repulsive>
0.0134

> <Gold.PLP.ligand.clash>
0.0000

> <Gold.PLP.ligand.torsion>
0.5302

> <Gold.PLP.Chemscore.Hbond>
4.7600

> <Gold.PLP.Chemscore.CHOScore>
0.0000

> <Gold.PLP.Chemscore.Metal>
0.0000

> <Gold.Chemscore.Hbonds>
donor molecule, donor type, donor heavy atom, donor atom, acceptor molecule, acceptor atom, score
      L1  H    13    35       P1  7948  2.00
      P1  H  6896  6908       L1     6  1.00
      P1  H  6931  6943       L1     9  1.00
      P1  H  6934  6947       L1     9  0.41

> <Gold.PLP.Chemscore.Internal.Correction>
0.0631

> <Gold.Rescore>
     Score         DG    S(hbond)    S(metal)    S(lipo)     H(rot)  DE(clash)    DE(int)     intcor
     16.66     -18.61       3.29        0.00      52.83       1.57       0.07       1.89       ----

> <Gold.Chemscore.Fitness>
16.6554

> <Gold.Chemscore.DG>
-18.6107

> <Gold.Chemscore.ZeroCoef>
-5.4800

> <Gold.Chemscore.Hbond>
3.2850

> <Gold.Chemscore.Metal>
0.0000

> <Gold.Chemscore.Lipo>
52.8251

> <Gold.Chemscore.Internal_Hbond>
0.0000

> <Gold.Chemscore.DEClash>
0.0650

> <Gold.Chemscore.DEInternal>
1.8902

> <Gold.Chemscore.Rot>
1.5710

> <Gold.Chemscore.Internal.Correction>
   9.000000E+99

> <Gold.Chemscore.Hbonds>
donor molecule, donor type, donor heavy atom, donor atom, acceptor molecule, acceptor atom, score
      L1  H    13    35       P1  7948  1.00
      P1  H  6896  6908       L1     6  1.00
      P1  H  6931  6943       L1     9  0.64
      P1  H  6934  6947       L1     9  0.24

> <Gold.Chemscore.Hbond.Weighted>
-10.9720

> <Gold.Chemscore.Metal.Weighted>
-0.0000

> <Gold.Chemscore.Lipo.Weighted>
-6.1805

> <Gold.Chemscore.Internal_Hbond.Weighted>
0.0000

> <Gold.Chemscore.DEClash.Weighted>
0.0650

> <Gold.Chemscore.DEInternal.Weighted>
1.8902

> <Gold.Chemscore.Rot.Weighted>
4.0219

> <Gold.Chemscore.Internal.Correction.Weighted>
   9.000000E+99

> <Gold.Protein.RotatedTorsions>
[ 6907 6896 6895 6894 ] final  160.10 input  -60.11 | X-H torsion
[ 7974 7965 7964 7962 ] final   -0.99 input  175.53 | X-H torsion
[ 8008 7997 7996 7995 ] final  -38.87 input   59.86 | X-H torsion
[ 10167 10162 10161 10158 ] final  115.03 input  -65.29 | X-H torsion
[ 10718 10713 10712 10709 ] final -153.22 input   66.30 | X-H torsion
[ 10763 10752 10751 10750 ] final  147.82 input  -60.55 | X-H torsion
[ 11005 11000 10999 10996 ] final -163.66 input  -57.11 | X-H torsion

> <Gold.Protein.ActiveResidues>
 VAL166  LYS551  ARG553  GLY616  TRP617  ASP618  TYR619  PRO620  LYS621  CYS622 
 ASP623  PHE694  ASN695  SER759  ASP760  ASP761  ALA762  ILE779  LEU786  VAL792 
 PHE793  MET794  SER795  GLU796  ALA797  LYS798  CYS799  TRP800  GLU811  SER814 

> <Gold.Protein.RotatedAtoms>
  151.9758  133.3741  159.4088 H   0  0  0  0  0  0  0  0  0  0  0  0  # atno 6907 bound_to 6896
  150.6942  134.4092  159.5163 H   0  0  0  0  0  0  0  0  0  0  0  0  # atno 6908 bound_to 6896
  152.1803  134.8759  160.0577 H   0  0  0  0  0  0  0  0  0  0  0  0  # atno 6909 bound_to 6896
  146.2422  140.1352  142.8337 H   0  0  0  0  0  0  0  0  0  0  0  0  # atno 7974 bound_to 7965
  154.4030  140.1566  156.2771 H   0  0  0  0  0  0  0  0  0  0  0  0  # atno 8008 bound_to 7997
  155.8902  140.3439  155.5929 H   0  0  0  0  0  0  0  0  0  0  0  0  # atno 8009 bound_to 7997
  155.7567  140.0812  157.2166 H   0  0  0  0  0  0  0  0  0  0  0  0  # atno 8010 bound_to 7997
  139.6346  144.7118  151.2361 H   0  0  0  0  0  0  0  0  0  0  0  0  # atno 10167 bound_to 10162
  156.4829  130.8312  151.2538 H   0  0  0  0  0  0  0  0  0  0  0  0  # atno 10718 bound_to 10713
  154.0447  135.2886  155.3350 H   0  0  0  0  0  0  0  0  0  0  0  0  # atno 10763 bound_to 10752
  154.6907  135.5227  153.8392 H   0  0  0  0  0  0  0  0  0  0  0  0  # atno 10764 bound_to 10752
  153.0585  135.6605  154.0648 H   0  0  0  0  0  0  0  0  0  0  0  0  # atno 10765 bound_to 10752
  140.5956  134.5000  157.5198 H   0  0  0  0  0  0  0  0  0  0  0  0  # atno 11005 bound_to 11000
  145.0292  140.8857  143.5119 LP  0  0  0  0  0  0  0  0  0  0  0  0  # atno 17320 bound_to 7965
  145.1414  139.2570  143.5488 LP  0  0  0  0  0  0  0  0  0  0  0  0  # atno 17321 bound_to 7965
  140.7458  143.6418  150.8327 LP  0  0  0  0  0  0  0  0  0  0  0  0  # atno 17342 bound_to 10162
  140.0048  143.5705  152.2862 LP  0  0  0  0  0  0  0  0  0  0  0  0  # atno 17343 bound_to 10162
  157.7481  131.0039  150.3055 LP  0  0  0  0  0  0  0  0  0  0  0  0  # atno 17370 bound_to 10713
  156.3503  130.3830  149.7335 LP  0  0  0  0  0  0  0  0  0  0  0  0  # atno 17371 bound_to 10713
  139.9255  134.8065  156.1082 LP  0  0  0  0  0  0  0  0  0  0  0  0  # atno 17394 bound_to 11000
  141.0906  133.6716  156.2533 LP  0  0  0  0  0  0  0  0  0  0  0  0  # atno 17395 bound_to 11000

$$$$
