AV-unprocessed.smi:2089|AV-procd|sdf|8530|dock5
  -GOLD-   2272011253D 1   1.00000     0.00000
 Structure written by MMmdl.
 40 41  0  0  0  0  0  0  0  0  2 V2000
  146.7001  137.9913  153.8198 C   0  0  0  0  0  0  0  0  0  0  0  0
  146.0969  138.9905  155.2410 S   0  0  0  0  0  0  0  0  0  0  0  0
  144.6439  139.1692  155.0955 O   0  0  0  0  0  0  0  0  0  0  0  0
  146.6461  138.4369  156.4880 O   0  0  0  0  0  0  0  0  0  0  0  0
  146.8403  140.5301  154.9738 N   0  0  0  0  0  0  0  0  0  0  0  0
  145.9920  141.7296  154.9474 C   0  0  0  0  0  0  0  0  0  0  0  0
  146.7595  142.7592  154.1220 C   0  0  0  0  0  0  0  0  0  0  0  0
  147.5374  141.8966  153.1384 C   0  0  0  0  0  0  0  0  0  0  0  0
  147.8895  140.6347  153.9461 C   0  0  1  0  0  0  0  0  0  0  0  0
  149.3023  140.6625  154.5465 C   0  0  0  0  0  0  0  0  0  0  0  0
  150.1573  139.8504  154.1916 O   0  0  0  0  0  0  0  0  0  0  0  0
  149.5388  141.6222  155.4522 N   0  0  0  0  0  0  0  0  0  0  0  0
  150.8180  141.8344  156.1128 C   0  0  0  0  0  0  0  0  0  0  0  0
  150.6731  141.6799  157.6328 C   0  0  0  0  0  0  0  0  0  0  0  0
  151.1574  142.9065  158.3817 C   0  0  0  0  0  0  0  0  0  0  0  0
  152.0295  142.8164  159.4886 C   0  0  0  0  0  0  0  0  0  0  0  0
  152.4475  143.9989  160.1341 C   0  0  0  0  0  0  0  0  0  0  0  0
  151.9870  145.2447  159.6594 C   0  0  0  0  0  0  0  0  0  0  0  0
  151.1182  145.2765  158.5495 C   0  0  0  0  0  0  0  0  0  0  0  0
  150.7395  144.1217  157.9587 N   0  3  0  0  0  0  0  0  0  0  0  0
  146.2558  136.9972  153.8629 H   0  0  0  0  0  0  0  0  0  0  0  0
  147.7850  137.9021  153.8669 H   0  0  0  0  0  0  0  0  0  0  0  0
  146.4146  138.4757  152.8864 H   0  0  0  0  0  0  0  0  0  0  0  0
  145.0442  141.4935  154.4622 H   0  0  0  0  0  0  0  0  0  0  0  0
  145.7812  142.0794  155.9581 H   0  0  0  0  0  0  0  0  0  0  0  0
  146.1058  143.4797  153.6299 H   0  0  0  0  0  0  0  0  0  0  0  0
  147.4492  143.3112  154.7620 H   0  0  0  0  0  0  0  0  0  0  0  0
  146.8957  141.6253  152.2989 H   0  0  0  0  0  0  0  0  0  0  0  0
  148.4040  142.4161  152.7268 H   0  0  0  0  0  0  0  0  0  0  0  0
  147.8246  139.7750  153.2764 H   0  0  0  0  0  0  0  0  0  0  0  0
  148.7871  142.2575  155.6806 H   0  0  0  0  0  0  0  0  0  0  0  0
  151.5450  141.1171  155.7286 H   0  0  0  0  0  0  0  0  0  0  0  0
  151.1883  142.8322  155.8712 H   0  0  0  0  0  0  0  0  0  0  0  0
  149.6293  141.4970  157.8933 H   0  0  0  0  0  0  0  0  0  0  0  0
  151.2330  140.8082  157.9748 H   0  0  0  0  0  0  0  0  0  0  0  0
  152.3767  141.8551  159.8390 H   0  0  0  0  0  0  0  0  0  0  0  0
  153.1145  143.9509  160.9824 H   0  0  0  0  0  0  0  0  0  0  0  0
  152.2960  146.1618  160.1394 H   0  0  0  0  0  0  0  0  0  0  0  0
  150.7182  146.1830  158.1193 H   0  0  0  0  0  0  0  0  0  0  0  0
  150.1110  144.1688  157.1563 H   0  0  0  0  0  0  0  0  0  0  0  0
  1  2  1  0  0  0  0
  1 21  1  0  0  0  0
  1 22  1  0  0  0  0
  1 23  1  0  0  0  0
  2  3  2  0  0  0  0
  2  4  2  0  0  0  0
  2  5  1  0  0  0  0
  5  9  1  0  0  0  0
  5  6  1  0  0  0  0
  6  7  1  0  0  0  0
  6 24  1  0  0  0  0
  6 25  1  0  0  0  0
  7  8  1  0  0  0  0
  7 26  1  0  0  0  0
  7 27  1  0  0  0  0
  8  9  1  0  0  0  0
  8 28  1  0  0  0  0
  8 29  1  0  0  0  0
  9 10  1  0  0  0  0
  9 30  1  0  0  0  0
 10 11  2  0  0  0  0
 10 12  1  0  0  0  0
 12 13  1  0  0  0  0
 12 31  1  0  0  0  0
 13 14  1  0  0  0  0
 13 32  1  0  0  0  0
 13 33  1  0  0  0  0
 14 15  1  0  0  0  0
 14 34  1  0  0  0  0
 14 35  1  0  0  0  0
 15 20  1  0  0  0  0
 15 16  2  0  0  0  0
 16 17  1  0  0  0  0
 16 36  1  0  0  0  0
 17 18  2  0  0  0  0
 17 37  1  0  0  0  0
 18 19  1  0  0  0  0
 18 38  1  0  0  0  0
 19 20  2  0  0  0  0
 19 39  1  0  0  0  0
 20 40  1  0  0  0  0
M  CHG  1  20   1
M  END
> <s_m_source_file>
AV-unprocessed.smi

> <i_m_source_file_index>
2089

> <i_lp_mmshare_version>
43012

> <i_f3d_flags>
0

> <s_epik_input>
W0NIM11TKD1PKSg9TylOMVtDSDJdW0NIMl1bQ0gyXVtDQEhdMUMoPU8pW05IXVtDSDJdW0NIMl1jMltjSF1bY0hdW2NIXVtjSF1uMg==

> <s_epik_cmdline>
J2VwaWtfcHl0aG9uJywgJy1waCcsICc3LjAnLCAnLXRuJywgJzgnLCAnLW1hJywgJzIwMCcsICctbWV0YWxfYmluZGluZycsICctaW1hZScsICc8aW5maWxlLm1hZT4nLCAnLW9tYWUnLCAnPG91dGZpbGUubWFlPic=

> <r_epik_Ionization_Penalty>
1.90116

> <r_epik_Ionization_Penalty_Charging>
1.90116

> <r_epik_Ionization_Penalty_Neutral>
1.4017e-07

> <r_epik_State_Penalty>
2.02245

> <r_epik_Charging_Adjusted_Penalty>
3.9236

> <i_epik_Tot_Q>
1

> <i_epik_Tot_abs_Q>
1

> <r_epik_Metal_State_Penalty>
2.04621

> <b_epik_Metal_Only>
0

> <s_lp_Force_Field>
OPLS_2005

> <r_lp_Energy>
11.7086

> <b_lp_Chiralities_Consistent>
1

> <s_lp_Variant>
AV-unprocessed.smi:2089-3

> <Gold.Version>
5.8.1

> <Gold.Id.Protein>
6NUR|6NUR_protein|mol2

> <Gold.PLP.Fitness>
44.6844

> <Gold.PLP.PLP>
-36.7464

> <Gold.PLP.part.hbond>
-2.5670

> <Gold.PLP.part.metal>
0.0000

> <Gold.PLP.part.buried>
-7.2646

> <Gold.PLP.part.nonpolar>
-27.6257

> <Gold.PLP.part.repulsive>
1.1839

> <Gold.PLP.ligand.clash>
0.0000

> <Gold.PLP.ligand.torsion>
0.8030

> <Gold.PLP.Chemscore.Hbond>
3.0000

> <Gold.PLP.Chemscore.CHOScore>
0.0000

> <Gold.PLP.Chemscore.Metal>
0.0000

> <Gold.Chemscore.Hbonds>
donor molecule, donor type, donor heavy atom, donor atom, acceptor molecule, acceptor atom, score
      L1  H    20    40       P1  8028  2.00
      P1  H  7989  7998       L1    11  1.00

> <Gold.PLP.Chemscore.Internal.Correction>
0.5439

> <Gold.Rescore>
     Score         DG    S(hbond)    S(metal)    S(lipo)     H(rot)  DE(clash)    DE(int)     intcor
     15.98     -17.14       1.69        0.00      95.14       2.00       0.29       0.88       ----

> <Gold.Chemscore.Fitness>
15.9755

> <Gold.Chemscore.DG>
-17.1390

> <Gold.Chemscore.ZeroCoef>
-5.4800

> <Gold.Chemscore.Hbond>
1.6943

> <Gold.Chemscore.Metal>
0.0000

> <Gold.Chemscore.Lipo>
95.1353

> <Gold.Chemscore.Internal_Hbond>
0.0000

> <Gold.Chemscore.DEClash>
0.2881

> <Gold.Chemscore.DEInternal>
0.8753

> <Gold.Chemscore.Rot>
2.0043

> <Gold.Chemscore.Internal.Correction>
   9.000000E+99

> <Gold.Chemscore.Hbonds>
donor molecule, donor type, donor heavy atom, donor atom, acceptor molecule, acceptor atom, score
      L1  H    12    31       P1  8028  0.02
      L1  H    20    40       P1  8028  0.80
      P1  H  7989  7998       L1    11  0.59

> <Gold.Chemscore.Hbond.Weighted>
-5.6590

> <Gold.Chemscore.Metal.Weighted>
-0.0000

> <Gold.Chemscore.Lipo.Weighted>
-11.1308

> <Gold.Chemscore.Internal_Hbond.Weighted>
0.0000

> <Gold.Chemscore.DEClash.Weighted>
0.2881

> <Gold.Chemscore.DEInternal.Weighted>
0.8753

> <Gold.Chemscore.Rot.Weighted>
5.1309

> <Gold.Chemscore.Internal.Correction.Weighted>
   9.000000E+99

> <Gold.Protein.RotatedTorsions>
[ 6907 6896 6895 6894 ] final   53.31 input  -60.11 | X-H torsion
[ 7974 7965 7964 7962 ] final -165.04 input  175.53 | X-H torsion
[ 8008 7997 7996 7995 ] final  172.26 input   59.86 | X-H torsion
[ 10167 10162 10161 10158 ] final -161.05 input  -65.29 | X-H torsion
[ 10718 10713 10712 10709 ] final    4.31 input   66.30 | X-H torsion
[ 10763 10752 10751 10750 ] final -129.60 input  -60.55 | X-H torsion
[ 11005 11000 10999 10996 ] final  117.79 input  -57.11 | X-H torsion

> <Gold.Protein.ActiveResidues>
 VAL166  LYS551  ARG553  GLY616  TRP617  ASP618  TYR619  PRO620  LYS621  CYS622 
 ASP623  PHE694  ASN695  SER759  ASP760  ASP761  ALA762  ILE779  LEU786  VAL792 
 PHE793  MET794  SER795  GLU796  ALA797  LYS798  CYS799  TRP800  GLU811  SER814 

> <Gold.Protein.RotatedAtoms>
  152.3324  134.7243  160.0285 H   0  0  0  0  0  0  0  0  0  0  0  0  # atno 6907 bound_to 6896
  151.7655  133.3331  159.3438 H   0  0  0  0  0  0  0  0  0  0  0  0  # atno 6908 bound_to 6896
  150.7430  134.5998  159.6075 H   0  0  0  0  0  0  0  0  0  0  0  0  # atno 6909 bound_to 6896
  144.7280  140.2872  143.6226 H   0  0  0  0  0  0  0  0  0  0  0  0  # atno 7974 bound_to 7965
  156.1192  140.1490  156.9229 H   0  0  0  0  0  0  0  0  0  0  0  0  # atno 8008 bound_to 7997
  154.4823  140.0876  156.7447 H   0  0  0  0  0  0  0  0  0  0  0  0  # atno 8009 bound_to 7997
  155.4459  140.3433  155.4297 H   0  0  0  0  0  0  0  0  0  0  0  0  # atno 8010 bound_to 7997
  139.6494  144.0112  152.2150 H   0  0  0  0  0  0  0  0  0  0  0  0  # atno 10167 bound_to 10162
  156.8907  130.5686  149.5650 H   0  0  0  0  0  0  0  0  0  0  0  0  # atno 10718 bound_to 10713
  154.8757  135.3890  154.3946 H   0  0  0  0  0  0  0  0  0  0  0  0  # atno 10763 bound_to 10752
  153.4677  135.7029  153.6017 H   0  0  0  0  0  0  0  0  0  0  0  0  # atno 10764 bound_to 10752
  153.4488  135.3839  155.2239 H   0  0  0  0  0  0  0  0  0  0  0  0  # atno 10765 bound_to 10752
  139.9087  134.9614  156.7405 H   0  0  0  0  0  0  0  0  0  0  0  0  # atno 11005 bound_to 11000
  145.7891  139.1920  143.2113 LP  0  0  0  0  0  0  0  0  0  0  0  0  # atno 17320 bound_to 7965
  146.0770  140.7806  142.9660 LP  0  0  0  0  0  0  0  0  0  0  0  0  # atno 17321 bound_to 7965
  139.9822  144.6420  150.7890 LP  0  0  0  0  0  0  0  0  0  0  0  0  # atno 17342 bound_to 10162
  140.7530  143.3001  151.3103 LP  0  0  0  0  0  0  0  0  0  0  0  0  # atno 17343 bound_to 10162
  156.0630  130.5679  150.9232 LP  0  0  0  0  0  0  0  0  0  0  0  0  # atno 17370 bound_to 10713
  157.6085  131.0937  150.8836 LP  0  0  0  0  0  0  0  0  0  0  0  0  # atno 17371 bound_to 10713
  140.6853  133.9438  155.7934 LP  0  0  0  0  0  0  0  0  0  0  0  0  # atno 17394 bound_to 11000
  141.0481  134.0525  157.3819 LP  0  0  0  0  0  0  0  0  0  0  0  0  # atno 17395 bound_to 11000

$$$$
