AV-unprocessed.smi:679|AV-procd|sdf|3319|dock2
  -GOLD-   22720 0283D 1   1.00000     0.00000
 Structure written by MMmdl.
 41 43  0  0  0  0  0  0  0  0  1 V2000
  153.5185  141.6689  160.0736 C   0  0  0  0  0  0  0  0  0  0  0  0
  153.1145  140.1958  159.9829 C   0  0  0  0  0  0  0  0  0  0  0  0
  152.4550  139.9783  158.7474 O   0  0  0  0  0  0  0  0  0  0  0  0
  151.2957  139.1696  158.8735 C   0  0  2  0  0  0  0  0  0  0  0  0
  151.5749  137.6739  159.0516 C   0  0  0  0  0  0  0  0  0  0  0  0
  150.4117  137.4112  158.0883 C   0  0  1  0  0  0  0  0  0  0  0  0
  149.1517  137.2515  158.8141 N   0  0  0  0  0  0  0  0  0  0  0  0
  148.5696  136.0735  159.0868 C   0  0  0  0  0  0  0  0  0  0  0  0
  149.0402  134.9908  158.7404 O   0  0  0  0  0  0  0  0  0  0  0  0
  147.2432  136.1205  159.8485 C   0  0  0  0  0  0  0  0  0  0  0  0
  147.4120  135.7559  161.2434 N   0  0  0  0  0  0  0  0  0  0  0  0
  147.0945  134.6395  161.9020 C   0  0  0  0  0  0  0  0  0  0  0  0
  147.4127  134.7212  163.1846 N   0  0  0  0  0  0  0  0  0  0  0  0
  147.9640  135.9871  163.2920 N   0  0  0  0  0  0  0  0  0  0  0  0
  147.9663  136.6058  162.1433 N   0  0  0  0  0  0  0  0  0  0  0  0
  150.6191  138.8402  157.5206 C   0  0  0  0  0  0  0  0  0  0  0  0
  151.4875  138.9526  156.2647 C   0  0  0  0  0  0  0  0  0  0  0  0
  151.2638  140.3514  155.6798 C   0  0  0  0  0  0  0  0  0  0  0  0
  149.9484  140.8514  156.2851 C   0  0  0  0  0  0  0  0  0  0  0  0
  149.4127  139.6878  157.1213 C   0  0  0  0  0  0  0  0  0  0  0  0
  154.0254  141.8767  161.0161 H   0  0  0  0  0  0  0  0  0  0  0  0
  152.6456  142.3193  160.0122 H   0  0  0  0  0  0  0  0  0  0  0  0
  154.1956  141.9393  159.2632 H   0  0  0  0  0  0  0  0  0  0  0  0
  154.0003  139.5635  160.0582 H   0  0  0  0  0  0  0  0  0  0  0  0
  152.4527  139.9388  160.8112 H   0  0  0  0  0  0  0  0  0  0  0  0
  150.5838  139.5547  159.6071 H   0  0  0  0  0  0  0  0  0  0  0  0
  152.5391  137.3698  158.6408 H   0  0  0  0  0  0  0  0  0  0  0  0
  151.4369  137.3006  160.0671 H   0  0  0  0  0  0  0  0  0  0  0  0
  150.6254  136.6123  157.3758 H   0  0  0  0  0  0  0  0  0  0  0  0
  148.6949  138.0950  159.1286 H   0  0  0  0  0  0  0  0  0  0  0  0
  146.8254  137.1264  159.7935 H   0  0  0  0  0  0  0  0  0  0  0  0
  146.5198  135.4449  159.3894 H   0  0  0  0  0  0  0  0  0  0  0  0
  146.6305  133.7771  161.4466 H   0  0  0  0  0  0  0  0  0  0  0  0
  152.5443  138.7668  156.4599 H   0  0  0  0  0  0  0  0  0  0  0  0
  151.1738  138.2066  155.5332 H   0  0  0  0  0  0  0  0  0  0  0  0
  152.0802  141.0180  155.9599 H   0  0  0  0  0  0  0  0  0  0  0  0
  151.2236  140.3202  154.5906 H   0  0  0  0  0  0  0  0  0  0  0  0
  150.1436  141.7116  156.9267 H   0  0  0  0  0  0  0  0  0  0  0  0
  149.2344  141.1647  155.5229 H   0  0  0  0  0  0  0  0  0  0  0  0
  148.7263  139.0959  156.5140 H   0  0  0  0  0  0  0  0  0  0  0  0
  148.8462  140.0452  157.9818 H   0  0  0  0  0  0  0  0  0  0  0  0
  1  2  1  0  0  0  0
  1 21  1  0  0  0  0
  1 22  1  0  0  0  0
  1 23  1  0  0  0  0
  2  3  1  0  0  0  0
  2 24  1  0  0  0  0
  2 25  1  0  0  0  0
  3  4  1  0  0  0  0
  4 16  1  0  0  0  0
  4  5  1  0  0  0  0
  4 26  1  0  0  0  0
  5  6  1  0  0  0  0
  5 27  1  0  0  0  0
  5 28  1  0  0  0  0
  6  7  1  0  0  0  0
  6 16  1  0  0  0  0
  6 29  1  0  0  0  0
  7  8  1  0  0  0  0
  7 30  1  0  0  0  0
  8  9  2  0  0  0  0
  8 10  1  0  0  0  0
 10 11  1  0  0  0  0
 10 31  1  0  0  0  0
 10 32  1  0  0  0  0
 11 15  1  0  0  0  0
 11 12  1  0  0  0  0
 12 13  2  0  0  0  0
 12 33  1  0  0  0  0
 13 14  1  0  0  0  0
 14 15  2  0  0  0  0
 16 20  1  0  0  0  0
 16 17  1  0  0  0  0
 17 18  1  0  0  0  0
 17 34  1  0  0  0  0
 17 35  1  0  0  0  0
 18 19  1  0  0  0  0
 18 36  1  0  0  0  0
 18 37  1  0  0  0  0
 19 20  1  0  0  0  0
 19 38  1  0  0  0  0
 19 39  1  0  0  0  0
 20 40  1  0  0  0  0
 20 41  1  0  0  0  0
M  END
> <s_m_source_file>
AV-unprocessed.smi

> <i_m_source_file_index>
679

> <i_lp_mmshare_version>
43012

> <i_f3d_flags>
0

> <s_epik_input>
W0NIMl0xW0NIMl1bQ0gyXVtDSDJdQzEyW0NASF0oT1tDSDJdW0NIM10pW0NIMl1bQ0BIXTJbTkhdQyg9TylbQ0gyXW4zW2NIXW5ubjM=

> <s_epik_cmdline>
J2VwaWtfcHl0aG9uJywgJy1waCcsICc3LjAnLCAnLXRuJywgJzgnLCAnLW1hJywgJzIwMCcsICctbWV0YWxfYmluZGluZycsICctaW1hZScsICc8aW5maWxlLm1hZT4nLCAnLW9tYWUnLCAnPG91dGZpbGUubWFlPic=

> <r_lp_tautomer_probability>
1

> <r_epik_Ionization_Penalty>
7.96741e-07

> <r_epik_Ionization_Penalty_Charging>
0

> <r_epik_Ionization_Penalty_Neutral>
7.96741e-07

> <r_epik_State_Penalty>
-0

> <r_epik_Charging_Adjusted_Penalty>
0

> <i_epik_Tot_Q>
0

> <i_epik_Tot_abs_Q>
0

> <r_epik_Metal_State_Penalty>
-0

> <b_epik_Metal_Only>
0

> <s_lp_Force_Field>
OPLS_2005

> <r_lp_Energy>
39.8699

> <b_lp_Chiralities_Consistent>
1

> <s_lp_Variant>
AV-unprocessed.smi:679-1

> <Gold.Version>
5.8.1

> <Gold.Id.Protein>
6NUR|6NUR_protein|mol2

> <Gold.PLP.Fitness>
35.1574

> <Gold.PLP.PLP>
-30.8924

> <Gold.PLP.part.hbond>
-2.6797

> <Gold.PLP.part.metal>
0.0000

> <Gold.PLP.part.buried>
-4.4829

> <Gold.PLP.part.nonpolar>
-24.1267

> <Gold.PLP.part.repulsive>
0.2445

> <Gold.PLP.ligand.clash>
0.0000

> <Gold.PLP.ligand.torsion>
1.0432

> <Gold.PLP.Chemscore.Hbond>
2.0000

> <Gold.PLP.Chemscore.CHOScore>
0.0000

> <Gold.PLP.Chemscore.Metal>
0.0000

> <Gold.Chemscore.Hbonds>
donor molecule, donor type, donor heavy atom, donor atom, acceptor molecule, acceptor atom, score
      P1  H  6896  6909       L1     9  1.00
      P1  H  6931  6943       L1    15  1.00

> <Gold.PLP.Chemscore.Internal.Correction>
0.3514

> <Gold.Rescore>
     Score         DG    S(hbond)    S(metal)    S(lipo)     H(rot)  DE(clash)    DE(int)     intcor
     12.19     -12.86       1.98        0.00      59.16       2.41       0.02       0.65       ----

> <Gold.Chemscore.Fitness>
12.1885

> <Gold.Chemscore.DG>
-12.8611

> <Gold.Chemscore.ZeroCoef>
-5.4800

> <Gold.Chemscore.Hbond>
1.9838

> <Gold.Chemscore.Metal>
0.0000

> <Gold.Chemscore.Lipo>
59.1616

> <Gold.Chemscore.Internal_Hbond>
0.0000

> <Gold.Chemscore.DEClash>
0.0227

> <Gold.Chemscore.DEInternal>
0.6500

> <Gold.Chemscore.Rot>
2.4089

> <Gold.Chemscore.Internal.Correction>
   9.000000E+99

> <Gold.Chemscore.Hbonds>
donor molecule, donor type, donor heavy atom, donor atom, acceptor molecule, acceptor atom, score
      P1  H  6896  6909       L1     9  0.91
      P1  H  6931  6943       L1    15  0.95

> <Gold.Chemscore.Hbond.Weighted>
-6.6260

> <Gold.Chemscore.Metal.Weighted>
-0.0000

> <Gold.Chemscore.Lipo.Weighted>
-6.9219

> <Gold.Chemscore.Internal_Hbond.Weighted>
0.0000

> <Gold.Chemscore.DEClash.Weighted>
0.0227

> <Gold.Chemscore.DEInternal.Weighted>
0.6500

> <Gold.Chemscore.Rot.Weighted>
6.1668

> <Gold.Chemscore.Internal.Correction.Weighted>
   9.000000E+99

> <Gold.Protein.RotatedTorsions>
[ 6907 6896 6895 6894 ] final   47.41 input  -60.11 | X-H torsion
[ 7974 7965 7964 7962 ] final   66.42 input  175.53 | X-H torsion
[ 8008 7997 7996 7995 ] final   92.64 input   59.86 | X-H torsion
[ 10167 10162 10161 10158 ] final  -32.47 input  -65.29 | X-H torsion
[ 10718 10713 10712 10709 ] final  121.62 input   66.30 | X-H torsion
[ 10763 10752 10751 10750 ] final   15.57 input  -60.55 | X-H torsion
[ 11005 11000 10999 10996 ] final  -56.28 input  -57.11 | X-H torsion

> <Gold.Protein.ActiveResidues>
 VAL166  LYS551  ARG553  GLY616  TRP617  ASP618  TYR619  PRO620  LYS621  CYS622 
 ASP623  PHE694  ASN695  SER759  ASP760  ASP761  ALA762  ILE779  LEU786  VAL792 
 PHE793  MET794  SER795  GLU796  ALA797  LYS798  CYS799  TRP800  GLU811  SER814 

> <Gold.Protein.RotatedAtoms>
  152.2678  134.7966  160.0419 H   0  0  0  0  0  0  0  0  0  0  0  0  # atno 6907 bound_to 6896
  151.8589  133.3448  159.3705 H   0  0  0  0  0  0  0  0  0  0  0  0  # atno 6908 bound_to 6896
  150.7140  134.5153  159.5671 H   0  0  0  0  0  0  0  0  0  0  0  0  # atno 6909 bound_to 6896
  145.8268  139.3116  143.1011 H   0  0  0  0  0  0  0  0  0  0  0  0  # atno 7974 bound_to 7965
  156.0377  140.3323  155.7209 H   0  0  0  0  0  0  0  0  0  0  0  0  # atno 8008 bound_to 7997
  155.5791  140.0635  157.2805 H   0  0  0  0  0  0  0  0  0  0  0  0  # atno 8009 bound_to 7997
  154.4379  140.1847  156.0946 H   0  0  0  0  0  0  0  0  0  0  0  0  # atno 8010 bound_to 7997
  140.7221  143.3692  151.1810 H   0  0  0  0  0  0  0  0  0  0  0  0  # atno 10167 bound_to 10162
  157.5804  131.1075  150.8199 H   0  0  0  0  0  0  0  0  0  0  0  0  # atno 10718 bound_to 10713
  153.1512  135.6779  153.8879 H   0  0  0  0  0  0  0  0  0  0  0  0  # atno 10763 bound_to 10752
  153.8305  135.3118  155.3419 H   0  0  0  0  0  0  0  0  0  0  0  0  # atno 10764 bound_to 10752
  154.7864  135.4860  154.0041 H   0  0  0  0  0  0  0  0  0  0  0  0  # atno 10765 bound_to 10752
  141.1113  133.6610  156.4595 H   0  0  0  0  0  0  0  0  0  0  0  0  # atno 11005 bound_to 11000
  145.9614  140.8832  143.0209 LP  0  0  0  0  0  0  0  0  0  0  0  0  # atno 17320 bound_to 7965
  144.6743  140.1818  143.7405 LP  0  0  0  0  0  0  0  0  0  0  0  0  # atno 17321 bound_to 7965
  139.7260  143.9147  152.3003 LP  0  0  0  0  0  0  0  0  0  0  0  0  # atno 17342 bound_to 10162
  139.8920  144.6960  150.8759 LP  0  0  0  0  0  0  0  0  0  0  0  0  # atno 17343 bound_to 10162
  156.8646  130.5125  149.5301 LP  0  0  0  0  0  0  0  0  0  0  0  0  # atno 17370 bound_to 10713
  156.0849  130.5850  150.9631 LP  0  0  0  0  0  0  0  0  0  0  0  0  # atno 17371 bound_to 10713
  140.4768  134.6702  157.5153 LP  0  0  0  0  0  0  0  0  0  0  0  0  # atno 17394 bound_to 11000
  140.0008  134.6839  155.9533 LP  0  0  0  0  0  0  0  0  0  0  0  0  # atno 17395 bound_to 11000

$$$$
