AV-unprocessed.smi:2878|AV-procd|sdf|11047|dock7
  -GOLD-   2272015513D 1   1.00000     0.00000
 Structure written by MMmdl.
 42 43  0  0  0  0  0  0  0  0  1 V2000
  146.7474  131.9575  154.6865 C   0  0  0  0  0  0  0  0  0  0  0  0
  146.7969  133.7655  154.8151 S   0  0  0  0  0  0  0  0  0  0  0  0
  145.7563  134.2414  153.3977 C   0  0  2  0  0  0  0  0  0  0  0  0
  146.3593  133.7167  152.0801 C   0  0  0  0  0  0  0  0  0  0  0  0
  145.4738  134.0738  150.8758 C   0  0  0  0  0  0  0  0  0  0  0  0
  145.2240  135.5872  150.7964 C   0  0  0  0  0  0  0  0  0  0  0  0
  144.6264  136.1230  152.1089 C   0  0  0  0  0  0  0  0  0  0  0  0
  145.4949  135.7669  153.3354 C   0  0  2  0  0  0  0  0  0  0  0  0
  146.7528  136.5148  153.3207 N   0  0  0  0  0  0  0  0  0  0  0  0
  147.0563  137.5365  154.1327 C   0  0  0  0  0  0  0  0  0  0  0  0
  146.2953  137.9881  154.9885 O   0  0  0  0  0  0  0  0  0  0  0  0
  148.2895  138.0069  153.9008 N   0  0  0  0  0  0  0  0  0  0  0  0
  148.9037  139.1216  154.6134 C   0  0  0  0  0  0  0  0  0  0  0  0
  150.4169  139.1994  154.3545 C   0  0  0  0  0  0  0  0  0  0  0  0
  151.1607  139.7822  155.5094 C   0  0  0  0  0  0  0  0  0  0  0  0
  150.8056  140.8312  156.2473 N   0  0  0  0  0  0  0  0  0  0  0  0
  151.8111  140.8565  157.1650 C   0  0  0  0  0  0  0  0  0  0  0  0
  151.8928  141.8752  158.2499 C   0  0  0  0  0  0  0  0  0  0  0  0
  152.7270  139.9030  157.0491 N   0  0  0  0  0  0  0  0  0  0  0  0
  152.2884  139.1664  155.9392 O   0  0  0  0  0  0  0  0  0  0  0  0
  147.3894  131.5122  155.4463 H   0  0  0  0  0  0  0  0  0  0  0  0
  147.0993  131.6348  153.7066 H   0  0  0  0  0  0  0  0  0  0  0  0
  145.7346  131.5845  154.8360 H   0  0  0  0  0  0  0  0  0  0  0  0
  144.7982  133.7388  153.5379 H   0  0  0  0  0  0  0  0  0  0  0  0
  147.3578  134.1307  151.9345 H   0  0  0  0  0  0  0  0  0  0  0  0
  146.4815  132.6343  152.1328 H   0  0  0  0  0  0  0  0  0  0  0  0
  145.9408  133.7254  149.9541 H   0  0  0  0  0  0  0  0  0  0  0  0
  144.5201  133.5507  150.9561 H   0  0  0  0  0  0  0  0  0  0  0  0
  146.1604  136.1025  150.5789 H   0  0  0  0  0  0  0  0  0  0  0  0
  144.5524  135.8085  149.9665 H   0  0  0  0  0  0  0  0  0  0  0  0
  144.4841  137.2020  152.0405 H   0  0  0  0  0  0  0  0  0  0  0  0
  143.6308  135.6982  152.2437 H   0  0  0  0  0  0  0  0  0  0  0  0
  144.9396  136.0537  154.2293 H   0  0  0  0  0  0  0  0  0  0  0  0
  147.4478  136.2158  152.6524 H   0  0  0  0  0  0  0  0  0  0  0  0
  148.8401  137.5675  153.1777 H   0  0  0  0  0  0  0  0  0  0  0  0
  148.4234  140.0419  154.2800 H   0  0  0  0  0  0  0  0  0  0  0  0
  148.7027  139.0357  155.6828 H   0  0  0  0  0  0  0  0  0  0  0  0
  150.8211  138.2069  154.1516 H   0  0  0  0  0  0  0  0  0  0  0  0
  150.6165  139.8051  153.4698 H   0  0  0  0  0  0  0  0  0  0  0  0
  152.9102  142.2578  158.3377 H   0  0  0  0  0  0  0  0  0  0  0  0
  151.6043  141.4325  159.2036 H   0  0  0  0  0  0  0  0  0  0  0  0
  151.2274  142.7136  158.0418 H   0  0  0  0  0  0  0  0  0  0  0  0
  1  2  1  0  0  0  0
  1 21  1  0  0  0  0
  1 22  1  0  0  0  0
  1 23  1  0  0  0  0
  2  3  1  0  0  0  0
  3  8  1  0  0  0  0
  3  4  1  0  0  0  0
  3 24  1  0  0  0  0
  4  5  1  0  0  0  0
  4 25  1  0  0  0  0
  4 26  1  0  0  0  0
  5  6  1  0  0  0  0
  5 27  1  0  0  0  0
  5 28  1  0  0  0  0
  6  7  1  0  0  0  0
  6 29  1  0  0  0  0
  6 30  1  0  0  0  0
  7  8  1  0  0  0  0
  7 31  1  0  0  0  0
  7 32  1  0  0  0  0
  8  9  1  0  0  0  0
  8 33  1  0  0  0  0
  9 10  1  0  0  0  0
  9 34  1  0  0  0  0
 10 11  2  0  0  0  0
 10 12  1  0  0  0  0
 12 13  1  0  0  0  0
 12 35  1  0  0  0  0
 13 14  1  0  0  0  0
 13 36  1  0  0  0  0
 13 37  1  0  0  0  0
 14 15  1  0  0  0  0
 14 38  1  0  0  0  0
 14 39  1  0  0  0  0
 15 20  1  0  0  0  0
 15 16  2  0  0  0  0
 16 17  1  0  0  0  0
 17 18  1  0  0  0  0
 17 19  2  0  0  0  0
 18 40  1  0  0  0  0
 18 41  1  0  0  0  0
 18 42  1  0  0  0  0
 19 20  1  0  0  0  0
M  END
> <s_m_source_file>
AV-unprocessed.smi

> <i_m_source_file_index>
2878

> <i_lp_mmshare_version>
43012

> <i_f3d_flags>
0

> <s_epik_input>
W0NIM11TW0NAQEhdMVtDSDJdW0NIMl1bQ0gyXVtDSDJdW0NASF0xW05IXUMoPU8pW05IXVtDSDJdW0NIMl1jMm5jKFtDSDNdKW5vMg==

> <s_epik_cmdline>
J2VwaWtfcHl0aG9uJywgJy1waCcsICc3LjAnLCAnLXRuJywgJzgnLCAnLW1hJywgJzIwMCcsICctbWV0YWxfYmluZGluZycsICctaW1hZScsICc8aW5maWxlLm1hZT4nLCAnLW9tYWUnLCAnPG91dGZpbGUubWFlPic=

> <r_lp_tautomer_probability>
1

> <r_epik_Ionization_Penalty>
4.9299e-05

> <r_epik_Ionization_Penalty_Charging>
0

> <r_epik_Ionization_Penalty_Neutral>
4.9299e-05

> <r_epik_State_Penalty>
-0

> <r_epik_Charging_Adjusted_Penalty>
0

> <i_epik_Tot_Q>
0

> <i_epik_Tot_abs_Q>
0

> <r_epik_Metal_State_Penalty>
-0

> <b_epik_Metal_Only>
0

> <s_lp_Force_Field>
OPLS_2005

> <r_lp_Energy>
0.628987

> <b_lp_Chiralities_Consistent>
1

> <s_lp_Variant>
AV-unprocessed.smi:2878-3

> <Gold.Version>
5.8.1

> <Gold.Id.Protein>
6NUR|6NUR_protein|mol2

> <Gold.PLP.Fitness>
35.1128

> <Gold.PLP.PLP>
-27.2622

> <Gold.PLP.part.hbond>
-3.0000

> <Gold.PLP.part.metal>
0.0000

> <Gold.PLP.part.buried>
-4.6748

> <Gold.PLP.part.nonpolar>
-19.4933

> <Gold.PLP.part.repulsive>
0.0973

> <Gold.PLP.ligand.clash>
0.0000

> <Gold.PLP.ligand.torsion>
0.5855

> <Gold.PLP.Chemscore.Hbond>
2.9920

> <Gold.PLP.Chemscore.CHOScore>
0.0000

> <Gold.PLP.Chemscore.Metal>
0.0000

> <Gold.Chemscore.Hbonds>
donor molecule, donor type, donor heavy atom, donor atom, acceptor molecule, acceptor atom, score
      L1  H     9    34       P1  7948  1.00
      L1  H    12    35       P1  7948  0.98
      P1  H  7997  8010       L1    19  1.00

> <Gold.PLP.Chemscore.Internal.Correction>
0.0455

> <Gold.Rescore>
     Score         DG    S(hbond)    S(metal)    S(lipo)     H(rot)  DE(clash)    DE(int)     intcor
     15.18     -15.65       2.81        0.00      52.40       2.09       0.00       0.46       ----

> <Gold.Chemscore.Fitness>
15.1849

> <Gold.Chemscore.DG>
-15.6490

> <Gold.Chemscore.ZeroCoef>
-5.4800

> <Gold.Chemscore.Hbond>
2.8128

> <Gold.Chemscore.Metal>
0.0000

> <Gold.Chemscore.Lipo>
52.3973

> <Gold.Chemscore.Internal_Hbond>
0.0000

> <Gold.Chemscore.DEClash>
0.0048

> <Gold.Chemscore.DEInternal>
0.4592

> <Gold.Chemscore.Rot>
2.0923

> <Gold.Chemscore.Internal.Correction>
   9.000000E+99

> <Gold.Chemscore.Hbonds>
donor molecule, donor type, donor heavy atom, donor atom, acceptor molecule, acceptor atom, score
      L1  H     9    34       P1  7948  0.99
      L1  H    12    35       P1  7948  0.93
      P1  H  7997  8010       L1    19  0.44

> <Gold.Chemscore.Hbond.Weighted>
-9.3947

> <Gold.Chemscore.Metal.Weighted>
-0.0000

> <Gold.Chemscore.Lipo.Weighted>
-6.1305

> <Gold.Chemscore.Internal_Hbond.Weighted>
0.0000

> <Gold.Chemscore.DEClash.Weighted>
0.0048

> <Gold.Chemscore.DEInternal.Weighted>
0.4592

> <Gold.Chemscore.Rot.Weighted>
5.3562

> <Gold.Chemscore.Internal.Correction.Weighted>
   9.000000E+99

> <Gold.Protein.RotatedTorsions>
[ 6907 6896 6895 6894 ] final   68.77 input  -60.11 | X-H torsion
[ 7974 7965 7964 7962 ] final -158.13 input  175.53 | X-H torsion
[ 8008 7997 7996 7995 ] final   50.61 input   59.86 | X-H torsion
[ 10167 10162 10161 10158 ] final   29.08 input  -65.29 | X-H torsion
[ 10718 10713 10712 10709 ] final  109.37 input   66.30 | X-H torsion
[ 10763 10752 10751 10750 ] final  162.06 input  -60.55 | X-H torsion
[ 11005 11000 10999 10996 ] final  127.14 input  -57.11 | X-H torsion

> <Gold.Protein.ActiveResidues>
 VAL166  LYS551  ARG553  GLY616  TRP617  ASP618  TYR619  PRO620  LYS621  CYS622 
 ASP623  PHE694  ASN695  SER759  ASP760  ASP761  ALA762  ILE779  LEU786  VAL792 
 PHE793  MET794  SER795  GLU796  ALA797  LYS798  CYS799  TRP800  GLU811  SER814 

> <Gold.Protein.RotatedAtoms>
  152.4643  134.5113  159.9754 H   0  0  0  0  0  0  0  0  0  0  0  0  # atno 6907 bound_to 6896
  151.5154  133.3471  159.2900 H   0  0  0  0  0  0  0  0  0  0  0  0  # atno 6908 bound_to 6896
  150.8619  134.8002  159.7152 H   0  0  0  0  0  0  0  0  0  0  0  0  # atno 6909 bound_to 6896
  144.7518  140.3870  143.6042 H   0  0  0  0  0  0  0  0  0  0  0  0  # atno 7974 bound_to 7965
  155.4217  140.3447  155.4272 H   0  0  0  0  0  0  0  0  0  0  0  0  # atno 8008 bound_to 7997
  156.1389  140.1536  156.8982 H   0  0  0  0  0  0  0  0  0  0  0  0  # atno 8009 bound_to 7997
  154.4955  140.0829  156.7667 H   0  0  0  0  0  0  0  0  0  0  0  0  # atno 8010 bound_to 7997
  140.4797  144.0635  150.6261 H   0  0  0  0  0  0  0  0  0  0  0  0  # atno 10167 bound_to 10162
  157.6544  131.0912  150.6444 H   0  0  0  0  0  0  0  0  0  0  0  0  # atno 10718 bound_to 10713
  154.2725  135.2765  155.2732 H   0  0  0  0  0  0  0  0  0  0  0  0  # atno 10763 bound_to 10752
  154.5289  135.5735  153.6746 H   0  0  0  0  0  0  0  0  0  0  0  0  # atno 10764 bound_to 10752
  152.9943  135.6223  154.2880 H   0  0  0  0  0  0  0  0  0  0  0  0  # atno 10765 bound_to 10752
  139.9492  134.9625  156.8811 H   0  0  0  0  0  0  0  0  0  0  0  0  # atno 11005 bound_to 11000
  145.6916  139.1640  143.2643 LP  0  0  0  0  0  0  0  0  0  0  0  0  # atno 17320 bound_to 7965
  146.1479  140.6967  142.9336 LP  0  0  0  0  0  0  0  0  0  0  0  0  # atno 17321 bound_to 7965
  140.3874  143.2770  152.0100 LP  0  0  0  0  0  0  0  0  0  0  0  0  # atno 17342 bound_to 10162
  139.4831  144.6106  151.7441 LP  0  0  0  0  0  0  0  0  0  0  0  0  # atno 17343 bound_to 10162
  156.6752  130.4551  149.5645 LP  0  0  0  0  0  0  0  0  0  0  0  0  # atno 17370 bound_to 10713
  156.1969  130.6595  151.1124 LP  0  0  0  0  0  0  0  0  0  0  0  0  # atno 17371 bound_to 10713
  140.5760  134.0398  155.7447 LP  0  0  0  0  0  0  0  0  0  0  0  0  # atno 17394 bound_to 11000
  141.1151  133.9554  157.2838 LP  0  0  0  0  0  0  0  0  0  0  0  0  # atno 17395 bound_to 11000

$$$$
