AV-unprocessed.smi:2327|AV-procd|sdf|9298|dock6
  -GOLD-   2272012523D 1   1.00000     0.00000
 Structure written by MMmdl.
 40 41  0  0  0  0  0  0  0  0  1 V2000
  146.4045  130.2158  152.5542 C   0  0  0  0  0  0  0  0  0  0  0  0
  145.6049  131.2946  151.8937 C   0  0  0  0  0  0  0  0  0  0  0  0
  144.8053  131.1685  150.7854 C   0  0  0  0  0  0  0  0  0  0  0  0
  144.0582  132.6801  150.3484 S   0  0  0  0  0  0  0  0  0  0  0  0
  144.8758  133.4436  151.7080 C   0  0  0  0  0  0  0  0  0  0  0  0
  144.7013  134.8905  152.0616 C   0  0  2  0  0  0  0  0  0  0  0  0
  143.2515  135.2268  152.4377 C   0  0  0  0  0  0  0  0  0  0  0  0
  145.2871  135.8436  150.9981 C   0  0  0  0  0  0  0  0  0  0  0  0
  146.3872  136.6407  151.5291 N   0  0  0  0  0  0  0  0  0  0  0  0
  146.2537  137.7172  152.3205 C   0  0  0  0  0  0  0  0  0  0  0  0
  145.1705  138.2369  152.5818 O   0  0  0  0  0  0  0  0  0  0  0  0
  147.4110  138.1984  152.8076 N   0  0  0  0  0  0  0  0  0  0  0  0
  147.6038  139.3504  153.6912 C   0  0  0  0  0  0  0  0  0  0  0  0
  147.1217  140.6281  152.9886 C   0  0  0  0  0  0  0  0  0  0  0  0
  147.4421  141.8686  153.8378 C   0  0  0  0  0  0  0  0  0  0  0  0
  148.8386  141.9247  154.1087 O   0  0  0  0  0  0  0  0  0  0  0  0
  149.3020  140.8115  154.8656 C   0  0  0  0  0  0  0  0  0  0  0  0
  149.0845  139.5096  154.0774 C   0  0  0  0  0  0  0  0  0  0  0  0
  145.6297  132.5926  152.4112 N   0  0  0  0  0  0  0  0  0  0  0  0
  146.3624  129.2849  151.9883 H   0  0  0  0  0  0  0  0  0  0  0  0
  146.0325  130.0089  153.5578 H   0  0  0  0  0  0  0  0  0  0  0  0
  147.4534  130.4998  152.6412 H   0  0  0  0  0  0  0  0  0  0  0  0
  144.6116  130.2816  150.2004 H   0  0  0  0  0  0  0  0  0  0  0  0
  145.2870  135.0478  152.9686 H   0  0  0  0  0  0  0  0  0  0  0  0
  142.9047  134.6017  153.2610 H   0  0  0  0  0  0  0  0  0  0  0  0
  142.5770  135.0732  151.5947 H   0  0  0  0  0  0  0  0  0  0  0  0
  143.1595  136.2670  152.7514 H   0  0  0  0  0  0  0  0  0  0  0  0
  145.6822  135.2624  150.1644 H   0  0  0  0  0  0  0  0  0  0  0  0
  144.5097  136.4880  150.5844 H   0  0  0  0  0  0  0  0  0  0  0  0
  147.3206  136.2997  151.3506 H   0  0  0  0  0  0  0  0  0  0  0  0
  148.2564  137.7789  152.4477 H   0  0  0  0  0  0  0  0  0  0  0  0
  147.0072  139.2276  154.5976 H   0  0  0  0  0  0  0  0  0  0  0  0
  147.6077  140.7252  152.0166 H   0  0  0  0  0  0  0  0  0  0  0  0
  146.0490  140.5729  152.7983 H   0  0  0  0  0  0  0  0  0  0  0  0
  147.1506  142.7730  153.3035 H   0  0  0  0  0  0  0  0  0  0  0  0
  146.8791  141.8564  154.7726 H   0  0  0  0  0  0  0  0  0  0  0  0
  150.3627  140.9474  155.0773 H   0  0  0  0  0  0  0  0  0  0  0  0
  148.7883  140.7734  155.8275 H   0  0  0  0  0  0  0  0  0  0  0  0
  149.4214  138.6584  154.6698 H   0  0  0  0  0  0  0  0  0  0  0  0
  149.7020  139.5274  153.1783 H   0  0  0  0  0  0  0  0  0  0  0  0
  1  2  1  0  0  0  0
  1 20  1  0  0  0  0
  1 21  1  0  0  0  0
  1 22  1  0  0  0  0
  2 19  1  0  0  0  0
  2  3  2  0  0  0  0
  3  4  1  0  0  0  0
  3 23  1  0  0  0  0
  4  5  1  0  0  0  0
  5  6  1  0  0  0  0
  5 19  2  0  0  0  0
  6  7  1  0  0  0  0
  6  8  1  0  0  0  0
  6 24  1  0  0  0  0
  7 25  1  0  0  0  0
  7 26  1  0  0  0  0
  7 27  1  0  0  0  0
  8  9  1  0  0  0  0
  8 28  1  0  0  0  0
  8 29  1  0  0  0  0
  9 10  1  0  0  0  0
  9 30  1  0  0  0  0
 10 11  2  0  0  0  0
 10 12  1  0  0  0  0
 12 13  1  0  0  0  0
 12 31  1  0  0  0  0
 13 18  1  0  0  0  0
 13 14  1  0  0  0  0
 13 32  1  0  0  0  0
 14 15  1  0  0  0  0
 14 33  1  0  0  0  0
 14 34  1  0  0  0  0
 15 16  1  0  0  0  0
 15 35  1  0  0  0  0
 15 36  1  0  0  0  0
 16 17  1  0  0  0  0
 17 18  1  0  0  0  0
 17 37  1  0  0  0  0
 17 38  1  0  0  0  0
 18 39  1  0  0  0  0
 18 40  1  0  0  0  0
M  END
> <s_m_source_file>
AV-unprocessed.smi

> <i_m_source_file_index>
2327

> <i_lp_mmshare_version>
43012

> <i_f3d_flags>
0

> <s_epik_input>
W0NIM11jMVtjSF1zYyhuMSlbQ0BIXShbQ0gzXSlbQ0gyXVtOSF1DKD1PKVtOSF1bQ0hdMltDSDJdW0NIMl1PW0NIMl1bQ0gyXTI=

> <s_epik_cmdline>
J2VwaWtfcHl0aG9uJywgJy1waCcsICc3LjAnLCAnLXRuJywgJzgnLCAnLW1hJywgJzIwMCcsICctbWV0YWxfYmluZGluZycsICctaW1hZScsICc8aW5maWxlLm1hZT4nLCAnLW9tYWUnLCAnPG91dGZpbGUubWFlPic=

> <r_epik_Ionization_Penalty>
0.0015425

> <r_epik_Ionization_Penalty_Charging>
0

> <r_epik_Ionization_Penalty_Neutral>
0.0015425

> <r_epik_State_Penalty>
0.000998134

> <r_epik_Charging_Adjusted_Penalty>
0.000998134

> <i_epik_Tot_Q>
0

> <i_epik_Tot_abs_Q>
0

> <r_epik_Metal_State_Penalty>
-0

> <b_epik_Metal_Only>
0

> <s_lp_Force_Field>
OPLS_2005

> <r_lp_Energy>
7.05585

> <b_lp_Chiralities_Consistent>
1

> <s_lp_Variant>
AV-unprocessed.smi:2327-1

> <Gold.Version>
5.8.1

> <Gold.Id.Protein>
6NUR|6NUR_protein|mol2

> <Gold.PLP.Fitness>
39.3246

> <Gold.PLP.PLP>
-33.9534

> <Gold.PLP.part.hbond>
-3.0605

> <Gold.PLP.part.metal>
0.0000

> <Gold.PLP.part.buried>
-4.5134

> <Gold.PLP.part.nonpolar>
-29.8279

> <Gold.PLP.part.repulsive>
3.7466

> <Gold.PLP.ligand.clash>
0.0000

> <Gold.PLP.ligand.torsion>
0.9145

> <Gold.PLP.Chemscore.Hbond>
2.3568

> <Gold.PLP.Chemscore.CHOScore>
0.0000

> <Gold.PLP.Chemscore.Metal>
0.0000

> <Gold.Chemscore.Hbonds>
donor molecule, donor type, donor heavy atom, donor atom, acceptor molecule, acceptor atom, score
      L1  H     9    30       P1  7948  0.99
      L1  H    12    31       P1  7948  0.88
      P1  H  8011  8017       L1    16  0.41

> <Gold.PLP.Chemscore.Internal.Correction>
0.1298

> <Gold.Rescore>
     Score         DG    S(hbond)    S(metal)    S(lipo)     H(rot)  DE(clash)    DE(int)     intcor
     15.79     -18.48       1.89        0.00      90.76       1.53       1.73       0.95       ----

> <Gold.Chemscore.Fitness>
15.7913

> <Gold.Chemscore.DG>
-18.4759

> <Gold.Chemscore.ZeroCoef>
-5.4800

> <Gold.Chemscore.Hbond>
1.8864

> <Gold.Chemscore.Metal>
0.0000

> <Gold.Chemscore.Lipo>
90.7594

> <Gold.Chemscore.Internal_Hbond>
0.0000

> <Gold.Chemscore.DEClash>
1.7301

> <Gold.Chemscore.DEInternal>
0.9545

> <Gold.Chemscore.Rot>
1.5325

> <Gold.Chemscore.Internal.Correction>
   9.000000E+99

> <Gold.Chemscore.Hbonds>
donor molecule, donor type, donor heavy atom, donor atom, acceptor molecule, acceptor atom, score
      L1  H     9    30       P1  7948  0.93
      L1  H    12    31       P1  7948  0.87
      P1  H  8011  8017       L1    16  0.23

> <Gold.Chemscore.Hbond.Weighted>
-6.3004

> <Gold.Chemscore.Metal.Weighted>
-0.0000

> <Gold.Chemscore.Lipo.Weighted>
-10.6189

> <Gold.Chemscore.Internal_Hbond.Weighted>
0.0000

> <Gold.Chemscore.DEClash.Weighted>
1.7301

> <Gold.Chemscore.DEInternal.Weighted>
0.9545

> <Gold.Chemscore.Rot.Weighted>
3.9233

> <Gold.Chemscore.Internal.Correction.Weighted>
   9.000000E+99

> <Gold.Protein.RotatedTorsions>
[ 6907 6896 6895 6894 ] final -152.53 input  -60.11 | X-H torsion
[ 7974 7965 7964 7962 ] final -113.42 input  175.53 | X-H torsion
[ 8008 7997 7996 7995 ] final  -10.65 input   59.86 | X-H torsion
[ 10167 10162 10161 10158 ] final  -66.77 input  -65.29 | X-H torsion
[ 10718 10713 10712 10709 ] final  149.58 input   66.30 | X-H torsion
[ 10763 10752 10751 10750 ] final -110.28 input  -60.55 | X-H torsion
[ 11005 11000 10999 10996 ] final  149.05 input  -57.11 | X-H torsion

> <Gold.Protein.ActiveResidues>
 VAL166  LYS551  ARG553  GLY616  TRP617  ASP618  TYR619  PRO620  LYS621  CYS622 
 ASP623  PHE694  ASN695  SER759  ASP760  ASP761  ALA762  ILE779  LEU786  VAL792 
 PHE793  MET794  SER795  GLU796  ALA797  LYS798  CYS799  TRP800  GLU811  SER814 

> <Gold.Protein.RotatedAtoms>
  151.2291  133.4460  159.2602 H   0  0  0  0  0  0  0  0  0  0  0  0  # atno 6907 bound_to 6896
  151.0812  134.9859  159.8367 H   0  0  0  0  0  0  0  0  0  0  0  0  # atno 6908 bound_to 6896
  152.5424  134.2230  159.8848 H   0  0  0  0  0  0  0  0  0  0  0  0  # atno 6909 bound_to 6896
  145.1322  140.8731  143.3751 H   0  0  0  0  0  0  0  0  0  0  0  0  # atno 7974 bound_to 7965
  154.5535  140.2323  155.8447 H   0  0  0  0  0  0  0  0  0  0  0  0  # atno 8008 bound_to 7997
  156.1968  140.3063  155.9404 H   0  0  0  0  0  0  0  0  0  0  0  0  # atno 8009 bound_to 7997
  155.3025  140.0432  157.3021 H   0  0  0  0  0  0  0  0  0  0  0  0  # atno 8010 bound_to 7997
  140.5633  143.2313  151.6685 H   0  0  0  0  0  0  0  0  0  0  0  0  # atno 10167 bound_to 10162
  157.2943  131.0859  151.1439 H   0  0  0  0  0  0  0  0  0  0  0  0  # atno 10718 bound_to 10713
  154.8239  135.4570  154.0861 H   0  0  0  0  0  0  0  0  0  0  0  0  # atno 10763 bound_to 10752
  153.2191  135.6892  153.8028 H   0  0  0  0  0  0  0  0  0  0  0  0  # atno 10764 bound_to 10752
  153.7451  135.3306  155.3288 H   0  0  0  0  0  0  0  0  0  0  0  0  # atno 10765 bound_to 10752
  140.1011  134.8982  157.1797 H   0  0  0  0  0  0  0  0  0  0  0  0  # atno 11005 bound_to 11000
  145.0623  139.3096  143.5874 LP  0  0  0  0  0  0  0  0  0  0  0  0  # atno 17320 bound_to 7965
  146.3513  140.0069  142.8671 LP  0  0  0  0  0  0  0  0  0  0  0  0  # atno 17321 bound_to 7965
  139.5080  144.3625  152.0548 LP  0  0  0  0  0  0  0  0  0  0  0  0  # atno 17342 bound_to 10162
  140.2754  144.3918  150.6137 LP  0  0  0  0  0  0  0  0  0  0  0  0  # atno 17343 bound_to 10162
  157.2823  130.6756  149.6072 LP  0  0  0  0  0  0  0  0  0  0  0  0  # atno 17370 bound_to 10713
  155.9668  130.4446  150.5468 LP  0  0  0  0  0  0  0  0  0  0  0  0  # atno 17371 bound_to 10713
  140.3218  134.2907  155.7245 LP  0  0  0  0  0  0  0  0  0  0  0  0  # atno 17394 bound_to 11000
  141.2106  133.7715  156.9922 LP  0  0  0  0  0  0  0  0  0  0  0  0  # atno 17395 bound_to 11000

$$$$
