AV-unprocessed.smi:44|AV-procd|sdf|396|dock4
  -GOLD-   2262016253D 1   1.00000     0.00000
 Structure written by MMmdl.
 29 31  0  0  0  0  0  0  0  0  1 V2000
  152.2280  137.8265  154.6424 O   0  0  0  0  0  0  0  0  0  0  0  0
  152.2556  138.4148  155.7213 C   0  0  0  0  0  0  0  0  0  0  0  0
  152.8851  137.9375  156.8228 N   0  0  0  0  0  0  0  0  0  0  0  0
  152.9192  138.6104  158.0703 C   0  0  0  0  0  0  0  0  0  0  0  0
  152.3543  139.7645  158.3167 N   0  0  0  0  0  0  0  0  0  0  0  0
  151.7076  140.2748  157.2090 C   0  0  0  0  0  0  0  0  0  0  0  0
  151.6033  139.7239  155.9599 C   0  0  0  0  0  0  0  0  0  0  0  0
  150.8665  140.5366  155.1079 N   0  0  0  0  0  0  0  0  0  0  0  0
  150.5541  141.5627  155.8968 C   0  0  0  0  0  0  0  0  0  0  0  0
  151.0178  141.4822  157.1604 N   0  0  0  0  0  0  0  0  0  0  0  0
  150.8283  142.4685  158.2678 C   0  0  2  0  0  0  0  0  0  0  0  0
  151.5298  143.7883  157.9272 C   0  0  0  0  0  0  0  0  0  0  0  0
  152.1804  144.1378  159.2475 C   0  0  0  0  0  0  0  0  0  0  0  0
  152.5568  142.7537  159.7725 C   0  0  1  0  0  0  0  0  0  0  0  0
  152.8018  142.6902  161.2866 C   0  0  0  0  0  0  0  0  0  0  0  0
  151.6146  142.9943  161.9874 O   0  0  0  0  0  0  0  0  0  0  0  0
  151.4264  141.9604  159.4255 O   0  0  0  0  0  0  0  0  0  0  0  0
  153.3548  137.0477  156.7421 H   0  0  0  0  0  0  0  0  0  0  0  0
  149.7510  142.5595  158.4075 H   0  0  0  0  0  0  0  0  0  0  0  0
  153.4245  142.3729  159.2312 H   0  0  0  0  0  0  0  0  0  0  0  0
  153.4766  138.0637  158.8324 H   0  0  0  0  0  0  0  0  0  0  0  0
  149.9681  142.3981  155.5436 H   0  0  0  0  0  0  0  0  0  0  0  0
  152.2895  143.6294  157.1598 H   0  0  0  0  0  0  0  0  0  0  0  0
  150.8170  144.5346  157.5755 H   0  0  0  0  0  0  0  0  0  0  0  0
  153.0396  144.8000  159.1371 H   0  0  0  0  0  0  0  0  0  0  0  0
  151.4569  144.6182  159.9079 H   0  0  0  0  0  0  0  0  0  0  0  0
  153.1608  141.7046  161.5844 H   0  0  0  0  0  0  0  0  0  0  0  0
  153.5666  143.4126  161.5729 H   0  0  0  0  0  0  0  0  0  0  0  0
  151.8473  143.3633  162.8256 H   0  0  0  0  0  0  0  0  0  0  0  0
  1  2  2  0  0  0  0
  2  7  1  0  0  0  0
  2  3  1  0  0  0  0
  3 18  1  0  0  0  0
  3  4  1  0  0  0  0
  4  5  2  0  0  0  0
  4 21  1  0  0  0  0
  5  6  1  0  0  0  0
  6 10  1  0  0  0  0
  6  7  2  0  0  0  0
  7  8  1  0  0  0  0
  8  9  2  0  0  0  0
  9 10  1  0  0  0  0
  9 22  1  0  0  0  0
 10 11  1  0  0  0  0
 11 19  1  0  0  0  0
 11 17  1  0  0  0  0
 11 12  1  0  0  0  0
 12 13  1  0  0  0  0
 12 23  1  0  0  0  0
 12 24  1  0  0  0  0
 13 14  1  0  0  0  0
 13 25  1  0  0  0  0
 13 26  1  0  0  0  0
 14 20  1  0  0  0  0
 14 15  1  0  0  0  0
 14 17  1  0  0  0  0
 15 16  1  0  0  0  0
 15 27  1  0  0  0  0
 15 28  1  0  0  0  0
 16 29  1  0  0  0  0
M  END
> <s_m_source_file>
AV-unprocessed.smi

> <i_m_source_file_index>
44

> <i_lp_mmshare_version>
43012

> <i_f3d_flags>
0

> <s_epik_input>
bjFbY0hdW25IXWMoPU8pYyhjMTIpbltjSF1uMltDQEhdM1tDSDJdW0NIMl1bQ0BIXShPMylbQ0gyXVtPSF0=

> <s_epik_cmdline>
J2VwaWtfcHl0aG9uJywgJy1waCcsICc3LjAnLCAnLXRuJywgJzgnLCAnLW1hJywgJzIwMCcsICctbWV0YWxfYmluZGluZycsICctaW1hZScsICc8aW5maWxlLm1hZT4nLCAnLW9tYWUnLCAnPG91dGZpbGUubWFlPic=

> <r_lp_tautomer_probability>
0.85571

> <r_epik_Ionization_Penalty>
0.00801444

> <r_epik_Ionization_Penalty_Charging>
0.00794574

> <r_epik_Ionization_Penalty_Neutral>
6.87072e-05

> <r_epik_State_Penalty>
0.0826172

> <r_epik_Charging_Adjusted_Penalty>
0.090563

> <i_epik_Tot_Q>
0

> <i_epik_Tot_abs_Q>
0

> <r_epik_Metal_State_Penalty>
0.440697

> <b_epik_Metal_Only>
0

> <s_epik_Chemistry_Notes>
This compound contains an acetal/aminal-like group ( X-CH(R)-Y where X, Y are N, S, or O) that may be acid/base labile, releasing an aldehyde.

> <s_lp_Force_Field>
OPLS_2005

> <r_lp_Energy>
42.0168

> <b_lp_Chiralities_Consistent>
1

> <s_lp_Variant>
AV-unprocessed.smi:44-2

> <Gold.Version>
5.8.1

> <Gold.Id.Protein>
6NUR|6NUR_protein|mol2

> <Gold.PLP.Fitness>
46.1349

> <Gold.PLP.PLP>
-37.4219

> <Gold.PLP.part.hbond>
-4.0188

> <Gold.PLP.part.metal>
0.0000

> <Gold.PLP.part.buried>
-6.2321

> <Gold.PLP.part.nonpolar>
-28.2666

> <Gold.PLP.part.repulsive>
0.2897

> <Gold.PLP.ligand.clash>
0.0000

> <Gold.PLP.ligand.torsion>
0.0499

> <Gold.PLP.Chemscore.Hbond>
2.0117

> <Gold.PLP.Chemscore.CHOScore>
0.9221

> <Gold.PLP.Chemscore.Metal>
0.0000

> <Gold.Chemscore.Hbonds>
donor molecule, donor type, donor heavy atom, donor atom, acceptor molecule, acceptor atom, score
      P1  H  6933  6945       L1    16  0.77
      P1  H  7989  7998       L1     8  0.99
      P1  H 10752 10765       L1     1  0.23
      L1  C     9    22       P1  8028  0.92

> <Gold.PLP.Chemscore.Internal.Correction>
0.0113

> <Gold.Rescore>
     Score         DG    S(hbond)    S(metal)    S(lipo)     H(rot)  DE(clash)    DE(int)     intcor
     10.88     -13.03       2.16        0.00      52.48       2.27       0.52       1.63       ----

> <Gold.Chemscore.Fitness>
10.8839

> <Gold.Chemscore.DG>
-13.0260

> <Gold.Chemscore.ZeroCoef>
-5.4800

> <Gold.Chemscore.Hbond>
2.1624

> <Gold.Chemscore.Metal>
0.0000

> <Gold.Chemscore.Lipo>
52.4790

> <Gold.Chemscore.Internal_Hbond>
0.0000

> <Gold.Chemscore.DEClash>
0.5153

> <Gold.Chemscore.DEInternal>
1.6268

> <Gold.Chemscore.Rot>
2.2720

> <Gold.Chemscore.Internal.Correction>
   9.000000E+99

> <Gold.Chemscore.Hbonds>
donor molecule, donor type, donor heavy atom, donor atom, acceptor molecule, acceptor atom, score
      P1  H  6933  6945       L1    16  0.47
      P1  H  7989  7998       L1     8  0.83
      P1  H 10752 10765       L1     1  0.24

> <Gold.Chemscore.Hbond.Weighted>
-7.2224

> <Gold.Chemscore.Metal.Weighted>
-0.0000

> <Gold.Chemscore.Lipo.Weighted>
-6.1400

> <Gold.Chemscore.Internal_Hbond.Weighted>
0.0000

> <Gold.Chemscore.DEClash.Weighted>
0.5153

> <Gold.Chemscore.DEInternal.Weighted>
1.6268

> <Gold.Chemscore.Rot.Weighted>
5.8164

> <Gold.Chemscore.Internal.Correction.Weighted>
   9.000000E+99

> <Gold.Protein.RotatedTorsions>
[ 6907 6896 6895 6894 ] final   -4.95 input  -60.11 | X-H torsion
[ 7974 7965 7964 7962 ] final  174.15 input  175.53 | X-H torsion
[ 8008 7997 7996 7995 ] final   33.93 input   59.86 | X-H torsion
[ 10167 10162 10161 10158 ] final -104.52 input  -65.29 | X-H torsion
[ 10718 10713 10712 10709 ] final  -94.55 input   66.30 | X-H torsion
[ 10763 10752 10751 10750 ] final  161.86 input  -60.55 | X-H torsion
[ 11005 11000 10999 10996 ] final   67.80 input  -57.11 | X-H torsion

> <Gold.Protein.ActiveResidues>
 VAL166  LYS551  ARG553  GLY616  TRP617  ASP618  TYR619  PRO620  LYS621  CYS622 
 ASP623  PHE694  ASN695  SER759  ASP760  ASP761  ALA762  ILE779  LEU786  VAL792 
 PHE793  MET794  SER795  GLU796  ALA797  LYS798  CYS799  TRP800  GLU811  SER814 

> <Gold.Protein.RotatedAtoms>
  151.4894  135.1056  159.9799 H   0  0  0  0  0  0  0  0  0  0  0  0  # atno 6907 bound_to 6896
  152.4747  133.8107  159.7012 H   0  0  0  0  0  0  0  0  0  0  0  0  # atno 6908 bound_to 6896
  150.8778  133.7353  159.2967 H   0  0  0  0  0  0  0  0  0  0  0  0  # atno 6909 bound_to 6896
  144.7228  139.9754  143.6438 H   0  0  0  0  0  0  0  0  0  0  0  0  # atno 7974 bound_to 7965
  155.1466  140.3271  155.4440 H   0  0  0  0  0  0  0  0  0  0  0  0  # atno 8008 bound_to 7997
  156.2588  140.1984  156.6529 H   0  0  0  0  0  0  0  0  0  0  0  0  # atno 8009 bound_to 7997
  154.6504  140.0559  156.9935 H   0  0  0  0  0  0  0  0  0  0  0  0  # atno 8010 bound_to 7997
  140.2083  143.3765  152.1071 H   0  0  0  0  0  0  0  0  0  0  0  0  # atno 10167 bound_to 10162
  156.0029  130.5072  150.5944 H   0  0  0  0  0  0  0  0  0  0  0  0  # atno 10718 bound_to 10713
  154.2694  135.2766  155.2744 H   0  0  0  0  0  0  0  0  0  0  0  0  # atno 10763 bound_to 10752
  154.5314  135.5728  153.6766 H   0  0  0  0  0  0  0  0  0  0  0  0  # atno 10764 bound_to 10752
  152.9948  135.6228  154.2848 H   0  0  0  0  0  0  0  0  0  0  0  0  # atno 10765 bound_to 10752
  139.9749  134.6839  156.0374 H   0  0  0  0  0  0  0  0  0  0  0  0  # atno 11005 bound_to 11000
  146.0530  139.3529  143.0628 LP  0  0  0  0  0  0  0  0  0  0  0  0  # atno 17320 bound_to 7965
  145.8191  140.9688  143.0908 LP  0  0  0  0  0  0  0  0  0  0  0  0  # atno 17321 bound_to 7965
  139.5190  144.7013  151.5485 LP  0  0  0  0  0  0  0  0  0  0  0  0  # atno 17342 bound_to 10162
  140.6341  143.9018  150.6632 LP  0  0  0  0  0  0  0  0  0  0  0  0  # atno 17343 bound_to 10162
  157.3803  131.0780  151.1482 LP  0  0  0  0  0  0  0  0  0  0  0  0  # atno 17370 bound_to 10713
  157.2207  130.6480  149.5810 LP  0  0  0  0  0  0  0  0  0  0  0  0  # atno 17371 bound_to 10713
  141.1427  133.6562  156.3775 LP  0  0  0  0  0  0  0  0  0  0  0  0  # atno 17394 bound_to 11000
  140.5216  134.6299  157.5320 LP  0  0  0  0  0  0  0  0  0  0  0  0  # atno 17395 bound_to 11000

$$$$
