AV-unprocessed.smi:157|AV-procd|sdf|1322|dock6
  -GOLD-   2262019 13D 1   1.00000     0.00000
 Structure written by MMmdl.
 36 38  0  0  0  0  0  0  0  0  2 V2000
  142.8414  132.1430  148.9510 O   0  0  0  0  0  0  0  0  0  0  0  0
  144.1725  132.6128  148.9626 C   0  0  0  0  0  0  0  0  0  0  0  0
  144.6977  132.6878  150.4044 C   0  0  2  0  0  0  0  0  0  0  0  0
  143.9021  133.6277  151.1247 O   0  0  0  0  0  0  0  0  0  0  0  0
  144.7271  134.2854  152.0257 C   0  0  2  0  0  0  0  0  0  0  0  0
  144.1044  135.5894  152.4028 N   0  0  0  0  0  0  0  0  0  0  0  0
  144.6580  136.8147  152.2820 C   0  0  0  0  0  0  0  0  0  0  0  0
  143.8858  137.8040  152.6988 N   0  3  0  0  0  0  0  0  0  0  0  0
  142.7175  137.2260  153.1485 C   0  0  0  0  0  0  0  0  0  0  0  0
  142.8697  135.8515  152.9491 C   0  0  0  0  0  0  0  0  0  0  0  0
  141.9872  134.7974  153.2306 N   0  0  0  0  0  0  0  0  0  0  0  0
  140.7328  134.9773  153.4892 C   0  0  0  0  0  0  0  0  0  0  0  0
  140.0292  136.1619  153.6300 N   0  0  0  0  0  0  0  0  0  0  0  0
  140.5114  137.2886  154.4091 C   0  0  0  0  0  0  0  0  0  0  0  0
  141.6300  138.0809  153.7198 C   0  0  2  0  0  0  0  0  0  0  0  0
  141.0511  138.9388  152.7581 O   0  0  0  0  0  0  0  0  0  0  0  0
  146.0324  134.5036  151.2786 C   0  0  0  0  0  0  0  0  0  0  0  0
  146.1540  133.1946  150.5165 C   0  0  1  0  0  0  0  0  0  0  0  0
  146.9362  132.2766  151.2546 O   0  0  0  0  0  0  0  0  0  0  0  0
  144.5838  131.7171  150.8912 H   0  0  0  0  0  0  0  0  0  0  0  0
  144.8337  133.7187  152.9523 H   0  0  0  0  0  0  0  0  0  0  0  0
  142.0817  138.7319  154.4692 H   0  0  0  0  0  0  0  0  0  0  0  0
  146.6229  133.3496  149.5440 H   0  0  0  0  0  0  0  0  0  0  0  0
  142.2600  132.8830  149.0399 H   0  0  0  0  0  0  0  0  0  0  0  0
  144.7985  131.9616  148.3516 H   0  0  0  0  0  0  0  0  0  0  0  0
  144.1897  133.6018  148.5042 H   0  0  0  0  0  0  0  0  0  0  0  0
  145.6439  136.9699  151.8816 H   0  0  0  0  0  0  0  0  0  0  0  0
  140.0942  134.1044  153.6321 H   0  0  0  0  0  0  0  0  0  0  0  0
  139.0198  136.1280  153.6158 H   0  0  0  0  0  0  0  0  0  0  0  0
  139.6759  137.9414  154.6640 H   0  0  0  0  0  0  0  0  0  0  0  0
  140.8873  136.8949  155.3547 H   0  0  0  0  0  0  0  0  0  0  0  0
  141.6064  139.6954  152.6501 H   0  0  0  0  0  0  0  0  0  0  0  0
  145.9145  135.3367  150.5838 H   0  0  0  0  0  0  0  0  0  0  0  0
  146.8569  134.7174  151.9603 H   0  0  0  0  0  0  0  0  0  0  0  0
  147.7204  132.0865  150.7619 H   0  0  0  0  0  0  0  0  0  0  0  0
  144.1166  138.7895  152.6947 H   0  0  0  0  0  0  0  0  0  0  0  0
  1  2  1  0  0  0  0
  1 24  1  0  0  0  0
  2  3  1  0  0  0  0
  2 25  1  0  0  0  0
  2 26  1  0  0  0  0
  3 20  1  0  0  0  0
  3 18  1  0  0  0  0
  3  4  1  0  0  0  0
  4  5  1  0  0  0  0
  5 21  1  0  0  0  0
  5  6  1  0  0  0  0
  5 17  1  0  0  0  0
  6 10  1  0  0  0  0
  6  7  1  0  0  0  0
  7  8  2  0  0  0  0
  7 27  1  0  0  0  0
  8  9  1  0  0  0  0
  8 36  1  0  0  0  0
  9 15  1  0  0  0  0
  9 10  2  0  0  0  0
 10 11  1  0  0  0  0
 11 12  2  0  0  0  0
 12 13  1  0  0  0  0
 12 28  1  0  0  0  0
 13 14  1  0  0  0  0
 13 29  1  0  0  0  0
 14 15  1  0  0  0  0
 14 30  1  0  0  0  0
 14 31  1  0  0  0  0
 15 22  1  0  0  0  0
 15 16  1  0  0  0  0
 16 32  1  0  0  0  0
 17 18  1  0  0  0  0
 17 33  1  0  0  0  0
 17 34  1  0  0  0  0
 18 23  1  0  0  0  0
 18 19  1  0  0  0  0
 19 35  1  0  0  0  0
M  CHG  1   8   1
M  END
> <s_m_source_file>
AV-unprocessed.smi

> <i_m_source_file_index>
157

> <i_lp_mmshare_version>
43012

> <i_f3d_flags>
0

> <s_epik_input>
W09IXVtDSDJdW0NASF0xT1tDQEhdKFtDSDJdW0NAQEhdMVtPSF0pbihbY0hdbjIpYyhjMjMpTj1bQ0hdW05IXVtDSDJdW0NASF0zW09IXQ==

> <s_epik_cmdline>
J2VwaWtfcHl0aG9uJywgJy1waCcsICc3LjAnLCAnLXRuJywgJzgnLCAnLW1hJywgJzIwMCcsICctbWV0YWxfYmluZGluZycsICctaW1hZScsICc8aW5maWxlLm1hZT4nLCAnLW9tYWUnLCAnPG91dGZpbGUubWFlPic=

> <r_epik_Ionization_Penalty>
1.68594

> <r_epik_Ionization_Penalty_Charging>
0

> <r_epik_Ionization_Penalty_Neutral>
1.68594

> <r_epik_State_Penalty>
1.79006

> <r_epik_Charging_Adjusted_Penalty>
1.79006

> <i_epik_Tot_Q>
1

> <i_epik_Tot_abs_Q>
1

> <r_epik_Metal_State_Penalty>
5.85324

> <b_epik_Metal_Only>
0

> <s_epik_Chemistry_Notes>
This compound has an imine and may undergo hydrolysis. This compound contains an acetal/aminal-like group ( X-CH(R)-Y where X, Y are N, S, or O) that may be acid/base labile, releasing an aldehyde.

> <s_lp_Force_Field>
OPLS_2005

> <r_lp_Energy>
53.7485

> <b_lp_Chiralities_Consistent>
1

> <s_lp_Variant>
AV-unprocessed.smi:157-32

> <Gold.Version>
5.8.1

> <Gold.Id.Protein>
6NUR|6NUR_protein|mol2

> <Gold.PLP.Fitness>
54.0703

> <Gold.PLP.PLP>
-37.3491

> <Gold.PLP.part.hbond>
-8.5039

> <Gold.PLP.part.metal>
0.0000

> <Gold.PLP.part.buried>
-7.0558

> <Gold.PLP.part.nonpolar>
-23.2894

> <Gold.PLP.part.repulsive>
0.5019

> <Gold.PLP.ligand.clash>
0.0000

> <Gold.PLP.ligand.torsion>
0.0781

> <Gold.PLP.Chemscore.Hbond>
5.6178

> <Gold.PLP.Chemscore.CHOScore>
0.0000

> <Gold.PLP.Chemscore.Metal>
0.0000

> <Gold.Chemscore.Hbonds>
donor molecule, donor type, donor heavy atom, donor atom, acceptor molecule, acceptor atom, score
      L1  H     1    24       P1 10186  0.99
      L1  H     8    36       P1 10175  1.98
      L1  H    16    32       P1 10175  0.65
      L1  H    19    35       P1 10747  0.98
      P1  H 10785 10796       L1     1  0.98

> <Gold.PLP.Chemscore.Internal.Correction>
0.0240

> <Gold.Rescore>
     Score         DG    S(hbond)    S(metal)    S(lipo)     H(rot)  DE(clash)    DE(int)     intcor
     12.40     -12.82       3.37        0.00      46.71       3.67       0.40       0.03       ----

> <Gold.Chemscore.Fitness>
12.3981

> <Gold.Chemscore.DG>
-12.8208

> <Gold.Chemscore.ZeroCoef>
-5.4800

> <Gold.Chemscore.Hbond>
3.3714

> <Gold.Chemscore.Metal>
0.0000

> <Gold.Chemscore.Lipo>
46.7104

> <Gold.Chemscore.Internal_Hbond>
0.0000

> <Gold.Chemscore.DEClash>
0.3970

> <Gold.Chemscore.DEInternal>
0.0258

> <Gold.Chemscore.Rot>
3.6659

> <Gold.Chemscore.Internal.Correction>
   9.000000E+99

> <Gold.Chemscore.Hbonds>
donor molecule, donor type, donor heavy atom, donor atom, acceptor molecule, acceptor atom, score
      L1  H     1    24       P1 10186  0.92
      L1  H     8    36       P1 10175  0.94
      L1  H    16    32       P1 10175  0.11
      L1  H    19    35       P1 10747  0.93
      P1  H 10785 10796       L1     1  0.23

> <Gold.Chemscore.Hbond.Weighted>
-11.2605

> <Gold.Chemscore.Metal.Weighted>
-0.0000

> <Gold.Chemscore.Lipo.Weighted>
-5.4651

> <Gold.Chemscore.Internal_Hbond.Weighted>
0.0000

> <Gold.Chemscore.DEClash.Weighted>
0.3970

> <Gold.Chemscore.DEInternal.Weighted>
0.0258

> <Gold.Chemscore.Rot.Weighted>
9.3848

> <Gold.Chemscore.Internal.Correction.Weighted>
   9.000000E+99

> <Gold.Protein.RotatedTorsions>
[ 6907 6896 6895 6894 ] final  -77.13 input  -60.11 | X-H torsion
[ 7974 7965 7964 7962 ] final  114.41 input  175.53 | X-H torsion
[ 8008 7997 7996 7995 ] final   -1.14 input   59.86 | X-H torsion
[ 10167 10162 10161 10158 ] final   28.32 input  -65.29 | X-H torsion
[ 10718 10713 10712 10709 ] final -167.59 input   66.30 | X-H torsion
[ 10763 10752 10751 10750 ] final   31.59 input  -60.55 | X-H torsion
[ 11005 11000 10999 10996 ] final  -86.90 input  -57.11 | X-H torsion

> <Gold.Protein.ActiveResidues>
 VAL166  LYS551  ARG553  GLY616  TRP617  ASP618  TYR619  PRO620  LYS621  CYS622 
 ASP623  PHE694  ASN695  SER759  ASP760  ASP761  ALA762  ILE779  LEU786  VAL792 
 PHE793  MET794  SER795  GLU796  ALA797  LYS798  CYS799  TRP800  GLU811  SER814 

> <Gold.Protein.RotatedAtoms>
  150.7007  134.4468  159.5317 H   0  0  0  0  0  0  0  0  0  0  0  0  # atno 6907 bound_to 6896
  152.2168  134.8448  160.0500 H   0  0  0  0  0  0  0  0  0  0  0  0  # atno 6908 bound_to 6896
  151.9313  133.3577  159.3968 H   0  0  0  0  0  0  0  0  0  0  0  0  # atno 6909 bound_to 6896
  145.2048  139.2934  143.4299 H   0  0  0  0  0  0  0  0  0  0  0  0  # atno 7974 bound_to 7965
  154.6501  140.2567  155.7223 H   0  0  0  0  0  0  0  0  0  0  0  0  # atno 8008 bound_to 7997
  156.2571  140.2869  156.0853 H   0  0  0  0  0  0  0  0  0  0  0  0  # atno 8009 bound_to 7997
  155.1463  140.0381  157.2801 H   0  0  0  0  0  0  0  0  0  0  0  0  # atno 8010 bound_to 7997
  140.4862  144.0538  150.6281 H   0  0  0  0  0  0  0  0  0  0  0  0  # atno 10167 bound_to 10162
  156.6846  130.9135  151.3061 H   0  0  0  0  0  0  0  0  0  0  0  0  # atno 10718 bound_to 10713
  153.0307  135.6435  154.1223 H   0  0  0  0  0  0  0  0  0  0  0  0  # atno 10763 bound_to 10752
  154.0945  135.2864  155.3266 H   0  0  0  0  0  0  0  0  0  0  0  0  # atno 10764 bound_to 10752
  154.6442  135.5449  153.7888 H   0  0  0  0  0  0  0  0  0  0  0  0  # atno 10765 bound_to 10752
  141.1624  133.7480  156.9228 H   0  0  0  0  0  0  0  0  0  0  0  0  # atno 11005 bound_to 11000
  146.3410  140.2305  142.8593 LP  0  0  0  0  0  0  0  0  0  0  0  0  # atno 17320 bound_to 7965
  144.9912  140.8549  143.5338 LP  0  0  0  0  0  0  0  0  0  0  0  0  # atno 17321 bound_to 7965
  140.3794  143.2811  152.0187 LP  0  0  0  0  0  0  0  0  0  0  0  0  # atno 17342 bound_to 10162
  139.4842  144.6167  151.7333 LP  0  0  0  0  0  0  0  0  0  0  0  0  # atno 17343 bound_to 10162
  157.7031  130.9355  150.0847 LP  0  0  0  0  0  0  0  0  0  0  0  0  # atno 17370 bound_to 10713
  156.1842  130.3651  149.8994 LP  0  0  0  0  0  0  0  0  0  0  0  0  # atno 17371 bound_to 10713
  140.1439  134.9275  157.2504 LP  0  0  0  0  0  0  0  0  0  0  0  0  # atno 17394 bound_to 11000
  140.2803  134.3358  155.7345 LP  0  0  0  0  0  0  0  0  0  0  0  0  # atno 17395 bound_to 11000

$$$$
