#       Name:                AV-unprocessed.smi:1806
#       Creating user name   scv26
#       Creation time:       Fri Mar 27 08:55:40 2020


#       File generated by GOLD software.
#

@<TRIPOS>MOLECULE
AV-unprocessed.smi:1806
    35    36     1
SMALL
NO_CHARGES


@<TRIPOS>ATOM
      1 ****        -4.2262   2.1363   0.2733 C.3            1 S1                 0.0000
      2 ****        -3.4897   0.8294   0.0682 C.ar           1 S1                 0.0000
      3 ****        -4.1918  -0.3726  -0.1480 C.ar           1 S1                 0.0000
      4 ****        -3.4470  -1.5513  -0.3317 C.ar           1 S1                 0.0000
      5 ****        -2.0411  -1.4795  -0.2940 C.ar           1 S1                 0.0000
      6 ****        -1.4141  -0.2327  -0.0728 C.ar           1 S1                 0.0000
      7 ****         0.0053  -0.2687  -0.0528 N.am           1 S1                 0.0000
      8 ****         0.8691   0.7483   0.1348 C.2            1 S1                 0.0000
      9 ****         0.5261   1.9167   0.3245 O.2            1 S1                 0.0000
     10 ****         2.2517   0.2875   0.0828 C.2            1 S1                 0.0000
     11 ****         3.2567   1.1735   0.2725 C.2            1 S1                 0.0000
     12 ****         4.5872   0.8437   0.2040 O.3            1 S1                 0.0000
     13 ****         4.8514  -0.4463  -0.3343 C.3            1 S1                 0.0000
     14 ****         3.8360  -1.4665   0.2008 C.3            1 S1                 0.0000
     15 ****         2.5105  -1.0519  -0.1123 O.3            1 S1                 0.0000
     16 ****        -2.1416   0.8983   0.1044 N.ar           1 S1                 0.0000
     17 ****        -5.3024   1.9765   0.3441 H              1 S1                 0.0000
     18 ****        -4.0357   2.8121  -0.5609 H              1 S1                 0.0000
     19 ****        -3.8938   2.6212   1.1917 H              1 S1                 0.0000
     20 ****        -5.2715  -0.3943  -0.1723 H              1 S1                 0.0000
     21 ****        -3.9450  -2.4950  -0.4988 H              1 S1                 0.0000
     22 ****        -1.4539  -2.3756  -0.4342 H              1 S1                 0.0000
     23 ****         0.4200  -1.1776  -0.1983 H              1 S1                 0.0000
     24 ****         3.1204   2.2301   0.4548 H              1 S1                 0.0000
     25 ****         4.8039  -0.3971  -1.4230 H              1 S1                 0.0000
     26 ****         5.8666  -0.7428  -0.0700 H              1 S1                 0.0000
     27 ****         4.0152  -2.4489  -0.2359 H              1 S1                 0.0000
     28 ****         3.9342  -1.5723   1.2821 H              1 S1                 0.0000
     29 ****        -0.4447   2.1556   0.3459 LP             1 S1                 0.0000
     30 ****         1.2186   2.6258   0.4571 LP             1 S1                 0.0000
     31 ****         4.9651   0.8788   1.1292 LP             1 S1                 0.0000
     32 ****         5.0472   1.5212  -0.3699 LP             1 S1                 0.0000
     33 ****         2.3399  -1.2627  -1.0748 LP             1 S1                 0.0000
     34 ****         1.8795  -1.5753   0.4604 LP             1 S1                 0.0000
     35 ****        -1.6844   1.7739   0.2603 LP             1 S1                 0.0000
@<TRIPOS>BOND
    1    1    2 1     
    2    1   17 1     
    3    1   18 1     
    4    1   19 1     
    5    2   16 ar    
    6    2    3 ar    
    7    3    4 ar    
    8    3   20 1     
    9    4    5 ar    
   10    4   21 1     
   11    5    6 ar    
   12    5   22 1     
   13    6    7 1     
   14    6   16 ar    
   15    7    8 am    
   16    7   23 1     
   17    8    9 2     
   18    8   10 1     
   19   10   15 1     
   20   10   11 2     
   21   11   12 1     
   22   11   24 1     
   23   12   13 1     
   24   13   14 1     
   25   13   25 1     
   26   13   26 1     
   27   14   15 1     
   28   14   27 1     
   29   14   28 1     
   30    9   29 1     
   31    9   30 1     
   32   12   31 1     
   33   12   32 1     
   34   15   33 1     
   35   15   34 1     
   36   16   35 1     
@<TRIPOS>SUBSTRUCTURE
      1 S1             1
@<TRIPOS>SET
LONE_PAIRS      STATIC     ATOMS    <user>   **** ""
7 29 30 31 32 33 34 35
DONOR_HYDROGENS      STATIC     ATOMS    <user>   **** ""
1 23
ATOM$BLUE        STATIC     ATOMS    COLORGROUP SYSTEM
7 29 30 31 32 33 34 35
ATOM$RED        STATIC     ATOMS    COLORGROUP SYSTEM
1 23
