#       Name:                AV-unprocessed.smi:1947
#       Creating user name   scv26
#       Creation time:       Fri Mar 27 10:01:32 2020


#       File generated by GOLD software.
#

@<TRIPOS>MOLECULE
AV-unprocessed.smi:1947
    45    46     1
SMALL
NO_CHARGES


@<TRIPOS>ATOM
      1 ****        -1.4065   0.5680  -1.1237 C.3            1 S1                 0.0000
      2 ****        -1.8089   1.0884   0.2669 C.3            1 S1                 0.0000
      3 ****        -2.4417   2.4906   0.1628 C.3            1 S1                 0.0000
      4 ****        -2.8430   3.0388   1.5409 C.3            1 S1                 0.0000
      5 ****        -1.6429   3.0582   2.4983 C.3            1 S1                 0.0000
      6 ****        -1.0116   1.6632   2.6187 C.3            1 S1                 0.0000
      7 ****        -0.6080   1.1039   1.2390 C.3            1 S1                 0.0000
      8 ****        -0.1531  -0.2350   1.3837 O.3            1 S1                 0.0000
      9 ****         1.2160  -0.3591   1.7393 C.3            1 S1                 0.0000
     10 ****         1.6011  -1.8455   1.6958 C.3            1 S1                 0.0000
     11 ****         1.3638  -2.4239   0.3771 N.am           1 S1                 0.0000
     12 ****         2.1159  -2.2047  -0.7102 C.2            1 S1                 0.0000
     13 ****         3.1380  -1.5188  -0.7011 O.2            1 S1                 0.0000
     14 ****         1.6016  -2.8201  -1.7869 N.am           1 S1                 0.0000
     15 ****         2.0816  -2.7901  -3.1200 C.2            1 S1                 0.0000
     16 ****         1.3979  -3.4677  -4.0496 N.2            1 S1                 0.0000
     17 ****         1.9741  -3.3497  -5.3088 N.2            1 S1                 0.0000
     18 ****         3.0713  -2.5871  -5.2791 C.2            1 S1                 0.0000
     19 ****         3.5109  -1.9367  -3.7100 S.3            1 S1                 0.0000
     20 ****        -0.6404   1.1980  -1.5767 H              1 S1                 0.0000
     21 ****        -2.2630   0.5488  -1.7982 H              1 S1                 0.0000
     22 ****        -1.0115  -0.4470  -1.0704 H              1 S1                 0.0000
     23 ****        -2.5630   0.4102   0.6696 H              1 S1                 0.0000
     24 ****        -1.7380   3.1780  -0.3092 H              1 S1                 0.0000
     25 ****        -3.3189   2.4564  -0.4846 H              1 S1                 0.0000
     26 ****        -3.2518   4.0441   1.4370 H              1 S1                 0.0000
     27 ****        -3.6384   2.4231   1.9629 H              1 S1                 0.0000
     28 ****        -0.8972   3.7680   2.1376 H              1 S1                 0.0000
     29 ****        -1.9568   3.4108   3.4812 H              1 S1                 0.0000
     30 ****        -0.1450   1.7152   3.2776 H              1 S1                 0.0000
     31 ****        -1.7208   0.9846   3.0946 H              1 S1                 0.0000
     32 ****         0.1748   1.7290   0.8047 H              1 S1                 0.0000
     33 ****         1.8438   0.2101   1.0521 H              1 S1                 0.0000
     34 ****         1.3859   0.0396   2.7395 H              1 S1                 0.0000
     35 ****         2.6475  -1.9749   1.9764 H              1 S1                 0.0000
     36 ****         1.0114  -2.4016   2.4247 H              1 S1                 0.0000
     37 ****         0.5415  -3.0012   0.2788 H              1 S1                 0.0000
     38 ****         0.7590  -3.3562  -1.6408 H              1 S1                 0.0000
     39 ****         3.6255  -2.4063  -6.1883 H              1 S1                 0.0000
     40 ****        -0.2935  -0.7079   0.5138 LP             1 S1                 0.0000
     41 ****        -0.7012  -0.6755   2.0947 LP             1 S1                 0.0000
     42 ****         3.4456  -1.0913   0.1489 LP             1 S1                 0.0000
     43 ****         3.6606  -1.3892  -1.5438 LP             1 S1                 0.0000
     44 ****         0.5703  -3.9964  -3.8607 LP             1 S1                 0.0000
     45 ****         1.6125  -3.7820  -6.1349 LP             1 S1                 0.0000
@<TRIPOS>BOND
    1    1    2 1     
    2    1   20 1     
    3    1   21 1     
    4    1   22 1     
    5    2    7 1     
    6    2    3 1     
    7    2   23 1     
    8    3    4 1     
    9    3   24 1     
   10    3   25 1     
   11    4    5 1     
   12    4   26 1     
   13    4   27 1     
   14    5    6 1     
   15    5   28 1     
   16    5   29 1     
   17    6    7 1     
   18    6   30 1     
   19    6   31 1     
   20    7    8 1     
   21    7   32 1     
   22    8    9 1     
   23    9   10 1     
   24    9   33 1     
   25    9   34 1     
   26   10   11 1     
   27   10   35 1     
   28   10   36 1     
   29   11   12 am    
   30   11   37 1     
   31   12   13 2     
   32   12   14 am    
   33   14   15 1     
   34   14   38 1     
   35   15   19 1     
   36   15   16 2     
   37   16   17 1     
   38   17   18 2     
   39   18   19 1     
   40   18   39 1     
   41    8   40 1     
   42    8   41 1     
   43   13   42 1     
   44   13   43 1     
   45   16   44 1     
   46   17   45 1     
@<TRIPOS>SUBSTRUCTURE
      1 S1             1
@<TRIPOS>SET
LONE_PAIRS      STATIC     ATOMS    <user>   **** ""
6 40 41 42 43 44 45
DONOR_HYDROGENS      STATIC     ATOMS    <user>   **** ""
2 37 38
ATOM$BLUE        STATIC     ATOMS    COLORGROUP SYSTEM
6 40 41 42 43 44 45
ATOM$RED        STATIC     ATOMS    COLORGROUP SYSTEM
2 37 38
