AV-unprocessed.smi:3157|AV-procd|sdf|12038|dock6
  -GOLD-   2272017463D 1   1.00000     0.00000
 Structure written by MMmdl.
 40 41  0  0  0  0  0  0  0  0  2 V2000
  151.1587  141.1145  156.4257 C   0  0  0  0  0  0  0  0  0  0  0  0
  150.1623  141.5924  157.5034 C   0  0  1  0  0  0  0  0  0  0  0  0
  150.1661  143.0714  157.5765 N   0  3  0  0  0  0  0  0  0  0  0  0
  151.4883  143.7088  157.4033 C   0  0  0  0  0  0  0  0  0  0  0  0
  152.2320  143.8165  158.7440 C   0  0  0  0  0  0  0  0  0  0  0  0
  152.5169  142.4664  159.4136 C   0  0  0  0  0  0  0  0  0  0  0  0
  152.6863  142.7706  160.9086 C   0  0  0  0  0  0  0  0  0  0  0  0
  152.1155  144.1784  161.1333 C   0  0  0  0  0  0  0  0  0  0  0  0
  151.4469  144.5750  159.8156 C   0  0  0  0  0  0  0  0  0  0  0  0
  148.7171  141.0850  157.2578 C   0  0  2  0  0  0  0  0  0  0  0  0
  148.5790  139.5656  157.4675 C   0  0  0  0  0  0  0  0  0  0  0  0
  148.2279  141.4472  155.9328 N   0  0  0  0  0  0  0  0  0  0  0  0
  147.0982  142.1659  155.5939 C   0  0  0  0  0  0  0  0  0  0  0  0
  147.0530  142.2376  154.2313 C   0  0  0  0  0  0  0  0  0  0  0  0
  148.2113  141.5234  153.8168 C   0  0  0  0  0  0  0  0  0  0  0  0
  148.9105  141.0512  154.8361 N   0  0  0  0  0  0  0  0  0  0  0  0
  151.2441  140.0279  156.4058 H   0  0  0  0  0  0  0  0  0  0  0  0
  152.1628  141.4995  156.6002 H   0  0  0  0  0  0  0  0  0  0  0  0
  150.8486  141.4391  155.4317 H   0  0  0  0  0  0  0  0  0  0  0  0
  150.4919  141.2019  158.4677 H   0  0  0  0  0  0  0  0  0  0  0  0
  149.5258  143.4329  156.8839 H   0  0  0  0  0  0  0  0  0  0  0  0
  152.0753  143.1074  156.7078 H   0  0  0  0  0  0  0  0  0  0  0  0
  151.3806  144.6967  156.9560 H   0  0  0  0  0  0  0  0  0  0  0  0
  153.1789  144.3376  158.5911 H   0  0  0  0  0  0  0  0  0  0  0  0
  151.6664  141.7964  159.2789 H   0  0  0  0  0  0  0  0  0  0  0  0
  153.3920  141.9711  158.9920 H   0  0  0  0  0  0  0  0  0  0  0  0
  152.1654  142.0285  161.5145 H   0  0  0  0  0  0  0  0  0  0  0  0
  153.7384  142.7420  161.1942 H   0  0  0  0  0  0  0  0  0  0  0  0
  151.4189  144.2147  161.9715 H   0  0  0  0  0  0  0  0  0  0  0  0
  152.9293  144.8702  161.3550 H   0  0  0  0  0  0  0  0  0  0  0  0
  151.4516  145.6537  159.6549 H   0  0  0  0  0  0  0  0  0  0  0  0
  150.4070  144.2455  159.8212 H   0  0  0  0  0  0  0  0  0  0  0  0
  148.0657  141.5730  157.9863 H   0  0  0  0  0  0  0  0  0  0  0  0
  148.8340  139.2764  158.4872 H   0  0  0  0  0  0  0  0  0  0  0  0
  149.2289  139.0070  156.7931 H   0  0  0  0  0  0  0  0  0  0  0  0
  147.5544  139.2385  157.2868 H   0  0  0  0  0  0  0  0  0  0  0  0
  146.4263  142.5606  156.3416 H   0  0  0  0  0  0  0  0  0  0  0  0
  146.3059  142.7252  153.6225 H   0  0  0  0  0  0  0  0  0  0  0  0
  148.5617  141.3341  152.8128 H   0  0  0  0  0  0  0  0  0  0  0  0
  149.8278  143.3346  158.4911 H   0  0  0  0  0  0  0  0  0  0  0  0
  1  2  1  0  0  0  0
  1 17  1  0  0  0  0
  1 18  1  0  0  0  0
  1 19  1  0  0  0  0
  2  3  1  0  0  0  0
  2 10  1  0  0  0  0
  2 20  1  0  0  0  0
  3  4  1  0  0  0  0
  3 21  1  0  0  0  0
  3 40  1  0  0  0  0
  4  5  1  0  0  0  0
  4 22  1  0  0  0  0
  4 23  1  0  0  0  0
  5  9  1  0  0  0  0
  5  6  1  0  0  0  0
  5 24  1  0  0  0  0
  6  7  1  0  0  0  0
  6 25  1  0  0  0  0
  6 26  1  0  0  0  0
  7  8  1  0  0  0  0
  7 27  1  0  0  0  0
  7 28  1  0  0  0  0
  8  9  1  0  0  0  0
  8 29  1  0  0  0  0
  8 30  1  0  0  0  0
  9 31  1  0  0  0  0
  9 32  1  0  0  0  0
 10 11  1  0  0  0  0
 10 12  1  0  0  0  0
 10 33  1  0  0  0  0
 11 34  1  0  0  0  0
 11 35  1  0  0  0  0
 11 36  1  0  0  0  0
 12 16  1  0  0  0  0
 12 13  1  0  0  0  0
 13 14  2  0  0  0  0
 13 37  1  0  0  0  0
 14 15  1  0  0  0  0
 14 38  1  0  0  0  0
 15 16  2  0  0  0  0
 15 39  1  0  0  0  0
M  CHG  1   3   1
M  END
> <s_m_source_file>
AV-unprocessed.smi

> <i_m_source_file_index>
3157

> <i_lp_mmshare_version>
43012

> <i_f3d_flags>
0

> <s_epik_input>
bjFbY0hdW2NIXVtjSF1uMVtDQEBIXShbQ0gzXSlbQ0BIXShbQ0gzXSlbTkhdW0NIMl1bQ0hdMltDSDJdW0NIMl1bQ0gyXVtDSDJdMg==

> <s_epik_cmdline>
J2VwaWtfcHl0aG9uJywgJy1waCcsICc3LjAnLCAnLXRuJywgJzgnLCAnLW1hJywgJzIwMCcsICctbWV0YWxfYmluZGluZycsICctaW1hZScsICc8aW5maWxlLm1hZT4nLCAnLW9tYWUnLCAnPG91dGZpbGUubWFlPic=

> <r_lp_tautomer_probability>
1

> <r_epik_Ionization_Penalty>
0.00132192

> <r_epik_Ionization_Penalty_Charging>
0.0013111

> <r_epik_Ionization_Penalty_Neutral>
1.08112e-05

> <r_epik_State_Penalty>
-0

> <r_epik_Charging_Adjusted_Penalty>
0.0013111

> <i_epik_Tot_Q>
1

> <i_epik_Tot_abs_Q>
1

> <r_epik_Metal_State_Penalty>
-0

> <b_epik_Metal_Only>
0

> <s_lp_Force_Field>
OPLS_2005

> <r_lp_Energy>
32.0676

> <b_lp_Chiralities_Consistent>
1

> <s_lp_Variant>
AV-unprocessed.smi:3157-2

> <Gold.Version>
5.8.1

> <Gold.Id.Protein>
6NUR|6NUR_protein|mol2

> <Gold.PLP.Fitness>
46.9122

> <Gold.PLP.PLP>
-38.8531

> <Gold.PLP.part.hbond>
-1.0000

> <Gold.PLP.part.metal>
0.0000

> <Gold.PLP.part.buried>
-3.4824

> <Gold.PLP.part.nonpolar>
-34.5890

> <Gold.PLP.part.repulsive>
0.1415

> <Gold.PLP.ligand.clash>
0.0000

> <Gold.PLP.ligand.torsion>
0.5123

> <Gold.PLP.Chemscore.Hbond>
2.0000

> <Gold.PLP.Chemscore.CHOScore>
1.0000

> <Gold.PLP.Chemscore.Metal>
0.0000

> <Gold.Chemscore.Hbonds>
donor molecule, donor type, donor heavy atom, donor atom, acceptor molecule, acceptor atom, score
      L1  H     3    21       P1  8028  2.00
      L1  C    15    39       P1  7957  1.00

> <Gold.PLP.Chemscore.Internal.Correction>
0.0837

> <Gold.Rescore>
     Score         DG    S(hbond)    S(metal)    S(lipo)     H(rot)  DE(clash)    DE(int)     intcor
     15.50     -17.18       0.94        0.00     106.06       1.50       0.02       1.66       ----

> <Gold.Chemscore.Fitness>
15.4969

> <Gold.Chemscore.DG>
-17.1751

> <Gold.Chemscore.ZeroCoef>
-5.4800

> <Gold.Chemscore.Hbond>
0.9396

> <Gold.Chemscore.Metal>
0.0000

> <Gold.Chemscore.Lipo>
106.0574

> <Gold.Chemscore.Internal_Hbond>
0.0000

> <Gold.Chemscore.DEClash>
0.0170

> <Gold.Chemscore.DEInternal>
1.6611

> <Gold.Chemscore.Rot>
1.5047

> <Gold.Chemscore.Internal.Correction>
   9.000000E+99

> <Gold.Chemscore.Hbonds>
donor molecule, donor type, donor heavy atom, donor atom, acceptor molecule, acceptor atom, score
      L1  H     3    21       P1  8028  0.95

> <Gold.Chemscore.Hbond.Weighted>
-3.1383

> <Gold.Chemscore.Metal.Weighted>
-0.0000

> <Gold.Chemscore.Lipo.Weighted>
-12.4087

> <Gold.Chemscore.Internal_Hbond.Weighted>
0.0000

> <Gold.Chemscore.DEClash.Weighted>
0.0170

> <Gold.Chemscore.DEInternal.Weighted>
1.6611

> <Gold.Chemscore.Rot.Weighted>
3.8520

> <Gold.Chemscore.Internal.Correction.Weighted>
   9.000000E+99

> <Gold.Protein.RotatedTorsions>
[ 6907 6896 6895 6894 ] final -102.60 input  -60.11 | X-H torsion
[ 7974 7965 7964 7962 ] final -171.18 input  175.53 | X-H torsion
[ 8008 7997 7996 7995 ] final   -9.20 input   59.86 | X-H torsion
[ 10167 10162 10161 10158 ] final   25.91 input  -65.29 | X-H torsion
[ 10718 10713 10712 10709 ] final  111.05 input   66.30 | X-H torsion
[ 10763 10752 10751 10750 ] final -176.21 input  -60.55 | X-H torsion
[ 11005 11000 10999 10996 ] final   95.29 input  -57.11 | X-H torsion

> <Gold.Protein.ActiveResidues>
 VAL166  LYS551  ARG553  GLY616  TRP617  ASP618  TYR619  PRO620  LYS621  CYS622 
 ASP623  PHE694  ASN695  SER759  ASP760  ASP761  ALA762  ILE779  LEU786  VAL792 
 PHE793  MET794  SER795  GLU796  ALA797  LYS798  CYS799  TRP800  GLU811  SER814 

> <Gold.Protein.RotatedAtoms>
  150.7203  134.0556  159.3813 H   0  0  0  0  0  0  0  0  0  0  0  0  # atno 6907 bound_to 6896
  151.8534  135.0547  160.0471 H   0  0  0  0  0  0  0  0  0  0  0  0  # atno 6908 bound_to 6896
  152.2772  133.5401  159.5512 H   0  0  0  0  0  0  0  0  0  0  0  0  # atno 6909 bound_to 6896
  144.7160  140.1961  143.6343 H   0  0  0  0  0  0  0  0  0  0  0  0  # atno 7974 bound_to 7965
  154.5669  140.2361  155.8250 H   0  0  0  0  0  0  0  0  0  0  0  0  # atno 8008 bound_to 7997
  156.2075  140.3035  155.9618 H   0  0  0  0  0  0  0  0  0  0  0  0  # atno 8009 bound_to 7997
  155.2785  140.0421  157.3004 H   0  0  0  0  0  0  0  0  0  0  0  0  # atno 8010 bound_to 7997
  140.5067  144.0227  150.6355 H   0  0  0  0  0  0  0  0  0  0  0  0  # atno 10167 bound_to 10162
  157.6464  131.0944  150.6692 H   0  0  0  0  0  0  0  0  0  0  0  0  # atno 10718 bound_to 10713
  154.5751  135.2831  155.0789 H   0  0  0  0  0  0  0  0  0  0  0  0  # atno 10763 bound_to 10752
  154.2147  135.6402  153.5130 H   0  0  0  0  0  0  0  0  0  0  0  0  # atno 10764 bound_to 10752
  153.0070  135.5500  154.6386 H   0  0  0  0  0  0  0  0  0  0  0  0  # atno 10765 bound_to 10752
  139.8790  134.8891  156.3989 H   0  0  0  0  0  0  0  0  0  0  0  0  # atno 11005 bound_to 11000
  145.8724  139.2279  143.1653 LP  0  0  0  0  0  0  0  0  0  0  0  0  # atno 17320 bound_to 7965
  146.0072  140.8467  142.9989 LP  0  0  0  0  0  0  0  0  0  0  0  0  # atno 17321 bound_to 7965
  140.3538  143.2947  152.0458 LP  0  0  0  0  0  0  0  0  0  0  0  0  # atno 17342 bound_to 10162
  139.4885  144.6354  151.6986 LP  0  0  0  0  0  0  0  0  0  0  0  0  # atno 17343 bound_to 10162
  156.7008  130.4623  149.5573 LP  0  0  0  0  0  0  0  0  0  0  0  0  # atno 17370 bound_to 10713
  156.1796  130.6490  151.0936 LP  0  0  0  0  0  0  0  0  0  0  0  0  # atno 17371 bound_to 10713
  140.9281  133.7598  155.9990 LP  0  0  0  0  0  0  0  0  0  0  0  0  # atno 17394 bound_to 11000
  140.8363  134.3119  157.5330 LP  0  0  0  0  0  0  0  0  0  0  0  0  # atno 17395 bound_to 11000

$$$$
