AV-unprocessed.smi:155|AV-procd|sdf|1269|dock10
  -GOLD-   2262018523D 1   1.00000     0.00000
 Structure written by MMmdl.
 63 66  0  0  0  0  0  0  0  0  2 V2000
  145.8837  134.4425  151.4693 C   0  0  0  0  0  0  0  0  0  0  0  0
  146.6977  133.2539  151.2381 N   0  0  0  0  0  0  0  0  0  0  0  0
  145.8319  132.0853  151.3204 C   0  0  0  0  0  0  0  0  0  0  0  0
  147.7657  133.1323  152.2294 C   0  0  0  0  0  0  0  0  0  0  0  0
  147.2494  133.0374  153.6865 C   0  0  0  0  0  0  0  0  0  0  0  0
  148.3087  132.9034  154.7227 N   0  3  2  0  0  0  0  0  0  0  0  0
  149.2405  131.7628  154.5009 C   0  0  0  0  0  0  0  0  0  0  0  0
  150.3319  131.6222  155.5834 C   0  0  0  0  0  0  0  0  0  0  0  0
  151.0673  132.9312  155.9330 C   0  0  0  0  0  0  0  0  0  0  0  0
  150.1639  133.9852  156.4015 N   0  0  0  0  0  0  0  0  0  0  0  0
  150.4827  135.2839  156.1638 C   0  0  0  0  0  0  0  0  0  0  0  0
  150.8738  135.6301  154.9093 N   0  0  0  0  0  0  0  0  0  0  0  0
  151.2068  136.8929  154.6271 C   0  0  0  0  0  0  0  0  0  0  0  0
  151.2120  137.9539  155.4353 N   0  0  0  0  0  0  0  0  0  0  0  0
  150.8053  137.6193  156.6927 C   0  0  0  0  0  0  0  0  0  0  0  0
  150.4245  136.3218  157.1405 C   0  0  0  0  0  0  0  0  0  0  0  0
  150.0515  136.3815  158.4795 N   0  0  0  0  0  0  0  0  0  0  0  0
  150.2221  137.6329  158.8079 C   0  0  0  0  0  0  0  0  0  0  0  0
  150.6739  138.4451  157.7947 N   0  0  0  0  0  0  0  0  0  0  0  0
  150.9507  139.8680  157.8850 C   0  0  0  0  0  0  0  0  0  0  0  0
  151.9690  140.1979  158.9939 C   0  0  1  0  0  0  0  0  0  0  0  0
  153.2803  139.9958  158.5018 O   0  0  0  0  0  0  0  0  0  0  0  0
  151.8388  141.6495  159.4902 C   0  0  2  0  0  0  0  0  0  0  0  0
  152.2936  142.7096  158.4836 C   0  0  0  0  0  0  0  0  0  0  0  0
  152.7416  143.8751  159.3532 C   0  0  0  0  0  0  0  0  0  0  0  0
  152.7896  143.2904  160.7664 C   0  0  0  0  0  0  0  0  0  0  0  0
  152.7172  141.8848  160.5797 O   0  0  0  0  0  0  0  0  0  0  0  0
  148.9097  133.6409  157.0749 C   0  0  0  0  0  0  0  0  0  0  0  0
  147.8294  133.0690  156.1225 C   0  0  0  0  0  0  0  0  0  0  0  0
  146.4677  135.3562  151.3689 H   0  0  0  0  0  0  0  0  0  0  0  0
  145.4356  134.4311  152.4641 H   0  0  0  0  0  0  0  0  0  0  0  0
  145.0770  134.4971  150.7374 H   0  0  0  0  0  0  0  0  0  0  0  0
  146.3958  131.1742  151.1170 H   0  0  0  0  0  0  0  0  0  0  0  0
  145.0319  132.1469  150.5818 H   0  0  0  0  0  0  0  0  0  0  0  0
  145.3784  131.9936  152.3087 H   0  0  0  0  0  0  0  0  0  0  0  0
  148.3565  132.2450  151.9959 H   0  0  0  0  0  0  0  0  0  0  0  0
  148.4536  133.9729  152.1391 H   0  0  0  0  0  0  0  0  0  0  0  0
  146.5861  133.8623  153.9436 H   0  0  0  0  0  0  0  0  0  0  0  0
  146.6277  132.1446  153.7626 H   0  0  0  0  0  0  0  0  0  0  0  0
  148.6862  130.8268  154.4583 H   0  0  0  0  0  0  0  0  0  0  0  0
  149.7119  131.8925  153.5261 H   0  0  0  0  0  0  0  0  0  0  0  0
  149.9004  131.1883  156.4858 H   0  0  0  0  0  0  0  0  0  0  0  0
  151.0639  130.8885  155.2445 H   0  0  0  0  0  0  0  0  0  0  0  0
  151.8136  132.7418  156.7051 H   0  0  0  0  0  0  0  0  0  0  0  0
  151.6075  133.2739  155.0491 H   0  0  0  0  0  0  0  0  0  0  0  0
  151.5137  137.0795  153.6083 H   0  0  0  0  0  0  0  0  0  0  0  0
  150.0231  138.0009  159.8041 H   0  0  0  0  0  0  0  0  0  0  0  0
  151.3100  140.2192  156.9169 H   0  0  0  0  0  0  0  0  0  0  0  0
  150.0084  140.3842  158.0718 H   0  0  0  0  0  0  0  0  0  0  0  0
  151.8199  139.5167  159.8327 H   0  0  0  0  0  0  0  0  0  0  0  0
  153.3890  140.5107  157.7167 H   0  0  0  0  0  0  0  0  0  0  0  0
  150.8159  141.8551  159.8122 H   0  0  0  0  0  0  0  0  0  0  0  0
  153.1411  142.3434  157.9028 H   0  0  0  0  0  0  0  0  0  0  0  0
  151.5036  142.9843  157.7841 H   0  0  0  0  0  0  0  0  0  0  0  0
  153.7213  144.2345  159.0372 H   0  0  0  0  0  0  0  0  0  0  0  0
  152.0441  144.7118  159.3019 H   0  0  0  0  0  0  0  0  0  0  0  0
  153.6924  143.5725  161.3083 H   0  0  0  0  0  0  0  0  0  0  0  0
  151.9267  143.6192  161.3473 H   0  0  0  0  0  0  0  0  0  0  0  0
  149.1381  132.9016  157.8431 H   0  0  0  0  0  0  0  0  0  0  0  0
  148.5176  134.4973  157.6242 H   0  0  0  0  0  0  0  0  0  0  0  0
  146.9849  133.7590  156.1279 H   0  0  0  0  0  0  0  0  0  0  0  0
  147.4471  132.1212  156.5033 H   0  0  0  0  0  0  0  0  0  0  0  0
  148.8859  133.7193  154.5756 H   0  0  0  0  0  0  0  0  0  0  0  0
  1  2  1  0  0  0  0
  1 30  1  0  0  0  0
  1 31  1  0  0  0  0
  1 32  1  0  0  0  0
  2  3  1  0  0  0  0
  2  4  1  0  0  0  0
  3 33  1  0  0  0  0
  3 34  1  0  0  0  0
  3 35  1  0  0  0  0
  4  5  1  0  0  0  0
  4 36  1  0  0  0  0
  4 37  1  0  0  0  0
  5  6  1  0  0  0  0
  5 38  1  0  0  0  0
  5 39  1  0  0  0  0
  6 29  1  0  0  0  0
  6  7  1  0  0  0  0
  6 63  1  0  0  0  0
  7  8  1  0  0  0  0
  7 40  1  0  0  0  0
  7 41  1  0  0  0  0
  8  9  1  0  0  0  0
  8 42  1  0  0  0  0
  8 43  1  0  0  0  0
  9 10  1  0  0  0  0
  9 44  1  0  0  0  0
  9 45  1  0  0  0  0
 10 11  1  0  0  0  0
 10 28  1  0  0  0  0
 11 16  1  0  0  0  0
 11 12  2  0  0  0  0
 12 13  1  0  0  0  0
 13 14  2  0  0  0  0
 13 46  1  0  0  0  0
 14 15  1  0  0  0  0
 15 19  1  0  0  0  0
 15 16  2  0  0  0  0
 16 17  1  0  0  0  0
 17 18  2  0  0  0  0
 18 19  1  0  0  0  0
 18 47  1  0  0  0  0
 19 20  1  0  0  0  0
 20 21  1  0  0  0  0
 20 48  1  0  0  0  0
 20 49  1  0  0  0  0
 21 22  1  0  0  0  0
 21 23  1  0  0  0  0
 21 50  1  0  0  0  0
 22 51  1  0  0  0  0
 23 27  1  0  0  0  0
 23 24  1  0  0  0  0
 23 52  1  0  0  0  0
 24 25  1  0  0  0  0
 24 53  1  0  0  0  0
 24 54  1  0  0  0  0
 25 26  1  0  0  0  0
 25 55  1  0  0  0  0
 25 56  1  0  0  0  0
 26 27  1  0  0  0  0
 26 57  1  0  0  0  0
 26 58  1  0  0  0  0
 28 29  1  0  0  0  0
 28 59  1  0  0  0  0
 28 60  1  0  0  0  0
 29 61  1  0  0  0  0
 29 62  1  0  0  0  0
M  CHG  1   6   1
M  END
> <s_m_source_file>
AV-unprocessed.smi

> <i_m_source_file_index>
155

> <i_lp_mmshare_version>
43012

> <i_f3d_flags>
0

> <s_epik_input>
W0NIM11OKFtDSDNdKVtDSDJdW0NIMl1OMVtDSDJdW0NIMl1bQ0gyXU4oW0NIMl1bQ0gyXTEpYyhuW2NIXW4yKWMoYzIzKW5bY0hdbjNbQ0gyXVtDQEhdKFtPSF0pW0NAQEhdNFtDSDJdW0NIMl1bQ0gyXU80

> <s_epik_cmdline>
J2VwaWtfcHl0aG9uJywgJy1waCcsICc3LjAnLCAnLXRuJywgJzgnLCAnLW1hJywgJzIwMCcsICctbWV0YWxfYmluZGluZycsICctaW1hZScsICc8aW5maWxlLm1hZT4nLCAnLW9tYWUnLCAnPG91dGZpbGUubWFlPic=

> <r_epik_Ionization_Penalty>
0.0619615

> <r_epik_Ionization_Penalty_Charging>
0.0161638

> <r_epik_Ionization_Penalty_Neutral>
0.0457976

> <r_epik_State_Penalty>
0.403408

> <r_epik_Charging_Adjusted_Penalty>
0.419572

> <i_epik_Tot_Q>
1

> <i_epik_Tot_abs_Q>
1

> <r_epik_Metal_State_Penalty>
0.404222

> <b_epik_Metal_Only>
0

> <s_lp_Force_Field>
OPLS_2005

> <r_lp_Energy>
55.2712

> <b_lp_Chiralities_Consistent>
1

> <s_lp_Variant>
AV-unprocessed.smi:155-3

> <Gold.Version>
5.8.1

> <Gold.Id.Protein>
6NUR|6NUR_protein|mol2

> <Gold.PLP.Fitness>
44.8894

> <Gold.PLP.PLP>
-41.0909

> <Gold.PLP.part.hbond>
-3.0000

> <Gold.PLP.part.metal>
0.0000

> <Gold.PLP.part.buried>
-6.4438

> <Gold.PLP.part.nonpolar>
-31.6799

> <Gold.PLP.part.repulsive>
0.4005

> <Gold.PLP.ligand.clash>
0.0000

> <Gold.PLP.ligand.torsion>
1.1868

> <Gold.PLP.Chemscore.Hbond>
0.9913

> <Gold.PLP.Chemscore.CHOScore>
1.0000

> <Gold.PLP.Chemscore.Metal>
0.0000

> <Gold.Chemscore.Hbonds>
donor molecule, donor type, donor heavy atom, donor atom, acceptor molecule, acceptor atom, score
      P1  H  6896  6909       L1    17  0.83
      L1  C    13    46       P1  7949  1.00

> <Gold.PLP.Chemscore.Internal.Correction>
0.1984

> <Gold.Rescore>
     Score         DG    S(hbond)    S(metal)    S(lipo)     H(rot)  DE(clash)    DE(int)     intcor
     12.52     -13.68       0.92        0.00     101.33       2.63       0.18       0.97       ----

> <Gold.Chemscore.Fitness>
12.5228

> <Gold.Chemscore.DG>
-13.6773

> <Gold.Chemscore.ZeroCoef>
-5.4800

> <Gold.Chemscore.Hbond>
0.9224

> <Gold.Chemscore.Metal>
0.0000

> <Gold.Chemscore.Lipo>
101.3272

> <Gold.Chemscore.Internal_Hbond>
0.0000

> <Gold.Chemscore.DEClash>
0.1799

> <Gold.Chemscore.DEInternal>
0.9746

> <Gold.Chemscore.Rot>
2.6324

> <Gold.Chemscore.Internal.Correction>
   9.000000E+99

> <Gold.Chemscore.Hbonds>
donor molecule, donor type, donor heavy atom, donor atom, acceptor molecule, acceptor atom, score
      P1  H  6896  6909       L1    17  0.70

> <Gold.Chemscore.Hbond.Weighted>
-3.0809

> <Gold.Chemscore.Metal.Weighted>
-0.0000

> <Gold.Chemscore.Lipo.Weighted>
-11.8553

> <Gold.Chemscore.Internal_Hbond.Weighted>
0.0000

> <Gold.Chemscore.DEClash.Weighted>
0.1799

> <Gold.Chemscore.DEInternal.Weighted>
0.9746

> <Gold.Chemscore.Rot.Weighted>
6.7389

> <Gold.Chemscore.Internal.Correction.Weighted>
   9.000000E+99

> <Gold.Protein.RotatedTorsions>
[ 6907 6896 6895 6894 ] final   66.88 input  -60.11 | X-H torsion
[ 7974 7965 7964 7962 ] final -111.57 input  175.53 | X-H torsion
[ 8008 7997 7996 7995 ] final -122.22 input   59.86 | X-H torsion
[ 10167 10162 10161 10158 ] final  114.27 input  -65.29 | X-H torsion
[ 10718 10713 10712 10709 ] final   47.75 input   66.30 | X-H torsion
[ 10763 10752 10751 10750 ] final  -67.01 input  -60.55 | X-H torsion
[ 11005 11000 10999 10996 ] final  -23.79 input  -57.11 | X-H torsion

> <Gold.Protein.ActiveResidues>
 VAL166  LYS551  ARG553  GLY616  TRP617  ASP618  TYR619  PRO620  LYS621  CYS622 
 ASP623  PHE694  ASN695  SER759  ASP760  ASP761  ALA762  ILE779  LEU786  VAL792 
 PHE793  MET794  SER795  GLU796  ALA797  LYS798  CYS799  TRP800  GLU811  SER814 

> <Gold.Protein.RotatedAtoms>
  152.4513  134.5388  159.9832 H   0  0  0  0  0  0  0  0  0  0  0  0  # atno 6907 bound_to 6896
  151.5460  133.3419  159.2952 H   0  0  0  0  0  0  0  0  0  0  0  0  # atno 6908 bound_to 6896
  150.8443  134.7777  159.7020 H   0  0  0  0  0  0  0  0  0  0  0  0  # atno 6909 bound_to 6896
  145.1545  140.8846  143.3627 H   0  0  0  0  0  0  0  0  0  0  0  0  # atno 7974 bound_to 7965
  155.1608  140.0406  157.2842 H   0  0  0  0  0  0  0  0  0  0  0  0  # atno 8008 bound_to 7997
  154.6338  140.2530  155.7375 H   0  0  0  0  0  0  0  0  0  0  0  0  # atno 8009 bound_to 7997
  156.2498  140.2870  156.0701 H   0  0  0  0  0  0  0  0  0  0  0  0  # atno 8010 bound_to 7997
  139.6401  144.7123  151.2255 H   0  0  0  0  0  0  0  0  0  0  0  0  # atno 10167 bound_to 10162
  157.4617  130.8200  149.7893 H   0  0  0  0  0  0  0  0  0  0  0  0  # atno 10718 bound_to 10713
  154.3682  135.6101  153.5726 H   0  0  0  0  0  0  0  0  0  0  0  0  # atno 10763 bound_to 10752
  152.9791  135.5831  154.4553 H   0  0  0  0  0  0  0  0  0  0  0  0  # atno 10764 bound_to 10752
  154.4302  135.2847  155.1895 H   0  0  0  0  0  0  0  0  0  0  0  0  # atno 10765 bound_to 10752
  140.8785  133.7671  156.0272 H   0  0  0  0  0  0  0  0  0  0  0  0  # atno 11005 bound_to 11000
  145.0395  139.3272  143.5983 LP  0  0  0  0  0  0  0  0  0  0  0  0  # atno 17320 bound_to 7965
  146.3490  139.9763  142.8700 LP  0  0  0  0  0  0  0  0  0  0  0  0  # atno 17321 bound_to 7965
  140.7486  143.6328  150.8407 LP  0  0  0  0  0  0  0  0  0  0  0  0  # atno 17342 bound_to 10162
  139.9964  143.5791  152.2892 LP  0  0  0  0  0  0  0  0  0  0  0  0  # atno 17343 bound_to 10162
  156.0031  130.3869  150.2529 LP  0  0  0  0  0  0  0  0  0  0  0  0  # atno 17370 bound_to 10713
  157.0707  131.0116  151.3191 LP  0  0  0  0  0  0  0  0  0  0  0  0  # atno 17371 bound_to 10713
  140.8490  134.2977  157.5283 LP  0  0  0  0  0  0  0  0  0  0  0  0  # atno 17394 bound_to 11000
  139.8717  134.9457  156.3918 LP  0  0  0  0  0  0  0  0  0  0  0  0  # atno 17395 bound_to 11000

$$$$
