#       Name:                AV-unprocessed.smi:1285
#       Creating user name   scv26
#       Creation time:       Fri Mar 27 04:51:45 2020


#       File generated by GOLD software.
#

@<TRIPOS>MOLECULE
AV-unprocessed.smi:1285
    53    54     1
SMALL
NO_CHARGES


@<TRIPOS>ATOM
      1 ****        -2.5347  -1.4074  -0.7722 C.3            1 S1                 0.0000
      2 ****        -1.0069  -1.2211  -0.7899 C.3            1 S1                 0.0000
      3 ****        -0.3946  -0.5501   0.4787 C.3            1 S1                 0.0000
      4 ****        -0.9138   0.9121   0.5183 C.3            1 S1                 0.0000
      5 ****         1.1621  -0.5500   0.3564 C.3            1 S1                 0.0000
      6 ****         1.6437   0.1515  -0.8313 N.am           1 S1                 0.0000
      7 ****         2.1365   1.3998  -0.8642 C.2            1 S1                 0.0000
      8 ****         2.3207   2.0797   0.1458 O.2            1 S1                 0.0000
      9 ****         2.4233   1.9671  -2.2624 C.3            1 S1                 0.0000
     10 ****         3.3188   3.2205  -2.2340 C.3            1 S1                 0.0000
     11 ****         1.1640   2.2272  -2.9478 N.pl3          1 S1                 0.0000
     12 ****         0.2487   3.1831  -2.7652 C.2            1 S1                 0.0000
     13 ****        -0.8155   3.0644  -3.5465 N.2            1 S1                 0.0000
     14 ****        -0.4704   1.9344  -4.2320 C.2            1 S1                 0.0000
     15 ****         0.6997   1.3867  -3.9040 N.2            1 S1                 0.0000
     16 ****        -0.8310  -1.2862   1.7212 N.4            1 S1                 1.0000
     17 ****        -0.4412  -2.7228   1.7974 C.3            1 S1                 0.0000
     18 ****        -1.1201  -3.4012   2.9981 C.3            1 S1                 0.0000
     19 ****        -0.7566  -2.7251   4.1932 O.3            1 S1                 0.0000
     20 ****        -1.1893  -1.3720   4.1834 C.3            1 S1                 0.0000
     21 ****        -0.5241  -0.6193   3.0186 C.3            1 S1                 0.0000
     22 ****        -2.8695  -1.8849  -1.6933 H              1 S1                 0.0000
     23 ****        -3.0585  -0.4549  -0.6957 H              1 S1                 0.0000
     24 ****        -2.8589  -2.0384   0.0552 H              1 S1                 0.0000
     25 ****        -0.5361  -2.1857  -0.9769 H              1 S1                 0.0000
     26 ****        -0.7622  -0.6276  -1.6718 H              1 S1                 0.0000
     27 ****        -0.8347   1.3966  -0.4553 H              1 S1                 0.0000
     28 ****        -0.3456   1.5295   1.2144 H              1 S1                 0.0000
     29 ****        -1.9620   0.9625   0.8140 H              1 S1                 0.0000
     30 ****         1.6267  -0.1304   1.2490 H              1 S1                 0.0000
     31 ****         1.5399  -1.5686   0.2757 H              1 S1                 0.0000
     32 ****         1.5338  -0.3279  -1.7136 H              1 S1                 0.0000
     33 ****         2.9582   1.1973  -2.8219 H              1 S1                 0.0000
     34 ****         4.2762   3.0092  -1.7559 H              1 S1                 0.0000
     35 ****         2.8519   4.0443  -1.6926 H              1 S1                 0.0000
     36 ****         3.5306   3.5693  -3.2451 H              1 S1                 0.0000
     37 ****         0.3570   3.9739  -2.0374 H              1 S1                 0.0000
     38 ****        -1.1046   1.4974  -4.9895 H              1 S1                 0.0000
     39 ****        -0.7281  -3.2647   0.8987 H              1 S1                 0.0000
     40 ****         0.6400  -2.8177   1.9005 H              1 S1                 0.0000
     41 ****        -2.2050  -3.4084   2.8808 H              1 S1                 0.0000
     42 ****        -0.8009  -4.4409   3.0717 H              1 S1                 0.0000
     43 ****        -2.2769  -1.3250   4.1072 H              1 S1                 0.0000
     44 ****        -0.9179  -0.9089   5.1322 H              1 S1                 0.0000
     45 ****         0.5535  -0.5817   3.1788 H              1 S1                 0.0000
     46 ****        -0.8884   0.4058   3.0421 H              1 S1                 0.0000
     47 ****        -1.8396  -1.2905   1.6655 H              1 S1                 0.0000
     48 ****         2.1003   1.7063   1.0470 LP             1 S1                 0.0000
     49 ****         2.6907   3.0052   0.0649 LP             1 S1                 0.0000
     50 ****        -1.6332   3.6359  -3.6143 LP             1 S1                 0.0000
     51 ****         1.1281   0.5613  -4.2718 LP             1 S1                 0.0000
     52 ****         0.2387  -2.7465   4.2878 LP             1 S1                 0.0000
     53 ****        -1.1754  -3.1938   4.9710 LP             1 S1                 0.0000
@<TRIPOS>BOND
    1    1    2 1     
    2    1   22 1     
    3    1   23 1     
    4    1   24 1     
    5    2    3 1     
    6    2   25 1     
    7    2   26 1     
    8    3    4 1     
    9    3    5 1     
   10    3   16 1     
   11    4   27 1     
   12    4   28 1     
   13    4   29 1     
   14    5    6 1     
   15    5   30 1     
   16    5   31 1     
   17    6    7 am    
   18    6   32 1     
   19    7    8 2     
   20    7    9 1     
   21    9   10 1     
   22    9   11 1     
   23    9   33 1     
   24   10   34 1     
   25   10   35 1     
   26   10   36 1     
   27   11   15 1     
   28   11   12 1     
   29   12   13 2     
   30   12   37 1     
   31   13   14 1     
   32   14   15 2     
   33   14   38 1     
   34   16   21 1     
   35   16   17 1     
   36   16   47 1     
   37   17   18 1     
   38   17   39 1     
   39   17   40 1     
   40   18   19 1     
   41   18   41 1     
   42   18   42 1     
   43   19   20 1     
   44   20   21 1     
   45   20   43 1     
   46   20   44 1     
   47   21   45 1     
   48   21   46 1     
   49    8   48 1     
   50    8   49 1     
   51   13   50 1     
   52   15   51 1     
   53   19   52 1     
   54   19   53 1     
@<TRIPOS>SUBSTRUCTURE
      1 S1             1
@<TRIPOS>SET
LONE_PAIRS      STATIC     ATOMS    <user>   **** ""
6 48 49 50 51 52 53
DONOR_HYDROGENS      STATIC     ATOMS    <user>   **** ""
2 32 47
ATOM$BLUE        STATIC     ATOMS    COLORGROUP SYSTEM
6 48 49 50 51 52 53
ATOM$RED        STATIC     ATOMS    COLORGROUP SYSTEM
2 32 47
