AV-unprocessed.smi:40|AV-procd|sdf|367|dock5
  -GOLD-   2262016203D 1   1.00000     0.00000
 Structure written by MMmdl.
 47 48  0  0  0  0  0  0  0  0  1 V2000
  141.6813  146.4136  160.9707 C   0  0  0  0  0  0  0  0  0  0  0  0
  141.6707  144.9601  160.4850 C   0  0  0  0  0  0  0  0  0  0  0  0
  143.0767  144.3451  160.4398 C   0  0  0  0  0  0  0  0  0  0  0  0
  143.6341  144.0435  161.8371 C   0  0  0  0  0  0  0  0  0  0  0  0
  145.1598  143.8673  161.8283 C   0  0  0  0  0  0  0  0  0  0  0  0
  145.6615  143.9527  160.5022 O   0  0  0  0  0  0  0  0  0  0  0  0
  146.8872  143.4816  160.1881 C   0  0  0  0  0  0  0  0  0  0  0  0
  147.8347  143.4489  160.9729 O   0  0  0  0  0  0  0  0  0  0  0  0
  146.9390  142.9883  158.8212 N   0  0  0  0  0  0  0  0  0  0  0  0
  147.9798  142.4443  158.1433 C   0  0  0  0  0  0  0  0  0  0  0  0
  149.1134  142.0968  158.7312 N   0  0  0  0  0  0  0  0  0  0  0  0
  150.1737  141.5298  158.0779 C   0  0  0  0  0  0  0  0  0  0  0  0
  151.2169  141.2830  158.6800 O   0  0  0  0  0  0  0  0  0  0  0  0
  150.0236  141.2544  156.6969 N   0  0  0  0  0  0  0  0  0  0  0  0
  151.2050  140.6567  155.9481 C   0  0  2  0  0  0  0  0  0  0  0  0
  150.8531  140.4624  154.6062 O   0  0  0  0  0  0  0  0  0  0  0  0
  150.6790  139.0794  154.3011 C   0  0  2  0  0  0  0  0  0  0  0  0
  149.2116  138.6509  154.4628 C   0  0  0  0  0  0  0  0  0  0  0  0
  151.6181  138.3700  155.2740 C   0  0  1  0  0  0  0  0  0  0  0  0
  152.8959  138.2648  154.6688 O   0  0  0  0  0  0  0  0  0  0  0  0
  151.6053  139.2710  156.5088 C   0  0  1  0  0  0  0  0  0  0  0  0
  152.8597  139.2680  157.1660 O   0  0  0  0  0  0  0  0  0  0  0  0
  148.8488  141.6341  156.0581 C   0  0  0  0  0  0  0  0  0  0  0  0
  147.8215  142.2024  156.7260 C   0  0  0  0  0  0  0  0  0  0  0  0
  146.6885  142.5387  156.0850 F   0  0  0  0  0  0  0  0  0  0  0  0
  151.9905  141.4114  156.0158 H   0  0  0  0  0  0  0  0  0  0  0  0
  150.9688  138.9023  153.2643 H   0  0  0  0  0  0  0  0  0  0  0  0
  151.2809  137.3597  155.5094 H   0  0  0  0  0  0  0  0  0  0  0  0
  150.8332  138.9213  157.1958 H   0  0  0  0  0  0  0  0  0  0  0  0
  140.6703  146.8204  161.0022 H   0  0  0  0  0  0  0  0  0  0  0  0
  142.2745  147.0454  160.3091 H   0  0  0  0  0  0  0  0  0  0  0  0
  142.1017  146.4893  161.9739 H   0  0  0  0  0  0  0  0  0  0  0  0
  141.0330  144.3676  161.1422 H   0  0  0  0  0  0  0  0  0  0  0  0
  141.2182  144.9154  159.4936 H   0  0  0  0  0  0  0  0  0  0  0  0
  143.0535  143.4258  159.8533 H   0  0  0  0  0  0  0  0  0  0  0  0
  143.7528  145.0260  159.9211 H   0  0  0  0  0  0  0  0  0  0  0  0
  143.3705  144.8545  162.5171 H   0  0  0  0  0  0  0  0  0  0  0  0
  143.1619  143.1428  162.2312 H   0  0  0  0  0  0  0  0  0  0  0  0
  145.6418  144.5963  162.4815 H   0  0  0  0  0  0  0  0  0  0  0  0
  145.4153  142.8825  162.2199 H   0  0  0  0  0  0  0  0  0  0  0  0
  146.0697  143.0857  158.3168 H   0  0  0  0  0  0  0  0  0  0  0  0
  149.0866  137.5977  154.2106 H   0  0  0  0  0  0  0  0  0  0  0  0
  148.5630  139.2255  153.8014 H   0  0  0  0  0  0  0  0  0  0  0  0
  148.8573  138.7876  155.4846 H   0  0  0  0  0  0  0  0  0  0  0  0
  153.2864  139.1256  154.6474 H   0  0  0  0  0  0  0  0  0  0  0  0
  152.9972  138.4110  157.5400 H   0  0  0  0  0  0  0  0  0  0  0  0
  148.7173  141.4852  154.9977 H   0  0  0  0  0  0  0  0  0  0  0  0
  1  2  1  0  0  0  0
  1 30  1  0  0  0  0
  1 31  1  0  0  0  0
  1 32  1  0  0  0  0
  2  3  1  0  0  0  0
  2 33  1  0  0  0  0
  2 34  1  0  0  0  0
  3  4  1  0  0  0  0
  3 35  1  0  0  0  0
  3 36  1  0  0  0  0
  4  5  1  0  0  0  0
  4 37  1  0  0  0  0
  4 38  1  0  0  0  0
  5  6  1  0  0  0  0
  5 39  1  0  0  0  0
  5 40  1  0  0  0  0
  6  7  1  0  0  0  0
  7  8  2  0  0  0  0
  7  9  1  0  0  0  0
  9 10  1  0  0  0  0
  9 41  1  0  0  0  0
 10 24  1  0  0  0  0
 10 11  2  0  0  0  0
 11 12  1  0  0  0  0
 12 13  2  0  0  0  0
 12 14  1  0  0  0  0
 14 15  1  0  0  0  0
 14 23  1  0  0  0  0
 15 26  1  0  0  0  0
 15 21  1  0  0  0  0
 15 16  1  0  0  0  0
 16 17  1  0  0  0  0
 17 27  1  0  0  0  0
 17 18  1  0  0  0  0
 17 19  1  0  0  0  0
 18 42  1  0  0  0  0
 18 43  1  0  0  0  0
 18 44  1  0  0  0  0
 19 28  1  0  0  0  0
 19 20  1  0  0  0  0
 19 21  1  0  0  0  0
 20 45  1  0  0  0  0
 21 29  1  0  0  0  0
 21 22  1  0  0  0  0
 22 46  1  0  0  0  0
 23 24  2  0  0  0  0
 23 47  1  0  0  0  0
 24 25  1  0  0  0  0
M  END
> <s_m_source_file>
AV-unprocessed.smi

> <i_m_source_file_index>
40

> <i_lp_mmshare_version>
43012

> <i_f3d_flags>
0

> <s_epik_input>
W0NIM11bQ0gyXVtDSDJdW0NIMl1bQ0gyXU9DKD1PKVtOSF1jMW5jKD1PKW4oW2NIXWMxRilbQ0BASF0yT1tDQEhdKFtDSDNdKVtDQEBIXShbT0hdKVtDQEhdMltPSF0=

> <s_epik_cmdline>
J2VwaWtfcHl0aG9uJywgJy1waCcsICc3LjAnLCAnLXRuJywgJzgnLCAnLW1hJywgJzIwMCcsICctbWV0YWxfYmluZGluZycsICctaW1hZScsICc8aW5maWxlLm1hZT4nLCAnLW9tYWUnLCAnPG91dGZpbGUubWFlPic=

> <r_lp_tautomer_probability>
1

> <r_epik_Ionization_Penalty>
2.29506e-06

> <r_epik_Ionization_Penalty_Charging>
8.26867e-09

> <r_epik_Ionization_Penalty_Neutral>
2.2868e-06

> <r_epik_State_Penalty>
-0

> <r_epik_Charging_Adjusted_Penalty>
8.26867e-09

> <i_epik_Tot_Q>
0

> <i_epik_Tot_abs_Q>
0

> <r_epik_Metal_State_Penalty>
-0

> <b_epik_Metal_Only>
0

> <s_epik_Chemistry_Notes>
This compound has an ester and may undergo hydrolysis at high or low pH. This compound contains an acetal/aminal-like group ( X-CH(R)-Y where X, Y are N, S, or O) that may be acid/base labile, releasing an aldehyde.

> <s_lp_Force_Field>
OPLS_2005

> <r_lp_Energy>
38.6642

> <b_lp_Chiralities_Consistent>
1

> <s_lp_Variant>
AV-unprocessed.smi:40-1

> <Gold.Version>
5.8.1

> <Gold.Id.Protein>
6NUR|6NUR_protein|mol2

> <Gold.PLP.Fitness>
45.1015

> <Gold.PLP.PLP>
-37.9793

> <Gold.PLP.part.hbond>
-3.6971

> <Gold.PLP.part.metal>
0.0000

> <Gold.PLP.part.buried>
-6.9737

> <Gold.PLP.part.nonpolar>
-27.8946

> <Gold.PLP.part.repulsive>
0.4957

> <Gold.PLP.ligand.clash>
0.0000

> <Gold.PLP.ligand.torsion>
0.9883

> <Gold.PLP.Chemscore.Hbond>
3.0000

> <Gold.PLP.Chemscore.CHOScore>
0.0000

> <Gold.PLP.Chemscore.Metal>
0.0000

> <Gold.Chemscore.Hbonds>
donor molecule, donor type, donor heavy atom, donor atom, acceptor molecule, acceptor atom, score
      P1  H  6933  6944       L1     8  0.57
      P1  H  7989  7998       L1    16  0.70
      P1  H  7997  8008       L1    22  1.00

> <Gold.PLP.Chemscore.Internal.Correction>
0.0987

> <Gold.Rescore>
     Score         DG    S(hbond)    S(metal)    S(lipo)     H(rot)  DE(clash)    DE(int)     intcor
      9.77     -12.59       2.70        0.00      64.56       3.70       0.09       2.73       ----

> <Gold.Chemscore.Fitness>
9.7738

> <Gold.Chemscore.DG>
-12.5902

> <Gold.Chemscore.ZeroCoef>
-5.4800

> <Gold.Chemscore.Hbond>
2.6999

> <Gold.Chemscore.Metal>
0.0000

> <Gold.Chemscore.Lipo>
64.5599

> <Gold.Chemscore.Internal_Hbond>
0.0000

> <Gold.Chemscore.DEClash>
0.0853

> <Gold.Chemscore.DEInternal>
2.7311

> <Gold.Chemscore.Rot>
3.6957

> <Gold.Chemscore.Internal.Correction>
   9.000000E+99

> <Gold.Chemscore.Hbonds>
donor molecule, donor type, donor heavy atom, donor atom, acceptor molecule, acceptor atom, score
      P1  H  6933  6944       L1     8  0.56
      P1  H  7989  7998       L1    16  0.21
      P1  H  7997  8008       L1    22  0.90

> <Gold.Chemscore.Hbond.Weighted>
-9.0176

> <Gold.Chemscore.Metal.Weighted>
-0.0000

> <Gold.Chemscore.Lipo.Weighted>
-7.5535

> <Gold.Chemscore.Internal_Hbond.Weighted>
0.0000

> <Gold.Chemscore.DEClash.Weighted>
0.0853

> <Gold.Chemscore.DEInternal.Weighted>
2.7311

> <Gold.Chemscore.Rot.Weighted>
9.4610

> <Gold.Chemscore.Internal.Correction.Weighted>
   9.000000E+99

> <Gold.Protein.RotatedTorsions>
[ 6907 6896 6895 6894 ] final -105.59 input  -60.11 | X-H torsion
[ 7974 7965 7964 7962 ] final  -15.83 input  175.53 | X-H torsion
[ 8008 7997 7996 7995 ] final  -53.50 input   59.86 | X-H torsion
[ 10167 10162 10161 10158 ] final  -91.20 input  -65.29 | X-H torsion
[ 10718 10713 10712 10709 ] final -175.66 input   66.30 | X-H torsion
[ 10763 10752 10751 10750 ] final  152.29 input  -60.55 | X-H torsion
[ 11005 11000 10999 10996 ] final   99.30 input  -57.11 | X-H torsion

> <Gold.Protein.ActiveResidues>
 VAL166  LYS551  ARG553  GLY616  TRP617  ASP618  TYR619  PRO620  LYS621  CYS622 
 ASP623  PHE694  ASN695  SER759  ASP760  ASP761  ALA762  ILE779  LEU786  VAL792 
 PHE793  MET794  SER795  GLU796  ALA797  LYS798  CYS799  TRP800  GLU811  SER814 

> <Gold.Protein.RotatedAtoms>
  150.7345  134.0103  159.3667 H   0  0  0  0  0  0  0  0  0  0  0  0  # atno 6907 bound_to 6896
  151.8062  135.0692  160.0416 H   0  0  0  0  0  0  0  0  0  0  0  0  # atno 6908 bound_to 6896
  152.3105  133.5712  159.5714 H   0  0  0  0  0  0  0  0  0  0  0  0  # atno 6909 bound_to 6896
  146.2015  140.3549  142.8422 H   0  0  0  0  0  0  0  0  0  0  0  0  # atno 7974 bound_to 7965
  154.4135  140.1198  156.5164 H   0  0  0  0  0  0  0  0  0  0  0  0  # atno 8008 bound_to 7997
  155.6747  140.3496  155.4812 H   0  0  0  0  0  0  0  0  0  0  0  0  # atno 8009 bound_to 7997
  155.9603  140.1121  157.0891 H   0  0  0  0  0  0  0  0  0  0  0  0  # atno 8010 bound_to 7997
  140.3473  143.2910  151.9767 H   0  0  0  0  0  0  0  0  0  0  0  0  # atno 10167 bound_to 10162
  156.8032  130.9559  151.3118 H   0  0  0  0  0  0  0  0  0  0  0  0  # atno 10718 bound_to 10713
  154.1175  135.2835  155.3216 H   0  0  0  0  0  0  0  0  0  0  0  0  # atno 10763 bound_to 10752
  154.6446  135.5390  153.7833 H   0  0  0  0  0  0  0  0  0  0  0  0  # atno 10764 bound_to 10752
  153.0324  135.6495  154.1331 H   0  0  0  0  0  0  0  0  0  0  0  0  # atno 10765 bound_to 10752
  139.8771  134.9089  156.4586 H   0  0  0  0  0  0  0  0  0  0  0  0  # atno 11005 bound_to 11000
  144.8693  140.7251  143.6057 LP  0  0  0  0  0  0  0  0  0  0  0  0  # atno 17320 bound_to 7965
  145.3468  139.1717  143.4456 LP  0  0  0  0  0  0  0  0  0  0  0  0  # atno 17321 bound_to 7965
  139.4831  144.6106  151.7440 LP  0  0  0  0  0  0  0  0  0  0  0  0  # atno 17342 bound_to 10162
  140.5252  144.0816  150.6035 LP  0  0  0  0  0  0  0  0  0  0  0  0  # atno 17343 bound_to 10162
  157.6543  130.8911  149.9697 LP  0  0  0  0  0  0  0  0  0  0  0  0  # atno 17370 bound_to 10713
  156.1089  130.3651  150.0085 LP  0  0  0  0  0  0  0  0  0  0  0  0  # atno 17371 bound_to 10713
  140.8880  133.7869  155.9540 LP  0  0  0  0  0  0  0  0  0  0  0  0  # atno 17394 bound_to 11000
  140.8783  134.2642  157.5157 LP  0  0  0  0  0  0  0  0  0  0  0  0  # atno 17395 bound_to 11000

$$$$
