AV-unprocessed.smi:2178|AV-procd|sdf|8855|dock4
  -GOLD-   2272012 53D 1   1.00000     0.00000
 Structure written by MMmdl.
 47 49  0  0  0  0  0  0  0  0  2 V2000
  154.9453  140.1894  162.0392 C   0  0  0  0  0  0  0  0  0  0  0  0
  155.0510  138.6817  162.1730 C   0  0  0  0  0  0  0  0  0  0  0  0
  155.3881  138.1182  163.4209 C   0  0  0  0  0  0  0  0  0  0  0  0
  155.5035  136.7228  163.5609 C   0  0  0  0  0  0  0  0  0  0  0  0
  155.2879  135.8840  162.4520 C   0  0  0  0  0  0  0  0  0  0  0  0
  154.9503  136.4361  161.1991 C   0  0  0  0  0  0  0  0  0  0  0  0
  154.7324  135.5191  160.0097 C   0  0  0  0  0  0  0  0  0  0  0  0
  154.8169  137.8380  161.0613 C   0  0  0  0  0  0  0  0  0  0  0  0
  154.4895  138.3757  159.8439 O   0  0  0  0  0  0  0  0  0  0  0  0
  153.1805  138.9264  159.7957 C   0  0  0  0  0  0  0  0  0  0  0  0
  152.9712  139.6641  158.4645 C   0  0  1  0  0  0  0  0  0  0  0  0
  153.6092  138.9452  157.4280 O   0  0  0  0  0  0  0  0  0  0  0  0
  151.4885  139.9430  158.1435 C   0  0  0  0  0  0  0  0  0  0  0  0
  151.2078  141.3736  157.9405 N   0  0  0  0  0  0  0  0  0  0  0  0
  150.5496  142.0064  156.9263 C   0  0  0  0  0  0  0  0  0  0  0  0
  149.9208  141.3736  155.7289 C   0  0  0  0  0  0  0  0  0  0  0  0
  149.2712  142.3155  154.9045 O   0  0  0  0  0  0  0  0  0  0  0  0
  150.5563  143.3392  157.2103 N   0  3  0  0  0  0  0  0  0  0  0  0
  151.2250  143.5634  158.4141 C   0  0  0  0  0  0  0  0  0  0  0  0
  151.4845  144.7426  159.1057 C   0  0  0  0  0  0  0  0  0  0  0  0
  152.1942  144.6220  160.3185 C   0  0  0  0  0  0  0  0  0  0  0  0
  152.6144  143.3656  160.8010 C   0  0  0  0  0  0  0  0  0  0  0  0
  152.3448  142.1769  160.0913 C   0  0  0  0  0  0  0  0  0  0  0  0
  151.6457  142.3048  158.8907 C   0  0  0  0  0  0  0  0  0  0  0  0
  155.5058  140.6928  162.8276 H   0  0  0  0  0  0  0  0  0  0  0  0
  153.9037  140.5027  162.1092 H   0  0  0  0  0  0  0  0  0  0  0  0
  155.3434  140.5255  161.0814 H   0  0  0  0  0  0  0  0  0  0  0  0
  155.5620  138.7556  164.2755 H   0  0  0  0  0  0  0  0  0  0  0  0
  155.7630  136.2963  164.5187 H   0  0  0  0  0  0  0  0  0  0  0  0
  155.3846  134.8143  162.5670 H   0  0  0  0  0  0  0  0  0  0  0  0
  155.1826  135.9388  159.1095 H   0  0  0  0  0  0  0  0  0  0  0  0
  153.6665  135.3802  159.8291 H   0  0  0  0  0  0  0  0  0  0  0  0
  155.1797  134.5395  160.1806 H   0  0  0  0  0  0  0  0  0  0  0  0
  152.4494  138.1203  159.8725 H   0  0  0  0  0  0  0  0  0  0  0  0
  153.0021  139.5938  160.6401 H   0  0  0  0  0  0  0  0  0  0  0  0
  153.4958  140.6175  158.5317 H   0  0  0  0  0  0  0  0  0  0  0  0
  154.0220  138.1830  157.8041 H   0  0  0  0  0  0  0  0  0  0  0  0
  151.1576  139.3882  157.2656 H   0  0  0  0  0  0  0  0  0  0  0  0
  150.8614  139.5974  158.9655 H   0  0  0  0  0  0  0  0  0  0  0  0
  150.6865  140.8608  155.1461 H   0  0  0  0  0  0  0  0  0  0  0  0
  149.2025  140.6177  156.0457 H   0  0  0  0  0  0  0  0  0  0  0  0
  149.4178  143.1791  155.2598 H   0  0  0  0  0  0  0  0  0  0  0  0
  151.1614  145.7061  158.7396 H   0  0  0  0  0  0  0  0  0  0  0  0
  152.4193  145.5103  160.8906 H   0  0  0  0  0  0  0  0  0  0  0  0
  153.1537  143.3111  161.7356 H   0  0  0  0  0  0  0  0  0  0  0  0
  152.6668  141.2201  160.4755 H   0  0  0  0  0  0  0  0  0  0  0  0
  150.1284  144.0426  156.6217 H   0  0  0  0  0  0  0  0  0  0  0  0
  1  2  1  0  0  0  0
  1 25  1  0  0  0  0
  1 26  1  0  0  0  0
  1 27  1  0  0  0  0
  2  8  1  0  0  0  0
  2  3  2  0  0  0  0
  3  4  1  0  0  0  0
  3 28  1  0  0  0  0
  4  5  2  0  0  0  0
  4 29  1  0  0  0  0
  5  6  1  0  0  0  0
  5 30  1  0  0  0  0
  6  7  1  0  0  0  0
  6  8  2  0  0  0  0
  7 31  1  0  0  0  0
  7 32  1  0  0  0  0
  7 33  1  0  0  0  0
  8  9  1  0  0  0  0
  9 10  1  0  0  0  0
 10 11  1  0  0  0  0
 10 34  1  0  0  0  0
 10 35  1  0  0  0  0
 11 12  1  0  0  0  0
 11 13  1  0  0  0  0
 11 36  1  0  0  0  0
 12 37  1  0  0  0  0
 13 14  1  0  0  0  0
 13 38  1  0  0  0  0
 13 39  1  0  0  0  0
 14 24  1  0  0  0  0
 14 15  1  0  0  0  0
 15 16  1  0  0  0  0
 15 18  2  0  0  0  0
 16 17  1  0  0  0  0
 16 40  1  0  0  0  0
 16 41  1  0  0  0  0
 17 42  1  0  0  0  0
 18 19  1  0  0  0  0
 18 47  1  0  0  0  0
 19 24  2  0  0  0  0
 19 20  1  0  0  0  0
 20 21  2  0  0  0  0
 20 43  1  0  0  0  0
 21 22  1  0  0  0  0
 21 44  1  0  0  0  0
 22 23  2  0  0  0  0
 22 45  1  0  0  0  0
 23 24  1  0  0  0  0
 23 46  1  0  0  0  0
M  CHG  1  18   1
M  END
> <s_m_source_file>
AV-unprocessed.smi

> <i_m_source_file_index>
2178

> <i_lp_mmshare_version>
43012

> <i_f3d_flags>
0

> <s_epik_input>
W0NIM11jMVtjSF1bY0hdW2NIXWMoW0NIM10pYzFPW0NIMl1bQ0BIXShbT0hdKVtDSDJdbihjKG4yKVtDSDJdW09IXSljKGMyMylbY0hdW2NIXVtjSF1bY0hdMw==

> <s_epik_cmdline>
J2VwaWtfcHl0aG9uJywgJy1waCcsICc3LjAnLCAnLXRuJywgJzgnLCAnLW1hJywgJzIwMCcsICctbWV0YWxfYmluZGluZycsICctaW1hZScsICc8aW5maWxlLm1hZT4nLCAnLW9tYWUnLCAnPG91dGZpbGUubWFlPic=

> <r_lp_tautomer_probability>
1

> <r_epik_Ionization_Penalty>
1.43125

> <r_epik_Ionization_Penalty_Charging>
1.43039

> <r_epik_Ionization_Penalty_Neutral>
0.000858184

> <r_epik_State_Penalty>
1.51493

> <r_epik_Charging_Adjusted_Penalty>
2.94531

> <i_epik_Tot_Q>
1

> <i_epik_Tot_abs_Q>
1

> <r_epik_Metal_State_Penalty>
5.5599

> <b_epik_Metal_Only>
0

> <s_lp_Force_Field>
OPLS_2005

> <r_lp_Energy>
23.7174

> <b_lp_Chiralities_Consistent>
1

> <s_lp_Variant>
AV-unprocessed.smi:2178-4

> <Gold.Version>
5.8.1

> <Gold.Id.Protein>
6NUR|6NUR_protein|mol2

> <Gold.PLP.Fitness>
58.8151

> <Gold.PLP.PLP>
-48.7595

> <Gold.PLP.part.hbond>
-4.3964

> <Gold.PLP.part.metal>
0.0000

> <Gold.PLP.part.buried>
-4.5705

> <Gold.PLP.part.nonpolar>
-39.7490

> <Gold.PLP.part.repulsive>
0.0242

> <Gold.PLP.ligand.clash>
0.0000

> <Gold.PLP.ligand.torsion>
1.1250

> <Gold.PLP.Chemscore.Hbond>
4.0238

> <Gold.PLP.Chemscore.CHOScore>
0.0000

> <Gold.PLP.Chemscore.Metal>
0.0000

> <Gold.Chemscore.Hbonds>
donor molecule, donor type, donor heavy atom, donor atom, acceptor molecule, acceptor atom, score
      L1  H    17    42       P1  8028  1.00
      L1  H    18    47       P1  8028  2.00
      P1  H  7997  8010       L1    12  1.00

> <Gold.PLP.Chemscore.Internal.Correction>
0.2343

> <Gold.Rescore>
     Score         DG    S(hbond)    S(metal)    S(lipo)     H(rot)  DE(clash)    DE(int)     intcor
     20.79     -22.45       2.53        0.00     139.43       3.05       0.03       1.63       ----

> <Gold.Chemscore.Fitness>
20.7936

> <Gold.Chemscore.DG>
-22.4461

> <Gold.Chemscore.ZeroCoef>
-5.4800

> <Gold.Chemscore.Hbond>
2.5313

> <Gold.Chemscore.Metal>
0.0000

> <Gold.Chemscore.Lipo>
139.4315

> <Gold.Chemscore.Internal_Hbond>
0.0000

> <Gold.Chemscore.DEClash>
0.0270

> <Gold.Chemscore.DEInternal>
1.6255

> <Gold.Chemscore.Rot>
3.0476

> <Gold.Chemscore.Internal.Correction>
   9.000000E+99

> <Gold.Chemscore.Hbonds>
donor molecule, donor type, donor heavy atom, donor atom, acceptor molecule, acceptor atom, score
      L1  H    17    42       P1  8028  0.95
      L1  H    18    47       P1  8028  0.99
      P1  H  7997  8010       L1    12  0.31

> <Gold.Chemscore.Hbond.Weighted>
-8.4544

> <Gold.Chemscore.Metal.Weighted>
-0.0000

> <Gold.Chemscore.Lipo.Weighted>
-16.3135

> <Gold.Chemscore.Internal_Hbond.Weighted>
0.0000

> <Gold.Chemscore.DEClash.Weighted>
0.0270

> <Gold.Chemscore.DEInternal.Weighted>
1.6255

> <Gold.Chemscore.Rot.Weighted>
7.8018

> <Gold.Chemscore.Internal.Correction.Weighted>
   9.000000E+99

> <Gold.Protein.RotatedTorsions>
[ 6907 6896 6895 6894 ] final   -0.74 input  -60.11 | X-H torsion
[ 7974 7965 7964 7962 ] final   31.78 input  175.53 | X-H torsion
[ 8008 7997 7996 7995 ] final   55.03 input   59.86 | X-H torsion
[ 10167 10162 10161 10158 ] final   96.16 input  -65.29 | X-H torsion
[ 10718 10713 10712 10709 ] final  -89.11 input   66.30 | X-H torsion
[ 10763 10752 10751 10750 ] final -105.41 input  -60.55 | X-H torsion
[ 11005 11000 10999 10996 ] final  -58.90 input  -57.11 | X-H torsion

> <Gold.Protein.ActiveResidues>
 VAL166  LYS551  ARG553  GLY616  TRP617  ASP618  TYR619  PRO620  LYS621  CYS622 
 ASP623  PHE694  ASN695  SER759  ASP760  ASP761  ALA762  ILE779  LEU786  VAL792 
 PHE793  MET794  SER795  GLU796  ALA797  LYS798  CYS799  TRP800  GLU811  SER814 

> <Gold.Protein.RotatedAtoms>
  151.5573  135.1066  159.9963 H   0  0  0  0  0  0  0  0  0  0  0  0  # atno 6907 bound_to 6896
  152.4463  133.7539  159.6720 H   0  0  0  0  0  0  0  0  0  0  0  0  # atno 6908 bound_to 6896
  150.8380  133.7915  159.3096 H   0  0  0  0  0  0  0  0  0  0  0  0  # atno 6909 bound_to 6896
  146.1528  139.6612  142.9087 H   0  0  0  0  0  0  0  0  0  0  0  0  # atno 7974 bound_to 7965
  155.4944  140.3472  155.4360 H   0  0  0  0  0  0  0  0  0  0  0  0  # atno 8008 bound_to 7997
  156.0955  140.1422  156.9564 H   0  0  0  0  0  0  0  0  0  0  0  0  # atno 8009 bound_to 7997
  154.4661  140.0917  156.7001 H   0  0  0  0  0  0  0  0  0  0  0  0  # atno 8010 bound_to 7997
  139.7920  144.6848  150.9879 H   0  0  0  0  0  0  0  0  0  0  0  0  # atno 10167 bound_to 10162
  155.9984  130.4860  150.5121 H   0  0  0  0  0  0  0  0  0  0  0  0  # atno 10718 bound_to 10713
  154.7944  135.4750  154.0127 H   0  0  0  0  0  0  0  0  0  0  0  0  # atno 10763 bound_to 10752
  153.1681  135.6820  153.8654 H   0  0  0  0  0  0  0  0  0  0  0  0  # atno 10764 bound_to 10752
  153.8245  135.3200  155.3391 H   0  0  0  0  0  0  0  0  0  0  0  0  # atno 10765 bound_to 10752
  141.1226  133.6614  156.4989 H   0  0  0  0  0  0  0  0  0  0  0  0  # atno 11005 bound_to 11000
  145.4781  141.0437  143.2661 LP  0  0  0  0  0  0  0  0  0  0  0  0  # atno 17320 bound_to 7965
  144.7926  139.6299  143.7107 LP  0  0  0  0  0  0  0  0  0  0  0  0  # atno 17321 bound_to 7965
  140.7820  143.4371  151.0607 LP  0  0  0  0  0  0  0  0  0  0  0  0  # atno 17342 bound_to 10162
  139.8047  143.8035  152.3166 LP  0  0  0  0  0  0  0  0  0  0  0  0  # atno 17343 bound_to 10162
  157.3093  131.0660  151.2013 LP  0  0  0  0  0  0  0  0  0  0  0  0  # atno 17370 bound_to 10713
  157.2964  130.6821  149.6141 LP  0  0  0  0  0  0  0  0  0  0  0  0  # atno 17371 bound_to 10713
  140.4462  134.6971  157.5016 LP  0  0  0  0  0  0  0  0  0  0  0  0  # atno 17394 bound_to 11000
  140.0196  134.6567  155.9259 LP  0  0  0  0  0  0  0  0  0  0  0  0  # atno 17395 bound_to 11000

$$$$
