AV-unprocessed.smi:2510|AV-procd|sdf|9884|dock1
  -GOLD-   2272013523D 1   1.00000     0.00000
 Structure written by MMmdl.
 48 49  0  0  0  0  0  0  0  0  1 V2000
  148.8943  139.3632  156.7877 C   0  0  0  0  0  0  0  0  0  0  0  0
  149.5051  140.2587  157.8822 C   0  0  0  0  0  0  0  0  0  0  0  0
  150.8979  140.8858  157.5866 C   0  0  0  0  0  0  0  0  0  0  0  0
  151.8834  139.7687  157.1795 C   0  0  0  0  0  0  0  0  0  0  0  0
  152.2173  138.7662  158.2962 C   0  0  0  0  0  0  0  0  0  0  0  0
  150.9511  142.1637  156.7024 C   0  0  1  0  0  0  0  0  0  0  0  0
  149.8522  142.3235  155.7575 N   0  0  0  0  0  0  0  0  0  0  0  0
  149.5769  141.4682  154.7615 C   0  0  0  0  0  0  0  0  0  0  0  0
  150.2124  140.4337  154.5593 O   0  0  0  0  0  0  0  0  0  0  0  0
  148.4021  141.8346  153.8554 C   0  0  0  0  0  0  0  0  0  0  0  0
  147.1223  141.8479  154.6273 C   0  0  0  0  0  0  0  0  0  0  0  0
  146.8043  142.3998  155.8367 C   0  0  0  0  0  0  0  0  0  0  0  0
  145.4323  142.0633  156.0286 C   0  0  0  0  0  0  0  0  0  0  0  0
  144.5493  142.4035  157.1930 C   0  0  0  0  0  0  0  0  0  0  0  0
  144.9366  141.3645  155.0181 N   0  0  0  0  0  0  0  0  0  0  0  0
  145.9740  141.2412  154.1697 N   0  0  0  0  0  0  0  0  0  0  0  0
  150.7714  143.0236  157.9569 C   0  0  2  0  0  0  0  0  0  0  0  0
  151.4027  144.4093  158.0162 C   0  0  0  0  0  0  0  0  0  0  0  0
  151.3888  141.8356  158.7175 C   0  0  2  0  0  0  0  0  0  0  0  0
  152.8096  141.9097  158.7803 O   0  0  0  0  0  0  0  0  0  0  0  0
  153.2795  142.6751  159.8771 C   0  0  0  0  0  0  0  0  0  0  0  0
  145.8853  140.7447  153.2949 H   0  0  0  0  0  0  0  0  0  0  0  0
  147.8758  139.0817  157.0555 H   0  0  0  0  0  0  0  0  0  0  0  0
  149.4530  138.4363  156.6609 H   0  0  0  0  0  0  0  0  0  0  0  0
  148.8481  139.8612  155.8218 H   0  0  0  0  0  0  0  0  0  0  0  0
  148.7808  141.0441  158.0967 H   0  0  0  0  0  0  0  0  0  0  0  0
  149.5523  139.6791  158.8044 H   0  0  0  0  0  0  0  0  0  0  0  0
  151.5220  139.2326  156.3027 H   0  0  0  0  0  0  0  0  0  0  0  0
  152.8217  140.2121  156.8448 H   0  0  0  0  0  0  0  0  0  0  0  0
  152.9724  138.0558  157.9593 H   0  0  0  0  0  0  0  0  0  0  0  0
  151.3438  138.1900  158.5995 H   0  0  0  0  0  0  0  0  0  0  0  0
  152.6112  139.2697  159.1790 H   0  0  0  0  0  0  0  0  0  0  0  0
  151.9377  142.3230  156.2594 H   0  0  0  0  0  0  0  0  0  0  0  0
  149.2762  143.1466  155.8565 H   0  0  0  0  0  0  0  0  0  0  0  0
  148.5827  142.8162  153.4159 H   0  0  0  0  0  0  0  0  0  0  0  0
  148.3379  141.1303  153.0245 H   0  0  0  0  0  0  0  0  0  0  0  0
  147.4572  142.9587  156.4909 H   0  0  0  0  0  0  0  0  0  0  0  0
  145.0969  142.9594  157.9542 H   0  0  0  0  0  0  0  0  0  0  0  0
  144.1533  141.5025  157.6622 H   0  0  0  0  0  0  0  0  0  0  0  0
  143.7045  143.0163  156.8786 H   0  0  0  0  0  0  0  0  0  0  0  0
  149.7131  143.0918  158.2155 H   0  0  0  0  0  0  0  0  0  0  0  0
  152.4612  144.3802  157.7571 H   0  0  0  0  0  0  0  0  0  0  0  0
  151.3157  144.8412  159.0131 H   0  0  0  0  0  0  0  0  0  0  0  0
  150.9153  145.0908  157.3190 H   0  0  0  0  0  0  0  0  0  0  0  0
  150.9220  141.6277  159.6823 H   0  0  0  0  0  0  0  0  0  0  0  0
  154.3677  142.7272  159.8476 H   0  0  0  0  0  0  0  0  0  0  0  0
  152.9916  142.2159  160.8235 H   0  0  0  0  0  0  0  0  0  0  0  0
  152.8926  143.6938  159.8533 H   0  0  0  0  0  0  0  0  0  0  0  0
  1  2  1  0  0  0  0
  1 23  1  0  0  0  0
  1 24  1  0  0  0  0
  1 25  1  0  0  0  0
  2  3  1  0  0  0  0
  2 26  1  0  0  0  0
  2 27  1  0  0  0  0
  3 19  1  0  0  0  0
  3  4  1  0  0  0  0
  3  6  1  0  0  0  0
  4  5  1  0  0  0  0
  4 28  1  0  0  0  0
  4 29  1  0  0  0  0
  5 30  1  0  0  0  0
  5 31  1  0  0  0  0
  5 32  1  0  0  0  0
  6  7  1  0  0  0  0
  6 17  1  0  0  0  0
  6 33  1  0  0  0  0
  7  8  1  0  0  0  0
  7 34  1  0  0  0  0
  8  9  2  0  0  0  0
  8 10  1  0  0  0  0
 10 35  1  0  0  0  0
 10 36  1  0  0  0  0
 10 11  1  0  0  0  0
 11 16  1  0  0  0  0
 11 12  2  0  0  0  0
 12 13  1  0  0  0  0
 12 37  1  0  0  0  0
 13 14  1  0  0  0  0
 13 15  2  0  0  0  0
 14 38  1  0  0  0  0
 14 39  1  0  0  0  0
 14 40  1  0  0  0  0
 15 16  1  0  0  0  0
 16 22  1  0  0  0  0
 17 18  1  0  0  0  0
 17 19  1  0  0  0  0
 17 41  1  0  0  0  0
 18 42  1  0  0  0  0
 18 43  1  0  0  0  0
 18 44  1  0  0  0  0
 19 20  1  0  0  0  0
 19 45  1  0  0  0  0
 20 21  1  0  0  0  0
 21 46  1  0  0  0  0
 21 47  1  0  0  0  0
 21 48  1  0  0  0  0
M  END
> <s_m_source_file>
AV-unprocessed.smi

> <i_m_source_file_index>
2510

> <i_lp_mmshare_version>
43012

> <i_f3d_flags>
0

> <s_epik_input>
W0NIM11PW0NAQEhdMVtDQEhdKFtDSDNdKVtDQEBIXShDMShbQ0gyXVtDSDNdKVtDSDJdW0NIM10pW05IXUMoPU8pW0NIMl1jMltjSF1jKFtDSDNdKVtuSF1uMg==

> <s_epik_cmdline>
J2VwaWtfcHl0aG9uJywgJy1waCcsICc3LjAnLCAnLXRuJywgJzgnLCAnLW1hJywgJzIwMCcsICctbWV0YWxfYmluZGluZycsICctaW1hZScsICc8aW5maWxlLm1hZT4nLCAnLW9tYWUnLCAnPG91dGZpbGUubWFlPic=

> <r_lp_tautomer_probability>
0.5

> <r_epik_Ionization_Penalty>
0.000134763

> <r_epik_Ionization_Penalty_Charging>
0

> <r_epik_Ionization_Penalty_Neutral>
0.000134763

> <r_epik_State_Penalty>
0.41068

> <r_epik_Charging_Adjusted_Penalty>
0.41068

> <i_epik_Tot_Q>
0

> <i_epik_Tot_abs_Q>
0

> <r_epik_Metal_State_Penalty>
0.410661

> <b_epik_Metal_Only>
0

> <s_lp_Force_Field>
OPLS_2005

> <r_lp_Energy>
27.4462

> <b_lp_Chiralities_Consistent>
1

> <s_lp_Variant>
AV-unprocessed.smi:2510-15

> <Gold.Version>
5.8.1

> <Gold.Id.Protein>
6NUR|6NUR_protein|mol2

> <Gold.PLP.Fitness>
40.6100

> <Gold.PLP.PLP>
-34.8099

> <Gold.PLP.part.hbond>
-3.0000

> <Gold.PLP.part.metal>
0.0000

> <Gold.PLP.part.buried>
-3.7992

> <Gold.PLP.part.nonpolar>
-28.4049

> <Gold.PLP.part.repulsive>
0.4836

> <Gold.PLP.ligand.clash>
0.0000

> <Gold.PLP.ligand.torsion>
0.6896

> <Gold.PLP.Chemscore.Hbond>
2.1334

> <Gold.PLP.Chemscore.CHOScore>
0.0000

> <Gold.PLP.Chemscore.Metal>
0.0000

> <Gold.Chemscore.Hbonds>
donor molecule, donor type, donor heavy atom, donor atom, acceptor molecule, acceptor atom, score
      L1  H     7    34       P1  8028  1.00
      L1  H    16    22       P1 10175  0.06
      P1  H  7989  7998       L1     9  0.96

> <Gold.PLP.Chemscore.Internal.Correction>
0.7791

> <Gold.Rescore>
     Score         DG    S(hbond)    S(metal)    S(lipo)     H(rot)  DE(clash)    DE(int)     intcor
     15.98     -16.73       1.64        0.00      88.99       1.81       0.11       0.63       ----

> <Gold.Chemscore.Fitness>
15.9813

> <Gold.Chemscore.DG>
-16.7259

> <Gold.Chemscore.ZeroCoef>
-5.4800

> <Gold.Chemscore.Hbond>
1.6372

> <Gold.Chemscore.Metal>
0.0000

> <Gold.Chemscore.Lipo>
88.9895

> <Gold.Chemscore.Internal_Hbond>
0.0000

> <Gold.Chemscore.DEClash>
0.1119

> <Gold.Chemscore.DEInternal>
0.6327

> <Gold.Chemscore.Rot>
1.8102

> <Gold.Chemscore.Internal.Correction>
   9.000000E+99

> <Gold.Chemscore.Hbonds>
donor molecule, donor type, donor heavy atom, donor atom, acceptor molecule, acceptor atom, score
      L1  H     7    34       P1  8028  0.98
      L1  H    16    22       P1 10175  0.05
      P1  H  7989  7998       L1     9  0.56

> <Gold.Chemscore.Hbond.Weighted>
-5.4683

> <Gold.Chemscore.Metal.Weighted>
-0.0000

> <Gold.Chemscore.Lipo.Weighted>
-10.4118

> <Gold.Chemscore.Internal_Hbond.Weighted>
0.0000

> <Gold.Chemscore.DEClash.Weighted>
0.1119

> <Gold.Chemscore.DEInternal.Weighted>
0.6327

> <Gold.Chemscore.Rot.Weighted>
4.6341

> <Gold.Chemscore.Internal.Correction.Weighted>
   9.000000E+99

> <Gold.Protein.RotatedTorsions>
[ 6907 6896 6895 6894 ] final   66.72 input  -60.11 | X-H torsion
[ 7974 7965 7964 7962 ] final  -83.28 input  175.53 | X-H torsion
[ 8008 7997 7996 7995 ] final   46.18 input   59.86 | X-H torsion
[ 10167 10162 10161 10158 ] final -163.02 input  -65.29 | X-H torsion
[ 10718 10713 10712 10709 ] final  -11.47 input   66.30 | X-H torsion
[ 10763 10752 10751 10750 ] final   32.38 input  -60.55 | X-H torsion
[ 11005 11000 10999 10996 ] final  161.01 input  -57.11 | X-H torsion

> <Gold.Protein.ActiveResidues>
 VAL166  LYS551  ARG553  GLY616  TRP617  ASP618  TYR619  PRO620  LYS621  CYS622 
 ASP623  PHE694  ASN695  SER759  ASP760  ASP761  ALA762  ILE779  LEU786  VAL792 
 PHE793  MET794  SER795  GLU796  ALA797  LYS798  CYS799  TRP800  GLU811  SER814 

> <Gold.Protein.RotatedAtoms>
  152.4501  134.5411  159.9839 H   0  0  0  0  0  0  0  0  0  0  0  0  # atno 6907 bound_to 6896
  151.5486  133.3415  159.2956 H   0  0  0  0  0  0  0  0  0  0  0  0  # atno 6908 bound_to 6896
  150.8428  134.7758  159.7009 H   0  0  0  0  0  0  0  0  0  0  0  0  # atno 6909 bound_to 6896
  145.5221  140.9530  143.1649 H   0  0  0  0  0  0  0  0  0  0  0  0  # atno 7974 bound_to 7965
  155.3482  140.3412  155.4239 H   0  0  0  0  0  0  0  0  0  0  0  0  # atno 8008 bound_to 7997
  156.1777  140.1653  156.8367 H   0  0  0  0  0  0  0  0  0  0  0  0  # atno 8009 bound_to 7997
  154.5300  140.0747  156.8311 H   0  0  0  0  0  0  0  0  0  0  0  0  # atno 8010 bound_to 7997
  139.6351  144.0366  152.2047 H   0  0  0  0  0  0  0  0  0  0  0  0  # atno 10167 bound_to 10162
  156.6586  130.4975  149.6038 H   0  0  0  0  0  0  0  0  0  0  0  0  # atno 10718 bound_to 10713
  153.0265  135.6414  154.1347 H   0  0  0  0  0  0  0  0  0  0  0  0  # atno 10763 bound_to 10752
  154.1075  135.2855  155.3239 H   0  0  0  0  0  0  0  0  0  0  0  0  # atno 10764 bound_to 10752
  154.6355  135.5478  153.7792 H   0  0  0  0  0  0  0  0  0  0  0  0  # atno 10765 bound_to 10752
  140.2116  134.8263  157.3126 H   0  0  0  0  0  0  0  0  0  0  0  0  # atno 11005 bound_to 11000
  144.7670  139.6821  143.7210 LP  0  0  0  0  0  0  0  0  0  0  0  0  # atno 17320 bound_to 7965
  146.2099  139.5448  142.9688 LP  0  0  0  0  0  0  0  0  0  0  0  0  # atno 17321 bound_to 7965
  140.0041  144.6272  150.7704 LP  0  0  0  0  0  0  0  0  0  0  0  0  # atno 17342 bound_to 10162
  140.7460  143.2885  151.3397 LP  0  0  0  0  0  0  0  0  0  0  0  0  # atno 17343 bound_to 10162
  156.2028  130.6631  151.1186 LP  0  0  0  0  0  0  0  0  0  0  0  0  # atno 17370 bound_to 10713
  157.7117  131.0731  150.6476 LP  0  0  0  0  0  0  0  0  0  0  0  0  # atno 17371 bound_to 10713
  140.1945  134.4330  155.7697 LP  0  0  0  0  0  0  0  0  0  0  0  0  # atno 17394 bound_to 11000
  141.2226  133.7043  156.8082 LP  0  0  0  0  0  0  0  0  0  0  0  0  # atno 17395 bound_to 11000

$$$$
