AV-unprocessed.smi:1492|AV-procd|sdf|6045|dock6
  -GOLD-   22720 6163D 1   1.00000     0.00000
 Structure written by MMmdl.
 51 52  0  0  0  0  0  0  0  0  2 V2000
  147.1489  140.1173  157.6718 C   0  0  0  0  0  0  0  0  0  0  0  0
  146.7762  141.4790  157.0575 C   0  0  0  0  0  0  0  0  0  0  0  0
  146.6899  141.5437  155.4996 C   0  0  2  0  0  0  0  0  0  0  0  0
  145.8573  140.3323  155.0006 C   0  0  0  0  0  0  0  0  0  0  0  0
  148.1259  141.3723  154.9088 C   0  0  0  0  0  0  0  0  0  0  0  0
  149.1135  142.1870  155.6119 N   0  0  0  0  0  0  0  0  0  0  0  0
  149.9608  141.7684  156.5628 C   0  0  0  0  0  0  0  0  0  0  0  0
  149.9088  140.6549  157.0846 O   0  0  0  0  0  0  0  0  0  0  0  0
  151.0612  142.7546  156.9548 C   0  0  0  0  0  0  0  0  0  0  0  0
  151.7072  142.4842  158.3152 C   0  0  0  0  0  0  0  0  0  0  0  0
  151.7212  143.3955  159.3296 C   0  0  0  0  0  0  0  0  0  0  0  0
  151.1117  144.7809  159.2040 C   0  0  0  0  0  0  0  0  0  0  0  0
  152.3060  143.0929  160.5710 N   0  0  0  0  0  0  0  0  0  0  0  0
  152.8367  141.9446  160.7537 C   0  0  0  0  0  0  0  0  0  0  0  0
  153.4520  141.6321  162.1012 C   0  0  0  0  0  0  0  0  0  0  0  0
  152.8796  140.9568  159.7955 N   0  5  0  0  0  0  0  0  0  0  0  0
  152.3199  141.1679  158.5708 C   0  0  0  0  0  0  0  0  0  0  0  0
  152.3053  140.2973  157.7014 O   0  0  0  0  0  0  0  0  0  0  0  0
  146.0714  142.8159  155.0211 N   0  0  0  0  0  0  0  0  0  0  0  0
  146.0120  142.9838  153.5648 C   0  0  0  0  0  0  0  0  0  0  0  0
  145.5077  144.3819  153.1687 C   0  0  0  0  0  0  0  0  0  0  0  0
  144.2297  144.6125  153.7495 O   0  0  0  0  0  0  0  0  0  0  0  0
  144.2558  144.5179  155.1686 C   0  0  0  0  0  0  0  0  0  0  0  0
  144.7511  143.1225  155.5847 C   0  0  0  0  0  0  0  0  0  0  0  0
  147.1665  140.1873  158.7594 H   0  0  0  0  0  0  0  0  0  0  0  0
  148.1376  139.7834  157.3588 H   0  0  0  0  0  0  0  0  0  0  0  0
  146.4286  139.3414  157.4141 H   0  0  0  0  0  0  0  0  0  0  0  0
  145.8237  141.7776  157.4939 H   0  0  0  0  0  0  0  0  0  0  0  0
  147.5053  142.2040  157.4183 H   0  0  0  0  0  0  0  0  0  0  0  0
  146.4019  139.3925  155.0935 H   0  0  0  0  0  0  0  0  0  0  0  0
  145.5884  140.4382  153.9492 H   0  0  0  0  0  0  0  0  0  0  0  0
  144.9315  140.2112  155.5634 H   0  0  0  0  0  0  0  0  0  0  0  0
  148.4482  140.3331  154.9745 H   0  0  0  0  0  0  0  0  0  0  0  0
  148.1460  141.6051  153.8435 H   0  0  0  0  0  0  0  0  0  0  0  0
  149.2467  143.1244  155.2588 H   0  0  0  0  0  0  0  0  0  0  0  0
  151.8120  142.7738  156.1642 H   0  0  0  0  0  0  0  0  0  0  0  0
  150.6390  143.7597  156.9614 H   0  0  0  0  0  0  0  0  0  0  0  0
  150.0600  144.7160  158.9256 H   0  0  0  0  0  0  0  0  0  0  0  0
  151.6371  145.3612  158.4457 H   0  0  0  0  0  0  0  0  0  0  0  0
  151.1735  145.3260  160.1465 H   0  0  0  0  0  0  0  0  0  0  0  0
  152.6727  141.5476  162.8590 H   0  0  0  0  0  0  0  0  0  0  0  0
  154.1384  142.4255  162.3981 H   0  0  0  0  0  0  0  0  0  0  0  0
  154.0077  140.6935  162.0758 H   0  0  0  0  0  0  0  0  0  0  0  0
  146.9942  142.8481  153.1151 H   0  0  0  0  0  0  0  0  0  0  0  0
  145.3537  142.2358  153.1233 H   0  0  0  0  0  0  0  0  0  0  0  0
  146.2086  145.1510  153.4949 H   0  0  0  0  0  0  0  0  0  0  0  0
  145.4263  144.4626  152.0848 H   0  0  0  0  0  0  0  0  0  0  0  0
  144.8981  145.2961  155.5819 H   0  0  0  0  0  0  0  0  0  0  0  0
  143.2522  144.6941  155.5555 H   0  0  0  0  0  0  0  0  0  0  0  0
  144.0203  142.3833  155.2571 H   0  0  0  0  0  0  0  0  0  0  0  0
  144.7715  143.0862  156.6724 H   0  0  0  0  0  0  0  0  0  0  0  0
  1  2  1  0  0  0  0
  1 25  1  0  0  0  0
  1 26  1  0  0  0  0
  1 27  1  0  0  0  0
  2  3  1  0  0  0  0
  2 28  1  0  0  0  0
  2 29  1  0  0  0  0
  3  4  1  0  0  0  0
  3  5  1  0  0  0  0
  3 19  1  0  0  0  0
  4 30  1  0  0  0  0
  4 31  1  0  0  0  0
  4 32  1  0  0  0  0
  5  6  1  0  0  0  0
  5 33  1  0  0  0  0
  5 34  1  0  0  0  0
  6  7  1  0  0  0  0
  6 35  1  0  0  0  0
  7  8  2  0  0  0  0
  7  9  1  0  0  0  0
  9 10  1  0  0  0  0
  9 36  1  0  0  0  0
  9 37  1  0  0  0  0
 10 17  1  0  0  0  0
 10 11  2  0  0  0  0
 11 12  1  0  0  0  0
 11 13  1  0  0  0  0
 12 38  1  0  0  0  0
 12 39  1  0  0  0  0
 12 40  1  0  0  0  0
 13 14  2  0  0  0  0
 14 15  1  0  0  0  0
 14 16  1  0  0  0  0
 15 41  1  0  0  0  0
 15 42  1  0  0  0  0
 15 43  1  0  0  0  0
 16 17  1  0  0  0  0
 17 18  2  0  0  0  0
 19 24  1  0  0  0  0
 19 20  1  0  0  0  0
 20 21  1  0  0  0  0
 20 44  1  0  0  0  0
 20 45  1  0  0  0  0
 21 22  1  0  0  0  0
 21 46  1  0  0  0  0
 21 47  1  0  0  0  0
 22 23  1  0  0  0  0
 23 24  1  0  0  0  0
 23 48  1  0  0  0  0
 23 49  1  0  0  0  0
 24 50  1  0  0  0  0
 24 51  1  0  0  0  0
M  CHG  1  16  -1
M  END
> <s_m_source_file>
AV-unprocessed.smi

> <i_m_source_file_index>
1492

> <i_lp_mmshare_version>
43012

> <i_f3d_flags>
0

> <s_epik_input>
W0NIMl0xW0NIMl1PW0NIMl1bQ0gyXU4xW0NAQF0oW0NIM10pKFtDSDJdW0NIM10pW0NIMl1bTkhdQyg9TylbQ0gyXWMyYyhbQ0gzXSluYyhbQ0gzXSlbbkhdYzI9Tw==

> <s_epik_cmdline>
J2VwaWtfcHl0aG9uJywgJy1waCcsICc3LjAnLCAnLXRuJywgJzgnLCAnLW1hJywgJzIwMCcsICctbWV0YWxfYmluZGluZycsICctaW1hZScsICc8aW5maWxlLm1hZT4nLCAnLW9tYWUnLCAnPG91dGZpbGUubWFlPic=

> <r_lp_tautomer_probability>
0.839158

> <r_epik_Ionization_Penalty>
6.88574

> <r_epik_Ionization_Penalty_Charging>
6.74373e-08

> <r_epik_Ionization_Penalty_Neutral>
6.88574

> <r_epik_State_Penalty>
4.79448

> <r_epik_Charging_Adjusted_Penalty>
4.79448

> <i_epik_Tot_Q>
-1

> <i_epik_Tot_abs_Q>
1

> <r_epik_Metal_State_Penalty>
1.16421

> <b_epik_Metal_Only>
1

> <s_lp_Force_Field>
OPLS_2005

> <r_lp_Energy>
46.4707

> <b_lp_Chiralities_Consistent>
1

> <s_lp_Variant>
AV-unprocessed.smi:1492-10

> <Gold.Version>
5.8.1

> <Gold.Id.Protein>
6NUR|6NUR_protein|mol2

> <Gold.PLP.Fitness>
44.1127

> <Gold.PLP.PLP>
-39.7219

> <Gold.PLP.part.hbond>
-2.0000

> <Gold.PLP.part.metal>
0.0000

> <Gold.PLP.part.buried>
-7.5596

> <Gold.PLP.part.nonpolar>
-30.6059

> <Gold.PLP.part.repulsive>
0.5042

> <Gold.PLP.ligand.clash>
0.0000

> <Gold.PLP.ligand.torsion>
0.7683

> <Gold.PLP.Chemscore.Hbond>
1.9200

> <Gold.PLP.Chemscore.CHOScore>
0.0000

> <Gold.PLP.Chemscore.Metal>
0.0000

> <Gold.Chemscore.Hbonds>
donor molecule, donor type, donor heavy atom, donor atom, acceptor molecule, acceptor atom, score
      L1  H     6    35       P1  8028  0.82
      P1  H  7997  8009       L1    18  0.25

> <Gold.PLP.Chemscore.Internal.Correction>
0.1674

> <Gold.Rescore>
     Score         DG    S(hbond)    S(metal)    S(lipo)     H(rot)  DE(clash)    DE(int)     intcor
     10.25     -15.46       1.79        0.00      78.86       2.05       0.05       5.16       ----

> <Gold.Chemscore.Fitness>
10.2518

> <Gold.Chemscore.DG>
-15.4620

> <Gold.Chemscore.ZeroCoef>
-5.4800

> <Gold.Chemscore.Hbond>
1.7946

> <Gold.Chemscore.Metal>
0.0000

> <Gold.Chemscore.Lipo>
78.8550

> <Gold.Chemscore.Internal_Hbond>
0.0000

> <Gold.Chemscore.DEClash>
0.0456

> <Gold.Chemscore.DEInternal>
5.1645

> <Gold.Chemscore.Rot>
2.0461

> <Gold.Chemscore.Internal.Correction>
   9.000000E+99

> <Gold.Chemscore.Hbonds>
donor molecule, donor type, donor heavy atom, donor atom, acceptor molecule, acceptor atom, score
      L1  H     6    35       P1  8028  0.81
      P1  H  7997  8009       L1    18  0.20

> <Gold.Chemscore.Hbond.Weighted>
-5.9940

> <Gold.Chemscore.Metal.Weighted>
-0.0000

> <Gold.Chemscore.Lipo.Weighted>
-9.2260

> <Gold.Chemscore.Internal_Hbond.Weighted>
0.0000

> <Gold.Chemscore.DEClash.Weighted>
0.0456

> <Gold.Chemscore.DEInternal.Weighted>
5.1645

> <Gold.Chemscore.Rot.Weighted>
5.2381

> <Gold.Chemscore.Internal.Correction.Weighted>
   9.000000E+99

> <Gold.Protein.RotatedTorsions>
[ 6907 6896 6895 6894 ] final  -13.94 input  -60.11 | X-H torsion
[ 7974 7965 7964 7962 ] final -111.82 input  175.53 | X-H torsion
[ 8008 7997 7996 7995 ] final  179.06 input   59.86 | X-H torsion
[ 10167 10162 10161 10158 ] final   34.03 input  -65.29 | X-H torsion
[ 10718 10713 10712 10709 ] final  -78.69 input   66.30 | X-H torsion
[ 10763 10752 10751 10750 ] final  -55.27 input  -60.55 | X-H torsion
[ 11005 11000 10999 10996 ] final  -35.82 input  -57.11 | X-H torsion

> <Gold.Protein.ActiveResidues>
 VAL166  LYS551  ARG553  GLY616  TRP617  ASP618  TYR619  PRO620  LYS621  CYS622 
 ASP623  PHE694  ASN695  SER759  ASP760  ASP761  ALA762  ILE779  LEU786  VAL792 
 PHE793  MET794  SER795  GLU796  ALA797  LYS798  CYS799  TRP800  GLU811  SER814 

> <Gold.Protein.RotatedAtoms>
  151.3471  135.0876  159.9390 H   0  0  0  0  0  0  0  0  0  0  0  0  # atno 6907 bound_to 6896
  152.5196  133.9389  159.7627 H   0  0  0  0  0  0  0  0  0  0  0  0  # atno 6908 bound_to 6896
  150.9757  133.6244  159.2760 H   0  0  0  0  0  0  0  0  0  0  0  0  # atno 6909 bound_to 6896
  145.1514  140.8831  143.3644 H   0  0  0  0  0  0  0  0  0  0  0  0  # atno 7974 bound_to 7965
  156.0476  140.1318  157.0086 H   0  0  0  0  0  0  0  0  0  0  0  0  # atno 8008 bound_to 7997
  154.4420  140.1017  156.6400 H   0  0  0  0  0  0  0  0  0  0  0  0  # atno 8009 bound_to 7997
  155.5572  140.3464  155.4484 H   0  0  0  0  0  0  0  0  0  0  0  0  # atno 8010 bound_to 7997
  140.4353  144.1266  150.6165 H   0  0  0  0  0  0  0  0  0  0  0  0  # atno 10167 bound_to 10162
  156.0111  130.4525  150.3535 H   0  0  0  0  0  0  0  0  0  0  0  0  # atno 10718 bound_to 10713
  154.1881  135.6432  153.5052 H   0  0  0  0  0  0  0  0  0  0  0  0  # atno 10763 bound_to 10752
  153.0042  135.5422  154.6444 H   0  0  0  0  0  0  0  0  0  0  0  0  # atno 10764 bound_to 10752
  154.5825  135.2926  155.0691 H   0  0  0  0  0  0  0  0  0  0  0  0  # atno 10765 bound_to 10752
  140.9826  133.7048  156.1710 H   0  0  0  0  0  0  0  0  0  0  0  0  # atno 11005 bound_to 11000
  145.0426  139.3247  143.5969 LP  0  0  0  0  0  0  0  0  0  0  0  0  # atno 17320 bound_to 7965
  146.3494  139.9805  142.8696 LP  0  0  0  0  0  0  0  0  0  0  0  0  # atno 17321 bound_to 7965
  140.4381  143.2538  151.9509 LP  0  0  0  0  0  0  0  0  0  0  0  0  # atno 17342 bound_to 10162
  139.4786  144.5680  151.8133 LP  0  0  0  0  0  0  0  0  0  0  0  0  # atno 17343 bound_to 10162
  157.1627  131.0349  151.2833 LP  0  0  0  0  0  0  0  0  0  0  0  0  # atno 17370 bound_to 10713
  157.4297  130.7484  149.6980 LP  0  0  0  0  0  0  0  0  0  0  0  0  # atno 17371 bound_to 10713
  140.7163  134.4406  157.5578 LP  0  0  0  0  0  0  0  0  0  0  0  0  # atno 17394 bound_to 11000
  139.8956  134.8678  156.2122 LP  0  0  0  0  0  0  0  0  0  0  0  0  # atno 17395 bound_to 11000

$$$$
