AV-unprocessed.smi:1504|AV-procd|sdf|6073|dock5
  -GOLD-   22720 6193D 1   1.00000     0.00000
 Structure written by MMmdl.
 40 41  0  0  0  0  0  0  0  0  2 V2000
  146.8580  137.3985  153.9434 O   0  0  0  0  0  0  0  0  0  0  0  0
  146.0476  138.2012  153.4802 C   0  0  0  0  0  0  0  0  0  0  0  0
  145.4382  138.0537  152.2956 N   0  0  0  0  0  0  0  0  0  0  0  0
  145.6413  136.9301  151.3885 C   0  0  0  0  0  0  0  0  0  0  0  0
  144.4941  135.9102  151.4854 C   0  0  0  0  0  0  0  0  0  0  0  0
  144.8398  134.5901  150.8245 C   0  0  0  0  0  0  0  0  0  0  0  0
  146.0804  133.9486  151.0314 C   0  0  0  0  0  0  0  0  0  0  0  0
  146.3370  132.7207  150.3867 C   0  0  0  0  0  0  0  0  0  0  0  0
  145.3488  132.1599  149.5508 C   0  0  0  0  0  0  0  0  0  0  0  0
  144.1266  132.8422  149.3817 C   0  0  0  0  0  0  0  0  0  0  0  0
  143.9188  134.0169  150.0162 N   0  3  0  0  0  0  0  0  0  0  0  0
  145.6718  139.3282  154.0974 N   0  0  0  0  0  0  0  0  0  0  0  0
  146.1656  139.7544  155.4004 C   0  0  0  0  0  0  0  0  0  0  0  0
  147.6817  139.5245  155.5213 C   0  0  2  0  0  0  0  0  0  0  0  0
  148.1640  139.5401  156.9849 C   0  0  0  0  0  0  0  0  0  0  0  0
  149.6951  139.5727  156.9924 C   0  0  0  0  0  0  0  0  0  0  0  0
  150.1694  140.5866  155.5437 S   0  0  0  0  0  0  0  0  0  0  0  0
  150.4543  141.9617  155.9804 O   0  0  0  0  0  0  0  0  0  0  0  0
  151.1352  139.8353  154.7276 O   0  0  0  0  0  0  0  0  0  0  0  0
  148.5222  140.5493  154.7384 C   0  0  0  0  0  0  0  0  0  0  0  0
  144.7868  138.7671  152.0021 H   0  0  0  0  0  0  0  0  0  0  0  0
  145.7455  137.2919  150.3641 H   0  0  0  0  0  0  0  0  0  0  0  0
  146.5877  136.4550  151.6480 H   0  0  0  0  0  0  0  0  0  0  0  0
  144.2439  135.7263  152.5312 H   0  0  0  0  0  0  0  0  0  0  0  0
  143.5924  136.3106  151.0199 H   0  0  0  0  0  0  0  0  0  0  0  0
  146.8270  134.3899  151.6759 H   0  0  0  0  0  0  0  0  0  0  0  0
  147.2804  132.2150  150.5317 H   0  0  0  0  0  0  0  0  0  0  0  0
  145.5259  131.2205  149.0476 H   0  0  0  0  0  0  0  0  0  0  0  0
  143.3155  132.4872  148.7627 H   0  0  0  0  0  0  0  0  0  0  0  0
  145.0010  139.9287  153.6409 H   0  0  0  0  0  0  0  0  0  0  0  0
  145.9305  140.8099  155.5475 H   0  0  0  0  0  0  0  0  0  0  0  0
  145.6435  139.1988  156.1812 H   0  0  0  0  0  0  0  0  0  0  0  0
  147.9129  138.5367  155.1193 H   0  0  0  0  0  0  0  0  0  0  0  0
  147.7905  140.4393  157.4770 H   0  0  0  0  0  0  0  0  0  0  0  0
  147.7818  138.6871  157.5464 H   0  0  0  0  0  0  0  0  0  0  0  0
  150.1118  139.9971  157.9059 H   0  0  0  0  0  0  0  0  0  0  0  0
  150.1036  138.5716  156.8524 H   0  0  0  0  0  0  0  0  0  0  0  0
  148.6280  140.2972  153.6832 H   0  0  0  0  0  0  0  0  0  0  0  0
  148.0939  141.5494  154.8144 H   0  0  0  0  0  0  0  0  0  0  0  0
  143.0269  134.4931  149.8792 H   0  0  0  0  0  0  0  0  0  0  0  0
  1  2  2  0  0  0  0
  2  3  1  0  0  0  0
  2 12  1  0  0  0  0
  3  4  1  0  0  0  0
  3 21  1  0  0  0  0
  4  5  1  0  0  0  0
  4 22  1  0  0  0  0
  4 23  1  0  0  0  0
  5  6  1  0  0  0  0
  5 24  1  0  0  0  0
  5 25  1  0  0  0  0
  6 11  1  0  0  0  0
  6  7  2  0  0  0  0
  7  8  1  0  0  0  0
  7 26  1  0  0  0  0
  8  9  2  0  0  0  0
  8 27  1  0  0  0  0
  9 10  1  0  0  0  0
  9 28  1  0  0  0  0
 10 11  2  0  0  0  0
 10 29  1  0  0  0  0
 11 40  1  0  0  0  0
 12 13  1  0  0  0  0
 12 30  1  0  0  0  0
 13 14  1  0  0  0  0
 13 31  1  0  0  0  0
 13 32  1  0  0  0  0
 14 20  1  0  0  0  0
 14 15  1  0  0  0  0
 14 33  1  0  0  0  0
 15 16  1  0  0  0  0
 15 34  1  0  0  0  0
 15 35  1  0  0  0  0
 16 17  1  0  0  0  0
 16 36  1  0  0  0  0
 16 37  1  0  0  0  0
 17 18  2  0  0  0  0
 17 19  2  0  0  0  0
 17 20  1  0  0  0  0
 20 38  1  0  0  0  0
 20 39  1  0  0  0  0
M  CHG  1  11   1
M  END
> <s_m_source_file>
AV-unprocessed.smi

> <i_m_source_file_index>
1504

> <i_lp_mmshare_version>
43012

> <i_f3d_flags>
0

> <s_epik_input>
Tz1TMSg9TylbQ0gyXVtDSDJdW0NASF0oW0NIMl0xKVtDSDJdW05IXUMoPU8pW05IXVtDSDJdW0NIMl1jMltjSF1bY0hdW2NIXVtjSF1uMg==

> <s_epik_cmdline>
J2VwaWtfcHl0aG9uJywgJy1waCcsICc3LjAnLCAnLXRuJywgJzgnLCAnLW1hJywgJzIwMCcsICctbWV0YWxfYmluZGluZycsICctaW1hZScsICc8aW5maWxlLm1hZT4nLCAnLW9tYWUnLCAnPG91dGZpbGUubWFlPic=

> <r_epik_Ionization_Penalty>
1.57393

> <r_epik_Ionization_Penalty_Charging>
1.57388

> <r_epik_Ionization_Penalty_Neutral>
4.82054e-05

> <r_epik_State_Penalty>
1.66991

> <r_epik_Charging_Adjusted_Penalty>
3.24379

> <i_epik_Tot_Q>
1

> <i_epik_Tot_abs_Q>
1

> <r_epik_Metal_State_Penalty>
1.71052

> <b_epik_Metal_Only>
0

> <s_lp_Force_Field>
OPLS_2005

> <r_lp_Energy>
6.68719

> <b_lp_Chiralities_Consistent>
1

> <s_lp_Variant>
AV-unprocessed.smi:1504-3

> <Gold.Version>
5.8.1

> <Gold.Id.Protein>
6NUR|6NUR_protein|mol2

> <Gold.PLP.Fitness>
44.8908

> <Gold.PLP.PLP>
-31.1351

> <Gold.PLP.part.hbond>
-5.0000

> <Gold.PLP.part.metal>
0.0000

> <Gold.PLP.part.buried>
-3.2239

> <Gold.PLP.part.nonpolar>
-24.2824

> <Gold.PLP.part.repulsive>
0.3579

> <Gold.PLP.ligand.clash>
0.0000

> <Gold.PLP.ligand.torsion>
0.6083

> <Gold.PLP.Chemscore.Hbond>
4.9833

> <Gold.PLP.Chemscore.CHOScore>
0.0000

> <Gold.PLP.Chemscore.Metal>
0.0000

> <Gold.Chemscore.Hbonds>
donor molecule, donor type, donor heavy atom, donor atom, acceptor molecule, acceptor atom, score
      L1  H     3    21       P1 10175  0.90
      L1  H    11    40       P1 10186  1.95
      L1  H    12    30       P1 10175  1.00
      P1  H  7989  7998       L1    19  1.00

> <Gold.PLP.Chemscore.Internal.Correction>
0.0224

> <Gold.Rescore>
     Score         DG    S(hbond)    S(metal)    S(lipo)     H(rot)  DE(clash)    DE(int)     intcor
     17.74     -20.95       3.77        0.00      68.64       2.01       1.09       2.12       ----

> <Gold.Chemscore.Fitness>
17.7391

> <Gold.Chemscore.DG>
-20.9536

> <Gold.Chemscore.ZeroCoef>
-5.4800

> <Gold.Chemscore.Hbond>
3.7725

> <Gold.Chemscore.Metal>
0.0000

> <Gold.Chemscore.Lipo>
68.6389

> <Gold.Chemscore.Internal_Hbond>
0.0000

> <Gold.Chemscore.DEClash>
1.0926

> <Gold.Chemscore.DEInternal>
2.1219

> <Gold.Chemscore.Rot>
2.0146

> <Gold.Chemscore.Internal.Correction>
   9.000000E+99

> <Gold.Chemscore.Hbonds>
donor molecule, donor type, donor heavy atom, donor atom, acceptor molecule, acceptor atom, score
      L1  H     3    21       P1 10175  0.84
      L1  H    11    40       P1 10186  0.81
      L1  H    12    30       P1 10175  1.00
      P1  H  7989  7998       L1    19  0.60

> <Gold.Chemscore.Hbond.Weighted>
-12.6002

> <Gold.Chemscore.Metal.Weighted>
-0.0000

> <Gold.Chemscore.Lipo.Weighted>
-8.0308

> <Gold.Chemscore.Internal_Hbond.Weighted>
0.0000

> <Gold.Chemscore.DEClash.Weighted>
1.0926

> <Gold.Chemscore.DEInternal.Weighted>
2.1219

> <Gold.Chemscore.Rot.Weighted>
5.1573

> <Gold.Chemscore.Internal.Correction.Weighted>
   9.000000E+99

> <Gold.Protein.RotatedTorsions>
[ 6907 6896 6895 6894 ] final   18.23 input  -60.11 | X-H torsion
[ 7974 7965 7964 7962 ] final  -74.80 input  175.53 | X-H torsion
[ 8008 7997 7996 7995 ] final   -8.43 input   59.86 | X-H torsion
[ 10167 10162 10161 10158 ] final  136.93 input  -65.29 | X-H torsion
[ 10718 10713 10712 10709 ] final  162.71 input   66.30 | X-H torsion
[ 10763 10752 10751 10750 ] final  107.03 input  -60.55 | X-H torsion
[ 11005 11000 10999 10996 ] final -116.40 input  -57.11 | X-H torsion

> <Gold.Protein.ActiveResidues>
 VAL166  LYS551  ARG553  GLY616  TRP617  ASP618  TYR619  PRO620  LYS621  CYS622 
 ASP623  PHE694  ASN695  SER759  ASP760  ASP761  ALA762  ILE779  LEU786  VAL792 
 PHE793  MET794  SER795  GLU796  ALA797  LYS798  CYS799  TRP800  GLU811  SER814 

> <Gold.Protein.RotatedAtoms>
  151.8620  135.0520  160.0470 H   0  0  0  0  0  0  0  0  0  0  0  0  # atno 6907 bound_to 6896
  152.2655  133.5331  159.5416 H   0  0  0  0  0  0  0  0  0  0  0  0  # atno 6908 bound_to 6896
  150.7132  134.0687  159.3899 H   0  0  0  0  0  0  0  0  0  0  0  0  # atno 6909 bound_to 6896
  145.6344  140.9329  143.1069 H   0  0  0  0  0  0  0  0  0  0  0  0  # atno 7974 bound_to 7965
  154.5742  140.2381  155.8147 H   0  0  0  0  0  0  0  0  0  0  0  0  # atno 8008 bound_to 7997
  156.2130  140.3020  155.9733 H   0  0  0  0  0  0  0  0  0  0  0  0  # atno 8009 bound_to 7997
  155.2657  140.0416  157.2992 H   0  0  0  0  0  0  0  0  0  0  0  0  # atno 8010 bound_to 7997
  139.5162  144.6438  151.5496 H   0  0  0  0  0  0  0  0  0  0  0  0  # atno 10167 bound_to 10162
  157.1187  131.0487  151.2425 H   0  0  0  0  0  0  0  0  0  0  0  0  # atno 10718 bound_to 10713
  153.4011  135.3858  155.1988 H   0  0  0  0  0  0  0  0  0  0  0  0  # atno 10763 bound_to 10752
  154.8729  135.3771  154.4618 H   0  0  0  0  0  0  0  0  0  0  0  0  # atno 10764 bound_to 10752
  153.5115  135.7087  153.5840 H   0  0  0  0  0  0  0  0  0  0  0  0  # atno 10765 bound_to 10752
  141.0424  133.9815  157.2973 H   0  0  0  0  0  0  0  0  0  0  0  0  # atno 11005 bound_to 11000
  144.7181  139.8125  143.7391 LP  0  0  0  0  0  0  0  0  0  0  0  0  # atno 17320 bound_to 7965
  146.1331  139.4370  143.0156 LP  0  0  0  0  0  0  0  0  0  0  0  0  # atno 17321 bound_to 7965
  140.6215  143.9250  150.6530 LP  0  0  0  0  0  0  0  0  0  0  0  0  # atno 17342 bound_to 10162
  140.2524  143.3583  152.1394 LP  0  0  0  0  0  0  0  0  0  0  0  0  # atno 17343 bound_to 10162
  157.4495  130.7590  149.7139 LP  0  0  0  0  0  0  0  0  0  0  0  0  # atno 17370 bound_to 10713
  155.9833  130.4001  150.3369 LP  0  0  0  0  0  0  0  0  0  0  0  0  # atno 17371 bound_to 10713
  139.9286  135.0201  156.8321 LP  0  0  0  0  0  0  0  0  0  0  0  0  # atno 17394 bound_to 11000
  140.6209  133.9994  155.7618 LP  0  0  0  0  0  0  0  0  0  0  0  0  # atno 17395 bound_to 11000

$$$$
