AV-unprocessed.smi:209|AV-procd|sdf|1609|dock3
  -GOLD-   2262019533D 1   1.00000     0.00000
 Structure written by MMmdl.
 48 52  0  0  0  0  0  0  0  0  1 V2000
  154.6945  140.7843  161.9775 O   0  0  0  0  0  0  0  0  0  0  0  0
  154.0096  140.5240  160.9908 C   0  0  0  0  0  0  0  0  0  0  0  0
  153.9732  139.3639  160.3242 N   0  0  0  0  0  0  0  0  0  0  0  0
  153.1185  139.4246  159.1424 C   0  0  0  0  0  0  0  0  0  0  0  0
  152.9948  140.9403  158.9236 C   0  0  2  0  0  0  0  0  0  0  0  0
  153.0302  141.4857  160.3431 C   0  0  2  0  0  0  0  0  0  0  0  0
  153.3089  142.9893  160.3007 C   0  0  0  0  0  0  0  0  0  0  0  0
  152.1520  143.6283  159.4951 C   0  0  0  0  0  0  0  0  0  0  0  0
  151.9146  142.9372  158.1239 C   0  0  0  0  0  0  0  0  0  0  0  0
  151.8247  141.4736  158.2354 N   0  0  0  0  0  0  0  0  0  0  0  0
  151.5531  140.8639  157.0610 C   0  0  0  0  0  0  0  0  0  0  0  0
  152.4297  139.9683  156.5348 N   0  0  0  0  0  0  0  0  0  0  0  0
  152.1465  139.3619  155.3781 C   0  0  0  0  0  0  0  0  0  0  0  0
  151.0652  139.4980  154.6068 N   0  0  0  0  0  0  0  0  0  0  0  0
  150.1815  140.3905  155.1401 C   0  0  0  0  0  0  0  0  0  0  0  0
  150.3517  141.1170  156.3510 C   0  0  0  0  0  0  0  0  0  0  0  0
  149.2581  141.9425  156.5727 N   0  0  0  0  0  0  0  0  0  0  0  0
  148.4853  141.7220  155.5444 C   0  0  0  0  0  0  0  0  0  0  0  0
  148.9508  140.7876  154.6445 N   0  0  0  0  0  0  0  0  0  0  0  0
  148.2962  140.3517  153.4191 C   0  0  0  0  0  0  0  0  0  0  0  0
  147.1487  139.3414  153.6302 C   0  0  0  0  0  0  0  0  0  0  0  0
  146.5514  138.9826  152.2547 C   0  0  0  0  0  0  0  0  0  0  0  0
  147.4179  138.1835  151.4741 O   0  0  0  0  0  0  0  0  0  0  0  0
  147.5122  138.1714  154.5573 C   0  0  0  0  0  0  0  0  0  0  0  0
  146.6321  138.6367  155.6039 O   0  0  0  0  0  0  0  0  0  0  0  0
  146.1411  139.6835  154.7381 C   0  0  0  0  0  0  0  0  0  0  0  0
  153.8869  141.2779  158.3903 H   0  0  0  0  0  0  0  0  0  0  0  0
  152.0694  141.3155  160.8340 H   0  0  0  0  0  0  0  0  0  0  0  0
  154.5306  138.5547  160.5573 H   0  0  0  0  0  0  0  0  0  0  0  0
  153.5642  138.9151  158.2874 H   0  0  0  0  0  0  0  0  0  0  0  0
  152.1543  138.9657  159.3663 H   0  0  0  0  0  0  0  0  0  0  0  0
  153.3514  143.4067  161.3070 H   0  0  0  0  0  0  0  0  0  0  0  0
  154.2684  143.1930  159.8236 H   0  0  0  0  0  0  0  0  0  0  0  0
  151.2351  143.5624  160.0823 H   0  0  0  0  0  0  0  0  0  0  0  0
  152.3417  144.6916  159.3476 H   0  0  0  0  0  0  0  0  0  0  0  0
  151.0006  143.3239  157.6712 H   0  0  0  0  0  0  0  0  0  0  0  0
  152.7322  143.1984  157.4502 H   0  0  0  0  0  0  0  0  0  0  0  0
  152.8916  138.6668  155.0200 H   0  0  0  0  0  0  0  0  0  0  0  0
  147.5423  142.2335  155.4179 H   0  0  0  0  0  0  0  0  0  0  0  0
  147.9348  141.2381  152.8965 H   0  0  0  0  0  0  0  0  0  0  0  0
  149.0617  139.9248  152.7700 H   0  0  0  0  0  0  0  0  0  0  0  0
  145.6228  138.4242  152.3656 H   0  0  0  0  0  0  0  0  0  0  0  0
  146.3174  139.8819  151.6842 H   0  0  0  0  0  0  0  0  0  0  0  0
  147.6954  137.4438  151.9929 H   0  0  0  0  0  0  0  0  0  0  0  0
  147.2223  137.1868  154.1898 H   0  0  0  0  0  0  0  0  0  0  0  0
  148.5562  138.1646  154.8730 H   0  0  0  0  0  0  0  0  0  0  0  0
  146.2701  140.6702  155.1794 H   0  0  0  0  0  0  0  0  0  0  0  0
  145.0981  139.5247  154.4613 H   0  0  0  0  0  0  0  0  0  0  0  0
  1  2  2  0  0  0  0
  2  6  1  0  0  0  0
  2  3  1  0  0  0  0
  3  4  1  0  0  0  0
  3 29  1  0  0  0  0
  4  5  1  0  0  0  0
  4 30  1  0  0  0  0
  4 31  1  0  0  0  0
  5 27  1  0  0  0  0
  5 10  1  0  0  0  0
  5  6  1  0  0  0  0
  6 28  1  0  0  0  0
  6  7  1  0  0  0  0
  7  8  1  0  0  0  0
  7 32  1  0  0  0  0
  7 33  1  0  0  0  0
  8  9  1  0  0  0  0
  8 34  1  0  0  0  0
  8 35  1  0  0  0  0
  9 10  1  0  0  0  0
  9 36  1  0  0  0  0
  9 37  1  0  0  0  0
 10 11  1  0  0  0  0
 11 16  1  0  0  0  0
 11 12  2  0  0  0  0
 12 13  1  0  0  0  0
 13 14  2  0  0  0  0
 13 38  1  0  0  0  0
 14 15  1  0  0  0  0
 15 19  1  0  0  0  0
 15 16  2  0  0  0  0
 16 17  1  0  0  0  0
 17 18  2  0  0  0  0
 18 19  1  0  0  0  0
 18 39  1  0  0  0  0
 19 20  1  0  0  0  0
 20 21  1  0  0  0  0
 20 40  1  0  0  0  0
 20 41  1  0  0  0  0
 21 26  1  0  0  0  0
 21 22  1  0  0  0  0
 21 24  1  0  0  0  0
 22 23  1  0  0  0  0
 22 42  1  0  0  0  0
 22 43  1  0  0  0  0
 23 44  1  0  0  0  0
 24 25  1  0  0  0  0
 24 45  1  0  0  0  0
 24 46  1  0  0  0  0
 25 26  1  0  0  0  0
 26 47  1  0  0  0  0
 26 48  1  0  0  0  0
M  END
> <s_m_source_file>
AV-unprocessed.smi

> <i_m_source_file_index>
209

> <i_lp_mmshare_version>
43012

> <i_f3d_flags>
0

> <s_epik_input>
W0NIMl0xW05IXUMoPU8pW0NAQEhdKFtDQEBIXTEyKVtDSDJdW0NIMl1bQ0gyXU4yYyhuW2NIXW4zKWMoYzM0KW5bY0hdbjRbQ0gyXUM1KFtDSDJdW09IXSlbQ0gyXU9bQ0gyXTU=

> <s_epik_cmdline>
J2VwaWtfcHl0aG9uJywgJy1waCcsICc3LjAnLCAnLXRuJywgJzgnLCAnLW1hJywgJzIwMCcsICctbWV0YWxfYmluZGluZycsICctaW1hZScsICc8aW5maWxlLm1hZT4nLCAnLW9tYWUnLCAnPG91dGZpbGUubWFlPic=

> <r_lp_tautomer_probability>
1

> <r_epik_Ionization_Penalty>
0.00113306

> <r_epik_Ionization_Penalty_Charging>
0

> <r_epik_Ionization_Penalty_Neutral>
0.00113306

> <r_epik_State_Penalty>
0.000624042

> <r_epik_Charging_Adjusted_Penalty>
0.000624042

> <i_epik_Tot_Q>
0

> <i_epik_Tot_abs_Q>
0

> <r_epik_Metal_State_Penalty>
-0

> <b_epik_Metal_Only>
0

> <s_lp_Force_Field>
OPLS_2005

> <r_lp_Energy>
56.7924

> <b_lp_Chiralities_Consistent>
1

> <s_lp_Variant>
AV-unprocessed.smi:209-3

> <Gold.Version>
5.8.1

> <Gold.Id.Protein>
6NUR|6NUR_protein|mol2

> <Gold.PLP.Fitness>
53.9598

> <Gold.PLP.PLP>
-44.5777

> <Gold.PLP.part.hbond>
-5.6710

> <Gold.PLP.part.metal>
0.0000

> <Gold.PLP.part.buried>
0.5228

> <Gold.PLP.part.nonpolar>
-39.6205

> <Gold.PLP.part.repulsive>
0.9463

> <Gold.PLP.ligand.clash>
0.0000

> <Gold.PLP.ligand.torsion>
0.5479

> <Gold.PLP.Chemscore.Hbond>
3.3660

> <Gold.PLP.Chemscore.CHOScore>
0.0057

> <Gold.PLP.Chemscore.Metal>
0.0000

> <Gold.Chemscore.Hbonds>
donor molecule, donor type, donor heavy atom, donor atom, acceptor molecule, acceptor atom, score
      L1  H    23    44       P1  7948  0.67
      P1  H  7954  7966       L1    23  1.00
      P1  H  7989  7998       L1    14  0.40
      P1  H  7997  8009       L1    12  1.00
      L1  C    18    39       P1  8028  0.06

> <Gold.PLP.Chemscore.Internal.Correction>
0.3630

> <Gold.Rescore>
     Score         DG    S(hbond)    S(metal)    S(lipo)     H(rot)  DE(clash)    DE(int)     intcor
     12.45     -16.28       2.11        0.00      90.20       2.66       1.88       1.95       ----

> <Gold.Chemscore.Fitness>
12.4460

> <Gold.Chemscore.DG>
-16.2801

> <Gold.Chemscore.ZeroCoef>
-5.4800

> <Gold.Chemscore.Hbond>
2.1142

> <Gold.Chemscore.Metal>
0.0000

> <Gold.Chemscore.Lipo>
90.1995

> <Gold.Chemscore.Internal_Hbond>
0.0000

> <Gold.Chemscore.DEClash>
1.8846

> <Gold.Chemscore.DEInternal>
1.9496

> <Gold.Chemscore.Rot>
2.6620

> <Gold.Chemscore.Internal.Correction>
   9.000000E+99

> <Gold.Chemscore.Hbonds>
donor molecule, donor type, donor heavy atom, donor atom, acceptor molecule, acceptor atom, score
      L1  H    23    44       P1  7948  0.68
      P1  H  7954  7966       L1    23  0.40
      P1  H  7997  8009       L1    12  0.25

> <Gold.Chemscore.Hbond.Weighted>
-7.0616

> <Gold.Chemscore.Metal.Weighted>
-0.0000

> <Gold.Chemscore.Lipo.Weighted>
-10.5533

> <Gold.Chemscore.Internal_Hbond.Weighted>
0.0000

> <Gold.Chemscore.DEClash.Weighted>
1.8846

> <Gold.Chemscore.DEInternal.Weighted>
1.9496

> <Gold.Chemscore.Rot.Weighted>
6.8148

> <Gold.Chemscore.Internal.Correction.Weighted>
   9.000000E+99

> <Gold.Protein.RotatedTorsions>
[ 6907 6896 6895 6894 ] final   79.31 input  -60.11 | X-H torsion
[ 7974 7965 7964 7962 ] final   88.16 input  175.53 | X-H torsion
[ 8008 7997 7996 7995 ] final -164.87 input   59.86 | X-H torsion
[ 10167 10162 10161 10158 ] final  -39.25 input  -65.29 | X-H torsion
[ 10718 10713 10712 10709 ] final  -18.73 input   66.30 | X-H torsion
[ 10763 10752 10751 10750 ] final  -43.38 input  -60.55 | X-H torsion
[ 11005 11000 10999 10996 ] final  144.32 input  -57.11 | X-H torsion

> <Gold.Protein.ActiveResidues>
 VAL166  LYS551  ARG553  GLY616  TRP617  ASP618  TYR619  PRO620  LYS621  CYS622 
 ASP623  PHE694  ASN695  SER759  ASP760  ASP761  ALA762  ILE779  LEU786  VAL792 
 PHE793  MET794  SER795  GLU796  ALA797  LYS798  CYS799  TRP800  GLU811  SER814 

> <Gold.Protein.RotatedAtoms>
  152.5193  134.3531  159.9257 H   0  0  0  0  0  0  0  0  0  0  0  0  # atno 6907 bound_to 6896
  151.3482  133.3929  159.2685 H   0  0  0  0  0  0  0  0  0  0  0  0  # atno 6908 bound_to 6896
  150.9748  134.9133  159.7867 H   0  0  0  0  0  0  0  0  0  0  0  0  # atno 6909 bound_to 6896
  145.5494  139.2294  143.2521 H   0  0  0  0  0  0  0  0  0  0  0  0  # atno 7974 bound_to 7965
  155.8418  140.0949  157.1730 H   0  0  0  0  0  0  0  0  0  0  0  0  # atno 8008 bound_to 7997
  154.3982  140.1399  156.3799 H   0  0  0  0  0  0  0  0  0  0  0  0  # atno 8009 bound_to 7997
  155.8056  140.3451  155.5430 H   0  0  0  0  0  0  0  0  0  0  0  0  # atno 8010 bound_to 7997
  140.7069  143.3226  151.2755 H   0  0  0  0  0  0  0  0  0  0  0  0  # atno 10167 bound_to 10162
  156.5554  130.4712  149.6432 H   0  0  0  0  0  0  0  0  0  0  0  0  # atno 10718 bound_to 10713
  153.9947  135.6701  153.4756 H   0  0  0  0  0  0  0  0  0  0  0  0  # atno 10763 bound_to 10752
  153.0689  135.4985  154.8258 H   0  0  0  0  0  0  0  0  0  0  0  0  # atno 10764 bound_to 10752
  154.7088  135.3093  154.9191 H   0  0  0  0  0  0  0  0  0  0  0  0  # atno 10765 bound_to 10752
  140.0623  134.9198  157.1205 H   0  0  0  0  0  0  0  0  0  0  0  0  # atno 11005 bound_to 11000
  146.1927  140.6316  142.9138 LP  0  0  0  0  0  0  0  0  0  0  0  0  # atno 17320 bound_to 7965
  144.7537  140.5255  143.6784 LP  0  0  0  0  0  0  0  0  0  0  0  0  # atno 17321 bound_to 7965
  139.6685  144.0063  152.2738 LP  0  0  0  0  0  0  0  0  0  0  0  0  # atno 17342 bound_to 10162
  139.9653  144.6530  150.8040 LP  0  0  0  0  0  0  0  0  0  0  0  0  # atno 17343 bound_to 10162
  156.2846  130.7090  151.1923 LP  0  0  0  0  0  0  0  0  0  0  0  0  # atno 17370 bound_to 10713
  157.7379  131.0546  150.5327 LP  0  0  0  0  0  0  0  0  0  0  0  0  # atno 17371 bound_to 10713
  140.3752  134.2347  155.7175 LP  0  0  0  0  0  0  0  0  0  0  0  0  # atno 17394 bound_to 11000
  141.1978  133.8050  157.0611 LP  0  0  0  0  0  0  0  0  0  0  0  0  # atno 17395 bound_to 11000

$$$$
