AV-unprocessed.smi:153|AV-procd|sdf|1259|dock7
  -GOLD-   2262018503D 1   1.00000     0.00000
 Structure written by MMmdl.
 59 62  0  0  0  0  0  0  0  0  1 V2000
  154.5329  141.2563  160.7161 C   0  0  0  0  0  0  0  0  0  0  0  0
  153.2428  141.9116  161.2345 C   0  0  1  0  0  0  0  0  0  0  0  0
  153.4941  142.5379  162.4867 O   0  0  0  0  0  0  0  0  0  0  0  0
  152.5103  143.5388  162.6742 C   0  0  0  0  0  0  0  0  0  0  0  0
  152.4476  144.1901  161.3013 C   0  0  0  0  0  0  0  0  0  0  0  0
  152.6011  143.0072  160.3391 C   0  0  1  0  0  0  0  0  0  0  0  0
  153.4604  143.4072  159.2839 O   0  0  0  0  0  0  0  0  0  0  0  0
  151.2634  142.5152  159.7264 C   0  0  0  0  0  0  0  0  0  0  0  0
  151.3916  141.3307  158.8903 N   0  0  0  0  0  0  0  0  0  0  0  0
  151.8669  140.0999  159.2745 C   0  0  0  0  0  0  0  0  0  0  0  0
  151.8924  139.2005  158.3321 N   0  0  0  0  0  0  0  0  0  0  0  0
  151.3825  139.8448  157.2085 C   0  0  0  0  0  0  0  0  0  0  0  0
  151.1399  139.4673  155.8486 C   0  0  0  0  0  0  0  0  0  0  0  0
  151.4279  138.2471  155.3008 N   0  0  0  0  0  0  0  0  0  0  0  0
  152.5072  138.1572  154.3187 C   0  0  0  0  0  0  0  0  0  0  0  0
  151.0717  137.0151  156.0038 C   0  0  0  0  0  0  0  0  0  0  0  0
  149.8831  136.2696  155.3534 C   0  0  2  0  0  0  0  0  0  0  0  0
  149.0864  137.1678  154.6085 O   0  0  0  0  0  0  0  0  0  0  0  0
  148.9950  135.5087  156.3634 C   0  0  0  0  0  0  0  0  0  0  0  0
  149.3659  134.1217  156.6562 N   0  0  0  0  0  0  0  0  0  0  0  0
  150.7840  134.0232  156.9864 C   0  0  0  0  0  0  0  0  0  0  0  0
  151.2039  132.5779  157.3035 C   0  0  0  0  0  0  0  0  0  0  0  0
  150.8854  131.7376  156.1997 O   0  0  0  0  0  0  0  0  0  0  0  0
  149.5005  131.7661  155.8714 C   0  0  0  0  0  0  0  0  0  0  0  0
  149.0728  133.2093  155.5533 C   0  0  0  0  0  0  0  0  0  0  0  0
  150.5847  140.4175  155.0469 N   0  0  0  0  0  0  0  0  0  0  0  0
  150.3066  141.6378  155.5106 C   0  0  0  0  0  0  0  0  0  0  0  0
  150.4998  142.1260  156.7346 N   0  0  0  0  0  0  0  0  0  0  0  0
  151.0435  141.1862  157.5580 C   0  0  0  0  0  0  0  0  0  0  0  0
  154.3684  140.7701  159.7543 H   0  0  0  0  0  0  0  0  0  0  0  0
  154.8865  140.4970  161.4138 H   0  0  0  0  0  0  0  0  0  0  0  0
  155.3325  141.9879  160.5950 H   0  0  0  0  0  0  0  0  0  0  0  0
  152.5118  141.1242  161.4256 H   0  0  0  0  0  0  0  0  0  0  0  0
  151.5555  143.0807  162.9375 H   0  0  0  0  0  0  0  0  0  0  0  0
  152.7914  144.2384  163.4614 H   0  0  0  0  0  0  0  0  0  0  0  0
  151.5418  144.7774  161.1601 H   0  0  0  0  0  0  0  0  0  0  0  0
  153.2921  144.8755  161.2082 H   0  0  0  0  0  0  0  0  0  0  0  0
  153.0285  144.0863  158.7888 H   0  0  0  0  0  0  0  0  0  0  0  0
  150.5488  142.2923  160.5201 H   0  0  0  0  0  0  0  0  0  0  0  0
  150.8120  143.3065  159.1267 H   0  0  0  0  0  0  0  0  0  0  0  0
  152.2042  139.8898  160.2793 H   0  0  0  0  0  0  0  0  0  0  0  0
  152.3096  138.8045  153.4638 H   0  0  0  0  0  0  0  0  0  0  0  0
  152.6126  137.1400  153.9412 H   0  0  0  0  0  0  0  0  0  0  0  0
  153.4595  138.4475  154.7645 H   0  0  0  0  0  0  0  0  0  0  0  0
  151.9496  136.3764  156.0682 H   0  0  0  0  0  0  0  0  0  0  0  0
  150.8374  137.2423  157.0444 H   0  0  0  0  0  0  0  0  0  0  0  0
  150.2522  135.5288  154.6434 H   0  0  0  0  0  0  0  0  0  0  0  0
  149.1878  136.9660  153.6910 H   0  0  0  0  0  0  0  0  0  0  0  0
  148.9040  136.0796  157.2889 H   0  0  0  0  0  0  0  0  0  0  0  0
  147.9918  135.4985  155.9353 H   0  0  0  0  0  0  0  0  0  0  0  0
  151.3842  134.3986  156.1560 H   0  0  0  0  0  0  0  0  0  0  0  0
  151.0090  134.6569  157.8450 H   0  0  0  0  0  0  0  0  0  0  0  0
  152.2762  132.5268  157.4930 H   0  0  0  0  0  0  0  0  0  0  0  0
  150.7009  132.2174  158.2021 H   0  0  0  0  0  0  0  0  0  0  0  0
  149.3239  131.1200  155.0116 H   0  0  0  0  0  0  0  0  0  0  0  0
  148.9148  131.3645  156.6999 H   0  0  0  0  0  0  0  0  0  0  0  0
  148.0062  133.2113  155.3338 H   0  0  0  0  0  0  0  0  0  0  0  0
  149.5816  133.5462  154.6488 H   0  0  0  0  0  0  0  0  0  0  0  0
  149.8725  142.3217  154.7963 H   0  0  0  0  0  0  0  0  0  0  0  0
  1  2  1  0  0  0  0
  1 30  1  0  0  0  0
  1 31  1  0  0  0  0
  1 32  1  0  0  0  0
  2  6  1  0  0  0  0
  2  3  1  0  0  0  0
  2 33  1  0  0  0  0
  3  4  1  0  0  0  0
  4  5  1  0  0  0  0
  4 34  1  0  0  0  0
  4 35  1  0  0  0  0
  5  6  1  0  0  0  0
  5 36  1  0  0  0  0
  5 37  1  0  0  0  0
  6  7  1  0  0  0  0
  6  8  1  0  0  0  0
  7 38  1  0  0  0  0
  8  9  1  0  0  0  0
  8 39  1  0  0  0  0
  8 40  1  0  0  0  0
  9 29  1  0  0  0  0
  9 10  1  0  0  0  0
 10 11  2  0  0  0  0
 10 41  1  0  0  0  0
 11 12  1  0  0  0  0
 12 29  2  0  0  0  0
 12 13  1  0  0  0  0
 13 14  1  0  0  0  0
 13 26  2  0  0  0  0
 14 15  1  0  0  0  0
 14 16  1  0  0  0  0
 15 42  1  0  0  0  0
 15 43  1  0  0  0  0
 15 44  1  0  0  0  0
 16 17  1  0  0  0  0
 16 45  1  0  0  0  0
 16 46  1  0  0  0  0
 17 18  1  0  0  0  0
 17 19  1  0  0  0  0
 17 47  1  0  0  0  0
 18 48  1  0  0  0  0
 19 20  1  0  0  0  0
 19 49  1  0  0  0  0
 19 50  1  0  0  0  0
 20 25  1  0  0  0  0
 20 21  1  0  0  0  0
 21 22  1  0  0  0  0
 21 51  1  0  0  0  0
 21 52  1  0  0  0  0
 22 23  1  0  0  0  0
 22 53  1  0  0  0  0
 22 54  1  0  0  0  0
 23 24  1  0  0  0  0
 24 25  1  0  0  0  0
 24 55  1  0  0  0  0
 24 56  1  0  0  0  0
 25 57  1  0  0  0  0
 25 58  1  0  0  0  0
 26 27  1  0  0  0  0
 27 28  2  0  0  0  0
 27 59  1  0  0  0  0
 28 29  1  0  0  0  0
M  END
> <s_m_source_file>
AV-unprocessed.smi

> <i_m_source_file_index>
153

> <i_lp_mmshare_version>
43012

> <i_f3d_flags>
0

> <s_epik_input>
W0NIMl0xW0NIMl1PW0NAQEhdKFtDSDNdKVtDQEBdMShbT0hdKVtDSDJdbihbY0hdbjIpYyhjMjMpbltjSF1uYzNOKFtDSDNdKVtDSDJdW0NASF0oW09IXSlbQ0gyXU40W0NIMl1bQ0gyXU9bQ0gyXVtDSDJdNA==

> <s_epik_cmdline>
J2VwaWtfcHl0aG9uJywgJy1waCcsICc3LjAnLCAnLXRuJywgJzgnLCAnLW1hJywgJzIwMCcsICctbWV0YWxfYmluZGluZycsICctaW1hZScsICc8aW5maWxlLm1hZT4nLCAnLW9tYWUnLCAnPG91dGZpbGUubWFlPic=

> <r_lp_tautomer_probability>
1

> <r_epik_Ionization_Penalty>
0.424123

> <r_epik_Ionization_Penalty_Charging>
0

> <r_epik_Ionization_Penalty_Neutral>
0.424123

> <r_epik_State_Penalty>
0.421495

> <r_epik_Charging_Adjusted_Penalty>
0.421495

> <i_epik_Tot_Q>
0

> <i_epik_Tot_abs_Q>
0

> <r_epik_Metal_State_Penalty>
0.421223

> <b_epik_Metal_Only>
0

> <s_lp_Force_Field>
OPLS_2005

> <r_lp_Energy>
57.6451

> <b_lp_Chiralities_Consistent>
1

> <s_lp_Variant>
AV-unprocessed.smi:153-10

> <Gold.Version>
5.8.1

> <Gold.Id.Protein>
6NUR|6NUR_protein|mol2

> <Gold.PLP.Fitness>
51.0571

> <Gold.PLP.PLP>
-46.4632

> <Gold.PLP.part.hbond>
-2.0775

> <Gold.PLP.part.metal>
0.0000

> <Gold.PLP.part.buried>
-4.8627

> <Gold.PLP.part.nonpolar>
-40.1015

> <Gold.PLP.part.repulsive>
0.2363

> <Gold.PLP.ligand.clash>
0.0000

> <Gold.PLP.ligand.torsion>
2.2225

> <Gold.PLP.Chemscore.Hbond>
1.9920

> <Gold.PLP.Chemscore.CHOScore>
0.8022

> <Gold.PLP.Chemscore.Metal>
0.0000

> <Gold.Chemscore.Hbonds>
donor molecule, donor type, donor heavy atom, donor atom, acceptor molecule, acceptor atom, score
      L1  H    18    48       P1  7948  1.00
      P1  H  7989  7998       L1    26  1.00
      L1  C    27    59       P1  8028  0.42

> <Gold.PLP.Chemscore.Internal.Correction>
0.6563

> <Gold.Rescore>
     Score         DG    S(hbond)    S(metal)    S(lipo)     H(rot)  DE(clash)    DE(int)     intcor
      9.52     -13.57       1.27        0.00     109.84       3.52       1.73       2.32       ----

> <Gold.Chemscore.Fitness>
9.5214

> <Gold.Chemscore.DG>
-13.5728

> <Gold.Chemscore.ZeroCoef>
-5.4800

> <Gold.Chemscore.Hbond>
1.2711

> <Gold.Chemscore.Metal>
0.0000

> <Gold.Chemscore.Lipo>
109.8356

> <Gold.Chemscore.Internal_Hbond>
0.0000

> <Gold.Chemscore.DEClash>
1.7288

> <Gold.Chemscore.DEInternal>
2.3226

> <Gold.Chemscore.Rot>
3.5170

> <Gold.Chemscore.Internal.Correction>
   9.000000E+99

> <Gold.Chemscore.Hbonds>
donor molecule, donor type, donor heavy atom, donor atom, acceptor molecule, acceptor atom, score
      L1  H    18    48       P1  7948  0.98
      P1  H  7989  7998       L1    26  0.22

> <Gold.Chemscore.Hbond.Weighted>
-4.2456

> <Gold.Chemscore.Metal.Weighted>
-0.0000

> <Gold.Chemscore.Lipo.Weighted>
-12.8508

> <Gold.Chemscore.Internal_Hbond.Weighted>
0.0000

> <Gold.Chemscore.DEClash.Weighted>
1.7288

> <Gold.Chemscore.DEInternal.Weighted>
2.3226

> <Gold.Chemscore.Rot.Weighted>
9.0036

> <Gold.Chemscore.Internal.Correction.Weighted>
   9.000000E+99

> <Gold.Protein.RotatedTorsions>
[ 6907 6896 6895 6894 ] final -105.24 input  -60.11 | X-H torsion
[ 7974 7965 7964 7962 ] final  -99.84 input  175.53 | X-H torsion
[ 8008 7997 7996 7995 ] final -148.76 input   59.86 | X-H torsion
[ 10167 10162 10161 10158 ] final  115.55 input  -65.29 | X-H torsion
[ 10718 10713 10712 10709 ] final  -65.86 input   66.30 | X-H torsion
[ 10763 10752 10751 10750 ] final  -90.30 input  -60.55 | X-H torsion
[ 11005 11000 10999 10996 ] final  -43.11 input  -57.11 | X-H torsion

> <Gold.Protein.ActiveResidues>
 VAL166  LYS551  ARG553  GLY616  TRP617  ASP618  TYR619  PRO620  LYS621  CYS622 
 ASP623  PHE694  ASN695  SER759  ASP760  ASP761  ALA762  ILE779  LEU786  VAL792 
 PHE793  MET794  SER795  GLU796  ALA797  LYS798  CYS799  TRP800  GLU811  SER814 

> <Gold.Protein.RotatedAtoms>
  150.7327  134.0157  159.3684 H   0  0  0  0  0  0  0  0  0  0  0  0  # atno 6907 bound_to 6896
  151.8119  135.0676  160.0423 H   0  0  0  0  0  0  0  0  0  0  0  0  # atno 6908 bound_to 6896
  152.3066  133.5673  159.5690 H   0  0  0  0  0  0  0  0  0  0  0  0  # atno 6909 bound_to 6896
  145.3023  140.9380  143.2816 H   0  0  0  0  0  0  0  0  0  0  0  0  # atno 7974 bound_to 7965
  155.5968  140.0658  157.2744 H   0  0  0  0  0  0  0  0  0  0  0  0  # atno 8008 bound_to 7997
  154.4290  140.1825  156.1178 H   0  0  0  0  0  0  0  0  0  0  0  0  # atno 8009 bound_to 7997
  156.0190  140.3319  155.7023 H   0  0  0  0  0  0  0  0  0  0  0  0  # atno 8010 bound_to 7997
  139.6309  144.7114  151.2434 H   0  0  0  0  0  0  0  0  0  0  0  0  # atno 10167 bound_to 10162
  156.0645  130.4253  150.1625 H   0  0  0  0  0  0  0  0  0  0  0  0  # atno 10718 bound_to 10713
  154.6643  135.5309  153.8057 H   0  0  0  0  0  0  0  0  0  0  0  0  # atno 10763 bound_to 10752
  153.0461  135.6513  154.0823 H   0  0  0  0  0  0  0  0  0  0  0  0  # atno 10764 bound_to 10752
  154.0728  135.2953  155.3285 H   0  0  0  0  0  0  0  0  0  0  0  0  # atno 10765 bound_to 10752
  141.0362  133.6799  156.2688 H   0  0  0  0  0  0  0  0  0  0  0  0  # atno 11005 bound_to 11000
  144.9083  139.4561  143.6599 LP  0  0  0  0  0  0  0  0  0  0  0  0  # atno 17320 bound_to 7965
  146.3147  139.7877  142.8992 LP  0  0  0  0  0  0  0  0  0  0  0  0  # atno 17321 bound_to 7965
  140.7438  143.6482  150.8272 LP  0  0  0  0  0  0  0  0  0  0  0  0  # atno 17342 bound_to 10162
  140.0107  143.5646  152.2840 LP  0  0  0  0  0  0  0  0  0  0  0  0  # atno 17343 bound_to 10162
  156.9687  130.9828  151.3463 LP  0  0  0  0  0  0  0  0  0  0  0  0  # atno 17370 bound_to 10713
  157.5678  130.8289  149.8350 LP  0  0  0  0  0  0  0  0  0  0  0  0  # atno 17371 bound_to 10713
  140.6318  134.5256  157.5560 LP  0  0  0  0  0  0  0  0  0  0  0  0  # atno 17394 bound_to 11000
  139.9242  134.8088  156.1118 LP  0  0  0  0  0  0  0  0  0  0  0  0  # atno 17395 bound_to 11000

$$$$
