AV-unprocessed.smi:2226|AV-procd|sdf|9009|dock4
  -GOLD-   2272012213D 1   1.00000     0.00000
 Structure written by MMmdl.
 40 42  0  0  0  0  0  0  0  0  2 V2000
  143.5263  132.4139  151.4008 C   0  0  0  0  0  0  0  0  0  0  0  0
  144.2156  133.3077  152.3617 N   0  3  2  0  0  0  0  0  0  0  0  0
  143.7339  134.7096  152.3640 C   0  0  2  0  0  0  0  0  0  0  0  0
  144.1452  135.4523  151.0678 C   0  0  0  0  0  0  0  0  0  0  0  0
  145.6430  135.3464  150.7277 C   0  0  0  0  0  0  0  0  0  0  0  0
  146.2136  133.9412  150.9885 C   0  0  0  0  0  0  0  0  0  0  0  0
  145.6959  133.2782  152.2895 C   0  0  1  0  0  0  0  0  0  0  0  0
  146.2768  133.8584  153.6002 C   0  0  0  0  0  0  0  0  0  0  0  0
  145.6572  135.2009  154.0777 C   0  0  1  0  0  0  0  0  0  0  0  0
  146.4609  136.3637  153.7084 N   0  0  0  0  0  0  0  0  0  0  0  0
  146.1571  137.6491  153.9462 C   0  0  0  0  0  0  0  0  0  0  0  0
  145.1165  137.9709  154.5283 O   0  0  0  0  0  0  0  0  0  0  0  0
  147.1691  138.4693  153.4705 N   0  0  0  0  0  0  0  0  0  0  0  0
  147.2480  139.6945  153.8893 C   0  0  0  0  0  0  0  0  0  0  0  0
  148.1737  140.6573  153.5200 N   0  0  0  0  0  0  0  0  0  0  0  0
  147.8913  141.8052  154.2080 C   0  0  0  0  0  0  0  0  0  0  0  0
  146.8334  141.5753  154.9803 C   0  0  0  0  0  0  0  0  0  0  0  0
  146.4157  140.2902  154.8090 O   0  0  0  0  0  0  0  0  0  0  0  0
  144.1702  135.3896  153.6827 C   0  0  0  0  0  0  0  0  0  0  0  0
  143.7008  132.7063  150.3657 H   0  0  0  0  0  0  0  0  0  0  0  0
  142.4505  132.4241  151.5774 H   0  0  0  0  0  0  0  0  0  0  0  0
  143.8696  131.3865  151.5239 H   0  0  0  0  0  0  0  0  0  0  0  0
  142.6432  134.6855  152.3821 H   0  0  0  0  0  0  0  0  0  0  0  0
  143.5761  135.0400  150.2342 H   0  0  0  0  0  0  0  0  0  0  0  0
  143.8527  136.5011  151.1261 H   0  0  0  0  0  0  0  0  0  0  0  0
  145.7961  135.6107  149.6810 H   0  0  0  0  0  0  0  0  0  0  0  0
  146.2097  136.0907  151.2769 H   0  0  0  0  0  0  0  0  0  0  0  0
  145.9533  133.3036  150.1433 H   0  0  0  0  0  0  0  0  0  0  0  0
  147.3034  133.9810  150.9952 H   0  0  0  0  0  0  0  0  0  0  0  0
  146.0055  132.2325  152.2568 H   0  0  0  0  0  0  0  0  0  0  0  0
  146.0842  133.1237  154.3832 H   0  0  0  0  0  0  0  0  0  0  0  0
  147.3639  133.9213  153.5384 H   0  0  0  0  0  0  0  0  0  0  0  0
  145.6738  135.1861  155.1696 H   0  0  0  0  0  0  0  0  0  0  0  0
  147.3305  136.1765  153.2302 H   0  0  0  0  0  0  0  0  0  0  0  0
  148.9382  140.5728  152.8658 H   0  0  0  0  0  0  0  0  0  0  0  0
  148.4953  142.6895  154.0677 H   0  0  0  0  0  0  0  0  0  0  0  0
  146.2839  142.1923  155.6758 H   0  0  0  0  0  0  0  0  0  0  0  0
  143.8985  136.4462  153.6775 H   0  0  0  0  0  0  0  0  0  0  0  0
  143.5687  134.9488  154.4791 H   0  0  0  0  0  0  0  0  0  0  0  0
  143.9796  132.9366  153.2710 H   0  0  0  0  0  0  0  0  0  0  0  0
  1  2  1  0  0  0  0
  1 20  1  0  0  0  0
  1 21  1  0  0  0  0
  1 22  1  0  0  0  0
  2  7  1  0  0  0  0
  2  3  1  0  0  0  0
  2 40  1  0  0  0  0
  3 19  1  0  0  0  0
  3  4  1  0  0  0  0
  3 23  1  0  0  0  0
  4  5  1  0  0  0  0
  4 24  1  0  0  0  0
  4 25  1  0  0  0  0
  5  6  1  0  0  0  0
  5 26  1  0  0  0  0
  5 27  1  0  0  0  0
  6  7  1  0  0  0  0
  6 28  1  0  0  0  0
  6 29  1  0  0  0  0
  7  8  1  0  0  0  0
  7 30  1  0  0  0  0
  8  9  1  0  0  0  0
  8 31  1  0  0  0  0
  8 32  1  0  0  0  0
  9 10  1  0  0  0  0
  9 19  1  0  0  0  0
  9 33  1  0  0  0  0
 10 34  1  0  0  0  0
 10 11  1  0  0  0  0
 11 13  1  0  0  0  0
 11 12  2  0  0  0  0
 13 14  2  0  0  0  0
 14 18  1  0  0  0  0
 14 15  1  0  0  0  0
 15 35  1  0  0  0  0
 15 16  1  0  0  0  0
 16 36  1  0  0  0  0
 16 17  2  0  0  0  0
 17 37  1  0  0  0  0
 17 18  1  0  0  0  0
 19 38  1  0  0  0  0
 19 39  1  0  0  0  0
M  CHG  1   2   1
M  END
> <s_m_source_file>
AV-unprocessed.smi

> <i_m_source_file_index>
2226

> <i_lp_mmshare_version>
43012

> <i_f3d_flags>
0

> <s_epik_input>
W0NIMl0xW0NIMl1bQ0gyXVtDQEhdKE4oW0NIM10pW0NIXTEyKVtDSDJdW0NASF0oW0NIMl0yKVtOSF1DKD1PKVtOSF1jM25bY0hdW2NIXW8z

> <s_epik_cmdline>
J2VwaWtfcHl0aG9uJywgJy1waCcsICc3LjAnLCAnLXRuJywgJzgnLCAnLW1hJywgJzIwMCcsICctbWV0YWxfYmluZGluZycsICctaW1hZScsICc8aW5maWxlLm1hZT4nLCAnLW9tYWUnLCAnPG91dGZpbGUubWFlPic=

> <r_lp_tautomer_probability>
0.107061

> <r_epik_Ionization_Penalty>
1.08307

> <r_epik_Ionization_Penalty_Charging>
1.08272

> <r_epik_Ionization_Penalty_Neutral>
0.000345913

> <r_epik_State_Penalty>
2.5744

> <r_epik_Charging_Adjusted_Penalty>
3.65713

> <i_epik_Tot_Q>
1

> <i_epik_Tot_abs_Q>
1

> <r_epik_Metal_State_Penalty>
3.72133

> <b_epik_Metal_Only>
0

> <s_lp_Force_Field>
OPLS_2005

> <r_lp_Energy>
58.5529

> <b_lp_Chiralities_Consistent>
1

> <s_lp_Variant>
AV-unprocessed.smi:2226-9

> <Gold.Version>
5.8.1

> <Gold.Id.Protein>
6NUR|6NUR_protein|mol2

> <Gold.PLP.Fitness>
34.0528

> <Gold.PLP.PLP>
-24.6974

> <Gold.PLP.part.hbond>
-2.0980

> <Gold.PLP.part.metal>
0.0000

> <Gold.PLP.part.buried>
-5.8735

> <Gold.PLP.part.nonpolar>
-18.9340

> <Gold.PLP.part.repulsive>
0.5073

> <Gold.PLP.ligand.clash>
0.0000

> <Gold.PLP.ligand.torsion>
0.1353

> <Gold.PLP.Chemscore.Hbond>
2.4300

> <Gold.PLP.Chemscore.CHOScore>
0.7612

> <Gold.PLP.Chemscore.Metal>
0.0000

> <Gold.Chemscore.Hbonds>
donor molecule, donor type, donor heavy atom, donor atom, acceptor molecule, acceptor atom, score
      L1  H     2    40       P1 10957  0.59
      L1  H    10    34       P1  7948  0.78
      L1  H    15    35       P1  7957  1.00
      L1  C    16    36       P1  8028  0.88

> <Gold.PLP.Chemscore.Internal.Correction>
0.0522

> <Gold.Rescore>
     Score         DG    S(hbond)    S(metal)    S(lipo)     H(rot)  DE(clash)    DE(int)     intcor
     13.82     -16.66       2.27        0.00      52.50       1.00       0.02       2.82       ----

> <Gold.Chemscore.Fitness>
13.8195

> <Gold.Chemscore.DG>
-16.6568

> <Gold.Chemscore.ZeroCoef>
-5.4800

> <Gold.Chemscore.Hbond>
2.2736

> <Gold.Chemscore.Metal>
0.0000

> <Gold.Chemscore.Lipo>
52.5048

> <Gold.Chemscore.Internal_Hbond>
0.0000

> <Gold.Chemscore.DEClash>
0.0208

> <Gold.Chemscore.DEInternal>
2.8165

> <Gold.Chemscore.Rot>
1.0000

> <Gold.Chemscore.Internal.Correction>
   9.000000E+99

> <Gold.Chemscore.Hbonds>
donor molecule, donor type, donor heavy atom, donor atom, acceptor molecule, acceptor atom, score
      L1  H     2    40       P1 10957  0.17
      L1  H    10    34       P1  7948  0.77
      L1  H    15    35       P1  7957  0.94

> <Gold.Chemscore.Hbond.Weighted>
-7.5937

> <Gold.Chemscore.Metal.Weighted>
-0.0000

> <Gold.Chemscore.Lipo.Weighted>
-6.1431

> <Gold.Chemscore.Internal_Hbond.Weighted>
0.0000

> <Gold.Chemscore.DEClash.Weighted>
0.0208

> <Gold.Chemscore.DEInternal.Weighted>
2.8165

> <Gold.Chemscore.Rot.Weighted>
2.5600

> <Gold.Chemscore.Internal.Correction.Weighted>
   9.000000E+99

> <Gold.Protein.RotatedTorsions>
[ 6907 6896 6895 6894 ] final  168.77 input  -60.11 | X-H torsion
[ 7974 7965 7964 7962 ] final -155.14 input  175.53 | X-H torsion
[ 8008 7997 7996 7995 ] final -176.93 input   59.86 | X-H torsion
[ 10167 10162 10161 10158 ] final  -79.71 input  -65.29 | X-H torsion
[ 10718 10713 10712 10709 ] final   75.23 input   66.30 | X-H torsion
[ 10763 10752 10751 10750 ] final  -32.36 input  -60.55 | X-H torsion
[ 11005 11000 10999 10996 ] final   20.71 input  -57.11 | X-H torsion

> <Gold.Protein.ActiveResidues>
 VAL166  LYS551  ARG553  GLY616  TRP617  ASP618  TYR619  PRO620  LYS621  CYS622 
 ASP623  PHE694  ASN695  SER759  ASP760  ASP761  ALA762  ILE779  LEU786  VAL792 
 PHE793  MET794  SER795  GLU796  ALA797  LYS798  CYS799  TRP800  GLU811  SER814 

> <Gold.Protein.RotatedAtoms>
  151.8425  133.3426  159.3647 H   0  0  0  0  0  0  0  0  0  0  0  0  # atno 6907 bound_to 6896
  150.7230  134.5378  159.5741 H   0  0  0  0  0  0  0  0  0  0  0  0  # atno 6908 bound_to 6896
  152.2854  134.7782  160.0439 H   0  0  0  0  0  0  0  0  0  0  0  0  # atno 6909 bound_to 6896
  144.7655  140.4291  143.5945 H   0  0  0  0  0  0  0  0  0  0  0  0  # atno 7974 bound_to 7965
  156.0009  140.1220  157.0548 H   0  0  0  0  0  0  0  0  0  0  0  0  # atno 8008 bound_to 7997
  154.4242  140.1107  156.5764 H   0  0  0  0  0  0  0  0  0  0  0  0  # atno 8009 bound_to 7997
  155.6214  140.3472  155.4655 H   0  0  0  0  0  0  0  0  0  0  0  0  # atno 8010 bound_to 7997
  140.4569  143.2465  151.8407 H   0  0  0  0  0  0  0  0  0  0  0  0  # atno 10167 bound_to 10162
  157.6625  130.9716  150.1323 H   0  0  0  0  0  0  0  0  0  0  0  0  # atno 10718 bound_to 10713
  153.8124  135.6881  153.4839 H   0  0  0  0  0  0  0  0  0  0  0  0  # atno 10763 bound_to 10752
  153.1620  135.4576  154.9783 H   0  0  0  0  0  0  0  0  0  0  0  0  # atno 10764 bound_to 10752
  154.7962  135.3320  154.7604 H   0  0  0  0  0  0  0  0  0  0  0  0  # atno 10765 bound_to 10752
  140.3996  134.1732  155.7663 H   0  0  0  0  0  0  0  0  0  0  0  0  # atno 11005 bound_to 11000
  145.6485  139.1561  143.2875 LP  0  0  0  0  0  0  0  0  0  0  0  0  # atno 17320 bound_to 7965
  146.1757  140.6576  142.9212 LP  0  0  0  0  0  0  0  0  0  0  0  0  # atno 17321 bound_to 7965
  139.4802  144.5054  151.9004 LP  0  0  0  0  0  0  0  0  0  0  0  0  # atno 17342 bound_to 10162
  140.4141  144.2331  150.5888 LP  0  0  0  0  0  0  0  0  0  0  0  0  # atno 17343 bound_to 10162
  156.2167  130.3671  149.8605 LP  0  0  0  0  0  0  0  0  0  0  0  0  # atno 17370 bound_to 10713
  156.6469  130.8727  151.3524 LP  0  0  0  0  0  0  0  0  0  0  0  0  # atno 17371 bound_to 10713
  141.1861  133.8309  157.1079 LP  0  0  0  0  0  0  0  0  0  0  0  0  # atno 17394 bound_to 11000
  140.0346  134.9884  157.0846 LP  0  0  0  0  0  0  0  0  0  0  0  0  # atno 17395 bound_to 11000

$$$$
