AV-unprocessed.smi:2443|AV-procd|sdf|9631|dock9
  -GOLD-   2272013263D 1   1.00000     0.00000
 Structure written by MMmdl.
 37 39  0  0  0  0  0  0  0  0  1 V2000
  153.4664  137.5205  157.4099 C   0  0  0  0  0  0  0  0  0  0  0  0
  153.0393  137.1395  156.1070 O   0  0  0  0  0  0  0  0  0  0  0  0
  152.1785  137.9801  155.4320 C   0  0  0  0  0  0  0  0  0  0  0  0
  151.8504  139.2304  155.9954 C   0  0  0  0  0  0  0  0  0  0  0  0
  150.9622  140.0591  155.2736 C   0  0  0  0  0  0  0  0  0  0  0  0
  150.6566  141.3080  155.8756 N   0  0  0  0  0  0  0  0  0  0  0  0
  150.7612  141.6511  157.1714 C   0  0  0  0  0  0  0  0  0  0  0  0
  151.1646  140.9156  158.0727 O   0  0  0  0  0  0  0  0  0  0  0  0
  150.3679  142.9170  157.3710 N   0  0  0  0  0  0  0  0  0  0  0  0
  150.3521  143.5943  158.6627 C   0  0  0  0  0  0  0  0  0  0  0  0
  151.7090  143.7995  159.3267 C   0  0  0  0  0  0  0  0  0  0  0  0
  152.3031  142.5612  159.9922 C   0  0  0  0  0  0  0  0  0  0  0  0
  153.0576  142.6943  161.2953 C   0  0  0  0  0  0  0  0  0  0  0  0
  153.7881  142.2587  160.0509 C   0  0  0  0  0  0  0  0  0  0  0  0
  152.6903  144.7375  158.6493 C   0  0  0  0  0  0  0  0  0  0  0  0
  151.9803  145.1847  159.8946 C   0  0  0  0  0  0  0  0  0  0  0  0
  150.4631  139.6414  154.0840 N   0  0  0  0  0  0  0  0  0  0  0  0
  150.8365  138.4415  153.6358 C   0  0  0  0  0  0  0  0  0  0  0  0
  151.6642  137.5891  154.2412 N   0  0  0  0  0  0  0  0  0  0  0  0
  154.1410  136.7611  157.8050 H   0  0  0  0  0  0  0  0  0  0  0  0
  152.6236  137.6043  158.0974 H   0  0  0  0  0  0  0  0  0  0  0  0
  154.0089  138.4668  157.3912 H   0  0  0  0  0  0  0  0  0  0  0  0
  152.2639  139.5349  156.9457 H   0  0  0  0  0  0  0  0  0  0  0  0
  150.3203  142.0226  155.2474 H   0  0  0  0  0  0  0  0  0  0  0  0
  150.0499  143.4500  156.5749 H   0  0  0  0  0  0  0  0  0  0  0  0
  149.8356  144.5510  158.5663 H   0  0  0  0  0  0  0  0  0  0  0  0
  149.7393  142.9915  159.3330 H   0  0  0  0  0  0  0  0  0  0  0  0
  151.6661  141.6812  159.9235 H   0  0  0  0  0  0  0  0  0  0  0  0
  153.2551  143.6983  161.6650 H   0  0  0  0  0  0  0  0  0  0  0  0
  152.8729  141.9435  162.0609 H   0  0  0  0  0  0  0  0  0  0  0  0
  154.0856  141.2141  159.9865 H   0  0  0  0  0  0  0  0  0  0  0  0
  154.5051  142.9638  159.6402 H   0  0  0  0  0  0  0  0  0  0  0  0
  153.7504  144.5063  158.7345 H   0  0  0  0  0  0  0  0  0  0  0  0
  152.3926  145.1977  157.7091 H   0  0  0  0  0  0  0  0  0  0  0  0
  151.2041  145.9385  159.7783 H   0  0  0  0  0  0  0  0  0  0  0  0
  152.5906  145.2980  160.7859 H   0  0  0  0  0  0  0  0  0  0  0  0
  150.4280  138.1294  152.6864 H   0  0  0  0  0  0  0  0  0  0  0  0
  1  2  1  0  0  0  0
  1 20  1  0  0  0  0
  1 21  1  0  0  0  0
  1 22  1  0  0  0  0
  2  3  1  0  0  0  0
  3 19  1  0  0  0  0
  3  4  2  0  0  0  0
  4  5  1  0  0  0  0
  4 23  1  0  0  0  0
  5  6  1  0  0  0  0
  5 17  2  0  0  0  0
  6  7  1  0  0  0  0
  6 24  1  0  0  0  0
  7  8  2  0  0  0  0
  7  9  1  0  0  0  0
  9 10  1  0  0  0  0
  9 25  1  0  0  0  0
 10 11  1  0  0  0  0
 10 26  1  0  0  0  0
 10 27  1  0  0  0  0
 11 16  1  0  0  0  0
 11 12  1  0  0  0  0
 11 15  1  0  0  0  0
 12 14  1  0  0  0  0
 12 13  1  0  0  0  0
 12 28  1  0  0  0  0
 13 14  1  0  0  0  0
 13 29  1  0  0  0  0
 13 30  1  0  0  0  0
 14 31  1  0  0  0  0
 14 32  1  0  0  0  0
 15 16  1  0  0  0  0
 15 33  1  0  0  0  0
 15 34  1  0  0  0  0
 16 35  1  0  0  0  0
 16 36  1  0  0  0  0
 17 18  1  0  0  0  0
 18 19  2  0  0  0  0
 18 37  1  0  0  0  0
M  END
> <s_m_source_file>
AV-unprocessed.smi

> <i_m_source_file_index>
2443

> <i_lp_mmshare_version>
43012

> <i_f3d_flags>
0

> <s_epik_input>
W0NIM11PYzFbY0hdYyhuW2NIXW4xKVtOSF1DKD1PKVtOSF1bQ0gyXUMyKFtDSDJdW0NIMl0yKVtDSF0zW0NIMl1bQ0gyXTM=

> <s_epik_cmdline>
J2VwaWtfcHl0aG9uJywgJy1waCcsICc3LjAnLCAnLXRuJywgJzgnLCAnLW1hJywgJzIwMCcsICctbWV0YWxfYmluZGluZycsICctaW1hZScsICc8aW5maWxlLm1hZT4nLCAnLW9tYWUnLCAnPG91dGZpbGUubWFlPic=

> <r_lp_tautomer_probability>
1

> <r_epik_Ionization_Penalty>
2.73859e-05

> <r_epik_Ionization_Penalty_Charging>
0

> <r_epik_Ionization_Penalty_Neutral>
2.73859e-05

> <r_epik_State_Penalty>
-0

> <r_epik_Charging_Adjusted_Penalty>
0

> <i_epik_Tot_Q>
0

> <i_epik_Tot_abs_Q>
0

> <r_epik_Metal_State_Penalty>
-0

> <b_epik_Metal_Only>
0

> <s_lp_Force_Field>
OPLS_2005

> <r_lp_Energy>
26.0575

> <b_lp_Chiralities_Consistent>
1

> <s_lp_Variant>
AV-unprocessed.smi:2443-1

> <Gold.Version>
5.8.1

> <Gold.Id.Protein>
6NUR|6NUR_protein|mol2

> <Gold.PLP.Fitness>
50.5307

> <Gold.PLP.PLP>
-42.0106

> <Gold.PLP.part.hbond>
-3.6331

> <Gold.PLP.part.metal>
0.0000

> <Gold.PLP.part.buried>
-6.5488

> <Gold.PLP.part.nonpolar>
-32.4608

> <Gold.PLP.part.repulsive>
0.4600

> <Gold.PLP.ligand.clash>
0.1730

> <Gold.PLP.ligand.torsion>
1.8364

> <Gold.PLP.Chemscore.Hbond>
2.0332

> <Gold.PLP.Chemscore.CHOScore>
1.2380

> <Gold.PLP.Chemscore.Metal>
0.0000

> <Gold.Chemscore.Hbonds>
donor molecule, donor type, donor heavy atom, donor atom, acceptor molecule, acceptor atom, score
      L1  H     9    25       P1  8028  1.00
      P1  H  7989  7998       L1    17  0.10
      P1  H 10752 10765       L1     2  0.66
      L1  C    18    37       P1  7948  0.55
      L1  C    18    37       P1  7949  0.32
      L1  C    18    37       P1  7957  0.41

> <Gold.PLP.Chemscore.Internal.Correction>
2.5522

> <Gold.Rescore>
     Score         DG    S(hbond)    S(metal)    S(lipo)     H(rot)  DE(clash)    DE(int)     intcor
     12.55     -17.31       1.80        0.00      90.63       1.86       0.10       4.66       ----

> <Gold.Chemscore.Fitness>
12.5460

> <Gold.Chemscore.DG>
-17.3124

> <Gold.Chemscore.ZeroCoef>
-5.4800

> <Gold.Chemscore.Hbond>
1.7951

> <Gold.Chemscore.Metal>
0.0000

> <Gold.Chemscore.Lipo>
90.6268

> <Gold.Chemscore.Internal_Hbond>
0.0000

> <Gold.Chemscore.DEClash>
0.1038

> <Gold.Chemscore.DEInternal>
4.6626

> <Gold.Chemscore.Rot>
1.8619

> <Gold.Chemscore.Internal.Correction>
   9.000000E+99

> <Gold.Chemscore.Hbonds>
donor molecule, donor type, donor heavy atom, donor atom, acceptor molecule, acceptor atom, score
      L1  H     9    25       P1  8028  0.97
      P1  H 10752 10765       L1     2  0.54

> <Gold.Chemscore.Hbond.Weighted>
-5.9955

> <Gold.Chemscore.Metal.Weighted>
-0.0000

> <Gold.Chemscore.Lipo.Weighted>
-10.6033

> <Gold.Chemscore.Internal_Hbond.Weighted>
0.0000

> <Gold.Chemscore.DEClash.Weighted>
0.1038

> <Gold.Chemscore.DEInternal.Weighted>
4.6626

> <Gold.Chemscore.Rot.Weighted>
4.7665

> <Gold.Chemscore.Internal.Correction.Weighted>
   9.000000E+99

> <Gold.Protein.RotatedTorsions>
[ 6907 6896 6895 6894 ] final  102.56 input  -60.11 | X-H torsion
[ 7974 7965 7964 7962 ] final   93.95 input  175.53 | X-H torsion
[ 8008 7997 7996 7995 ] final  164.25 input   59.86 | X-H torsion
[ 10167 10162 10161 10158 ] final   98.01 input  -65.29 | X-H torsion
[ 10718 10713 10712 10709 ] final -125.03 input   66.30 | X-H torsion
[ 10763 10752 10751 10750 ] final -136.29 input  -60.55 | X-H torsion
[ 11005 11000 10999 10996 ] final  -31.65 input  -57.11 | X-H torsion

> <Gold.Protein.ActiveResidues>
 VAL166  LYS551  ARG553  GLY616  TRP617  ASP618  TYR619  PRO620  LYS621  CYS622 
 ASP623  PHE694  ASN695  SER759  ASP760  ASP761  ALA762  ILE779  LEU786  VAL792 
 PHE793  MET794  SER795  GLU796  ALA797  LYS798  CYS799  TRP800  GLU811  SER814 

> <Gold.Protein.RotatedAtoms>
  152.5320  133.9957  159.7871 H   0  0  0  0  0  0  0  0  0  0  0  0  # atno 6907 bound_to 6896
  151.0185  133.5891  159.2681 H   0  0  0  0  0  0  0  0  0  0  0  0  # atno 6908 bound_to 6896
  151.2939  135.0756  159.9267 H   0  0  0  0  0  0  0  0  0  0  0  0  # atno 6909 bound_to 6896
  145.4721  139.2281  143.2929 H   0  0  0  0  0  0  0  0  0  0  0  0  # atno 7974 bound_to 7965
  156.1894  140.1702  156.8121 H   0  0  0  0  0  0  0  0  0  0  0  0  # atno 8008 bound_to 7997
  154.5453  140.0728  156.8611 H   0  0  0  0  0  0  0  0  0  0  0  0  # atno 8009 bound_to 7997
  155.3133  140.3369  155.4245 H   0  0  0  0  0  0  0  0  0  0  0  0  # atno 8010 bound_to 7997
  139.7748  144.6910  151.0105 H   0  0  0  0  0  0  0  0  0  0  0  0  # atno 10167 bound_to 10162
  156.1639  130.6621  151.0088 H   0  0  0  0  0  0  0  0  0  0  0  0  # atno 10718 bound_to 10713
  154.8687  135.3677  154.5037 H   0  0  0  0  0  0  0  0  0  0  0  0  # atno 10763 bound_to 10752
  153.5676  135.7021  153.5524 H   0  0  0  0  0  0  0  0  0  0  0  0  # atno 10764 bound_to 10752
  153.3571  135.4056  155.1654 H   0  0  0  0  0  0  0  0  0  0  0  0  # atno 10765 bound_to 10752
  140.9486  133.7235  156.1185 H   0  0  0  0  0  0  0  0  0  0  0  0  # atno 11005 bound_to 11000
  146.2391  140.5500  142.8942 LP  0  0  0  0  0  0  0  0  0  0  0  0  # atno 17320 bound_to 7965
  144.7939  140.6085  143.6523 LP  0  0  0  0  0  0  0  0  0  0  0  0  # atno 17321 bound_to 7965
  140.7816  143.4548  151.0361 LP  0  0  0  0  0  0  0  0  0  0  0  0  # atno 17342 bound_to 10162
  139.8231  143.7793  152.3177 LP  0  0  0  0  0  0  0  0  0  0  0  0  # atno 17343 bound_to 10162
  157.6753  131.0852  150.7509 LP  0  0  0  0  0  0  0  0  0  0  0  0  # atno 17370 bound_to 10713
  156.7571  130.4787  149.5444 LP  0  0  0  0  0  0  0  0  0  0  0  0  # atno 17371 bound_to 10713
  140.7634  134.3913  157.5521 LP  0  0  0  0  0  0  0  0  0  0  0  0  # atno 17394 bound_to 11000
  139.8840  134.8976  156.2727 LP  0  0  0  0  0  0  0  0  0  0  0  0  # atno 17395 bound_to 11000

$$$$
