#       Name:                AV-unprocessed.smi:1356
#       Creating user name   scv26
#       Creation time:       Fri Mar 27 05:13:22 2020


#       File generated by GOLD software.
#

@<TRIPOS>MOLECULE
AV-unprocessed.smi:1356
    46    47     1
SMALL
NO_CHARGES


@<TRIPOS>ATOM
      1 ****        -1.5422   5.4266   1.8253 C.3            1 S1                 0.0000
      2 ****        -2.7860   5.5253   0.9592 C.3            1 S1                 0.0000
      3 ****        -2.6998   5.2130  -0.5146 C.3            1 S1                 0.0000
      4 ****        -3.5314   4.3251   0.3886 C.3            1 S1                 0.0000
      5 ****        -3.0282   2.9541   0.6916 C.2            1 S1                 0.0000
      6 ****        -2.8386   2.5620   1.8429 O.2            1 S1                 0.0000
      7 ****        -2.8565   2.1768  -0.3889 N.am           1 S1                 0.0000
      8 ****        -2.3906   0.7952  -0.3590 C.3            1 S1                 0.0000
      9 ****        -0.8537   0.7228  -0.2612 C.3            1 S1                 0.0000
     10 ****        -0.3136  -0.7057  -0.1377 C.2            1 S1                 0.0000
     11 ****        -1.0427  -1.6791  -0.3319 O.2            1 S1                 0.0000
     12 ****         0.9830  -0.8137   0.1899 N.am           1 S1                 0.0000
     13 ****         1.6993  -2.0694   0.3819 C.3            1 S1                 0.0000
     14 ****         2.0881  -2.7179  -0.9574 C.3            1 S1                 0.0000
     15 ****         2.8740  -4.0007  -0.7637 C.ar           1 S1                 0.0000
     16 ****         2.2343  -5.2561  -0.8436 C.ar           1 S1                 0.0000
     17 ****         3.0068  -6.4166  -0.6435 C.ar           1 S1                 0.0000
     18 ****         4.3816  -6.2777  -0.3722 C.ar           1 S1                 0.0000
     19 ****         4.9249  -4.9789  -0.3120 C.ar           1 S1                 0.0000
     20 ****         4.1930  -3.8596  -0.5011 N.ar           1 S1                 0.0000
     21 ****        -0.8631   4.6560   1.4591 H              1 S1                 0.0000
     22 ****        -1.8186   5.1896   2.8528 H              1 S1                 0.0000
     23 ****        -1.0108   6.3781   1.8210 H              1 S1                 0.0000
     24 ****        -3.4262   6.3587   1.2418 H              1 S1                 0.0000
     25 ****        -3.2379   5.8587  -1.2054 H              1 S1                 0.0000
     26 ****        -1.7561   4.8228  -0.8924 H              1 S1                 0.0000
     27 ****        -4.6144   4.4242   0.3479 H              1 S1                 0.0000
     28 ****        -3.0561   2.5737  -1.2957 H              1 S1                 0.0000
     29 ****        -2.8593   0.2639   0.4716 H              1 S1                 0.0000
     30 ****        -2.7320   0.3070  -1.2725 H              1 S1                 0.0000
     31 ****        -0.4043   1.1894  -1.1386 H              1 S1                 0.0000
     32 ****        -0.5125   1.2915   0.6054 H              1 S1                 0.0000
     33 ****         1.5088   0.0367   0.3304 H              1 S1                 0.0000
     34 ****         2.5952  -1.8568   0.9657 H              1 S1                 0.0000
     35 ****         1.0957  -2.7559   0.9782 H              1 S1                 0.0000
     36 ****         1.1958  -2.9351  -1.5460 H              1 S1                 0.0000
     37 ****         2.6844  -2.0233  -1.5509 H              1 S1                 0.0000
     38 ****         1.1766  -5.3297  -1.0498 H              1 S1                 0.0000
     39 ****         2.5534  -7.3951  -0.6958 H              1 S1                 0.0000
     40 ****         5.0048  -7.1452  -0.2129 H              1 S1                 0.0000
     41 ****         5.9751  -4.8355  -0.1050 H              1 S1                 0.0000
     42 ****        -3.0229   3.1702   2.6149 LP             1 S1                 0.0000
     43 ****        -2.5002   1.6353   2.0061 LP             1 S1                 0.0000
     44 ****        -2.0034  -1.5438  -0.5744 LP             1 S1                 0.0000
     45 ****        -0.6740  -2.6048  -0.2472 LP             1 S1                 0.0000
     46 ****         4.6138  -2.9539  -0.4485 LP             1 S1                 0.0000
@<TRIPOS>BOND
    1    1    2 1     
    2    1   21 1     
    3    1   22 1     
    4    1   23 1     
    5    2    4 1     
    6    2    3 1     
    7    2   24 1     
    8    3    4 1     
    9    3   25 1     
   10    3   26 1     
   11    4    5 1     
   12    4   27 1     
   13    5    6 2     
   14    5    7 am    
   15    7    8 1     
   16    7   28 1     
   17    8    9 1     
   18    8   29 1     
   19    8   30 1     
   20    9   10 1     
   21    9   31 1     
   22    9   32 1     
   23   10   11 2     
   24   10   12 am    
   25   12   13 1     
   26   12   33 1     
   27   13   14 1     
   28   13   34 1     
   29   13   35 1     
   30   14   15 1     
   31   14   36 1     
   32   14   37 1     
   33   15   20 ar    
   34   15   16 ar    
   35   16   17 ar    
   36   16   38 1     
   37   17   18 ar    
   38   17   39 1     
   39   18   19 ar    
   40   18   40 1     
   41   19   20 ar    
   42   19   41 1     
   43    6   42 1     
   44    6   43 1     
   45   11   44 1     
   46   11   45 1     
   47   20   46 1     
@<TRIPOS>SUBSTRUCTURE
      1 S1             1
@<TRIPOS>SET
LONE_PAIRS      STATIC     ATOMS    <user>   **** ""
5 42 43 44 45 46
DONOR_HYDROGENS      STATIC     ATOMS    <user>   **** ""
2 28 33
ATOM$BLUE        STATIC     ATOMS    COLORGROUP SYSTEM
5 42 43 44 45 46
ATOM$RED        STATIC     ATOMS    COLORGROUP SYSTEM
2 28 33
