#       Name:                AV-unprocessed.smi:2079
#       Creating user name   scv26
#       Creation time:       Fri Mar 27 11:18:44 2020


#       File generated by GOLD software.
#

@<TRIPOS>MOLECULE
AV-unprocessed.smi:2079
    47    48     1
SMALL
NO_CHARGES


@<TRIPOS>ATOM
      1 ****        -6.9672   4.1523   1.2995 C.3            1 S1                 0.0000
      2 ****        -5.9216   3.4052   0.5441 C.2            1 S1                 0.0000
      3 ****        -5.1342   2.3354   0.8628 C.2            1 S1                 0.0000
      4 ****        -4.3584   2.1413  -0.3126 C.2            1 S1                 0.0000
      5 ****        -3.4341   1.1859  -0.4971 N.pl3          1 S1                -1.0000
      6 ****        -2.1529   1.3954  -0.1174 C.2            1 S1                 0.0000
      7 ****        -1.7001   2.4154   0.4073 O.2            1 S1                 0.0000
      8 ****        -1.3436   0.3561  -0.3598 N.am           1 S1                 0.0000
      9 ****         0.0802   0.3150  -0.0568 C.3            1 S1                 0.0000
     10 ****         0.6657  -1.0582  -0.4310 C.3            1 S1                 0.0000
     11 ****         2.1406  -1.1426  -0.2230 N.4            1 S1                 1.0000
     12 ****         2.4886  -1.1460   1.2283 C.3            1 S1                 0.0000
     13 ****         4.0050  -1.1021   1.4614 C.3            1 S1                 0.0000
     14 ****         4.6874  -2.2808   0.7690 C.3            1 S1                 0.0000
     15 ****         4.3281  -2.2673  -0.7182 C.3            1 S1                 0.0000
     16 ****         2.7997  -2.2794  -0.9491 C.3            1 S1                 0.0000
     17 ****         2.5381  -2.2700  -2.4702 C.3            1 S1                 0.0000
     18 ****        -4.6595   3.0069  -1.2662 N.2            1 S1                 0.0000
     19 ****        -5.6566   3.8255  -0.7222 O.3            1 S1                 0.0000
     20 ****        -7.7190   3.4692   1.6952 H              1 S1                 0.0000
     21 ****        -7.4727   4.8767   0.6604 H              1 S1                 0.0000
     22 ****        -6.5247   4.6913   2.1371 H              1 S1                 0.0000
     23 ****        -5.1138   1.7809   1.7890 H              1 S1                 0.0000
     24 ****        -1.7514  -0.4610  -0.7902 H              1 S1                 0.0000
     25 ****         0.5882   1.1051  -0.6121 H              1 S1                 0.0000
     26 ****         0.2042   0.5295   1.0041 H              1 S1                 0.0000
     27 ****         0.1703  -1.8536   0.1279 H              1 S1                 0.0000
     28 ****         0.4119  -1.2166  -1.4760 H              1 S1                 0.0000
     29 ****         2.0529  -0.2875   1.7353 H              1 S1                 0.0000
     30 ****         2.0660  -2.0348   1.6998 H              1 S1                 0.0000
     31 ****         4.4107  -0.1626   1.0838 H              1 S1                 0.0000
     32 ****         4.2184  -1.1253   2.5306 H              1 S1                 0.0000
     33 ****         5.7686  -2.2221   0.8984 H              1 S1                 0.0000
     34 ****         4.3659  -3.2192   1.2227 H              1 S1                 0.0000
     35 ****         4.7646  -1.3839  -1.1872 H              1 S1                 0.0000
     36 ****         4.7878  -3.1292  -1.2034 H              1 S1                 0.0000
     37 ****         2.4016  -3.2111  -0.5433 H              1 S1                 0.0000
     38 ****         3.1715  -2.9984  -2.9774 H              1 S1                 0.0000
     39 ****         2.7506  -1.2933  -2.9060 H              1 S1                 0.0000
     40 ****         1.5142  -2.5436  -2.7212 H              1 S1                 0.0000
     41 ****         2.5295  -0.2969  -0.6151 H              1 S1                 0.0000
     42 ****        -3.6935   0.3160  -0.9168 LP             1 S1                 0.0000
     43 ****        -2.3019   3.1928   0.5905 LP             1 S1                 0.0000
     44 ****        -0.7312   2.4651   0.6496 LP             1 S1                 0.0000
     45 ****        -4.2600   3.0644  -2.1811 LP             1 S1                 0.0000
     46 ****        -5.3402   4.7739  -0.7029 LP             1 S1                 0.0000
     47 ****        -6.4852   3.7618  -1.2785 LP             1 S1                 0.0000
@<TRIPOS>BOND
    1    1    2 1     
    2    1   20 1     
    3    1   21 1     
    4    1   22 1     
    5    2   19 1     
    6    2    3 2     
    7    3    4 1     
    8    3   23 1     
    9    4    5 1     
   10    4   18 2     
   11    5    6 1     
   12    6    7 2     
   13    6    8 am    
   14    8    9 1     
   15    8   24 1     
   16    9   10 1     
   17    9   25 1     
   18    9   26 1     
   19   10   11 1     
   20   10   27 1     
   21   10   28 1     
   22   11   16 1     
   23   11   12 1     
   24   11   41 1     
   25   12   13 1     
   26   12   29 1     
   27   12   30 1     
   28   13   14 1     
   29   13   31 1     
   30   13   32 1     
   31   14   15 1     
   32   14   33 1     
   33   14   34 1     
   34   15   16 1     
   35   15   35 1     
   36   15   36 1     
   37   16   17 1     
   38   16   37 1     
   39   17   38 1     
   40   17   39 1     
   41   17   40 1     
   42   18   19 1     
   43    5   42 1     
   44    7   43 1     
   45    7   44 1     
   46   18   45 1     
   47   19   46 1     
   48   19   47 1     
@<TRIPOS>SUBSTRUCTURE
      1 S1             1
@<TRIPOS>SET
LONE_PAIRS      STATIC     ATOMS    <user>   **** ""
6 42 43 44 45 46 47
DONOR_HYDROGENS      STATIC     ATOMS    <user>   **** ""
2 24 41
ATOM$BLUE        STATIC     ATOMS    COLORGROUP SYSTEM
6 42 43 44 45 46 47
ATOM$RED        STATIC     ATOMS    COLORGROUP SYSTEM
2 24 41
