AV-unprocessed.smi:2953|AV-procd|sdf|11296|dock3
  -GOLD-   2272016193D 1   1.00000     0.00000
 Structure written by MMmdl.
 46 48  0  0  0  0  0  0  0  0  2 V2000
  152.2046  144.8642  158.7116 C   0  0  0  0  0  0  0  0  0  0  0  0
  152.4611  143.4191  159.0948 C   0  0  0  0  0  0  0  0  0  0  0  0
  153.4976  143.1257  160.0056 C   0  0  0  0  0  0  0  0  0  0  0  0
  153.7608  141.7958  160.3788 C   0  0  0  0  0  0  0  0  0  0  0  0
  152.9878  140.7533  159.8390 C   0  0  0  0  0  0  0  0  0  0  0  0
  151.9533  141.0397  158.9282 C   0  0  0  0  0  0  0  0  0  0  0  0
  151.6761  142.3775  158.5442 C   0  0  0  0  0  0  0  0  0  0  0  0
  150.6780  142.7235  157.6549 O   0  0  0  0  0  0  0  0  0  0  0  0
  150.0019  141.6801  156.9643 C   0  0  0  0  0  0  0  0  0  0  0  0
  150.9571  141.0209  155.9601 C   0  0  0  0  0  0  0  0  0  0  0  0
  150.2675  140.1033  155.0397 N   0  0  0  0  0  0  0  0  0  0  0  0
  150.5510  138.8167  154.6769 C   0  0  0  0  0  0  0  0  0  0  0  0
  151.7082  137.9761  155.1349 C   0  0  1  0  0  0  0  0  0  0  0  0
  153.0461  138.5957  154.7040 C   0  0  0  0  0  0  0  0  0  0  0  0
  151.7054  137.8010  156.5823 N   0  0  0  0  0  0  0  0  0  0  0  0
  152.5021  136.9553  157.2472 C   0  0  0  0  0  0  0  0  0  0  0  0
  153.3273  136.2348  156.6922 O   0  0  0  0  0  0  0  0  0  0  0  0
  149.6034  138.4405  153.7699 N   0  3  0  0  0  0  0  0  0  0  0  0
  148.6991  139.4820  153.5655 C   0  0  0  0  0  0  0  0  0  0  0  0
  147.5755  139.5667  152.7491 C   0  0  0  0  0  0  0  0  0  0  0  0
  146.8683  140.7868  152.7710 C   0  0  0  0  0  0  0  0  0  0  0  0
  147.2845  141.8619  153.5828 C   0  0  0  0  0  0  0  0  0  0  0  0
  148.4251  141.7630  154.4068 C   0  0  0  0  0  0  0  0  0  0  0  0
  149.1193  140.5535  154.3782 C   0  0  0  0  0  0  0  0  0  0  0  0
  152.6013  145.5461  159.4645 H   0  0  0  0  0  0  0  0  0  0  0  0
  151.1374  145.0643  158.6133 H   0  0  0  0  0  0  0  0  0  0  0  0
  152.6913  145.0867  157.7627 H   0  0  0  0  0  0  0  0  0  0  0  0
  154.0970  143.9218  160.4225 H   0  0  0  0  0  0  0  0  0  0  0  0
  154.5548  141.5762  161.0773 H   0  0  0  0  0  0  0  0  0  0  0  0
  153.1888  139.7308  160.1228 H   0  0  0  0  0  0  0  0  0  0  0  0
  151.3879  140.2085  158.5355 H   0  0  0  0  0  0  0  0  0  0  0  0
  149.6354  140.9353  157.6723 H   0  0  0  0  0  0  0  0  0  0  0  0
  149.1432  142.0819  156.4242 H   0  0  0  0  0  0  0  0  0  0  0  0
  151.4817  141.7748  155.3721 H   0  0  0  0  0  0  0  0  0  0  0  0
  151.7266  140.4622  156.4906 H   0  0  0  0  0  0  0  0  0  0  0  0
  151.6353  136.9945  154.6644 H   0  0  0  0  0  0  0  0  0  0  0  0
  153.0773  138.7485  153.6258 H   0  0  0  0  0  0  0  0  0  0  0  0
  153.8821  137.9478  154.9696 H   0  0  0  0  0  0  0  0  0  0  0  0
  153.2146  139.5632  155.1786 H   0  0  0  0  0  0  0  0  0  0  0  0
  151.0557  138.3611  157.1154 H   0  0  0  0  0  0  0  0  0  0  0  0
  152.3269  136.9899  158.3331 H   0  0  0  0  0  0  0  0  0  0  0  0
  147.2551  138.7445  152.1261 H   0  0  0  0  0  0  0  0  0  0  0  0
  145.9895  140.9007  152.1524 H   0  0  0  0  0  0  0  0  0  0  0  0
  146.7182  142.7822  153.5728 H   0  0  0  0  0  0  0  0  0  0  0  0
  148.7348  142.5921  155.0255 H   0  0  0  0  0  0  0  0  0  0  0  0
  149.5806  137.5322  153.3248 H   0  0  0  0  0  0  0  0  0  0  0  0
  1  2  1  0  0  0  0
  1 25  1  0  0  0  0
  1 26  1  0  0  0  0
  1 27  1  0  0  0  0
  2  7  1  0  0  0  0
  2  3  2  0  0  0  0
  3  4  1  0  0  0  0
  3 28  1  0  0  0  0
  4  5  2  0  0  0  0
  4 29  1  0  0  0  0
  5  6  1  0  0  0  0
  5 30  1  0  0  0  0
  6  7  2  0  0  0  0
  6 31  1  0  0  0  0
  7  8  1  0  0  0  0
  8  9  1  0  0  0  0
  9 10  1  0  0  0  0
  9 32  1  0  0  0  0
  9 33  1  0  0  0  0
 10 11  1  0  0  0  0
 10 34  1  0  0  0  0
 10 35  1  0  0  0  0
 11 24  1  0  0  0  0
 11 12  1  0  0  0  0
 12 13  1  0  0  0  0
 12 18  2  0  0  0  0
 13 14  1  0  0  0  0
 13 15  1  0  0  0  0
 13 36  1  0  0  0  0
 14 37  1  0  0  0  0
 14 38  1  0  0  0  0
 14 39  1  0  0  0  0
 15 16  1  0  0  0  0
 15 40  1  0  0  0  0
 16 17  2  0  0  0  0
 16 41  1  0  0  0  0
 18 19  1  0  0  0  0
 18 46  1  0  0  0  0
 19 24  2  0  0  0  0
 19 20  1  0  0  0  0
 20 21  2  0  0  0  0
 20 42  1  0  0  0  0
 21 22  1  0  0  0  0
 21 43  1  0  0  0  0
 22 23  2  0  0  0  0
 22 44  1  0  0  0  0
 23 24  1  0  0  0  0
 23 45  1  0  0  0  0
M  CHG  1  18   1
M  END
> <s_m_source_file>
AV-unprocessed.smi

> <i_m_source_file_index>
2953

> <i_lp_mmshare_version>
43012

> <i_f3d_flags>
0

> <s_epik_input>
W0NIM11jMVtjSF1bY0hdW2NIXVtjSF1jMU9bQ0gyXVtDSDJdbihjKG4yKVtDQEhdKFtDSDNdKVtOSF1bQ0hdPU8pYyhjMjMpW2NIXVtjSF1bY0hdW2NIXTM=

> <s_epik_cmdline>
J2VwaWtfcHl0aG9uJywgJy1waCcsICc3LjAnLCAnLXRuJywgJzgnLCAnLW1hJywgJzIwMCcsICctbWV0YWxfYmluZGluZycsICctaW1hZScsICc8aW5maWxlLm1hZT4nLCAnLW9tYWUnLCAnPG91dGZpbGUubWFlPic=

> <r_lp_tautomer_probability>
1

> <r_epik_Ionization_Penalty>
1.14644

> <r_epik_Ionization_Penalty_Charging>
1.14644

> <r_epik_Ionization_Penalty_Neutral>
5.5802e-08

> <r_epik_State_Penalty>
1.20743

> <r_epik_Charging_Adjusted_Penalty>
2.35387

> <i_epik_Tot_Q>
1

> <i_epik_Tot_abs_Q>
1

> <r_epik_Metal_State_Penalty>
1.28856

> <b_epik_Metal_Only>
0

> <s_lp_Force_Field>
OPLS_2005

> <r_lp_Energy>
17.243

> <b_lp_Chiralities_Consistent>
1

> <s_lp_Variant>
AV-unprocessed.smi:2953-4

> <Gold.Version>
5.8.1

> <Gold.Id.Protein>
6NUR|6NUR_protein|mol2

> <Gold.PLP.Fitness>
61.4059

> <Gold.PLP.PLP>
-52.9057

> <Gold.PLP.part.hbond>
-2.8811

> <Gold.PLP.part.metal>
0.0000

> <Gold.PLP.part.buried>
1.3561

> <Gold.PLP.part.nonpolar>
-51.2453

> <Gold.PLP.part.repulsive>
0.2728

> <Gold.PLP.ligand.clash>
0.0000

> <Gold.PLP.ligand.torsion>
0.2983

> <Gold.PLP.Chemscore.Hbond>
3.0000

> <Gold.PLP.Chemscore.CHOScore>
0.0000

> <Gold.PLP.Chemscore.Metal>
0.0000

> <Gold.Chemscore.Hbonds>
donor molecule, donor type, donor heavy atom, donor atom, acceptor molecule, acceptor atom, score
      L1  H    18    46       P1  7948  2.00
      P1  H 10752 10764       L1    17  1.00

> <Gold.PLP.Chemscore.Internal.Correction>
0.0967

> <Gold.Rescore>
     Score         DG    S(hbond)    S(metal)    S(lipo)     H(rot)  DE(clash)    DE(int)     intcor
     20.32     -22.97       1.84        0.00     147.71       2.32       2.25       0.40       ----

> <Gold.Chemscore.Fitness>
20.3196

> <Gold.Chemscore.DG>
-22.9728

> <Gold.Chemscore.ZeroCoef>
-5.4800

> <Gold.Chemscore.Hbond>
1.8432

> <Gold.Chemscore.Metal>
0.0000

> <Gold.Chemscore.Lipo>
147.7054

> <Gold.Chemscore.Internal_Hbond>
0.0000

> <Gold.Chemscore.DEClash>
2.2493

> <Gold.Chemscore.DEInternal>
0.4039

> <Gold.Chemscore.Rot>
2.3223

> <Gold.Chemscore.Internal.Correction>
   9.000000E+99

> <Gold.Chemscore.Hbonds>
donor molecule, donor type, donor heavy atom, donor atom, acceptor molecule, acceptor atom, score
      L1  H    18    46       P1  7948  0.78
      P1  H 10752 10764       L1    17  0.98

> <Gold.Chemscore.Hbond.Weighted>
-6.1563

> <Gold.Chemscore.Metal.Weighted>
-0.0000

> <Gold.Chemscore.Lipo.Weighted>
-17.2815

> <Gold.Chemscore.Internal_Hbond.Weighted>
0.0000

> <Gold.Chemscore.DEClash.Weighted>
2.2493

> <Gold.Chemscore.DEInternal.Weighted>
0.4039

> <Gold.Chemscore.Rot.Weighted>
5.9450

> <Gold.Chemscore.Internal.Correction.Weighted>
   9.000000E+99

> <Gold.Protein.RotatedTorsions>
[ 6907 6896 6895 6894 ] final  169.99 input  -60.11 | X-H torsion
[ 7974 7965 7964 7962 ] final -138.52 input  175.53 | X-H torsion
[ 8008 7997 7996 7995 ] final -156.31 input   59.86 | X-H torsion
[ 10167 10162 10161 10158 ] final  -85.89 input  -65.29 | X-H torsion
[ 10718 10713 10712 10709 ] final  -77.81 input   66.30 | X-H torsion
[ 10763 10752 10751 10750 ] final    7.93 input  -60.55 | X-H torsion
[ 11005 11000 10999 10996 ] final   92.22 input  -57.11 | X-H torsion

> <Gold.Protein.ActiveResidues>
 VAL166  LYS551  ARG553  GLY616  TRP617  ASP618  TYR619  PRO620  LYS621  CYS622 
 ASP623  PHE694  ASN695  SER759  ASP760  ASP761  ALA762  ILE779  LEU786  VAL792 
 PHE793  MET794  SER795  GLU796  ALA797  LYS798  CYS799  TRP800  GLU811  SER814 

> <Gold.Protein.RotatedAtoms>
  151.8232  133.3397  159.3590 H   0  0  0  0  0  0  0  0  0  0  0  0  # atno 6907 bound_to 6896
  150.7288  134.5554  159.5825 H   0  0  0  0  0  0  0  0  0  0  0  0  # atno 6908 bound_to 6896
  152.2991  134.7633  160.0413 H   0  0  0  0  0  0  0  0  0  0  0  0  # atno 6909 bound_to 6896
  144.8751  140.6425  143.5242 H   0  0  0  0  0  0  0  0  0  0  0  0  # atno 7974 bound_to 7965
  155.7153  140.0783  157.2354 H   0  0  0  0  0  0  0  0  0  0  0  0  # atno 8008 bound_to 7997
  154.4053  140.1622  156.2395 H   0  0  0  0  0  0  0  0  0  0  0  0  # atno 8009 bound_to 7997
  155.9246  140.3395  155.6203 H   0  0  0  0  0  0  0  0  0  0  0  0  # atno 8010 bound_to 7997
  140.3994  143.2669  151.9162 H   0  0  0  0  0  0  0  0  0  0  0  0  # atno 10167 bound_to 10162
  156.0134  130.4501  150.3401 H   0  0  0  0  0  0  0  0  0  0  0  0  # atno 10718 bound_to 10713
  153.2307  135.6892  153.7893 H   0  0  0  0  0  0  0  0  0  0  0  0  # atno 10763 bound_to 10752
  153.7058  135.3290  155.3236 H   0  0  0  0  0  0  0  0  0  0  0  0  # atno 10764 bound_to 10752
  154.8312  135.4579  154.1191 H   0  0  0  0  0  0  0  0  0  0  0  0  # atno 10765 bound_to 10752
  139.8826  134.8720  156.3542 H   0  0  0  0  0  0  0  0  0  0  0  0  # atno 11005 bound_to 11000
  145.4057  139.1589  143.4153 LP  0  0  0  0  0  0  0  0  0  0  0  0  # atno 17320 bound_to 7965
  146.2957  140.4157  142.8722 LP  0  0  0  0  0  0  0  0  0  0  0  0  # atno 17321 bound_to 7965
  139.4785  144.5648  151.8182 LP  0  0  0  0  0  0  0  0  0  0  0  0  # atno 17342 bound_to 10162
  140.4755  144.1525  150.5924 LP  0  0  0  0  0  0  0  0  0  0  0  0  # atno 17343 bound_to 10162
  157.1497  131.0318  151.2890 LP  0  0  0  0  0  0  0  0  0  0  0  0  # atno 17370 bound_to 10713
  157.4402  130.7540  149.7063 LP  0  0  0  0  0  0  0  0  0  0  0  0  # atno 17371 bound_to 10713
  140.9574  133.7411  156.0354 LP  0  0  0  0  0  0  0  0  0  0  0  0  # atno 17394 bound_to 11000
  140.8032  134.3485  157.5433 LP  0  0  0  0  0  0  0  0  0  0  0  0  # atno 17395 bound_to 11000

$$$$
