#       Name:                AV-unprocessed.smi:3303
#       Creating user name   scv26
#       Creation time:       Fri Mar 27 19:01:33 2020


#       File generated by GOLD software.
#

@<TRIPOS>MOLECULE
AV-unprocessed.smi:3303
    46    47     1
SMALL
NO_CHARGES


@<TRIPOS>ATOM
      1 ****        -1.9020  -0.9975   2.8411 C.3            1 S1                 0.0000
      2 ****        -2.1787  -1.2497   1.3496 C.3            1 S1                 0.0000
      3 ****        -1.7296  -2.6568   0.9074 C.3            1 S1                 0.0000
      4 ****        -2.1326  -2.8989  -0.4783 N.3            1 S1                 0.0000
      5 ****        -1.9115  -4.2933  -0.8416 C.3            1 S1                 0.0000
      6 ****        -1.5360  -1.9556  -1.4362 C.3            1 S1                 0.0000
      7 ****        -0.0187  -2.1508  -1.6636 C.3            1 S1                 0.0000
      8 ****        -1.9180  -0.5099  -1.0388 C.3            1 S1                 0.0000
      9 ****        -1.5930  -0.1565   0.4302 C.3            1 S1                 0.0000
     10 ****        -0.1407   0.0287   0.6638 N.4            1 S1                 1.0000
     11 ****         0.4361   1.2788   0.1280 C.3            1 S1                 0.0000
     12 ****         1.9225   1.3960   0.4901 C.3            1 S1                 0.0000
     13 ****         2.5436   2.6678  -0.0548 C.ar           1 S1                 0.0000
     14 ****         2.7484   3.7869   0.7802 C.ar           1 S1                 0.0000
     15 ****         3.3181   4.9466   0.2193 C.ar           1 S1                 0.0000
     16 ****         3.6573   4.9424  -1.1474 C.ar           1 S1                 0.0000
     17 ****         3.4122   3.7739  -1.8957 C.ar           1 S1                 0.0000
     18 ****         2.8658   2.6570  -1.3678 N.ar           1 S1                 0.0000
     19 ****        -0.8398  -1.0733   3.0753 H              1 S1                 0.0000
     20 ****        -2.4254  -1.7257   3.4615 H              1 S1                 0.0000
     21 ****        -2.2425  -0.0063   3.1420 H              1 S1                 0.0000
     22 ****        -3.2636  -1.2130   1.2330 H              1 S1                 0.0000
     23 ****        -0.6540  -2.7850   1.0294 H              1 S1                 0.0000
     24 ****        -2.2070  -3.3999   1.5477 H              1 S1                 0.0000
     25 ****        -2.2207  -4.4764  -1.8710 H              1 S1                 0.0000
     26 ****        -2.4997  -4.9489  -0.1985 H              1 S1                 0.0000
     27 ****        -0.8637  -4.5768  -0.7385 H              1 S1                 0.0000
     28 ****        -2.0151  -2.1473  -2.3973 H              1 S1                 0.0000
     29 ****         0.3744  -1.3725  -2.3185 H              1 S1                 0.0000
     30 ****         0.1927  -3.1024  -2.1514 H              1 S1                 0.0000
     31 ****         0.5589  -2.1229  -0.7412 H              1 S1                 0.0000
     32 ****        -1.4731   0.2043  -1.7308 H              1 S1                 0.0000
     33 ****        -2.9947  -0.4002  -1.1777 H              1 S1                 0.0000
     34 ****        -2.0824   0.7868   0.6777 H              1 S1                 0.0000
     35 ****         0.0079   0.0325   1.6627 H              1 S1                 0.0000
     36 ****         0.3220   1.3037  -0.9556 H              1 S1                 0.0000
     37 ****        -0.1111   2.1316   0.5319 H              1 S1                 0.0000
     38 ****         2.0473   1.3702   1.5735 H              1 S1                 0.0000
     39 ****         2.4724   0.5392   0.0973 H              1 S1                 0.0000
     40 ****         2.4761   3.7616   1.8251 H              1 S1                 0.0000
     41 ****         3.4911   5.8232   0.8261 H              1 S1                 0.0000
     42 ****         4.0952   5.8136  -1.6115 H              1 S1                 0.0000
     43 ****         3.6600   3.7362  -2.9461 H              1 S1                 0.0000
     44 ****         0.3529  -0.7599   0.2703 H              1 S1                 0.0000
     45 ****        -3.1154  -2.7223  -0.5332 LP             1 S1                 0.0000
     46 ****         2.7045   1.8466  -1.9311 LP             1 S1                 0.0000
@<TRIPOS>BOND
    1    1    2 1     
    2    1   19 1     
    3    1   20 1     
    4    1   21 1     
    5    2    9 1     
    6    2    3 1     
    7    2   22 1     
    8    3    4 1     
    9    3   23 1     
   10    3   24 1     
   11    4    5 1     
   12    4    6 1     
   13    5   25 1     
   14    5   26 1     
   15    5   27 1     
   16    6    7 1     
   17    6    8 1     
   18    6   28 1     
   19    7   29 1     
   20    7   30 1     
   21    7   31 1     
   22    8    9 1     
   23    8   32 1     
   24    8   33 1     
   25    9   10 1     
   26    9   34 1     
   27   10   11 1     
   28   10   35 1     
   29   10   44 1     
   30   11   12 1     
   31   11   36 1     
   32   11   37 1     
   33   12   13 1     
   34   12   38 1     
   35   12   39 1     
   36   13   18 ar    
   37   13   14 ar    
   38   14   15 ar    
   39   14   40 1     
   40   15   16 ar    
   41   15   41 1     
   42   16   17 ar    
   43   16   42 1     
   44   17   18 ar    
   45   17   43 1     
   46    4   45 1     
   47   18   46 1     
@<TRIPOS>SUBSTRUCTURE
      1 S1             1
@<TRIPOS>SET
LONE_PAIRS      STATIC     ATOMS    <user>   **** ""
2 45 46
DONOR_HYDROGENS      STATIC     ATOMS    <user>   **** ""
2 35 44
ATOM$BLUE        STATIC     ATOMS    COLORGROUP SYSTEM
2 45 46
ATOM$RED        STATIC     ATOMS    COLORGROUP SYSTEM
2 35 44
