AV-unprocessed.smi:80|AV-procd|sdf|785|dock6
  -GOLD-   2262017153D 1   1.00000     0.00000
 Structure written by MMmdl.
 51 54  0  0  0  0  0  0  0  0  1 V2000
  147.7351  132.9958  160.6589 N   0  0  0  0  0  0  0  0  0  0  0  0
  147.4110  133.9888  161.1573 C   0  0  0  0  0  0  0  0  0  0  0  0
  146.9967  135.2502  161.7938 C   0  0  0  0  0  0  0  0  0  0  0  0
  146.9189  136.4330  160.8194 C   0  0  0  0  0  0  0  0  0  0  0  0
  147.7178  137.3620  160.9447 O   0  0  0  0  0  0  0  0  0  0  0  0
  145.9694  136.4171  159.8549 N   0  0  0  0  0  0  0  0  0  0  0  0
  145.8029  137.4389  158.8139 C   0  0  0  0  0  0  0  0  0  0  0  0
  146.1714  136.8204  157.4532 C   0  0  0  0  0  0  0  0  0  0  0  0
  145.3899  135.6083  157.2133 N   0  0  0  0  0  0  0  0  0  0  0  0
  145.5781  135.0789  155.9872 C   0  0  0  0  0  0  0  0  0  0  0  0
  146.7987  134.5546  155.7201 N   0  0  0  0  0  0  0  0  0  0  0  0
  147.0436  134.0133  154.5227 C   0  0  0  0  0  0  0  0  0  0  0  0
  146.2235  133.8955  153.4758 N   0  0  0  0  0  0  0  0  0  0  0  0
  144.9931  134.4210  153.7445 C   0  0  0  0  0  0  0  0  0  0  0  0
  144.5892  135.0314  154.9650 C   0  0  0  0  0  0  0  0  0  0  0  0
  143.2708  135.4585  154.8693 N   0  0  0  0  0  0  0  0  0  0  0  0
  142.9168  135.1243  153.6583 C   0  0  0  0  0  0  0  0  0  0  0  0
  143.8843  134.4813  152.9170 N   0  0  0  0  0  0  0  0  0  0  0  0
  143.7764  134.0240  151.5600 C   0  0  0  0  0  0  0  0  0  0  0  0
  143.9327  132.5392  151.2287 C   0  0  0  0  0  0  0  0  0  0  0  0
  144.6499  132.8974  149.9069 C   0  0  0  0  0  0  0  0  0  0  0  0
  145.9304  132.0901  149.6449 C   0  0  0  0  0  0  0  0  0  0  0  0
  146.7896  132.1042  150.7668 O   0  0  0  0  0  0  0  0  0  0  0  0
  143.7947  132.8224  148.6224 C   0  0  0  0  0  0  0  0  0  0  0  0
  143.3840  134.0895  148.1504 O   0  0  0  0  0  0  0  0  0  0  0  0
  144.8705  134.2978  150.5232 C   0  0  0  0  0  0  0  0  0  0  0  0
  145.4066  134.6203  158.2914 C   0  0  0  0  0  0  0  0  0  0  0  0
  145.0633  135.2820  159.6397 C   0  0  0  0  0  0  0  0  0  0  0  0
  146.0220  135.0794  162.2515 H   0  0  0  0  0  0  0  0  0  0  0  0
  147.7157  135.4641  162.5850 H   0  0  0  0  0  0  0  0  0  0  0  0
  144.7628  137.7680  158.8027 H   0  0  0  0  0  0  0  0  0  0  0  0
  146.3925  138.3382  158.9828 H   0  0  0  0  0  0  0  0  0  0  0  0
  145.9859  137.5401  156.6550 H   0  0  0  0  0  0  0  0  0  0  0  0
  147.2362  136.5850  157.4326 H   0  0  0  0  0  0  0  0  0  0  0  0
  148.0385  133.6165  154.3836 H   0  0  0  0  0  0  0  0  0  0  0  0
  141.9316  135.3435  153.2738 H   0  0  0  0  0  0  0  0  0  0  0  0
  142.8217  134.3955  151.1856 H   0  0  0  0  0  0  0  0  0  0  0  0
  144.5796  132.0239  151.9404 H   0  0  0  0  0  0  0  0  0  0  0  0
  142.9885  132.0065  151.1102 H   0  0  0  0  0  0  0  0  0  0  0  0
  145.6948  131.0490  149.4218 H   0  0  0  0  0  0  0  0  0  0  0  0
  146.4710  132.4758  148.7799 H   0  0  0  0  0  0  0  0  0  0  0  0
  147.6068  131.6962  150.5243 H   0  0  0  0  0  0  0  0  0  0  0  0
  144.3449  132.3389  147.8149 H   0  0  0  0  0  0  0  0  0  0  0  0
  142.8980  132.2249  148.7897 H   0  0  0  0  0  0  0  0  0  0  0  0
  144.1515  134.5809  147.9006 H   0  0  0  0  0  0  0  0  0  0  0  0
  144.6510  135.1286  149.8517 H   0  0  0  0  0  0  0  0  0  0  0  0
  145.8625  134.4099  150.9617 H   0  0  0  0  0  0  0  0  0  0  0  0
  144.6901  133.8274  158.0737 H   0  0  0  0  0  0  0  0  0  0  0  0
  146.3910  134.1545  158.3509 H   0  0  0  0  0  0  0  0  0  0  0  0
  145.1117  134.5410  160.4386 H   0  0  0  0  0  0  0  0  0  0  0  0
  144.0339  135.6432  159.6282 H   0  0  0  0  0  0  0  0  0  0  0  0
  1  2  3  0  0  0  0
  2  3  1  0  0  0  0
  3  4  1  0  0  0  0
  3 29  1  0  0  0  0
  3 30  1  0  0  0  0
  4  5  2  0  0  0  0
  4  6  1  0  0  0  0
  6 28  1  0  0  0  0
  6  7  1  0  0  0  0
  7  8  1  0  0  0  0
  7 31  1  0  0  0  0
  7 32  1  0  0  0  0
  8  9  1  0  0  0  0
  8 33  1  0  0  0  0
  8 34  1  0  0  0  0
  9 10  1  0  0  0  0
  9 27  1  0  0  0  0
 10 15  1  0  0  0  0
 10 11  2  0  0  0  0
 11 12  1  0  0  0  0
 12 13  2  0  0  0  0
 12 35  1  0  0  0  0
 13 14  1  0  0  0  0
 14 18  1  0  0  0  0
 14 15  2  0  0  0  0
 15 16  1  0  0  0  0
 16 17  2  0  0  0  0
 17 18  1  0  0  0  0
 17 36  1  0  0  0  0
 18 19  1  0  0  0  0
 19 26  1  0  0  0  0
 19 20  1  0  0  0  0
 19 37  1  0  0  0  0
 20 21  1  0  0  0  0
 20 38  1  0  0  0  0
 20 39  1  0  0  0  0
 21 22  1  0  0  0  0
 21 24  1  0  0  0  0
 21 26  1  0  0  0  0
 22 23  1  0  0  0  0
 22 40  1  0  0  0  0
 22 41  1  0  0  0  0
 23 42  1  0  0  0  0
 24 25  1  0  0  0  0
 24 43  1  0  0  0  0
 24 44  1  0  0  0  0
 25 45  1  0  0  0  0
 26 46  1  0  0  0  0
 26 47  1  0  0  0  0
 27 28  1  0  0  0  0
 27 48  1  0  0  0  0
 27 49  1  0  0  0  0
 28 50  1  0  0  0  0
 28 51  1  0  0  0  0
M  END
> <s_m_source_file>
AV-unprocessed.smi

> <i_m_source_file_index>
80

> <i_lp_mmshare_version>
43012

> <i_f3d_flags>
0

> <s_epik_input>
TiNDW0NIMl1DKD1PKU4xW0NIMl1bQ0gyXU4oW0NIMl1bQ0gyXTEpYyhuW2NIXW4yKWMoYzIzKW5bY0hdbjNbQ0hdKFtDSDJdNClbQ0gyXUM0KFtDSDJdW09IXSlbQ0gyXVtPSF0=

> <s_epik_cmdline>
J2VwaWtfcHl0aG9uJywgJy1waCcsICc3LjAnLCAnLXRuJywgJzgnLCAnLW1hJywgJzIwMCcsICctbWV0YWxfYmluZGluZycsICctaW1hZScsICc8aW5maWxlLm1hZT4nLCAnLW9tYWUnLCAnPG91dGZpbGUubWFlPic=

> <r_lp_tautomer_probability>
1

> <r_epik_Ionization_Penalty>
0.000827394

> <r_epik_Ionization_Penalty_Charging>
0

> <r_epik_Ionization_Penalty_Neutral>
0.000827394

> <r_epik_State_Penalty>
0.000406949

> <r_epik_Charging_Adjusted_Penalty>
0.000406949

> <i_epik_Tot_Q>
0

> <i_epik_Tot_abs_Q>
0

> <r_epik_Metal_State_Penalty>
-0

> <b_epik_Metal_Only>
0

> <s_lp_Force_Field>
OPLS_2005

> <r_lp_Energy>
60.4217

> <b_lp_Chiralities_Consistent>
1

> <s_lp_Variant>
AV-unprocessed.smi:80-1

> <Gold.Version>
5.8.1

> <Gold.Id.Protein>
6NUR|6NUR_protein|mol2

> <Gold.PLP.Fitness>
52.0159

> <Gold.PLP.PLP>
-39.8911

> <Gold.PLP.part.hbond>
-6.4740

> <Gold.PLP.part.metal>
0.0000

> <Gold.PLP.part.buried>
-6.1540

> <Gold.PLP.part.nonpolar>
-26.0294

> <Gold.PLP.part.repulsive>
0.1615

> <Gold.PLP.ligand.clash>
0.0000

> <Gold.PLP.ligand.torsion>
1.4501

> <Gold.PLP.Chemscore.Hbond>
4.7920

> <Gold.PLP.Chemscore.CHOScore>
0.0000

> <Gold.PLP.Chemscore.Metal>
0.0000

> <Gold.Chemscore.Hbonds>
donor molecule, donor type, donor heavy atom, donor atom, acceptor molecule, acceptor atom, score
      L1  H    23    42       P1 10747  1.00
      L1  H    25    45       P1  7921  1.00
      P1  H  6931  6943       L1     5  0.80
      P1  H  6934  6947       L1     5  0.86
      P1  H 10192 10197       L1    25  0.90

> <Gold.PLP.Chemscore.Internal.Correction>
0.6491

> <Gold.Rescore>
     Score         DG    S(hbond)    S(metal)    S(lipo)     H(rot)  DE(clash)    DE(int)     intcor
     17.42     -19.12       4.66        0.00      66.99       3.82       0.11       1.59       ----

> <Gold.Chemscore.Fitness>
17.4190

> <Gold.Chemscore.DG>
-19.1198

> <Gold.Chemscore.ZeroCoef>
-5.4800

> <Gold.Chemscore.Hbond>
4.6622

> <Gold.Chemscore.Metal>
0.0000

> <Gold.Chemscore.Lipo>
66.9922

> <Gold.Chemscore.Internal_Hbond>
0.0000

> <Gold.Chemscore.DEClash>
0.1104

> <Gold.Chemscore.DEInternal>
1.5904

> <Gold.Chemscore.Rot>
3.8164

> <Gold.Chemscore.Internal.Correction>
   9.000000E+99

> <Gold.Chemscore.Hbonds>
donor molecule, donor type, donor heavy atom, donor atom, acceptor molecule, acceptor atom, score
      L1  H    23    42       P1 10747  0.99
      L1  H    25    45       P1  7921  0.95
      P1  H  6931  6943       L1     5  0.80
      P1  H  6934  6947       L1     5  0.84
      P1  H 10192 10197       L1    25  0.17

> <Gold.Chemscore.Hbond.Weighted>
-15.5716

> <Gold.Chemscore.Metal.Weighted>
-0.0000

> <Gold.Chemscore.Lipo.Weighted>
-7.8381

> <Gold.Chemscore.Internal_Hbond.Weighted>
0.0000

> <Gold.Chemscore.DEClash.Weighted>
0.1104

> <Gold.Chemscore.DEInternal.Weighted>
1.5904

> <Gold.Chemscore.Rot.Weighted>
9.7699

> <Gold.Chemscore.Internal.Correction.Weighted>
   9.000000E+99

> <Gold.Protein.RotatedTorsions>
[ 6907 6896 6895 6894 ] final  107.26 input  -60.11 | X-H torsion
[ 7974 7965 7964 7962 ] final   81.15 input  175.53 | X-H torsion
[ 8008 7997 7996 7995 ] final  118.18 input   59.86 | X-H torsion
[ 10167 10162 10161 10158 ] final  109.92 input  -65.29 | X-H torsion
[ 10718 10713 10712 10709 ] final -145.94 input   66.30 | X-H torsion
[ 10763 10752 10751 10750 ] final  122.76 input  -60.55 | X-H torsion
[ 11005 11000 10999 10996 ] final -163.06 input  -57.11 | X-H torsion

> <Gold.Protein.ActiveResidues>
 VAL166  LYS551  ARG553  GLY616  TRP617  ASP618  TYR619  PRO620  LYS621  CYS622 
 ASP623  PHE694  ASN695  SER759  ASP760  ASP761  ALA762  ILE779  LEU786  VAL792 
 PHE793  MET794  SER795  GLU796  ALA797  LYS798  CYS799  TRP800  GLU811  SER814 

> <Gold.Protein.RotatedAtoms>
  152.5161  133.9260  159.7557 H   0  0  0  0  0  0  0  0  0  0  0  0  # atno 6907 bound_to 6896
  150.9621  133.6426  159.2759 H   0  0  0  0  0  0  0  0  0  0  0  0  # atno 6908 bound_to 6896
  151.3667  135.0920  159.9505 H   0  0  0  0  0  0  0  0  0  0  0  0  # atno 6909 bound_to 6896
  145.6419  139.2427  143.2026 H   0  0  0  0  0  0  0  0  0  0  0  0  # atno 7974 bound_to 7965
  156.2533  140.2880  156.0794 H   0  0  0  0  0  0  0  0  0  0  0  0  # atno 8008 bound_to 7997
  155.1583  140.0399  157.2854 H   0  0  0  0  0  0  0  0  0  0  0  0  # atno 8009 bound_to 7997
  154.6411  140.2522  155.7327 H   0  0  0  0  0  0  0  0  0  0  0  0  # atno 8010 bound_to 7997
  139.6729  144.7124  151.1655 H   0  0  0  0  0  0  0  0  0  0  0  0  # atno 10167 bound_to 10162
  156.3887  130.7875  151.2075 H   0  0  0  0  0  0  0  0  0  0  0  0  # atno 10718 bound_to 10713
  153.6348  135.3389  155.3053 H   0  0  0  0  0  0  0  0  0  0  0  0  # atno 10763 bound_to 10752
  154.8572  135.4304  154.2067 H   0  0  0  0  0  0  0  0  0  0  0  0  # atno 10764 bound_to 10752
  153.2972  135.7021  153.7311 H   0  0  0  0  0  0  0  0  0  0  0  0  # atno 10765 bound_to 10752
  140.6023  134.4935  157.5206 H   0  0  0  0  0  0  0  0  0  0  0  0  # atno 11005 bound_to 11000
  146.1274  140.7231  142.9429 LP  0  0  0  0  0  0  0  0  0  0  0  0  # atno 17320 bound_to 7965
  144.7154  140.4191  143.7048 LP  0  0  0  0  0  0  0  0  0  0  0  0  # atno 17321 bound_to 7965
  140.7625  143.5816  150.8888 LP  0  0  0  0  0  0  0  0  0  0  0  0  # atno 17342 bound_to 10162
  139.9483  143.6302  152.3036 LP  0  0  0  0  0  0  0  0  0  0  0  0  # atno 17343 bound_to 10162
  157.7497  131.0322  150.4216 LP  0  0  0  0  0  0  0  0  0  0  0  0  # atno 17370 bound_to 10713
  156.4473  130.4004  149.6658 LP  0  0  0  0  0  0  0  0  0  0  0  0  # atno 17371 bound_to 10713
  139.9227  134.8116  156.1161 LP  0  0  0  0  0  0  0  0  0  0  0  0  # atno 17394 bound_to 11000
  141.0864  133.6732  156.2445 LP  0  0  0  0  0  0  0  0  0  0  0  0  # atno 17395 bound_to 11000

$$$$
