AV-unprocessed.smi:392|AV-procd|sdf|2480|dock9
  -GOLD-   2262022423D 1   1.00000     0.00000
 Structure written by MMmdl.
 32 34  0  0  0  0  0  0  0  0  1 V2000
  151.2842  144.4265  157.2871 O   0  0  0  0  0  0  0  0  0  0  0  0
  151.5766  143.1228  157.7486 C   0  0  2  0  0  0  0  0  0  0  0  0
  150.3379  142.2387  157.5062 C   0  0  0  0  0  0  0  0  0  0  0  0
  150.3994  141.5471  156.2315 N   0  0  0  0  0  0  0  0  0  0  0  0
  149.6352  141.7726  155.1453 C   0  0  0  0  0  0  0  0  0  0  0  0
  149.8541  141.0108  154.0772 N   0  0  0  0  0  0  0  0  0  0  0  0
  150.8829  140.1975  154.5206 C   0  0  0  0  0  0  0  0  0  0  0  0
  151.5813  139.1600  153.8624 C   0  0  0  0  0  0  0  0  0  0  0  0
  152.6097  138.4583  154.5255 C   0  0  0  0  0  0  0  0  0  0  0  0
  152.9548  138.7815  155.8540 C   0  0  0  0  0  0  0  0  0  0  0  0
  152.2725  139.8106  156.5310 C   0  0  0  0  0  0  0  0  0  0  0  0
  151.2481  140.5088  155.8652 C   0  0  0  0  0  0  0  0  0  0  0  0
  152.0156  143.1108  159.2088 C   0  0  0  0  0  0  0  0  0  0  0  0
  152.8341  142.0677  159.6968 C   0  0  0  0  0  0  0  0  0  0  0  0
  153.2581  142.0632  161.0394 C   0  0  0  0  0  0  0  0  0  0  0  0
  152.8687  143.1031  161.9042 C   0  0  0  0  0  0  0  0  0  0  0  0
  152.0565  144.1480  161.4243 C   0  0  0  0  0  0  0  0  0  0  0  0
  151.6313  144.1550  160.0814 C   0  0  0  0  0  0  0  0  0  0  0  0
  150.8596  145.1748  159.6345 F   0  0  0  0  0  0  0  0  0  0  0  0
  150.5018  144.3877  156.7581 H   0  0  0  0  0  0  0  0  0  0  0  0
  152.3963  142.7624  157.1262 H   0  0  0  0  0  0  0  0  0  0  0  0
  150.2239  141.5030  158.3038 H   0  0  0  0  0  0  0  0  0  0  0  0
  149.4326  142.8475  157.5111 H   0  0  0  0  0  0  0  0  0  0  0  0
  148.8693  142.5345  155.1414 H   0  0  0  0  0  0  0  0  0  0  0  0
  151.3256  138.9039  152.8450 H   0  0  0  0  0  0  0  0  0  0  0  0
  153.1366  137.6674  154.0124 H   0  0  0  0  0  0  0  0  0  0  0  0
  153.7438  138.2386  156.3535 H   0  0  0  0  0  0  0  0  0  0  0  0
  152.5323  140.0604  157.5488 H   0  0  0  0  0  0  0  0  0  0  0  0
  153.1446  141.2680  159.0405 H   0  0  0  0  0  0  0  0  0  0  0  0
  153.8841  141.2624  161.4050 H   0  0  0  0  0  0  0  0  0  0  0  0
  153.1948  143.1006  162.9338 H   0  0  0  0  0  0  0  0  0  0  0  0
  151.7610  144.9481  162.0871 H   0  0  0  0  0  0  0  0  0  0  0  0
  1  2  1  0  0  0  0
  1 20  1  0  0  0  0
  2  3  1  0  0  0  0
  2 13  1  0  0  0  0
  2 21  1  0  0  0  0
  3  4  1  0  0  0  0
  3 22  1  0  0  0  0
  3 23  1  0  0  0  0
  4 12  1  0  0  0  0
  4  5  1  0  0  0  0
  5  6  2  0  0  0  0
  5 24  1  0  0  0  0
  6  7  1  0  0  0  0
  7 12  2  0  0  0  0
  7  8  1  0  0  0  0
  8  9  2  0  0  0  0
  8 25  1  0  0  0  0
  9 10  1  0  0  0  0
  9 26  1  0  0  0  0
 10 11  2  0  0  0  0
 10 27  1  0  0  0  0
 11 12  1  0  0  0  0
 11 28  1  0  0  0  0
 13 18  1  0  0  0  0
 13 14  2  0  0  0  0
 14 15  1  0  0  0  0
 14 29  1  0  0  0  0
 15 16  2  0  0  0  0
 15 30  1  0  0  0  0
 16 17  1  0  0  0  0
 16 31  1  0  0  0  0
 17 18  2  0  0  0  0
 17 32  1  0  0  0  0
 18 19  1  0  0  0  0
M  END
> <s_m_source_file>
AV-unprocessed.smi

> <i_m_source_file_index>
392

> <i_lp_mmshare_version>
43012

> <i_f3d_flags>
0

> <s_epik_input>
RmMxW2NIXVtjSF1bY0hdW2NIXWMxW0NASF0oW09IXSlbQ0gyXW4oW2NIXW4yKWMoYzIzKVtjSF1bY0hdW2NIXVtjSF0z

> <s_epik_cmdline>
J2VwaWtfcHl0aG9uJywgJy1waCcsICc3LjAnLCAnLXRuJywgJzgnLCAnLW1hJywgJzIwMCcsICctbWV0YWxfYmluZGluZycsICctaW1hZScsICc8aW5maWxlLm1hZT4nLCAnLW9tYWUnLCAnPG91dGZpbGUubWFlPic=

> <r_epik_Ionization_Penalty>
0.0696512

> <r_epik_Ionization_Penalty_Charging>
0

> <r_epik_Ionization_Penalty_Neutral>
0.0696512

> <r_epik_State_Penalty>
0.0610247

> <r_epik_Charging_Adjusted_Penalty>
0.0610247

> <i_epik_Tot_Q>
0

> <i_epik_Tot_abs_Q>
0

> <r_epik_Metal_State_Penalty>
6.42746e-05

> <b_epik_Metal_Only>
0

> <s_lp_Force_Field>
OPLS_2005

> <r_lp_Energy>
12.7977

> <b_lp_Chiralities_Consistent>
1

> <s_lp_Variant>
AV-unprocessed.smi:392-1

> <Gold.Version>
5.8.1

> <Gold.Id.Protein>
6NUR|6NUR_protein|mol2

> <Gold.PLP.Fitness>
52.9317

> <Gold.PLP.PLP>
-49.3663

> <Gold.PLP.part.hbond>
-2.0000

> <Gold.PLP.part.metal>
0.0000

> <Gold.PLP.part.buried>
-3.2304

> <Gold.PLP.part.nonpolar>
-43.9004

> <Gold.PLP.part.repulsive>
0.1404

> <Gold.PLP.ligand.clash>
0.0000

> <Gold.PLP.ligand.torsion>
1.2275

> <Gold.PLP.Chemscore.Hbond>
1.0000

> <Gold.PLP.Chemscore.CHOScore>
1.0000

> <Gold.PLP.Chemscore.Metal>
0.0000

> <Gold.Chemscore.Hbonds>
donor molecule, donor type, donor heavy atom, donor atom, acceptor molecule, acceptor atom, score
      L1  H     1    20       P1  8028  1.00
      P1  H  8011  8017       L1     6  0.40
      L1  C     5    24       P1  8028  1.00

> <Gold.PLP.Chemscore.Internal.Correction>
0.0203

> <Gold.Rescore>
     Score         DG    S(hbond)    S(metal)    S(lipo)     H(rot)  DE(clash)    DE(int)     intcor
     15.92     -18.69       0.99        0.00     126.38       1.91       0.47       2.30       ----

> <Gold.Chemscore.Fitness>
15.9197

> <Gold.Chemscore.DG>
-18.6860

> <Gold.Chemscore.ZeroCoef>
-5.4800

> <Gold.Chemscore.Hbond>
0.9919

> <Gold.Chemscore.Metal>
0.0000

> <Gold.Chemscore.Lipo>
126.3825

> <Gold.Chemscore.Internal_Hbond>
0.0000

> <Gold.Chemscore.DEClash>
0.4680

> <Gold.Chemscore.DEInternal>
2.2984

> <Gold.Chemscore.Rot>
1.9116

> <Gold.Chemscore.Internal.Correction>
   9.000000E+99

> <Gold.Chemscore.Hbonds>
donor molecule, donor type, donor heavy atom, donor atom, acceptor molecule, acceptor atom, score
      L1  H     1    20       P1  8028  0.96
      P1  H  8011  8017       L1     6  0.19

> <Gold.Chemscore.Hbond.Weighted>
-3.3130

> <Gold.Chemscore.Metal.Weighted>
-0.0000

> <Gold.Chemscore.Lipo.Weighted>
-14.7868

> <Gold.Chemscore.Internal_Hbond.Weighted>
0.0000

> <Gold.Chemscore.DEClash.Weighted>
0.4680

> <Gold.Chemscore.DEInternal.Weighted>
2.2984

> <Gold.Chemscore.Rot.Weighted>
4.8937

> <Gold.Chemscore.Internal.Correction.Weighted>
   9.000000E+99

> <Gold.Protein.RotatedTorsions>
[ 6907 6896 6895 6894 ] final -161.63 input  -60.11 | X-H torsion
[ 7974 7965 7964 7962 ] final -179.77 input  175.53 | X-H torsion
[ 8008 7997 7996 7995 ] final   65.52 input   59.86 | X-H torsion
[ 10167 10162 10161 10158 ] final  173.76 input  -65.29 | X-H torsion
[ 10718 10713 10712 10709 ] final   95.38 input   66.30 | X-H torsion
[ 10763 10752 10751 10750 ] final   81.56 input  -60.55 | X-H torsion
[ 11005 11000 10999 10996 ] final  155.01 input  -57.11 | X-H torsion

> <Gold.Protein.ActiveResidues>
 VAL166  LYS551  ARG553  GLY616  TRP617  ASP618  TYR619  PRO620  LYS621  CYS622 
 ASP623  PHE694  ASN695  SER759  ASP760  ASP761  ALA762  ILE779  LEU786  VAL792 
 PHE793  MET794  SER795  GLU796  ALA797  LYS798  CYS799  TRP800  GLU811  SER814 

> <Gold.Protein.RotatedAtoms>
  151.3676  133.3866  159.2695 H   0  0  0  0  0  0  0  0  0  0  0  0  # atno 6907 bound_to 6896
  150.9676  134.9055  159.7779 H   0  0  0  0  0  0  0  0  0  0  0  0  # atno 6908 bound_to 6896
  152.5173  134.3637  159.9346 H   0  0  0  0  0  0  0  0  0  0  0  0  # atno 6909 bound_to 6896
  144.7139  140.0668  143.6431 H   0  0  0  0  0  0  0  0  0  0  0  0  # atno 7974 bound_to 7965
  155.6631  140.3497  155.4790 H   0  0  0  0  0  0  0  0  0  0  0  0  # atno 8008 bound_to 7997
  155.9752  140.1163  157.0799 H   0  0  0  0  0  0  0  0  0  0  0  0  # atno 8009 bound_to 7997
  154.4176  140.1149  156.5346 H   0  0  0  0  0  0  0  0  0  0  0  0  # atno 8010 bound_to 7997
  139.5119  144.3224  152.0189 H   0  0  0  0  0  0  0  0  0  0  0  0  # atno 10167 bound_to 10162
  157.6939  131.0543  150.4330 H   0  0  0  0  0  0  0  0  0  0  0  0  # atno 10718 bound_to 10713
  153.1128  135.4761  154.9064 H   0  0  0  0  0  0  0  0  0  0  0  0  # atno 10763 bound_to 10752
  154.7498  135.3103  154.8581 H   0  0  0  0  0  0  0  0  0  0  0  0  # atno 10764 bound_to 10752
  153.9166  135.6859  153.4802 H   0  0  0  0  0  0  0  0  0  0  0  0  # atno 10765 bound_to 10752
  140.1542  134.8654  157.2493 H   0  0  0  0  0  0  0  0  0  0  0  0  # atno 11005 bound_to 11000
  145.9817  139.2946  143.1038 LP  0  0  0  0  0  0  0  0  0  0  0  0  # atno 17320 bound_to 7965
  145.9003  140.9247  143.0506 LP  0  0  0  0  0  0  0  0  0  0  0  0  # atno 17321 bound_to 7965
  140.2666  144.4010  150.6166 LP  0  0  0  0  0  0  0  0  0  0  0  0  # atno 17342 bound_to 10162
  140.6119  143.2170  151.6869 LP  0  0  0  0  0  0  0  0  0  0  0  0  # atno 17343 bound_to 10162
  156.4695  130.4049  149.6527 LP  0  0  0  0  0  0  0  0  0  0  0  0  # atno 17370 bound_to 10713
  156.3612  130.7482  151.2455 LP  0  0  0  0  0  0  0  0  0  0  0  0  # atno 17371 bound_to 10713
  140.2568  134.3618  155.7421 LP  0  0  0  0  0  0  0  0  0  0  0  0  # atno 17394 bound_to 11000
  141.2202  133.7347  156.9019 LP  0  0  0  0  0  0  0  0  0  0  0  0  # atno 17395 bound_to 11000

$$$$
