#       Name:                AV-unprocessed.smi:102
#       Creating user name   scv26
#       Creation time:       Thu Mar 26 17:49:52 2020


#       File generated by GOLD software.
#

@<TRIPOS>MOLECULE
AV-unprocessed.smi:102
    56    57     1
SMALL
NO_CHARGES


@<TRIPOS>ATOM
      1 ****        -3.1890   0.5481   0.7188 C.3            1 S1                 0.0000
      2 ****        -2.3824  -0.1249   1.8212 C.2            1 S1                 0.0000
      3 ****        -2.8812  -0.3939   2.9138 O.2            1 S1                 0.0000
      4 ****        -1.1193  -0.3653   1.4504 O.3            1 S1                 0.0000
      5 ****        -0.2123  -0.9653   2.3599 C.3            1 S1                 0.0000
      6 ****         1.2189  -0.9753   1.7885 C.3            1 S1                 0.0000
      7 ****         1.6661   0.3716   1.6564 O.3            1 S1                 0.0000
      8 ****         2.0606   0.6411   0.3437 C.3            1 S1                 0.0000
      9 ****         1.5757   2.0193  -0.0507 N.am           1 S1                 0.0000
     10 ****         0.4969   2.6286   0.5785 C.2            1 S1                 0.0000
     11 ****         0.0221   3.8422   0.2121 C.2            1 S1                 0.0000
     12 ****        -1.0303   4.3660   0.8627 F              1 S1                 0.0000
     13 ****         0.6359   4.5814  -0.8874 C.2            1 S1                 0.0000
     14 ****         0.2799   5.6873  -1.2890 O.2            1 S1                 0.0000
     15 ****         1.7087   3.9241  -1.4972 N.am           1 S1                 0.0000
     16 ****         2.2034   2.6704  -1.1339 C.2            1 S1                 0.0000
     17 ****         3.1420   2.1724  -1.7539 O.2            1 S1                 0.0000
     18 ****         1.4849  -0.4647  -0.5580 C.3            1 S1                 0.0000
     19 ****         0.2070  -0.0841  -1.0679 O.3            1 S1                 0.0000
     20 ****        -0.1799  -0.4523  -2.2996 C.2            1 S1                 0.0000
     21 ****        -1.5599   0.0836  -2.6547 C.3            1 S1                 0.0000
     22 ****         0.4633  -1.1467  -3.0863 O.2            1 S1                 0.0000
     23 ****         1.4153  -1.6362   0.4123 C.3            1 S1                 0.0000
     24 ****         0.4199  -2.5873   0.0470 O.3            1 S1                 0.0000
     25 ****         0.5076  -3.8596   0.4686 C.2            1 S1                 0.0000
     26 ****        -0.6467  -4.7159  -0.0337 C.3            1 S1                 0.0000
     27 ****         1.3917  -4.3259   1.1871 O.2            1 S1                 0.0000
     28 ****         2.1587   4.3938  -2.2694 H              1 S1                 0.0000
     29 ****        -2.5829   1.2939   0.2032 H              1 S1                 0.0000
     30 ****        -4.0654   1.0447   1.1356 H              1 S1                 0.0000
     31 ****        -3.5225  -0.1917  -0.0090 H              1 S1                 0.0000
     32 ****        -0.2225  -0.4226   3.3062 H              1 S1                 0.0000
     33 ****        -0.5385  -1.9844   2.5709 H              1 S1                 0.0000
     34 ****         1.8633  -1.4763   2.5113 H              1 S1                 0.0000
     35 ****         3.1519   0.6766   0.3297 H              1 S1                 0.0000
     36 ****        -0.0059   2.1266   1.3911 H              1 S1                 0.0000
     37 ****         2.1880  -0.6533  -1.3708 H              1 S1                 0.0000
     38 ****        -2.3326  -0.5289  -2.1897 H              1 S1                 0.0000
     39 ****        -1.7094   0.0695  -3.7345 H              1 S1                 0.0000
     40 ****        -1.6728   1.1098  -2.3042 H              1 S1                 0.0000
     41 ****         2.3983  -2.1102   0.4007 H              1 S1                 0.0000
     42 ****        -0.7121  -4.6636  -1.1207 H              1 S1                 0.0000
     43 ****        -1.5885  -4.3650   0.3884 H              1 S1                 0.0000
     44 ****        -0.5052  -5.7579   0.2544 H              1 S1                 0.0000
     45 ****        -3.8389  -0.1702   3.0949 LP             1 S1                 0.0000
     46 ****        -2.3288  -0.8361   3.6203 LP             1 S1                 0.0000
     47 ****         2.4429   0.5199   2.2684 LP             1 S1                 0.0000
     48 ****         0.9212   0.9897   1.9075 LP             1 S1                 0.0000
     49 ****        -0.4901   6.1534  -0.8534 LP             1 S1                 0.0000
     50 ****         0.7603   6.1209  -2.0514 LP             1 S1                 0.0000
     51 ****         3.4893   1.2708  -1.4961 LP             1 S1                 0.0000
     52 ****         3.5576   2.6692  -2.5158 LP             1 S1                 0.0000
     53 ****         1.3651  -1.4920  -2.8265 LP             1 S1                 0.0000
     54 ****         0.0841  -1.3655  -3.9854 LP             1 S1                 0.0000
     55 ****         2.1340  -3.7393   1.5109 LP             1 S1                 0.0000
     56 ****         1.3675  -5.2912   1.4469 LP             1 S1                 0.0000
@<TRIPOS>BOND
    1    1    2 1     
    2    1   29 1     
    3    1   30 1     
    4    1   31 1     
    5    2    3 2     
    6    2    4 1     
    7    4    5 1     
    8    5    6 1     
    9    5   32 1     
   10    5   33 1     
   11    6   23 1     
   12    6    7 1     
   13    6   34 1     
   14    7    8 1     
   15    8    9 1     
   16    8   18 1     
   17    8   35 1     
   18    9   16 1     
   19    9   10 1     
   20   10   11 2     
   21   10   36 1     
   22   11   12 1     
   23   11   13 1     
   24   13   14 2     
   25   13   15 1     
   26   15   28 1     
   27   15   16 1     
   28   16   17 2     
   29   18   19 1     
   30   18   23 1     
   31   18   37 1     
   32   19   20 1     
   33   20   21 1     
   34   20   22 2     
   35   21   38 1     
   36   21   39 1     
   37   21   40 1     
   38   23   24 1     
   39   23   41 1     
   40   24   25 1     
   41   25   26 1     
   42   25   27 2     
   43   26   42 1     
   44   26   43 1     
   45   26   44 1     
   46    3   45 1     
   47    3   46 1     
   48    7   47 1     
   49    7   48 1     
   50   14   49 1     
   51   14   50 1     
   52   17   51 1     
   53   17   52 1     
   54   22   53 1     
   55   22   54 1     
   56   27   55 1     
   57   27   56 1     
@<TRIPOS>SUBSTRUCTURE
      1 S1             1
@<TRIPOS>SET
LONE_PAIRS      STATIC     ATOMS    <user>   **** ""
12 45 46 47 48 49 50 51 52 53 54 55 56
DONOR_HYDROGENS      STATIC     ATOMS    <user>   **** ""
1 28
ATOM$BLUE        STATIC     ATOMS    COLORGROUP SYSTEM
12 45 46 47 48 49 50 51 52 53 54 55 56
ATOM$RED        STATIC     ATOMS    COLORGROUP SYSTEM
1 28
