AV-unprocessed.smi:646|AV-procd|sdf|3165|dock6
  -GOLD-   22720 0 83D 1   1.00000     0.00000
 Structure written by MMmdl.
 44 45  0  0  0  0  0  0  0  0  1 V2000
  146.0462  131.4853  151.9583 C   0  0  0  0  0  0  0  0  0  0  0  0
  145.9231  132.8538  151.5890 O   0  0  0  0  0  0  0  0  0  0  0  0
  144.7831  133.5708  152.0825 C   0  0  1  0  0  0  0  0  0  0  0  0
  143.4931  132.9921  151.4862 C   0  0  0  0  0  0  0  0  0  0  0  0
  144.8913  133.7536  153.6083 C   0  0  0  0  0  0  0  0  0  0  0  0
  145.6749  135.0457  153.3683 C   0  0  1  0  0  0  0  0  0  0  0  0
  147.1156  134.7987  153.3843 N   0  0  0  0  0  0  0  0  0  0  0  0
  147.7484  133.9644  154.2221 C   0  0  0  0  0  0  0  0  0  0  0  0
  147.1710  133.2927  155.0763 O   0  0  0  0  0  0  0  0  0  0  0  0
  149.2702  133.8886  154.0870 C   0  0  0  0  0  0  0  0  0  0  0  0
  149.9311  134.3158  155.3733 C   0  0  0  0  0  0  0  0  0  0  0  0
  150.4727  133.4839  156.3944 C   0  0  0  0  0  0  0  0  0  0  0  0
  150.5212  131.9840  156.4432 C   0  0  0  0  0  0  0  0  0  0  0  0
  150.9828  134.1904  157.3890 N   0  0  0  0  0  0  0  0  0  0  0  0
  150.7887  135.5316  157.0445 O   0  0  0  0  0  0  0  0  0  0  0  0
  150.1636  135.5806  155.8409 C   0  0  0  0  0  0  0  0  0  0  0  0
  149.8759  136.9382  155.2949 C   0  0  0  0  0  0  0  0  0  0  0  0
  145.0601  135.1043  151.9447 C   0  0  0  0  0  0  0  0  0  0  0  0
  145.9591  135.5505  150.7794 C   0  0  0  0  0  0  0  0  0  0  0  0
  143.8177  136.0038  151.8627 C   0  0  0  0  0  0  0  0  0  0  0  0
  147.0201  131.1173  151.6371 H   0  0  0  0  0  0  0  0  0  0  0  0
  145.2942  130.8664  151.4695 H   0  0  0  0  0  0  0  0  0  0  0  0
  145.9769  131.3367  153.0354 H   0  0  0  0  0  0  0  0  0  0  0  0
  142.6189  133.5835  151.7564 H   0  0  0  0  0  0  0  0  0  0  0  0
  143.2947  131.9830  151.8459 H   0  0  0  0  0  0  0  0  0  0  0  0
  143.5401  132.9571  150.3976 H   0  0  0  0  0  0  0  0  0  0  0  0
  143.9230  133.9390  154.0757 H   0  0  0  0  0  0  0  0  0  0  0  0
  145.4373  132.9818  154.1508 H   0  0  0  0  0  0  0  0  0  0  0  0
  145.3530  135.8574  154.0232 H   0  0  0  0  0  0  0  0  0  0  0  0
  147.6723  135.3151  152.7187 H   0  0  0  0  0  0  0  0  0  0  0  0
  149.5451  132.8690  153.8152 H   0  0  0  0  0  0  0  0  0  0  0  0
  149.5867  134.5178  153.2543 H   0  0  0  0  0  0  0  0  0  0  0  0
  149.5218  131.5593  156.3479 H   0  0  0  0  0  0  0  0  0  0  0  0
  150.9475  131.6213  157.3792 H   0  0  0  0  0  0  0  0  0  0  0  0
  151.1273  131.5891  155.6276 H   0  0  0  0  0  0  0  0  0  0  0  0
  149.5892  136.8872  154.2445 H   0  0  0  0  0  0  0  0  0  0  0  0
  150.7539  137.5798  155.3709 H   0  0  0  0  0  0  0  0  0  0  0  0
  149.0620  137.4104  155.8450 H   0  0  0  0  0  0  0  0  0  0  0  0
  146.2382  136.6005  150.8728 H   0  0  0  0  0  0  0  0  0  0  0  0
  145.4560  135.4286  149.8197 H   0  0  0  0  0  0  0  0  0  0  0  0
  146.8881  134.9835  150.7217 H   0  0  0  0  0  0  0  0  0  0  0  0
  144.0824  137.0577  151.9543 H   0  0  0  0  0  0  0  0  0  0  0  0
  143.1046  135.7885  152.6589 H   0  0  0  0  0  0  0  0  0  0  0  0
  143.2916  135.8817  150.9152 H   0  0  0  0  0  0  0  0  0  0  0  0
  1  2  1  0  0  0  0
  1 21  1  0  0  0  0
  1 22  1  0  0  0  0
  1 23  1  0  0  0  0
  2  3  1  0  0  0  0
  3 18  1  0  0  0  0
  3  4  1  0  0  0  0
  3  5  1  0  0  0  0
  4 24  1  0  0  0  0
  4 25  1  0  0  0  0
  4 26  1  0  0  0  0
  5  6  1  0  0  0  0
  5 27  1  0  0  0  0
  5 28  1  0  0  0  0
  6  7  1  0  0  0  0
  6 18  1  0  0  0  0
  6 29  1  0  0  0  0
  7  8  1  0  0  0  0
  7 30  1  0  0  0  0
  8  9  2  0  0  0  0
  8 10  1  0  0  0  0
 10 11  1  0  0  0  0
 10 31  1  0  0  0  0
 10 32  1  0  0  0  0
 11 16  2  0  0  0  0
 11 12  1  0  0  0  0
 12 13  1  0  0  0  0
 12 14  2  0  0  0  0
 13 33  1  0  0  0  0
 13 34  1  0  0  0  0
 13 35  1  0  0  0  0
 14 15  1  0  0  0  0
 15 16  1  0  0  0  0
 16 17  1  0  0  0  0
 17 36  1  0  0  0  0
 17 37  1  0  0  0  0
 17 38  1  0  0  0  0
 18 19  1  0  0  0  0
 18 20  1  0  0  0  0
 19 39  1  0  0  0  0
 19 40  1  0  0  0  0
 19 41  1  0  0  0  0
 20 42  1  0  0  0  0
 20 43  1  0  0  0  0
 20 44  1  0  0  0  0
M  END
> <s_m_source_file>
AV-unprocessed.smi

> <i_m_source_file_index>
646

> <i_lp_mmshare_version>
43012

> <i_f3d_flags>
0

> <s_epik_input>
W0NIM11PW0NAQF0xKFtDSDNdKVtDSDJdW0NASF0oQzEoW0NIM10pW0NIM10pW05IXUMoPU8pW0NIMl1jMmMoW0NIM10pbm9jMltDSDNd

> <s_epik_cmdline>
J2VwaWtfcHl0aG9uJywgJy1waCcsICc3LjAnLCAnLXRuJywgJzgnLCAnLW1hJywgJzIwMCcsICctbWV0YWxfYmluZGluZycsICctaW1hZScsICc8aW5maWxlLm1hZT4nLCAnLW9tYWUnLCAnPG91dGZpbGUubWFlPic=

> <r_lp_tautomer_probability>
1

> <r_epik_Ionization_Penalty>
2.13169e-08

> <r_epik_Ionization_Penalty_Charging>
0

> <r_epik_Ionization_Penalty_Neutral>
2.13169e-08

> <r_epik_State_Penalty>
-0

> <r_epik_Charging_Adjusted_Penalty>
0

> <i_epik_Tot_Q>
0

> <i_epik_Tot_abs_Q>
0

> <r_epik_Metal_State_Penalty>
-0

> <b_epik_Metal_Only>
0

> <s_lp_Force_Field>
OPLS_2005

> <r_lp_Energy>
17.7516

> <b_lp_Chiralities_Consistent>
1

> <s_lp_Variant>
AV-unprocessed.smi:646-1

> <Gold.Version>
5.8.1

> <Gold.Id.Protein>
6NUR|6NUR_protein|mol2

> <Gold.PLP.Fitness>
32.1633

> <Gold.PLP.PLP>
-28.6458

> <Gold.PLP.part.hbond>
-2.4425

> <Gold.PLP.part.metal>
0.0000

> <Gold.PLP.part.buried>
-3.4817

> <Gold.PLP.part.nonpolar>
-22.9268

> <Gold.PLP.part.repulsive>
0.1506

> <Gold.PLP.ligand.clash>
0.0000

> <Gold.PLP.ligand.torsion>
0.6413

> <Gold.PLP.Chemscore.Hbond>
1.4696

> <Gold.PLP.Chemscore.CHOScore>
0.0000

> <Gold.PLP.Chemscore.Metal>
0.0000

> <Gold.Chemscore.Hbonds>
donor molecule, donor type, donor heavy atom, donor atom, acceptor molecule, acceptor atom, score
      L1  H     7    30       P1  7948  1.00
      P1  H  6896  6908       L1    14  0.29

> <Gold.PLP.Chemscore.Internal.Correction>
0.3913

> <Gold.Rescore>
     Score         DG    S(hbond)    S(metal)    S(lipo)     H(rot)  DE(clash)    DE(int)     intcor
     11.81     -14.47       1.45        0.00      68.22       1.49       0.14       2.52       ----

> <Gold.Chemscore.Fitness>
11.8082

> <Gold.Chemscore.DG>
-14.4718

> <Gold.Chemscore.ZeroCoef>
-5.4800

> <Gold.Chemscore.Hbond>
1.4467

> <Gold.Chemscore.Metal>
0.0000

> <Gold.Chemscore.Lipo>
68.2172

> <Gold.Chemscore.Internal_Hbond>
0.0000

> <Gold.Chemscore.DEClash>
0.1415

> <Gold.Chemscore.DEInternal>
2.5221

> <Gold.Chemscore.Rot>
1.4928

> <Gold.Chemscore.Internal.Correction>
   9.000000E+99

> <Gold.Chemscore.Hbonds>
donor molecule, donor type, donor heavy atom, donor atom, acceptor molecule, acceptor atom, score
      L1  H     7    30       P1  7948  1.00
      P1  H  6896  6908       L1    14  0.29

> <Gold.Chemscore.Hbond.Weighted>
-4.8321

> <Gold.Chemscore.Metal.Weighted>
-0.0000

> <Gold.Chemscore.Lipo.Weighted>
-7.9814

> <Gold.Chemscore.Internal_Hbond.Weighted>
0.0000

> <Gold.Chemscore.DEClash.Weighted>
0.1415

> <Gold.Chemscore.DEInternal.Weighted>
2.5221

> <Gold.Chemscore.Rot.Weighted>
3.8217

> <Gold.Chemscore.Internal.Correction.Weighted>
   9.000000E+99

> <Gold.Protein.RotatedTorsions>
[ 6907 6896 6895 6894 ] final   83.06 input  -60.11 | X-H torsion
[ 7974 7965 7964 7962 ] final  -86.65 input  175.53 | X-H torsion
[ 8008 7997 7996 7995 ] final   62.86 input   59.86 | X-H torsion
[ 10167 10162 10161 10158 ] final  175.27 input  -65.29 | X-H torsion
[ 10718 10713 10712 10709 ] final  -46.71 input   66.30 | X-H torsion
[ 10763 10752 10751 10750 ] final  150.17 input  -60.55 | X-H torsion
[ 11005 11000 10999 10996 ] final  -98.64 input  -57.11 | X-H torsion

> <Gold.Protein.ActiveResidues>
 VAL166  LYS551  ARG553  GLY616  TRP617  ASP618  TYR619  PRO620  LYS621  CYS622 
 ASP623  PHE694  ASN695  SER759  ASP760  ASP761  ALA762  ILE779  LEU786  VAL792 
 PHE793  MET794  SER795  GLU796  ALA797  LYS798  CYS799  TRP800  GLU811  SER814 

> <Gold.Protein.RotatedAtoms>
  152.5317  134.2953  159.9058 H   0  0  0  0  0  0  0  0  0  0  0  0  # atno 6907 bound_to 6896
  151.2905  133.4161  159.2640 H   0  0  0  0  0  0  0  0  0  0  0  0  # atno 6908 bound_to 6896
  151.0205  134.9481  159.8114 H   0  0  0  0  0  0  0  0  0  0  0  0  # atno 6909 bound_to 6896
  145.4770  140.9558  143.1885 H   0  0  0  0  0  0  0  0  0  0  0  0  # atno 7974 bound_to 7965
  155.6210  140.3495  155.4652 H   0  0  0  0  0  0  0  0  0  0  0  0  # atno 8008 bound_to 7997
  156.0079  140.1227  157.0507 H   0  0  0  0  0  0  0  0  0  0  0  0  # atno 8009 bound_to 7997
  154.4271  140.1087  156.5775 H   0  0  0  0  0  0  0  0  0  0  0  0  # atno 8010 bound_to 7997
  139.5171  144.3051  152.0343 H   0  0  0  0  0  0  0  0  0  0  0  0  # atno 10167 bound_to 10162
  156.2156  130.4163  149.9058 H   0  0  0  0  0  0  0  0  0  0  0  0  # atno 10718 bound_to 10713
  154.0832  135.2858  155.3286 H   0  0  0  0  0  0  0  0  0  0  0  0  # atno 10763 bound_to 10752
  154.6670  135.5313  153.8093 H   0  0  0  0  0  0  0  0  0  0  0  0  # atno 10764 bound_to 10752
  153.0441  135.6548  154.1005 H   0  0  0  0  0  0  0  0  0  0  0  0  # atno 10765 bound_to 10752
  141.1337  133.8261  157.0867 H   0  0  0  0  0  0  0  0  0  0  0  0  # atno 11005 bound_to 11000
  144.7911  139.6326  143.7113 LP  0  0  0  0  0  0  0  0  0  0  0  0  # atno 17320 bound_to 7965
  146.2363  139.5912  142.9521 LP  0  0  0  0  0  0  0  0  0  0  0  0  # atno 17321 bound_to 7965
  140.2497  144.4182  150.6226 LP  0  0  0  0  0  0  0  0  0  0  0  0  # atno 17342 bound_to 10162
  140.6233  143.2178  151.6649 LP  0  0  0  0  0  0  0  0  0  0  0  0  # atno 17343 bound_to 10162
  156.6721  130.8824  151.3564 LP  0  0  0  0  0  0  0  0  0  0  0  0  # atno 17370 bound_to 10713
  157.7061  130.9387  150.0937 LP  0  0  0  0  0  0  0  0  0  0  0  0  # atno 17371 bound_to 10713
  140.0418  134.9850  157.0975 LP  0  0  0  0  0  0  0  0  0  0  0  0  # atno 17394 bound_to 11000
  140.4124  134.1967  155.7163 LP  0  0  0  0  0  0  0  0  0  0  0  0  # atno 17395 bound_to 11000

$$$$
