AV-unprocessed.smi:2026|AV-procd|sdf|8205|dock5
  -GOLD-   2272010463D 1   1.00000     0.00000
 Structure written by MMmdl.
 45 47  0  0  0  0  0  0  0  0  2 V2000
  153.8390  142.5980  160.2887 C   0  0  0  0  0  0  0  0  0  0  0  0
  152.8083  142.3712  159.1970 C   0  0  0  0  0  0  0  0  0  0  0  0
  152.5717  141.0552  158.7373 C   0  0  0  0  0  0  0  0  0  0  0  0
  151.6211  140.8025  157.7233 C   0  0  0  0  0  0  0  0  0  0  0  0
  151.2299  139.6139  157.1291 N   0  0  0  0  0  0  0  0  0  0  0  0
  150.3139  140.0366  156.2611 C   0  0  0  0  0  0  0  0  0  0  0  0
  150.0671  141.3597  156.2236 N   0  0  0  0  0  0  0  0  0  0  0  0
  149.1289  142.0652  155.3726 C   0  0  0  0  0  0  0  0  0  0  0  0
  148.5402  141.1475  154.2816 C   0  0  2  0  0  0  0  0  0  0  0  0
  149.5626  140.7805  153.3773 O   0  0  0  0  0  0  0  0  0  0  0  0
  147.3835  141.7857  153.4849 C   0  0  0  0  0  0  0  0  0  0  0  0
  146.3350  142.3260  154.3604 N   0  0  0  0  0  0  0  0  0  0  0  0
  145.5938  143.4221  154.1076 C   0  0  0  0  0  0  0  0  0  0  0  0
  145.7245  144.0825  153.0774 O   0  0  0  0  0  0  0  0  0  0  0  0
  144.7340  143.6723  155.1230 N   0  5  0  0  0  0  0  0  0  0  0  0
  144.9162  142.6664  156.1502 C   0  0  0  0  0  0  0  0  0  0  0  0
  145.3856  143.3262  157.4610 C   0  0  0  0  0  0  0  0  0  0  0  0
  143.6139  141.8687  156.3496 C   0  0  0  0  0  0  0  0  0  0  0  0
  146.0076  141.8014  155.5464 C   0  0  0  0  0  0  0  0  0  0  0  0
  146.4896  140.8051  156.0874 O   0  0  0  0  0  0  0  0  0  0  0  0
  150.9117  141.9115  157.1784 C   0  0  0  0  0  0  0  0  0  0  0  0
  151.1374  143.2242  157.6269 C   0  0  0  0  0  0  0  0  0  0  0  0
  152.0888  143.4594  158.6405 C   0  0  0  0  0  0  0  0  0  0  0  0
  152.3220  144.8819  159.1176 C   0  0  0  0  0  0  0  0  0  0  0  0
  154.2599  141.6558  160.6410 H   0  0  0  0  0  0  0  0  0  0  0  0
  153.3874  143.1011  161.1437 H   0  0  0  0  0  0  0  0  0  0  0  0
  154.6584  143.2134  159.9165 H   0  0  0  0  0  0  0  0  0  0  0  0
  153.1192  140.2264  159.1612 H   0  0  0  0  0  0  0  0  0  0  0  0
  149.7908  139.3456  155.6163 H   0  0  0  0  0  0  0  0  0  0  0  0
  148.3411  142.4543  156.0174 H   0  0  0  0  0  0  0  0  0  0  0  0
  149.6236  142.9305  154.9293 H   0  0  0  0  0  0  0  0  0  0  0  0
  148.1809  140.2270  154.7433 H   0  0  0  0  0  0  0  0  0  0  0  0
  149.1960  140.1905  152.7368 H   0  0  0  0  0  0  0  0  0  0  0  0
  147.7716  142.5579  152.8188 H   0  0  0  0  0  0  0  0  0  0  0  0
  146.9323  141.0373  152.8310 H   0  0  0  0  0  0  0  0  0  0  0  0
  145.5358  142.5839  158.2457 H   0  0  0  0  0  0  0  0  0  0  0  0
  144.6498  144.0430  157.8270 H   0  0  0  0  0  0  0  0  0  0  0  0
  146.3274  143.8616  157.3313 H   0  0  0  0  0  0  0  0  0  0  0  0
  143.7297  141.1111  157.1258 H   0  0  0  0  0  0  0  0  0  0  0  0
  143.3074  141.3577  155.4354 H   0  0  0  0  0  0  0  0  0  0  0  0
  142.7942  142.5223  156.6504 H   0  0  0  0  0  0  0  0  0  0  0  0
  150.5790  144.0416  157.1945 H   0  0  0  0  0  0  0  0  0  0  0  0
  151.7095  145.5924  158.5612 H   0  0  0  0  0  0  0  0  0  0  0  0
  153.3662  145.1646  158.9844 H   0  0  0  0  0  0  0  0  0  0  0  0
  152.0681  144.9764  160.1736 H   0  0  0  0  0  0  0  0  0  0  0  0
  1  2  1  0  0  0  0
  1 25  1  0  0  0  0
  1 26  1  0  0  0  0
  1 27  1  0  0  0  0
  2 23  1  0  0  0  0
  2  3  2  0  0  0  0
  3  4  1  0  0  0  0
  3 28  1  0  0  0  0
  4 21  2  0  0  0  0
  4  5  1  0  0  0  0
  5  6  2  0  0  0  0
  6  7  1  0  0  0  0
  6 29  1  0  0  0  0
  7  8  1  0  0  0  0
  7 21  1  0  0  0  0
  8  9  1  0  0  0  0
  8 30  1  0  0  0  0
  8 31  1  0  0  0  0
  9 10  1  0  0  0  0
  9 11  1  0  0  0  0
  9 32  1  0  0  0  0
 10 33  1  0  0  0  0
 11 12  1  0  0  0  0
 11 34  1  0  0  0  0
 11 35  1  0  0  0  0
 12 19  1  0  0  0  0
 12 13  1  0  0  0  0
 13 14  2  0  0  0  0
 13 15  1  0  0  0  0
 15 16  1  0  0  0  0
 16 17  1  0  0  0  0
 16 18  1  0  0  0  0
 16 19  1  0  0  0  0
 17 36  1  0  0  0  0
 17 37  1  0  0  0  0
 17 38  1  0  0  0  0
 18 39  1  0  0  0  0
 18 40  1  0  0  0  0
 18 41  1  0  0  0  0
 19 20  2  0  0  0  0
 21 22  1  0  0  0  0
 22 23  2  0  0  0  0
 22 42  1  0  0  0  0
 23 24  1  0  0  0  0
 24 43  1  0  0  0  0
 24 44  1  0  0  0  0
 24 45  1  0  0  0  0
M  CHG  1  15  -1
M  END
> <s_m_source_file>
AV-unprocessed.smi

> <i_m_source_file_index>
2026

> <i_lp_mmshare_version>
43012

> <i_f3d_flags>
0

> <s_epik_input>
W0NIM11jKFtjSF0xKWMoW0NIM10pW2NIXWMoYzEyKW4oW2NIXW4yKVtDSDJdW0NASF0oW09IXSlbQ0gyXU4oQzM9TylDKD1PKVtOSF1DMyhbQ0gzXSlbQ0gzXQ==

> <s_epik_cmdline>
J2VwaWtfcHl0aG9uJywgJy1waCcsICc3LjAnLCAnLXRuJywgJzgnLCAnLW1hJywgJzIwMCcsICctbWV0YWxfYmluZGluZycsICctaW1hZScsICc8aW5maWxlLm1hZT4nLCAnLW9tYWUnLCAnPG91dGZpbGUubWFlPic=

> <r_lp_tautomer_probability>
1

> <r_epik_Ionization_Penalty>
5.78785

> <r_epik_Ionization_Penalty_Charging>
5.68049

> <r_epik_Ionization_Penalty_Neutral>
0.107354

> <r_epik_State_Penalty>
5.7743

> <r_epik_Charging_Adjusted_Penalty>
11.4548

> <i_epik_Tot_Q>
-1

> <i_epik_Tot_abs_Q>
1

> <r_epik_Metal_State_Penalty>
1.83778

> <b_epik_Metal_Only>
1

> <s_lp_Force_Field>
OPLS_2005

> <r_lp_Energy>
16.8856

> <b_lp_Chiralities_Consistent>
1

> <s_lp_Variant>
AV-unprocessed.smi:2026-5

> <Gold.Version>
5.8.1

> <Gold.Id.Protein>
6NUR|6NUR_protein|mol2

> <Gold.PLP.Fitness>
50.3271

> <Gold.PLP.PLP>
-45.5325

> <Gold.PLP.part.hbond>
-3.3905

> <Gold.PLP.part.metal>
0.0000

> <Gold.PLP.part.buried>
-2.8626

> <Gold.PLP.part.nonpolar>
-39.9003

> <Gold.PLP.part.repulsive>
0.4317

> <Gold.PLP.ligand.clash>
0.0000

> <Gold.PLP.ligand.torsion>
0.5043

> <Gold.PLP.Chemscore.Hbond>
1.9280

> <Gold.PLP.Chemscore.CHOScore>
0.0000

> <Gold.PLP.Chemscore.Metal>
0.0000

> <Gold.Chemscore.Hbonds>
donor molecule, donor type, donor heavy atom, donor atom, acceptor molecule, acceptor atom, score
      L1  H    10    33       P1  7957  0.56
      P1  H  7989  7998       L1    10  0.30
      P1  H  8011  8017       L1    10  1.00

> <Gold.PLP.Chemscore.Internal.Correction>
0.0192

> <Gold.Rescore>
     Score         DG    S(hbond)    S(metal)    S(lipo)     H(rot)  DE(clash)    DE(int)     intcor
     12.02     -15.67       1.22        0.00     104.43       2.38       1.72       1.94       ----

> <Gold.Chemscore.Fitness>
12.0157

> <Gold.Chemscore.DG>
-15.6744

> <Gold.Chemscore.ZeroCoef>
-5.4800

> <Gold.Chemscore.Hbond>
1.2169

> <Gold.Chemscore.Metal>
0.0000

> <Gold.Chemscore.Lipo>
104.4304

> <Gold.Chemscore.Internal_Hbond>
0.0000

> <Gold.Chemscore.DEClash>
1.7226

> <Gold.Chemscore.DEInternal>
1.9361

> <Gold.Chemscore.Rot>
2.3783

> <Gold.Chemscore.Internal.Correction>
   9.000000E+99

> <Gold.Chemscore.Hbonds>
donor molecule, donor type, donor heavy atom, donor atom, acceptor molecule, acceptor atom, score
      L1  H    10    33       P1  7957  0.56
      P1  H  7989  7998       L1    10  0.26
      P1  H  8011  8017       L1    10  0.14

> <Gold.Chemscore.Hbond.Weighted>
-4.0644

> <Gold.Chemscore.Metal.Weighted>
-0.0000

> <Gold.Chemscore.Lipo.Weighted>
-12.2184

> <Gold.Chemscore.Internal_Hbond.Weighted>
0.0000

> <Gold.Chemscore.DEClash.Weighted>
1.7226

> <Gold.Chemscore.DEInternal.Weighted>
1.9361

> <Gold.Chemscore.Rot.Weighted>
6.0884

> <Gold.Chemscore.Internal.Correction.Weighted>
   9.000000E+99

> <Gold.Protein.RotatedTorsions>
[ 6907 6896 6895 6894 ] final  147.68 input  -60.11 | X-H torsion
[ 7974 7965 7964 7962 ] final   52.39 input  175.53 | X-H torsion
[ 8008 7997 7996 7995 ] final -165.38 input   59.86 | X-H torsion
[ 10167 10162 10161 10158 ] final  147.17 input  -65.29 | X-H torsion
[ 10718 10713 10712 10709 ] final    2.73 input   66.30 | X-H torsion
[ 10763 10752 10751 10750 ] final   77.85 input  -60.55 | X-H torsion
[ 11005 11000 10999 10996 ] final -140.96 input  -57.11 | X-H torsion

> <Gold.Protein.ActiveResidues>
 VAL166  LYS551  ARG553  GLY616  TRP617  ASP618  TYR619  PRO620  LYS621  CYS622 
 ASP623  PHE694  ASN695  SER759  ASP760  ASP761  ALA762  ILE779  LEU786  VAL792 
 PHE793  MET794  SER795  GLU796  ALA797  LYS798  CYS799  TRP800  GLU811  SER814 

> <Gold.Protein.RotatedAtoms>
  152.1515  133.4525  159.4815 H   0  0  0  0  0  0  0  0  0  0  0  0  # atno 6907 bound_to 6896
  150.6896  134.2183  159.4395 H   0  0  0  0  0  0  0  0  0  0  0  0  # atno 6908 bound_to 6896
  152.0080  134.9891  160.0618 H   0  0  0  0  0  0  0  0  0  0  0  0  # atno 6909 bound_to 6896
  145.9818  139.4250  143.0127 H   0  0  0  0  0  0  0  0  0  0  0  0  # atno 7974 bound_to 7965
  155.8490  140.0960  157.1687 H   0  0  0  0  0  0  0  0  0  0  0  0  # atno 8008 bound_to 7997
  154.3984  140.1387  156.3882 H   0  0  0  0  0  0  0  0  0  0  0  0  # atno 8009 bound_to 7997
  155.7982  140.3453  155.5390 H   0  0  0  0  0  0  0  0  0  0  0  0  # atno 8010 bound_to 7997
  139.4894  144.5775  151.6937 H   0  0  0  0  0  0  0  0  0  0  0  0  # atno 10167 bound_to 10162
  156.8674  130.5608  149.5659 H   0  0  0  0  0  0  0  0  0  0  0  0  # atno 10718 bound_to 10713
  153.0830  135.4899  154.8540 H   0  0  0  0  0  0  0  0  0  0  0  0  # atno 10763 bound_to 10752
  154.7175  135.3032  154.9103 H   0  0  0  0  0  0  0  0  0  0  0  0  # atno 10764 bound_to 10752
  153.9778  135.6793  153.4802 H   0  0  0  0  0  0  0  0  0  0  0  0  # atno 10765 bound_to 10752
  140.8371  134.2447  157.4829 H   0  0  0  0  0  0  0  0  0  0  0  0  # atno 11005 bound_to 11000
  145.7758  140.9877  143.1125 LP  0  0  0  0  0  0  0  0  0  0  0  0  # atno 17320 bound_to 7965
  144.6863  139.9503  143.7478 LP  0  0  0  0  0  0  0  0  0  0  0  0  # atno 17321 bound_to 7965
  140.5374  144.0633  150.6075 LP  0  0  0  0  0  0  0  0  0  0  0  0  # atno 17342 bound_to 10162
  140.3644  143.2890  152.0348 LP  0  0  0  0  0  0  0  0  0  0  0  0  # atno 17343 bound_to 10162
  156.0744  130.5770  150.9446 LP  0  0  0  0  0  0  0  0  0  0  0  0  # atno 17370 bound_to 10713
  157.6215  131.0929  150.8612 LP  0  0  0  0  0  0  0  0  0  0  0  0  # atno 17371 bound_to 10713
  139.8704  134.9616  156.4402 LP  0  0  0  0  0  0  0  0  0  0  0  0  # atno 17394 bound_to 11000
  140.8936  133.7830  155.9599 LP  0  0  0  0  0  0  0  0  0  0  0  0  # atno 17395 bound_to 11000

$$$$
