AV-unprocessed.smi:2031|AV-procd|sdf|8229|dock4
  -GOLD-   2272010503D 1   1.00000     0.00000
 Structure written by MMmdl.
 41 42  0  0  0  0  0  0  0  0  3 V2000
  151.2321  141.3232  155.6623 C   0  0  0  0  0  0  0  0  0  0  0  0
  151.4654  139.9179  155.2225 C   0  0  0  0  0  0  0  0  0  0  0  0
  150.6225  138.8700  154.9827 C   0  0  0  0  0  0  0  0  0  0  0  0
  151.5049  137.8265  154.5910 C   0  0  0  0  0  0  0  0  0  0  0  0
  151.1468  136.5757  154.2624 N   0  5  0  0  0  0  0  0  0  0  0  0
  150.2160  135.9197  154.9917 C   0  0  0  0  0  0  0  0  0  0  0  0
  150.1710  135.8398  156.2216 O   0  0  0  0  0  0  0  0  0  0  0  0
  149.2803  135.3109  154.2489 N   0  0  0  0  0  0  0  0  0  0  0  0
  148.1649  134.5242  154.7610 C   0  0  0  0  0  0  0  0  0  0  0  0
  146.8227  134.9995  154.1699 C   0  0  0  0  0  0  0  0  0  0  0  0
  146.7191  134.7596  152.7057 N   0  3  0  0  0  0  0  0  0  0  0  0
  145.4975  135.3758  152.1159 C   0  0  0  0  0  0  0  0  0  0  0  0
  144.2341  134.4976  152.1961 C   0  0  0  0  0  0  0  0  0  0  0  0
  144.0554  133.6052  150.9578 C   0  0  0  0  0  0  0  0  0  0  0  0
  145.0789  132.4671  150.8522 C   0  0  0  0  0  0  0  0  0  0  0  0
  146.5451  132.9279  150.9153 C   0  0  0  0  0  0  0  0  0  0  0  0
  146.9843  133.3395  152.3343 C   0  0  0  0  0  0  0  0  0  0  0  0
  152.7726  138.2033  154.6068 N   0  0  0  0  0  0  0  0  0  0  0  0
  152.7552  139.5458  155.0034 O   0  0  0  0  0  0  0  0  0  0  0  0
  150.6914  141.3456  156.6085 H   0  0  0  0  0  0  0  0  0  0  0  0
  150.6426  141.8653  154.9228 H   0  0  0  0  0  0  0  0  0  0  0  0
  152.1739  141.8553  155.7994 H   0  0  0  0  0  0  0  0  0  0  0  0
  149.5467  138.8523  155.0715 H   0  0  0  0  0  0  0  0  0  0  0  0
  149.3530  135.4054  153.2463 H   0  0  0  0  0  0  0  0  0  0  0  0
  148.3267  133.4658  154.5507 H   0  0  0  0  0  0  0  0  0  0  0  0
  148.1718  134.6328  155.8452 H   0  0  0  0  0  0  0  0  0  0  0  0
  145.9887  134.5176  154.6823 H   0  0  0  0  0  0  0  0  0  0  0  0
  146.7251  136.0682  154.3634 H   0  0  0  0  0  0  0  0  0  0  0  0
  145.3024  136.3312  152.6043 H   0  0  0  0  0  0  0  0  0  0  0  0
  145.7027  135.6405  151.0782 H   0  0  0  0  0  0  0  0  0  0  0  0
  144.2114  133.9102  153.1150 H   0  0  0  0  0  0  0  0  0  0  0  0
  143.3687  135.1590  152.2484 H   0  0  0  0  0  0  0  0  0  0  0  0
  143.0551  133.1708  150.9754 H   0  0  0  0  0  0  0  0  0  0  0  0
  144.0957  134.2178  150.0564 H   0  0  0  0  0  0  0  0  0  0  0  0
  144.8910  131.7306  151.6345 H   0  0  0  0  0  0  0  0  0  0  0  0
  144.9135  131.9439  149.9096 H   0  0  0  0  0  0  0  0  0  0  0  0
  147.1605  132.0791  150.6151 H   0  0  0  0  0  0  0  0  0  0  0  0
  146.7539  133.7098  150.1843 H   0  0  0  0  0  0  0  0  0  0  0  0
  148.0602  133.1817  152.4122 H   0  0  0  0  0  0  0  0  0  0  0  0
  146.5293  132.6697  153.0657 H   0  0  0  0  0  0  0  0  0  0  0  0
  147.4777  135.2911  152.3029 H   0  0  0  0  0  0  0  0  0  0  0  0
  1  2  1  0  0  0  0
  1 20  1  0  0  0  0
  1 21  1  0  0  0  0
  1 22  1  0  0  0  0
  2 19  1  0  0  0  0
  2  3  2  0  0  0  0
  3  4  1  0  0  0  0
  3 23  1  0  0  0  0
  4  5  1  0  0  0  0
  4 18  2  0  0  0  0
  5  6  1  0  0  0  0
  6  7  2  0  0  0  0
  6  8  1  0  0  0  0
  8  9  1  0  0  0  0
  8 24  1  0  0  0  0
  9 10  1  0  0  0  0
  9 25  1  0  0  0  0
  9 26  1  0  0  0  0
 10 11  1  0  0  0  0
 10 27  1  0  0  0  0
 10 28  1  0  0  0  0
 11 17  1  0  0  0  0
 11 12  1  0  0  0  0
 11 41  1  0  0  0  0
 12 13  1  0  0  0  0
 12 29  1  0  0  0  0
 12 30  1  0  0  0  0
 13 14  1  0  0  0  0
 13 31  1  0  0  0  0
 13 32  1  0  0  0  0
 14 15  1  0  0  0  0
 14 33  1  0  0  0  0
 14 34  1  0  0  0  0
 15 16  1  0  0  0  0
 15 35  1  0  0  0  0
 15 36  1  0  0  0  0
 16 17  1  0  0  0  0
 16 37  1  0  0  0  0
 16 38  1  0  0  0  0
 17 39  1  0  0  0  0
 17 40  1  0  0  0  0
 18 19  1  0  0  0  0
M  CHG  1   5  -1
M  CHG  1  11   1
M  END
> <s_m_source_file>
AV-unprocessed.smi

> <i_m_source_file_index>
2031

> <i_lp_mmshare_version>
43012

> <i_f3d_flags>
0

> <s_epik_input>
W0NIM11jMVtjSF1jKG5vMSlbTkhdQyg9TylbTkhdW0NIMl1bQ0gyXU4yW0NIMl1bQ0gyXVtDSDJdW0NIMl1bQ0gyXVtDSDJdMg==

> <s_epik_cmdline>
J2VwaWtfcHl0aG9uJywgJy1waCcsICc3LjAnLCAnLXRuJywgJzgnLCAnLW1hJywgJzIwMCcsICctbWV0YWxfYmluZGluZycsICctaW1hZScsICc8aW5maWxlLm1hZT4nLCAnLW9tYWUnLCAnPG91dGZpbGUubWFlPic=

> <r_epik_Ionization_Penalty>
6.22371

> <r_epik_Ionization_Penalty_Charging>
6.22362

> <r_epik_Ionization_Penalty_Neutral>
9.36972e-05

> <r_epik_State_Penalty>
6.22363

> <r_epik_Charging_Adjusted_Penalty>
12.4472

> <i_epik_Tot_Q>
0

> <i_epik_Tot_abs_Q>
2

> <r_epik_Metal_State_Penalty>
2.16675

> <b_epik_Metal_Only>
1

> <s_lp_Force_Field>
OPLS_2005

> <r_lp_Energy>
10.3007

> <b_lp_Chiralities_Consistent>
1

> <s_lp_Variant>
AV-unprocessed.smi:2031-2

> <Gold.Version>
5.8.1

> <Gold.Id.Protein>
6NUR|6NUR_protein|mol2

> <Gold.PLP.Fitness>
48.1796

> <Gold.PLP.PLP>
-32.1570

> <Gold.PLP.part.hbond>
-4.7821

> <Gold.PLP.part.metal>
0.0000

> <Gold.PLP.part.buried>
-6.3790

> <Gold.PLP.part.nonpolar>
-22.4037

> <Gold.PLP.part.repulsive>
1.0101

> <Gold.PLP.ligand.clash>
0.0000

> <Gold.PLP.ligand.torsion>
0.8171

> <Gold.PLP.Chemscore.Hbond>
5.8500

> <Gold.PLP.Chemscore.CHOScore>
0.0000

> <Gold.PLP.Chemscore.Metal>
0.0000

> <Gold.Chemscore.Hbonds>
donor molecule, donor type, donor heavy atom, donor atom, acceptor molecule, acceptor atom, score
      L1  H     8    24       P1  7948  0.80
      L1  H    11    41       P1  7948  2.00
      P1  H  7997  8010       L1    19  0.89
      P1  H 10752 10763       L1     5  2.00

> <Gold.PLP.Chemscore.Internal.Correction>
0.1067

> <Gold.Rescore>
     Score         DG    S(hbond)    S(metal)    S(lipo)     H(rot)  DE(clash)    DE(int)     intcor
     16.48     -17.35       2.78        0.00      55.78       1.54       0.01       0.85       ----

> <Gold.Chemscore.Fitness>
16.4823

> <Gold.Chemscore.DG>
-17.3465

> <Gold.Chemscore.ZeroCoef>
-5.4800

> <Gold.Chemscore.Hbond>
2.7798

> <Gold.Chemscore.Metal>
0.0000

> <Gold.Chemscore.Lipo>
55.7828

> <Gold.Chemscore.Internal_Hbond>
0.0000

> <Gold.Chemscore.DEClash>
0.0106

> <Gold.Chemscore.DEInternal>
0.8536

> <Gold.Chemscore.Rot>
1.5409

> <Gold.Chemscore.Internal.Correction>
   9.000000E+99

> <Gold.Chemscore.Hbonds>
donor molecule, donor type, donor heavy atom, donor atom, acceptor molecule, acceptor atom, score
      L1  H     8    24       P1  7948  0.11
      L1  H    11    41       P1  7948  1.00
      P1  H  7997  8010       L1    19  0.76
      P1  H 10752 10763       L1     5  0.24

> <Gold.Chemscore.Hbond.Weighted>
-9.2846

> <Gold.Chemscore.Metal.Weighted>
-0.0000

> <Gold.Chemscore.Lipo.Weighted>
-6.5266

> <Gold.Chemscore.Internal_Hbond.Weighted>
0.0000

> <Gold.Chemscore.DEClash.Weighted>
0.0106

> <Gold.Chemscore.DEInternal.Weighted>
0.8536

> <Gold.Chemscore.Rot.Weighted>
3.9446

> <Gold.Chemscore.Internal.Correction.Weighted>
   9.000000E+99

> <Gold.Protein.RotatedTorsions>
[ 6907 6896 6895 6894 ] final  -91.70 input  -60.11 | X-H torsion
[ 7974 7965 7964 7962 ] final  -66.32 input  175.53 | X-H torsion
[ 8008 7997 7996 7995 ] final   84.92 input   59.86 | X-H torsion
[ 10167 10162 10161 10158 ] final -121.26 input  -65.29 | X-H torsion
[ 10718 10713 10712 10709 ] final   94.74 input   66.30 | X-H torsion
[ 10763 10752 10751 10750 ] final   39.04 input  -60.55 | X-H torsion
[ 11005 11000 10999 10996 ] final  153.84 input  -57.11 | X-H torsion

> <Gold.Protein.ActiveResidues>
 VAL166  LYS551  ARG553  GLY616  TRP617  ASP618  TYR619  PRO620  LYS621  CYS622 
 ASP623  PHE694  ASN695  SER759  ASP760  ASP761  ALA762  ILE779  LEU786  VAL792 
 PHE793  MET794  SER795  GLU796  ALA797  LYS798  CYS799  TRP800  GLU811  SER814 

> <Gold.Protein.RotatedAtoms>
  150.6896  134.2236  159.4406 H   0  0  0  0  0  0  0  0  0  0  0  0  # atno 6907 bound_to 6896
  152.0191  134.9830  160.0579 H   0  0  0  0  0  0  0  0  0  0  0  0  # atno 6908 bound_to 6896
  152.1415  133.4432  159.4806 H   0  0  0  0  0  0  0  0  0  0  0  0  # atno 6909 bound_to 6896
  145.7433  140.8943  143.0518 H   0  0  0  0  0  0  0  0  0  0  0  0  # atno 7974 bound_to 7965
  155.9434  140.3406  155.6346 H   0  0  0  0  0  0  0  0  0  0  0  0  # atno 8008 bound_to 7997
  155.7011  140.0760  157.2428 H   0  0  0  0  0  0  0  0  0  0  0  0  # atno 8009 bound_to 7997
  154.4107  140.1640  156.2180 H   0  0  0  0  0  0  0  0  0  0  0  0  # atno 8010 bound_to 7997
  140.0269  143.5287  152.2195 H   0  0  0  0  0  0  0  0  0  0  0  0  # atno 10167 bound_to 10162
  157.6945  131.0522  150.4233 H   0  0  0  0  0  0  0  0  0  0  0  0  # atno 10718 bound_to 10713
  152.9980  135.6232  154.2401 H   0  0  0  0  0  0  0  0  0  0  0  0  # atno 10763 bound_to 10752
  154.2142  135.2798  155.2949 H   0  0  0  0  0  0  0  0  0  0  0  0  # atno 10764 bound_to 10752
  154.5582  135.5713  153.7042 H   0  0  0  0  0  0  0  0  0  0  0  0  # atno 10765 bound_to 10752
  140.1435  134.8723  157.2362 H   0  0  0  0  0  0  0  0  0  0  0  0  # atno 11005 bound_to 11000
  144.6866  139.9490  143.7477 LP  0  0  0  0  0  0  0  0  0  0  0  0  # atno 17320 bound_to 7965
  146.0427  139.3437  143.0687 LP  0  0  0  0  0  0  0  0  0  0  0  0  # atno 17321 bound_to 7965
  139.6102  144.7606  151.2969 LP  0  0  0  0  0  0  0  0  0  0  0  0  # atno 17342 bound_to 10162
  140.7319  143.6839  150.7977 LP  0  0  0  0  0  0  0  0  0  0  0  0  # atno 17343 bound_to 10162
  156.4606  130.4031  149.6579 LP  0  0  0  0  0  0  0  0  0  0  0  0  # atno 17370 bound_to 10713
  156.3695  130.7523  151.2505 LP  0  0  0  0  0  0  0  0  0  0  0  0  # atno 17371 bound_to 10713
  140.2693  134.3479  155.7379 LP  0  0  0  0  0  0  0  0  0  0  0  0  # atno 17394 bound_to 11000
  141.2189  133.7414  156.9198 LP  0  0  0  0  0  0  0  0  0  0  0  0  # atno 17395 bound_to 11000

$$$$
