AV-unprocessed.smi:690|AV-procd|sdf|3362|dock10
  -GOLD-   22720 0343D 1   1.00000     0.00000
 Structure written by MMmdl.
 46 48  0  0  0  0  0  0  0  0  1 V2000
  157.0212  140.5354  169.8401 C   0  0  0  0  0  0  0  0  0  0  0  0
  156.6909  141.1502  168.4786 C   0  0  0  0  0  0  0  0  0  0  0  0
  157.3269  140.3875  167.4673 O   0  0  0  0  0  0  0  0  0  0  0  0
  157.4362  141.0847  166.2365 C   0  0  2  0  0  0  0  0  0  0  0  0
  156.1469  141.7663  165.7677 C   0  0  0  0  0  0  0  0  0  0  0  0
  156.5710  141.3469  164.3568 C   0  0  2  0  0  0  0  0  0  0  0  0
  155.4497  140.9486  163.5143 N   0  0  0  0  0  0  0  0  0  0  0  0
  155.5706  140.3412  162.3259 C   0  0  0  0  0  0  0  0  0  0  0  0
  156.6583  140.0671  161.8175 O   0  0  0  0  0  0  0  0  0  0  0  0
  154.2583  140.0184  161.5980 C   0  0  0  0  0  0  0  0  0  0  0  0
  153.5926  141.2118  161.0503 N   0  0  0  0  0  0  0  0  0  0  0  0
  153.2113  142.2130  161.9660 C   0  0  0  0  0  0  0  0  0  0  0  0
  152.6019  143.3417  161.5704 C   0  0  0  0  0  0  0  0  0  0  0  0
  152.3372  143.5172  160.1619 C   0  0  0  0  0  0  0  0  0  0  0  0
  152.6998  142.5668  159.2774 C   0  0  0  0  0  0  0  0  0  0  0  0
  153.3672  141.3319  159.7052 C   0  0  0  0  0  0  0  0  0  0  0  0
  153.7022  140.4589  158.9040 O   0  0  0  0  0  0  0  0  0  0  0  0
  157.3416  140.1642  164.9939 C   0  0  0  0  0  0  0  0  0  0  0  0
  156.6339  138.8140  165.1705 C   0  0  0  0  0  0  0  0  0  0  0  0
  157.7188  137.7943  165.5219 C   0  0  0  0  0  0  0  0  0  0  0  0
  159.0184  138.3619  164.9412 C   0  0  0  0  0  0  0  0  0  0  0  0
  158.6561  139.7308  164.3541 C   0  0  0  0  0  0  0  0  0  0  0  0
  156.5535  141.1002  170.6466 H   0  0  0  0  0  0  0  0  0  0  0  0
  158.0972  140.5298  170.0153 H   0  0  0  0  0  0  0  0  0  0  0  0
  156.6656  139.5067  169.9015 H   0  0  0  0  0  0  0  0  0  0  0  0
  155.6110  141.1582  168.3255 H   0  0  0  0  0  0  0  0  0  0  0  0
  157.0379  142.1839  168.4437 H   0  0  0  0  0  0  0  0  0  0  0  0
  158.3026  141.7493  166.1947 H   0  0  0  0  0  0  0  0  0  0  0  0
  155.2422  141.2692  166.1232 H   0  0  0  0  0  0  0  0  0  0  0  0
  156.1120  142.8431  165.9338 H   0  0  0  0  0  0  0  0  0  0  0  0
  157.2420  142.0740  163.8925 H   0  0  0  0  0  0  0  0  0  0  0  0
  154.5217  141.1445  163.8608 H   0  0  0  0  0  0  0  0  0  0  0  0
  154.4486  139.2978  160.8000 H   0  0  0  0  0  0  0  0  0  0  0  0
  153.6024  139.5004  162.2990 H   0  0  0  0  0  0  0  0  0  0  0  0
  153.4508  142.0080  162.9993 H   0  0  0  0  0  0  0  0  0  0  0  0
  152.3205  144.1002  162.2860 H   0  0  0  0  0  0  0  0  0  0  0  0
  151.8476  144.4156  159.8157 H   0  0  0  0  0  0  0  0  0  0  0  0
  152.4948  142.7159  158.2274 H   0  0  0  0  0  0  0  0  0  0  0  0
  155.8489  138.8394  165.9269 H   0  0  0  0  0  0  0  0  0  0  0  0
  156.1605  138.5059  164.2375 H   0  0  0  0  0  0  0  0  0  0  0  0
  157.8086  137.7038  166.6050 H   0  0  0  0  0  0  0  0  0  0  0  0
  157.4873  136.8042  165.1279 H   0  0  0  0  0  0  0  0  0  0  0  0
  159.7613  138.4706  165.7322 H   0  0  0  0  0  0  0  0  0  0  0  0
  159.4436  137.7068  164.1803 H   0  0  0  0  0  0  0  0  0  0  0  0
  158.5279  139.6390  163.2746 H   0  0  0  0  0  0  0  0  0  0  0  0
  159.4564  140.4541  164.5135 H   0  0  0  0  0  0  0  0  0  0  0  0
  1  2  1  0  0  0  0
  1 23  1  0  0  0  0
  1 24  1  0  0  0  0
  1 25  1  0  0  0  0
  2  3  1  0  0  0  0
  2 26  1  0  0  0  0
  2 27  1  0  0  0  0
  3  4  1  0  0  0  0
  4 18  1  0  0  0  0
  4  5  1  0  0  0  0
  4 28  1  0  0  0  0
  5  6  1  0  0  0  0
  5 29  1  0  0  0  0
  5 30  1  0  0  0  0
  6  7  1  0  0  0  0
  6 18  1  0  0  0  0
  6 31  1  0  0  0  0
  7  8  1  0  0  0  0
  7 32  1  0  0  0  0
  8  9  2  0  0  0  0
  8 10  1  0  0  0  0
 10 11  1  0  0  0  0
 10 33  1  0  0  0  0
 10 34  1  0  0  0  0
 11 16  1  0  0  0  0
 11 12  1  0  0  0  0
 12 13  2  0  0  0  0
 12 35  1  0  0  0  0
 13 14  1  0  0  0  0
 13 36  1  0  0  0  0
 14 15  2  0  0  0  0
 14 37  1  0  0  0  0
 15 16  1  0  0  0  0
 15 38  1  0  0  0  0
 16 17  2  0  0  0  0
 18 22  1  0  0  0  0
 18 19  1  0  0  0  0
 19 20  1  0  0  0  0
 19 39  1  0  0  0  0
 19 40  1  0  0  0  0
 20 21  1  0  0  0  0
 20 41  1  0  0  0  0
 20 42  1  0  0  0  0
 21 22  1  0  0  0  0
 21 43  1  0  0  0  0
 21 44  1  0  0  0  0
 22 45  1  0  0  0  0
 22 46  1  0  0  0  0
M  END
> <s_m_source_file>
AV-unprocessed.smi

> <i_m_source_file_index>
690

> <i_lp_mmshare_version>
43012

> <i_f3d_flags>
0

> <s_epik_input>
W0NIMl0xW0NIMl1bQ0gyXVtDSDJdQzEyW0NASF0oT1tDSDJdW0NIM10pW0NIMl1bQ0BIXTJbTkhdQyg9TylbQ0gyXW4zW2NIXVtjSF1bY0hdW2NIXWMzPU8=

> <s_epik_cmdline>
J2VwaWtfcHl0aG9uJywgJy1waCcsICc3LjAnLCAnLXRuJywgJzgnLCAnLW1hJywgJzIwMCcsICctbWV0YWxfYmluZGluZycsICctaW1hZScsICc8aW5maWxlLm1hZT4nLCAnLW9tYWUnLCAnPG91dGZpbGUubWFlPic=

> <r_lp_tautomer_probability>
1

> <r_epik_Ionization_Penalty>
4.11691e-07

> <r_epik_Ionization_Penalty_Charging>
3.92797e-07

> <r_epik_Ionization_Penalty_Neutral>
1.88943e-08

> <r_epik_State_Penalty>
-0

> <r_epik_Charging_Adjusted_Penalty>
3.92797e-07

> <i_epik_Tot_Q>
0

> <i_epik_Tot_abs_Q>
0

> <r_epik_Metal_State_Penalty>
-0

> <b_epik_Metal_Only>
0

> <s_lp_Force_Field>
OPLS_2005

> <r_lp_Energy>
45.5322

> <b_lp_Chiralities_Consistent>
1

> <s_lp_Variant>
AV-unprocessed.smi:690-3

> <Gold.Version>
5.8.1

> <Gold.Id.Protein>
6NUR|6NUR_protein|mol2

> <Gold.PLP.Fitness>
40.7021

> <Gold.PLP.PLP>
-39.2684

> <Gold.PLP.part.hbond>
-2.4766

> <Gold.PLP.part.metal>
0.0000

> <Gold.PLP.part.buried>
-1.8068

> <Gold.PLP.part.nonpolar>
-34.3059

> <Gold.PLP.part.repulsive>
0.0724

> <Gold.PLP.ligand.clash>
0.0000

> <Gold.PLP.ligand.torsion>
0.5838

> <Gold.PLP.Chemscore.Hbond>
0.7520

> <Gold.PLP.Chemscore.CHOScore>
0.0000

> <Gold.PLP.Chemscore.Metal>
0.0000

> <Gold.Chemscore.Hbonds>
donor molecule, donor type, donor heavy atom, donor atom, acceptor molecule, acceptor atom, score
      P1  H  7997  8008       L1    17  0.69

> <Gold.PLP.Chemscore.Internal.Correction>
0.3452

> <Gold.Rescore>
     Score         DG    S(hbond)    S(metal)    S(lipo)     H(rot)  DE(clash)    DE(int)     intcor
     13.44     -14.94       0.92        0.00      91.57       1.69       0.01       1.49       ----

> <Gold.Chemscore.Fitness>
13.4390

> <Gold.Chemscore.DG>
-14.9427

> <Gold.Chemscore.ZeroCoef>
-5.4800

> <Gold.Chemscore.Hbond>
0.9210

> <Gold.Chemscore.Metal>
0.0000

> <Gold.Chemscore.Lipo>
91.5651

> <Gold.Chemscore.Internal_Hbond>
0.0000

> <Gold.Chemscore.DEClash>
0.0132

> <Gold.Chemscore.DEInternal>
1.4904

> <Gold.Chemscore.Rot>
1.6900

> <Gold.Chemscore.Internal.Correction>
   9.000000E+99

> <Gold.Chemscore.Hbonds>
donor molecule, donor type, donor heavy atom, donor atom, acceptor molecule, acceptor atom, score
      P1  H  7997  8008       L1    17  0.65

> <Gold.Chemscore.Hbond.Weighted>
-3.0760

> <Gold.Chemscore.Metal.Weighted>
-0.0000

> <Gold.Chemscore.Lipo.Weighted>
-10.7131

> <Gold.Chemscore.Internal_Hbond.Weighted>
0.0000

> <Gold.Chemscore.DEClash.Weighted>
0.0132

> <Gold.Chemscore.DEInternal.Weighted>
1.4904

> <Gold.Chemscore.Rot.Weighted>
4.3265

> <Gold.Chemscore.Internal.Correction.Weighted>
   9.000000E+99

> <Gold.Protein.RotatedTorsions>
[ 6907 6896 6895 6894 ] final  -35.33 input  -60.11 | X-H torsion
[ 7974 7965 7964 7962 ] final -148.97 input  175.53 | X-H torsion
[ 8008 7997 7996 7995 ] final -109.18 input   59.86 | X-H torsion
[ 10167 10162 10161 10158 ] final  135.41 input  -65.29 | X-H torsion
[ 10718 10713 10712 10709 ] final  178.78 input   66.30 | X-H torsion
[ 10763 10752 10751 10750 ] final   -4.61 input  -60.55 | X-H torsion
[ 11005 11000 10999 10996 ] final   96.85 input  -57.11 | X-H torsion

> <Gold.Protein.ActiveResidues>
 VAL166  LYS551  ARG553  GLY616  TRP617  ASP618  TYR619  PRO620  LYS621  CYS622 
 ASP623  PHE694  ASN695  SER759  ASP760  ASP761  ALA762  ILE779  LEU786  VAL792 
 PHE793  MET794  SER795  GLU796  ALA797  LYS798  CYS799  TRP800  GLU811  SER814 

> <Gold.Protein.RotatedAtoms>
  151.0412  134.9608  159.8162 H   0  0  0  0  0  0  0  0  0  0  0  0  # atno 6907 bound_to 6896
  152.5364  134.2655  159.8962 H   0  0  0  0  0  0  0  0  0  0  0  0  # atno 6908 bound_to 6896
  151.2668  133.4232  159.2653 H   0  0  0  0  0  0  0  0  0  0  0  0  # atno 6909 bound_to 6896
  144.7996  140.5127  143.5716 H   0  0  0  0  0  0  0  0  0  0  0  0  # atno 7974 bound_to 7965
  154.9555  140.0400  157.2165 H   0  0  0  0  0  0  0  0  0  0  0  0  # atno 8008 bound_to 7997
  154.7938  140.2840  155.5950 H   0  0  0  0  0  0  0  0  0  0  0  0  # atno 8009 bound_to 7997
  156.2953  140.2568  156.2791 H   0  0  0  0  0  0  0  0  0  0  0  0  # atno 8010 bound_to 7997
  139.5218  144.6518  151.5280 H   0  0  0  0  0  0  0  0  0  0  0  0  # atno 10167 bound_to 10162
  156.8855  130.9830  151.3056 H   0  0  0  0  0  0  0  0  0  0  0  0  # atno 10718 bound_to 10713
  153.3872  135.7000  153.6521 H   0  0  0  0  0  0  0  0  0  0  0  0  # atno 10763 bound_to 10752
  153.5108  135.3632  155.2586 H   0  0  0  0  0  0  0  0  0  0  0  0  # atno 10764 bound_to 10752
  154.8699  135.4134  154.3182 H   0  0  0  0  0  0  0  0  0  0  0  0  # atno 10765 bound_to 10752
  139.8779  134.8971  156.4220 H   0  0  0  0  0  0  0  0  0  0  0  0  # atno 11005 bound_to 11000
  145.5585  139.1478  143.3354 LP  0  0  0  0  0  0  0  0  0  0  0  0  # atno 17320 bound_to 7965
  146.2274  140.5722  142.8990 LP  0  0  0  0  0  0  0  0  0  0  0  0  # atno 17321 bound_to 7965
  140.6326  143.9046  150.6619 LP  0  0  0  0  0  0  0  0  0  0  0  0  # atno 17342 bound_to 10162
  140.2355  143.3703  152.1530 LP  0  0  0  0  0  0  0  0  0  0  0  0  # atno 17343 bound_to 10162
  157.6115  130.8586  149.8959 LP  0  0  0  0  0  0  0  0  0  0  0  0  # atno 17370 bound_to 10713
  156.0655  130.3693  150.0887 LP  0  0  0  0  0  0  0  0  0  0  0  0  # atno 17371 bound_to 10713
  140.9127  133.7700  155.9811 LP  0  0  0  0  0  0  0  0  0  0  0  0  # atno 17394 bound_to 11000
  140.8528  134.2934  157.5268 LP  0  0  0  0  0  0  0  0  0  0  0  0  # atno 17395 bound_to 11000

$$$$
