AV-unprocessed.smi:654|AV-procd|sdf|3212|dock10
  -GOLD-   22720 0153D 1   1.00000     0.00000
 Structure written by MMmdl.
 47 49  0  0  0  0  0  0  0  0  1 V2000
  146.6562  136.7349  155.4874 O   0  0  0  0  0  0  0  0  0  0  0  0
  146.3849  137.7328  154.8184 C   0  0  0  0  0  0  0  0  0  0  0  0
  145.6197  137.6646  153.7164 N   0  0  0  0  0  0  0  0  0  0  0  0
  144.9563  136.4626  153.2221 C   0  0  0  0  0  0  0  0  0  0  0  0
  144.9330  136.3975  151.6825 C   0  0  0  0  0  0  0  0  0  0  0  0
  145.1817  135.0010  151.1378 C   0  0  0  0  0  0  0  0  0  0  0  0
  144.2324  134.3695  150.3085 C   0  0  0  0  0  0  0  0  0  0  0  0
  144.4983  133.0675  149.8427 C   0  0  0  0  0  0  0  0  0  0  0  0
  145.7065  132.4516  150.2264 C   0  0  0  0  0  0  0  0  0  0  0  0
  146.6234  133.0468  151.0192 N   0  0  0  0  0  0  0  0  0  0  0  0
  146.3613  134.2956  151.4603 C   0  0  0  0  0  0  0  0  0  0  0  0
  146.8396  138.9767  155.1177 N   0  0  0  0  0  0  0  0  0  0  0  0
  146.4004  140.2345  154.4939 C   0  0  0  0  0  0  0  0  0  0  0  0
  147.4867  140.7126  153.5224 C   0  0  0  0  0  0  0  0  0  0  0  0
  149.0335  141.0744  154.4093 S   0  0  0  0  0  0  0  0  0  0  0  0
  149.2592  139.5468  155.3992 C   0  0  0  0  0  0  0  0  0  0  0  0
  149.7433  138.3780  154.4984 C   0  0  0  0  0  0  0  0  0  0  0  0
  151.1667  138.5784  153.9485 C   0  0  0  0  0  0  0  0  0  0  0  0
  152.1743  138.8204  155.0796 C   0  0  0  0  0  0  0  0  0  0  0  0
  151.7426  140.0073  155.9503 C   0  0  0  0  0  0  0  0  0  0  0  0
  150.3187  139.8054  156.5001 C   0  0  0  0  0  0  0  0  0  0  0  0
  147.9140  139.2029  156.0954 C   0  0  0  0  0  0  0  0  0  0  0  0
  145.4487  138.5198  153.2081 H   0  0  0  0  0  0  0  0  0  0  0  0
  145.5051  135.6057  153.6135 H   0  0  0  0  0  0  0  0  0  0  0  0
  143.9447  136.3896  153.6243 H   0  0  0  0  0  0  0  0  0  0  0  0
  143.9723  136.7576  151.3128 H   0  0  0  0  0  0  0  0  0  0  0  0
  145.6847  137.0748  151.2750 H   0  0  0  0  0  0  0  0  0  0  0  0
  143.3146  134.8708  150.0381 H   0  0  0  0  0  0  0  0  0  0  0  0
  143.7927  132.5522  149.2079 H   0  0  0  0  0  0  0  0  0  0  0  0
  145.9424  131.4534  149.8878 H   0  0  0  0  0  0  0  0  0  0  0  0
  147.1107  134.7403  152.0987 H   0  0  0  0  0  0  0  0  0  0  0  0
  145.4465  140.1501  153.9730 H   0  0  0  0  0  0  0  0  0  0  0  0
  146.2306  140.9899  155.2624 H   0  0  0  0  0  0  0  0  0  0  0  0
  147.6743  139.9606  152.7554 H   0  0  0  0  0  0  0  0  0  0  0  0
  147.1630  141.6170  153.0073 H   0  0  0  0  0  0  0  0  0  0  0  0
  149.7221  137.4511  155.0733 H   0  0  0  0  0  0  0  0  0  0  0  0
  149.0625  138.2236  153.6618 H   0  0  0  0  0  0  0  0  0  0  0  0
  151.4639  137.7020  153.3722 H   0  0  0  0  0  0  0  0  0  0  0  0
  151.1842  139.4193  153.2545 H   0  0  0  0  0  0  0  0  0  0  0  0
  152.2557  137.9242  155.6960 H   0  0  0  0  0  0  0  0  0  0  0  0
  153.1659  139.0027  154.6642 H   0  0  0  0  0  0  0  0  0  0  0  0
  152.4422  140.1307  156.7775 H   0  0  0  0  0  0  0  0  0  0  0  0
  151.7948  140.9284  155.3690 H   0  0  0  0  0  0  0  0  0  0  0  0
  150.0340  140.6729  157.0967 H   0  0  0  0  0  0  0  0  0  0  0  0
  150.3359  138.9608  157.1907 H   0  0  0  0  0  0  0  0  0  0  0  0
  147.6238  140.0147  156.7643 H   0  0  0  0  0  0  0  0  0  0  0  0
  148.0458  138.3405  156.7508 H   0  0  0  0  0  0  0  0  0  0  0  0
  1  2  2  0  0  0  0
  2  3  1  0  0  0  0
  2 12  1  0  0  0  0
  3  4  1  0  0  0  0
  3 23  1  0  0  0  0
  4  5  1  0  0  0  0
  4 24  1  0  0  0  0
  4 25  1  0  0  0  0
  5  6  1  0  0  0  0
  5 26  1  0  0  0  0
  5 27  1  0  0  0  0
  6 11  1  0  0  0  0
  6  7  2  0  0  0  0
  7  8  1  0  0  0  0
  7 28  1  0  0  0  0
  8  9  2  0  0  0  0
  8 29  1  0  0  0  0
  9 10  1  0  0  0  0
  9 30  1  0  0  0  0
 10 11  2  0  0  0  0
 11 31  1  0  0  0  0
 12 22  1  0  0  0  0
 12 13  1  0  0  0  0
 13 14  1  0  0  0  0
 13 32  1  0  0  0  0
 13 33  1  0  0  0  0
 14 15  1  0  0  0  0
 14 34  1  0  0  0  0
 14 35  1  0  0  0  0
 15 16  1  0  0  0  0
 16 21  1  0  0  0  0
 16 17  1  0  0  0  0
 16 22  1  0  0  0  0
 17 18  1  0  0  0  0
 17 36  1  0  0  0  0
 17 37  1  0  0  0  0
 18 19  1  0  0  0  0
 18 38  1  0  0  0  0
 18 39  1  0  0  0  0
 19 20  1  0  0  0  0
 19 40  1  0  0  0  0
 19 41  1  0  0  0  0
 20 21  1  0  0  0  0
 20 42  1  0  0  0  0
 20 43  1  0  0  0  0
 21 44  1  0  0  0  0
 21 45  1  0  0  0  0
 22 46  1  0  0  0  0
 22 47  1  0  0  0  0
M  END
> <s_m_source_file>
AV-unprocessed.smi

> <i_m_source_file_index>
654

> <i_lp_mmshare_version>
43012

> <i_f3d_flags>
0

> <s_epik_input>
W2NIXTFuW2NIXVtjSF1bY0hdYzFbQ0gyXVtDSDJdW05IXUMoPU8pTihbQ0gyXTIpW0NIMl1bQ0gyXVNDMjNbQ0gyXVtDSDJdW0NIMl1bQ0gyXVtDSDJdMw==

> <s_epik_cmdline>
J2VwaWtfcHl0aG9uJywgJy1waCcsICc3LjAnLCAnLXRuJywgJzgnLCAnLW1hJywgJzIwMCcsICctbWV0YWxfYmluZGluZycsICctaW1hZScsICc8aW5maWxlLm1hZT4nLCAnLW9tYWUnLCAnPG91dGZpbGUubWFlPic=

> <r_epik_Ionization_Penalty>
0.0144586

> <r_epik_Ionization_Penalty_Charging>
0

> <r_epik_Ionization_Penalty_Neutral>
0.0144586

> <r_epik_State_Penalty>
0.0112665

> <r_epik_Charging_Adjusted_Penalty>
0.0112665

> <i_epik_Tot_Q>
0

> <i_epik_Tot_abs_Q>
0

> <r_epik_Metal_State_Penalty>
0.0109983

> <b_epik_Metal_Only>
0

> <s_lp_Force_Field>
OPLS_2005

> <r_lp_Energy>
31.4252

> <b_lp_Chiralities_Consistent>
1

> <s_lp_Variant>
AV-unprocessed.smi:654-1

> <Gold.Version>
5.8.1

> <Gold.Id.Protein>
6NUR|6NUR_protein|mol2

> <Gold.PLP.Fitness>
35.9740

> <Gold.PLP.PLP>
-33.6153

> <Gold.PLP.part.hbond>
0.0000

> <Gold.PLP.part.metal>
0.0000

> <Gold.PLP.part.buried>
-3.8683

> <Gold.PLP.part.nonpolar>
-30.0348

> <Gold.PLP.part.repulsive>
0.2353

> <Gold.PLP.ligand.clash>
0.0000

> <Gold.PLP.ligand.torsion>
0.5171

> <Gold.PLP.Chemscore.Hbond>
0.0000

> <Gold.PLP.Chemscore.CHOScore>
1.1295

> <Gold.PLP.Chemscore.Metal>
0.0000

> <Gold.Chemscore.Hbonds>
donor molecule, donor type, donor heavy atom, donor atom, acceptor molecule, acceptor atom, score
      L1  C    11    31       P1  7948  1.00

> <Gold.PLP.Chemscore.Internal.Correction>
0.0042

> <Gold.Rescore>
     Score         DG    S(hbond)    S(metal)    S(lipo)     H(rot)  DE(clash)    DE(int)     intcor
     13.51     -14.08       0.00        0.00     100.33       1.23       0.04       0.53       ----

> <Gold.Chemscore.Fitness>
13.5087

> <Gold.Chemscore.DG>
-14.0760

> <Gold.Chemscore.ZeroCoef>
-5.4800

> <Gold.Chemscore.Hbond>
0.0000

> <Gold.Chemscore.Metal>
0.0000

> <Gold.Chemscore.Lipo>
100.3311

> <Gold.Chemscore.Internal_Hbond>
0.0000

> <Gold.Chemscore.DEClash>
0.0366

> <Gold.Chemscore.DEInternal>
0.5307

> <Gold.Chemscore.Rot>
1.2276

> <Gold.Chemscore.Internal.Correction>
   9.000000E+99

> <Gold.Chemscore.Hbond.Weighted>
-0.0000

> <Gold.Chemscore.Metal.Weighted>
-0.0000

> <Gold.Chemscore.Lipo.Weighted>
-11.7387

> <Gold.Chemscore.Internal_Hbond.Weighted>
0.0000

> <Gold.Chemscore.DEClash.Weighted>
0.0366

> <Gold.Chemscore.DEInternal.Weighted>
0.5307

> <Gold.Chemscore.Rot.Weighted>
3.1427

> <Gold.Chemscore.Internal.Correction.Weighted>
   9.000000E+99

> <Gold.Protein.RotatedTorsions>
[ 6907 6896 6895 6894 ] final -137.14 input  -60.11 | X-H torsion
[ 7974 7965 7964 7962 ] final  151.16 input  175.53 | X-H torsion
[ 8008 7997 7996 7995 ] final -157.41 input   59.86 | X-H torsion
[ 10167 10162 10161 10158 ] final  -59.97 input  -65.29 | X-H torsion
[ 10718 10713 10712 10709 ] final  -11.39 input   66.30 | X-H torsion
[ 10763 10752 10751 10750 ] final   -2.53 input  -60.55 | X-H torsion
[ 11005 11000 10999 10996 ] final -139.44 input  -57.11 | X-H torsion

> <Gold.Protein.ActiveResidues>
 VAL166  LYS551  ARG553  GLY616  TRP617  ASP618  TYR619  PRO620  LYS621  CYS622 
 ASP623  PHE694  ASN695  SER759  ASP760  ASP761  ALA762  ILE779  LEU786  VAL792 
 PHE793  MET794  SER795  GLU796  ALA797  LYS798  CYS799  TRP800  GLU811  SER814 

> <Gold.Protein.RotatedAtoms>
  151.0188  133.5896  159.2673 H   0  0  0  0  0  0  0  0  0  0  0  0  # atno 6907 bound_to 6896
  151.3020  135.0770  159.9252 H   0  0  0  0  0  0  0  0  0  0  0  0  # atno 6908 bound_to 6896
  152.5318  133.9868  159.7886 H   0  0  0  0  0  0  0  0  0  0  0  0  # atno 6909 bound_to 6896
  144.8312  139.6502  143.6058 H   0  0  0  0  0  0  0  0  0  0  0  0  # atno 7974 bound_to 7965
  155.7319  140.0803  157.2285 H   0  0  0  0  0  0  0  0  0  0  0  0  # atno 8008 bound_to 7997
  154.4032  140.1593  156.2573 H   0  0  0  0  0  0  0  0  0  0  0  0  # atno 8009 bound_to 7997
  155.9101  140.3404  155.6094 H   0  0  0  0  0  0  0  0  0  0  0  0  # atno 8010 bound_to 7997
  140.6101  143.2385  151.5729 H   0  0  0  0  0  0  0  0  0  0  0  0  # atno 10167 bound_to 10162
  156.6598  130.4978  149.6034 H   0  0  0  0  0  0  0  0  0  0  0  0  # atno 10718 bound_to 10713
  153.3593  135.6989  153.6725 H   0  0  0  0  0  0  0  0  0  0  0  0  # atno 10763 bound_to 10752
  153.5420  135.3571  155.2723 H   0  0  0  0  0  0  0  0  0  0  0  0  # atno 10764 bound_to 10752
  154.8665  135.4206  154.2846 H   0  0  0  0  0  0  0  0  0  0  0  0  # atno 10765 bound_to 10752
  140.8520  134.2275  157.4755 H   0  0  0  0  0  0  0  0  0  0  0  0  # atno 11005 bound_to 11000
  146.2615  139.6421  142.9359 LP  0  0  0  0  0  0  0  0  0  0  0  0  # atno 17320 bound_to 7965
  145.4891  141.0438  143.2603 LP  0  0  0  0  0  0  0  0  0  0  0  0  # atno 17321 bound_to 7965
  139.5355  144.2794  152.1241 LP  0  0  0  0  0  0  0  0  0  0  0  0  # atno 17342 bound_to 10162
  140.1992  144.4675  150.6440 LP  0  0  0  0  0  0  0  0  0  0  0  0  # atno 17343 bound_to 10162
  156.2020  130.6625  151.1177 LP  0  0  0  0  0  0  0  0  0  0  0  0  # atno 17370 bound_to 10713
  157.7113  131.0732  150.6489 LP  0  0  0  0  0  0  0  0  0  0  0  0  # atno 17371 bound_to 10713
  139.8704  134.9688  156.4642 LP  0  0  0  0  0  0  0  0  0  0  0  0  # atno 17394 bound_to 11000
  140.8780  133.7939  155.9435 LP  0  0  0  0  0  0  0  0  0  0  0  0  # atno 17395 bound_to 11000

$$$$
