AV-unprocessed.smi:294|AV-procd|sdf|2252|dock3
  -GOLD-   2262022133D 1   1.00000     0.00000
 Structure written by MMmdl.
 29 30  0  0  0  0  0  0  0  0  1 V2000
  142.0855  135.1516  153.6164 N   0  0  0  0  0  0  0  0  0  0  0  0
  143.0360  135.6145  153.1460 C   0  0  0  0  0  0  0  0  0  0  0  0
  144.2296  136.1956  152.5560 C   0  0  0  0  0  0  0  0  0  0  0  0
  144.9337  135.5458  151.5840 N   0  0  0  0  0  0  0  0  0  0  0  0
  145.8842  136.4493  151.3789 C   0  0  0  0  0  0  0  0  0  0  0  0
  145.7742  137.5376  152.1483 N   0  0  0  0  0  0  0  0  0  0  0  0
  146.5925  138.7339  152.2102 C   0  0  0  0  0  0  0  0  0  0  0  0
  147.3645  138.7925  153.5281 C   0  0  0  0  0  0  0  0  0  0  0  0
  146.7571  138.9135  154.5916 O   0  0  0  0  0  0  0  0  0  0  0  0
  148.6997  138.6896  153.4439 N   0  0  0  0  0  0  0  0  0  0  0  0
  149.6119  138.6761  154.5822 C   0  0  2  0  0  0  0  0  0  0  0  0
  149.7013  140.0644  155.2420 C   0  0  0  0  0  0  0  0  0  0  0  0
  150.9173  140.0862  156.1767 C   0  0  0  0  0  0  0  0  0  0  0  0
  152.1511  138.9524  155.4321 S   0  0  0  0  0  0  0  0  0  0  0  0
  153.2038  139.7361  154.7683 O   0  0  0  0  0  0  0  0  0  0  0  0
  152.4877  137.9062  156.4093 O   0  0  0  0  0  0  0  0  0  0  0  0
  151.0295  138.2599  154.1600 C   0  0  0  0  0  0  0  0  0  0  0  0
  144.6814  137.3889  152.9369 N   0  0  0  0  0  0  0  0  0  0  0  0
  146.6724  136.3192  150.6516 H   0  0  0  0  0  0  0  0  0  0  0  0
  147.2769  138.7511  151.3601 H   0  0  0  0  0  0  0  0  0  0  0  0
  145.9463  139.6080  152.1211 H   0  0  0  0  0  0  0  0  0  0  0  0
  149.1110  138.5898  152.5268 H   0  0  0  0  0  0  0  0  0  0  0  0
  149.2517  137.9736  155.3365 H   0  0  0  0  0  0  0  0  0  0  0  0
  149.8436  140.8212  154.4691 H   0  0  0  0  0  0  0  0  0  0  0  0
  148.7843  140.3212  155.7736 H   0  0  0  0  0  0  0  0  0  0  0  0
  151.3439  141.0818  156.2991 H   0  0  0  0  0  0  0  0  0  0  0  0
  150.6553  139.6966  157.1608 H   0  0  0  0  0  0  0  0  0  0  0  0
  151.1556  137.1791  154.0943 H   0  0  0  0  0  0  0  0  0  0  0  0
  151.3028  138.7011  153.2008 H   0  0  0  0  0  0  0  0  0  0  0  0
  1  2  3  0  0  0  0
  2  3  1  0  0  0  0
  3 18  2  0  0  0  0
  3  4  1  0  0  0  0
  4  5  2  0  0  0  0
  5  6  1  0  0  0  0
  5 19  1  0  0  0  0
  6  7  1  0  0  0  0
  6 18  1  0  0  0  0
  7  8  1  0  0  0  0
  7 20  1  0  0  0  0
  7 21  1  0  0  0  0
  8  9  2  0  0  0  0
  8 10  1  0  0  0  0
 10 11  1  0  0  0  0
 10 22  1  0  0  0  0
 11 17  1  0  0  0  0
 11 12  1  0  0  0  0
 11 23  1  0  0  0  0
 12 13  1  0  0  0  0
 12 24  1  0  0  0  0
 12 25  1  0  0  0  0
 13 14  1  0  0  0  0
 13 26  1  0  0  0  0
 13 27  1  0  0  0  0
 14 15  2  0  0  0  0
 14 16  2  0  0  0  0
 14 17  1  0  0  0  0
 17 28  1  0  0  0  0
 17 29  1  0  0  0  0
M  END
> <s_m_source_file>
AV-unprocessed.smi

> <i_m_source_file_index>
294

> <i_lp_mmshare_version>
43012

> <i_f3d_flags>
0

> <s_epik_input>
TiNDYzFuW2NIXW4objEpW0NIMl1DKD1PKVtOSF1bQ0BASF0oW0NIMl0yKVtDSDJdW0NIMl1TMig9Tyk9Tw==

> <s_epik_cmdline>
J2VwaWtfcHl0aG9uJywgJy1waCcsICc3LjAnLCAnLXRuJywgJzgnLCAnLW1hJywgJzIwMCcsICctbWV0YWxfYmluZGluZycsICctaW1hZScsICc8aW5maWxlLm1hZT4nLCAnLW9tYWUnLCAnPG91dGZpbGUubWFlPic=

> <r_lp_tautomer_probability>
1

> <r_epik_Ionization_Penalty>
6.08231e-07

> <r_epik_Ionization_Penalty_Charging>
0

> <r_epik_Ionization_Penalty_Neutral>
6.08231e-07

> <r_epik_State_Penalty>
-0

> <r_epik_Charging_Adjusted_Penalty>
0

> <i_epik_Tot_Q>
0

> <i_epik_Tot_abs_Q>
0

> <r_epik_Metal_State_Penalty>
-0

> <b_epik_Metal_Only>
0

> <s_lp_Force_Field>
OPLS_2005

> <r_lp_Energy>
6.42809

> <b_lp_Chiralities_Consistent>
1

> <s_lp_Variant>
AV-unprocessed.smi:294-1

> <Gold.Version>
5.8.1

> <Gold.Id.Protein>
6NUR|6NUR_protein|mol2

> <Gold.PLP.Fitness>
36.3728

> <Gold.PLP.PLP>
-30.4635

> <Gold.PLP.part.hbond>
-4.0000

> <Gold.PLP.part.metal>
0.0000

> <Gold.PLP.part.buried>
-2.3035

> <Gold.PLP.part.nonpolar>
-25.5500

> <Gold.PLP.part.repulsive>
1.2637

> <Gold.PLP.ligand.clash>
0.0000

> <Gold.PLP.ligand.torsion>
0.2381

> <Gold.PLP.Chemscore.Hbond>
1.5007

> <Gold.PLP.Chemscore.CHOScore>
0.6260

> <Gold.PLP.Chemscore.Metal>
0.0000

> <Gold.Chemscore.Hbonds>
donor molecule, donor type, donor heavy atom, donor atom, acceptor molecule, acceptor atom, score
      L1  H    10    22       P1  7957  0.60
      P1  H  7989  7998       L1    15  0.07
      P1  H  7997  8008       L1    15  0.99
      L1  C     5    19       P1  7948  0.62

> <Gold.PLP.Chemscore.Internal.Correction>
0.0056

> <Gold.Rescore>
     Score         DG    S(hbond)    S(metal)    S(lipo)     H(rot)  DE(clash)    DE(int)     intcor
     10.08     -11.02       2.08        0.00      35.05       2.15       0.46       0.48       ----

> <Gold.Chemscore.Fitness>
10.0774

> <Gold.Chemscore.DG>
-11.0164

> <Gold.Chemscore.ZeroCoef>
-5.4800

> <Gold.Chemscore.Hbond>
2.0814

> <Gold.Chemscore.Metal>
0.0000

> <Gold.Chemscore.Lipo>
35.0458

> <Gold.Chemscore.Internal_Hbond>
0.0000

> <Gold.Chemscore.DEClash>
0.4633

> <Gold.Chemscore.DEInternal>
0.4757

> <Gold.Chemscore.Rot>
2.1546

> <Gold.Chemscore.Internal.Correction>
   9.000000E+99

> <Gold.Chemscore.Hbonds>
donor molecule, donor type, donor heavy atom, donor atom, acceptor molecule, acceptor atom, score
      L1  H    10    22       P1  7957  0.47
      P1  H  7989  7998       L1    15  0.01
      P1  H  7997  8008       L1    15  0.94

> <Gold.Chemscore.Hbond.Weighted>
-6.9518

> <Gold.Chemscore.Metal.Weighted>
-0.0000

> <Gold.Chemscore.Lipo.Weighted>
-4.1004

> <Gold.Chemscore.Internal_Hbond.Weighted>
0.0000

> <Gold.Chemscore.DEClash.Weighted>
0.4633

> <Gold.Chemscore.DEInternal.Weighted>
0.4757

> <Gold.Chemscore.Rot.Weighted>
5.5158

> <Gold.Chemscore.Internal.Correction.Weighted>
   9.000000E+99

> <Gold.Protein.RotatedTorsions>
[ 6907 6896 6895 6894 ] final -159.73 input  -60.11 | X-H torsion
[ 7974 7965 7964 7962 ] final   72.36 input  175.53 | X-H torsion
[ 8008 7997 7996 7995 ] final   11.76 input   59.86 | X-H torsion
[ 10167 10162 10161 10158 ] final  149.29 input  -65.29 | X-H torsion
[ 10718 10713 10712 10709 ] final -117.54 input   66.30 | X-H torsion
[ 10763 10752 10751 10750 ] final   18.46 input  -60.55 | X-H torsion
[ 11005 11000 10999 10996 ] final   77.73 input  -57.11 | X-H torsion

> <Gold.Protein.ActiveResidues>
 VAL166  LYS551  ARG553  GLY616  TRP617  ASP618  TYR619  PRO620  LYS621  CYS622 
 ASP623  PHE694  ASN695  SER759  ASP760  ASP761  ALA762  ILE779  LEU786  VAL792 
 PHE793  MET794  SER795  GLU796  ALA797  LYS798  CYS799  TRP800  GLU811  SER814 

> <Gold.Protein.RotatedAtoms>
  151.3382  133.3973  159.2668 H   0  0  0  0  0  0  0  0  0  0  0  0  # atno 6907 bound_to 6896
  150.9900  134.9237  159.7904 H   0  0  0  0  0  0  0  0  0  0  0  0  # atno 6908 bound_to 6896
  152.5244  134.3346  159.9247 H   0  0  0  0  0  0  0  0  0  0  0  0  # atno 6909 bound_to 6896
  145.7543  139.2773  143.1413 H   0  0  0  0  0  0  0  0  0  0  0  0  # atno 7974 bound_to 7965
  154.8113  140.2868  155.5851 H   0  0  0  0  0  0  0  0  0  0  0  0  # atno 8008 bound_to 7997
  156.2988  140.2568  156.2932 H   0  0  0  0  0  0  0  0  0  0  0  0  # atno 8009 bound_to 7997
  154.9444  140.0380  157.2102 H   0  0  0  0  0  0  0  0  0  0  0  0  # atno 8010 bound_to 7997
  139.4863  144.5613  151.7226 H   0  0  0  0  0  0  0  0  0  0  0  0  # atno 10167 bound_to 10162
  156.1041  130.6196  150.9177 H   0  0  0  0  0  0  0  0  0  0  0  0  # atno 10718 bound_to 10713
  153.1247  135.6727  153.9276 H   0  0  0  0  0  0  0  0  0  0  0  0  # atno 10763 bound_to 10752
  153.8781  135.3061  155.3445 H   0  0  0  0  0  0  0  0  0  0  0  0  # atno 10764 bound_to 10752
  154.7654  135.4967  153.9624 H   0  0  0  0  0  0  0  0  0  0  0  0  # atno 10765 bound_to 10752
  139.9242  134.7706  156.1558 H   0  0  0  0  0  0  0  0  0  0  0  0  # atno 11005 bound_to 11000
  146.0326  140.8243  142.9868 LP  0  0  0  0  0  0  0  0  0  0  0  0  # atno 17320 bound_to 7965
  144.6843  140.2791  143.7295 LP  0  0  0  0  0  0  0  0  0  0  0  0  # atno 17321 bound_to 7965
  140.5183  144.0918  150.6015 LP  0  0  0  0  0  0  0  0  0  0  0  0  # atno 17342 bound_to 10162
  140.3867  143.2774  152.0107 LP  0  0  0  0  0  0  0  0  0  0  0  0  # atno 17343 bound_to 10162
  157.6215  131.0929  150.8613 LP  0  0  0  0  0  0  0  0  0  0  0  0  # atno 17370 bound_to 10713
  156.8735  130.5154  149.5295 LP  0  0  0  0  0  0  0  0  0  0  0  0  # atno 17371 bound_to 10713
  141.0787  133.6764  156.2291 LP  0  0  0  0  0  0  0  0  0  0  0  0  # atno 17394 bound_to 11000
  140.6384  134.5191  157.5567 LP  0  0  0  0  0  0  0  0  0  0  0  0  # atno 17395 bound_to 11000

$$$$
