AV-unprocessed.smi:304|AV-procd|sdf|2279|dock10
  -GOLD-   2262022173D 1   1.00000     0.00000
 Structure written by MMmdl.
 37 39  0  0  0  0  0  0  0  0  2 V2000
  151.9706  139.3097  154.4496 O   0  0  0  0  0  0  0  0  0  0  0  0
  151.1515  138.7505  155.4577 C   0  0  1  0  0  0  0  0  0  0  0  0
  151.3731  137.2305  155.4803 C   0  0  0  0  0  0  0  0  0  0  0  0
  150.3539  136.6366  156.2660 O   0  0  0  0  0  0  0  0  0  0  0  0
  150.5606  135.2507  156.4836 C   0  0  0  0  0  0  0  0  0  0  0  0
  149.8044  134.5131  155.4263 C   0  0  0  0  0  0  0  0  0  0  0  0
  150.2560  133.4650  154.6652 C   0  0  0  0  0  0  0  0  0  0  0  0
  149.2900  132.9907  153.7297 C   0  0  0  0  0  0  0  0  0  0  0  0
  148.1136  133.6897  153.7801 C   0  0  0  0  0  0  0  0  0  0  0  0
  148.1701  134.9497  154.9822 S   0  0  0  0  0  0  0  0  0  0  0  0
  151.5056  139.4066  156.8069 C   0  0  0  0  0  0  0  0  0  0  0  0
  151.1524  140.8317  156.8558 N   0  0  0  0  0  0  0  0  0  0  0  0
  150.4974  141.6024  155.9455 C   0  0  0  0  0  0  0  0  0  0  0  0
  150.4092  142.8603  156.4605 N   0  3  0  0  0  0  0  0  0  0  0  0
  151.0166  142.8932  157.7181 C   0  0  0  0  0  0  0  0  0  0  0  0
  151.1794  143.9343  158.6264 C   0  0  0  0  0  0  0  0  0  0  0  0
  151.8514  143.6291  159.8286 C   0  0  0  0  0  0  0  0  0  0  0  0
  152.0391  144.6063  160.7469 F   0  0  0  0  0  0  0  0  0  0  0  0
  152.3305  142.3280  160.0920 C   0  0  0  0  0  0  0  0  0  0  0  0
  152.9685  142.0774  161.2596 F   0  0  0  0  0  0  0  0  0  0  0  0
  152.1589  141.2803  159.1633 C   0  0  0  0  0  0  0  0  0  0  0  0
  151.4959  141.5924  157.9776 C   0  0  0  0  0  0  0  0  0  0  0  0
  152.8626  139.3203  154.7629 H   0  0  0  0  0  0  0  0  0  0  0  0
  150.1081  138.9617  155.2201 H   0  0  0  0  0  0  0  0  0  0  0  0
  151.3929  136.8164  154.4704 H   0  0  0  0  0  0  0  0  0  0  0  0
  152.3359  137.0059  155.9422 H   0  0  0  0  0  0  0  0  0  0  0  0
  151.6224  135.0081  156.4217 H   0  0  0  0  0  0  0  0  0  0  0  0
  150.2059  134.9625  157.4743 H   0  0  0  0  0  0  0  0  0  0  0  0
  151.2378  133.0234  154.7489 H   0  0  0  0  0  0  0  0  0  0  0  0
  149.4902  132.1664  153.0613 H   0  0  0  0  0  0  0  0  0  0  0  0
  147.2230  133.5442  153.1868 H   0  0  0  0  0  0  0  0  0  0  0  0
  151.0055  138.8997  157.6332 H   0  0  0  0  0  0  0  0  0  0  0  0
  152.5767  139.3271  156.9979 H   0  0  0  0  0  0  0  0  0  0  0  0
  150.1123  141.2733  154.9909 H   0  0  0  0  0  0  0  0  0  0  0  0
  150.8131  144.9311  158.4293 H   0  0  0  0  0  0  0  0  0  0  0  0
  152.5271  140.2876  159.3746 H   0  0  0  0  0  0  0  0  0  0  0  0
  149.9640  143.6359  155.9866 H   0  0  0  0  0  0  0  0  0  0  0  0
  1  2  1  0  0  0  0
  1 23  1  0  0  0  0
  2  3  1  0  0  0  0
  2 11  1  0  0  0  0
  2 24  1  0  0  0  0
  3  4  1  0  0  0  0
  3 25  1  0  0  0  0
  3 26  1  0  0  0  0
  4  5  1  0  0  0  0
  5  6  1  0  0  0  0
  5 27  1  0  0  0  0
  5 28  1  0  0  0  0
  6 10  1  0  0  0  0
  6  7  2  0  0  0  0
  7  8  1  0  0  0  0
  7 29  1  0  0  0  0
  8  9  2  0  0  0  0
  8 30  1  0  0  0  0
  9 10  1  0  0  0  0
  9 31  1  0  0  0  0
 11 12  1  0  0  0  0
 11 32  1  0  0  0  0
 11 33  1  0  0  0  0
 12 22  1  0  0  0  0
 12 13  1  0  0  0  0
 13 14  2  0  0  0  0
 13 34  1  0  0  0  0
 14 15  1  0  0  0  0
 14 37  1  0  0  0  0
 15 22  2  0  0  0  0
 15 16  1  0  0  0  0
 16 17  2  0  0  0  0
 16 35  1  0  0  0  0
 17 18  1  0  0  0  0
 17 19  1  0  0  0  0
 19 20  1  0  0  0  0
 19 21  2  0  0  0  0
 21 22  1  0  0  0  0
 21 36  1  0  0  0  0
M  CHG  1  14   1
M  END
> <s_m_source_file>
AV-unprocessed.smi

> <i_m_source_file_index>
304

> <i_lp_mmshare_version>
43012

> <i_f3d_flags>
0

> <s_epik_input>
W2NIXTFjKEYpYyhGKVtjSF1jKGMxMiluKFtjSF1uMilbQ0gyXVtDQEhdKFtPSF0pW0NIMl1PW0NIMl1jM1tjSF1bY0hdW2NIXXMz

> <s_epik_cmdline>
J2VwaWtfcHl0aG9uJywgJy1waCcsICc3LjAnLCAnLXRuJywgJzgnLCAnLW1hJywgJzIwMCcsICctbWV0YWxfYmluZGluZycsICctaW1hZScsICc8aW5maWxlLm1hZT4nLCAnLW9tYWUnLCAnPG91dGZpbGUubWFlPic=

> <r_epik_Ionization_Penalty>
2.17745

> <r_epik_Ionization_Penalty_Charging>
2.17744

> <r_epik_Ionization_Penalty_Neutral>
1.26231e-06

> <r_epik_State_Penalty>
2.31922

> <r_epik_Charging_Adjusted_Penalty>
4.49666

> <i_epik_Tot_Q>
1

> <i_epik_Tot_abs_Q>
1

> <r_epik_Metal_State_Penalty>
6.40003

> <b_epik_Metal_Only>
0

> <s_lp_Force_Field>
OPLS_2005

> <r_lp_Energy>
12.5781

> <b_lp_Chiralities_Consistent>
1

> <s_lp_Variant>
AV-unprocessed.smi:304-4

> <Gold.Version>
5.8.1

> <Gold.Id.Protein>
6NUR|6NUR_protein|mol2

> <Gold.PLP.Fitness>
53.9944

> <Gold.PLP.PLP>
-46.3681

> <Gold.PLP.part.hbond>
-2.0000

> <Gold.PLP.part.metal>
0.0000

> <Gold.PLP.part.buried>
-5.3083

> <Gold.PLP.part.nonpolar>
-38.7848

> <Gold.PLP.part.repulsive>
0.1077

> <Gold.PLP.ligand.clash>
0.0000

> <Gold.PLP.ligand.torsion>
0.5482

> <Gold.PLP.Chemscore.Hbond>
2.8800

> <Gold.PLP.Chemscore.CHOScore>
0.0000

> <Gold.PLP.Chemscore.Metal>
0.0000

> <Gold.Chemscore.Hbonds>
donor molecule, donor type, donor heavy atom, donor atom, acceptor molecule, acceptor atom, score
      L1  H    14    37       P1  8028  2.00
      P1  H  7989  7998       L1     1  0.90

> <Gold.PLP.Chemscore.Internal.Correction>
0.0827

> <Gold.Rescore>
     Score         DG    S(hbond)    S(metal)    S(lipo)     H(rot)  DE(clash)    DE(int)     intcor
     15.92     -16.41       1.84        0.00     100.54       2.73       0.14       0.36       ----

> <Gold.Chemscore.Fitness>
15.9166

> <Gold.Chemscore.DG>
-16.4145

> <Gold.Chemscore.ZeroCoef>
-5.4800

> <Gold.Chemscore.Hbond>
1.8412

> <Gold.Chemscore.Metal>
0.0000

> <Gold.Chemscore.Lipo>
100.5381

> <Gold.Chemscore.Internal_Hbond>
0.0000

> <Gold.Chemscore.DEClash>
0.1413

> <Gold.Chemscore.DEInternal>
0.3566

> <Gold.Chemscore.Rot>
2.7258

> <Gold.Chemscore.Internal.Correction>
   9.000000E+99

> <Gold.Chemscore.Hbonds>
donor molecule, donor type, donor heavy atom, donor atom, acceptor molecule, acceptor atom, score
      L1  H    14    37       P1  8028  0.96
      P1  H  7989  7998       L1     1  0.57

> <Gold.Chemscore.Hbond.Weighted>
-6.1496

> <Gold.Chemscore.Metal.Weighted>
-0.0000

> <Gold.Chemscore.Lipo.Weighted>
-11.7630

> <Gold.Chemscore.Internal_Hbond.Weighted>
0.0000

> <Gold.Chemscore.DEClash.Weighted>
0.1413

> <Gold.Chemscore.DEInternal.Weighted>
0.3566

> <Gold.Chemscore.Rot.Weighted>
6.9781

> <Gold.Chemscore.Internal.Correction.Weighted>
   9.000000E+99

> <Gold.Protein.RotatedTorsions>
[ 6907 6896 6895 6894 ] final   58.34 input  -60.11 | X-H torsion
[ 7974 7965 7964 7962 ] final   60.17 input  175.53 | X-H torsion
[ 8008 7997 7996 7995 ] final -105.20 input   59.86 | X-H torsion
[ 10167 10162 10161 10158 ] final   20.09 input  -65.29 | X-H torsion
[ 10718 10713 10712 10709 ] final  -64.10 input   66.30 | X-H torsion
[ 10763 10752 10751 10750 ] final  129.22 input  -60.55 | X-H torsion
[ 11005 11000 10999 10996 ] final  129.28 input  -57.11 | X-H torsion

> <Gold.Protein.ActiveResidues>
 VAL166  LYS551  ARG553  GLY616  TRP617  ASP618  TYR619  PRO620  LYS621  CYS622 
 ASP623  PHE694  ASN695  SER759  ASP760  ASP761  ALA762  ILE779  LEU786  VAL792 
 PHE793  MET794  SER795  GLU796  ALA797  LYS798  CYS799  TRP800  GLU811  SER814 

> <Gold.Protein.RotatedAtoms>
  152.3815  134.6583  160.0140 H   0  0  0  0  0  0  0  0  0  0  0  0  # atno 6907 bound_to 6896
  151.6845  133.3306  159.3235 H   0  0  0  0  0  0  0  0  0  0  0  0  # atno 6908 bound_to 6896
  150.7751  134.6688  159.6425 H   0  0  0  0  0  0  0  0  0  0  0  0  # atno 6909 bound_to 6896
  145.8990  139.3567  143.0603 H   0  0  0  0  0  0  0  0  0  0  0  0  # atno 7974 bound_to 7965
  154.8963  140.0414  157.1867 H   0  0  0  0  0  0  0  0  0  0  0  0  # atno 8008 bound_to 7997
  154.8489  140.2926  155.5590 H   0  0  0  0  0  0  0  0  0  0  0  0  # atno 8009 bound_to 7997
  156.2995  140.2468  156.3444 H   0  0  0  0  0  0  0  0  0  0  0  0  # atno 8010 bound_to 7997
  140.5530  143.9476  150.6590 H   0  0  0  0  0  0  0  0  0  0  0  0  # atno 10167 bound_to 10162
  156.0750  130.4229  150.1372 H   0  0  0  0  0  0  0  0  0  0  0  0  # atno 10718 bound_to 10713
  153.7382  135.3228  155.3299 H   0  0  0  0  0  0  0  0  0  0  0  0  # atno 10763 bound_to 10752
  154.8304  135.4538  154.1053 H   0  0  0  0  0  0  0  0  0  0  0  0  # atno 10764 bound_to 10752
  153.2220  135.6949  153.8070 H   0  0  0  0  0  0  0  0  0  0  0  0  # atno 10765 bound_to 10752
  139.9606  134.9603  156.9124 H   0  0  0  0  0  0  0  0  0  0  0  0  # atno 11005 bound_to 11000
  145.8814  140.9360  143.0599 LP  0  0  0  0  0  0  0  0  0  0  0  0  # atno 17320 bound_to 7965
  144.6734  140.0785  143.7470 LP  0  0  0  0  0  0  0  0  0  0  0  0  # atno 17321 bound_to 7965
  140.2906  143.3326  152.1065 LP  0  0  0  0  0  0  0  0  0  0  0  0  # atno 17342 bound_to 10162
  139.5035  144.6757  151.6134 LP  0  0  0  0  0  0  0  0  0  0  0  0  # atno 17343 bound_to 10162
  156.9415  130.9746  151.3515 LP  0  0  0  0  0  0  0  0  0  0  0  0  # atno 17370 bound_to 10713
  157.5840  130.8396  149.8563 LP  0  0  0  0  0  0  0  0  0  0  0  0  # atno 17371 bound_to 10713
  140.5508  134.0629  155.7368 LP  0  0  0  0  0  0  0  0  0  0  0  0  # atno 17394 bound_to 11000
  141.1283  133.9345  157.2589 LP  0  0  0  0  0  0  0  0  0  0  0  0  # atno 17395 bound_to 11000

$$$$
