#       Name:                AV-unprocessed.smi:3350
#       Creating user name   scv26
#       Creation time:       Fri Mar 27 19:37:50 2020


#       File generated by GOLD software.
#

@<TRIPOS>MOLECULE
AV-unprocessed.smi:3350
    46    47     1
SMALL
NO_CHARGES


@<TRIPOS>ATOM
      1 ****        -3.1190  -2.5330   2.3160 C.3            1 S1                 0.0000
      2 ****        -2.5720  -1.5457   1.2760 C.3            1 S1                 0.0000
      3 ****        -2.8509  -2.0323  -0.1632 C.3            1 S1                 0.0000
      4 ****        -2.5052  -1.0427  -1.1691 N.pl3          1 S1                 0.0000
      5 ****        -1.3933  -0.9988  -1.9847 C.2            1 S1                 0.0000
      6 ****        -1.4964   0.1258  -2.7519 C.2            1 S1                 0.0000
      7 ****        -2.7220   0.7116  -2.3289 C.2            1 S1                 0.0000
      8 ****        -3.3257   0.0078  -1.3849 N.2            1 S1                 0.0000
      9 ****        -1.1361  -1.3737   1.4932 N.am           1 S1                 0.0000
     10 ****        -0.4629  -0.2201   1.3763 C.2            1 S1                 0.0000
     11 ****        -0.9908   0.8651   1.1331 O.2            1 S1                 0.0000
     12 ****         0.8582  -0.4059   1.5204 N.am           1 S1                 0.0000
     13 ****         1.9172   0.5903   1.3435 C.3            1 S1                 0.0000
     14 ****         1.8313   1.6933   2.4153 C.3            1 S1                 0.0000
     15 ****         1.9409   1.1473  -0.0987 C.3            1 S1                 0.0000
     16 ****         3.1575   2.0161  -0.4262 C.3            1 S1                 0.0000
     17 ****         3.3450   1.8370  -1.9262 C.3            1 S1                 0.0000
     18 ****         2.3997   0.6898  -2.2883 C.3            1 S1                 0.0000
     19 ****         2.0625   0.0950  -1.0445 O.3            1 S1                 0.0000
     20 ****        -4.1953  -2.6660   2.2016 H              1 S1                 0.0000
     21 ****        -2.9395  -2.1747   3.3303 H              1 S1                 0.0000
     22 ****        -2.6508  -3.5134   2.2199 H              1 S1                 0.0000
     23 ****        -3.0870  -0.5961   1.4330 H              1 S1                 0.0000
     24 ****        -2.2992  -2.9501  -0.3714 H              1 S1                 0.0000
     25 ****        -3.9084  -2.2743  -0.2789 H              1 S1                 0.0000
     26 ****        -0.6258  -1.7576  -1.9452 H              1 S1                 0.0000
     27 ****        -0.8014   0.4778  -3.4995 H              1 S1                 0.0000
     28 ****        -3.1885   1.6207  -2.6786 H              1 S1                 0.0000
     29 ****        -0.6074  -2.2088   1.6981 H              1 S1                 0.0000
     30 ****         1.1704  -1.3452   1.7185 H              1 S1                 0.0000
     31 ****         2.8500   0.0494   1.5071 H              1 S1                 0.0000
     32 ****         2.6993   2.3515   2.3726 H              1 S1                 0.0000
     33 ****         1.7977   1.2650   3.4174 H              1 S1                 0.0000
     34 ****         0.9447   2.3148   2.2886 H              1 S1                 0.0000
     35 ****         1.0306   1.7086  -0.3173 H              1 S1                 0.0000
     36 ****         3.0119   3.0585  -0.1413 H              1 S1                 0.0000
     37 ****         4.0413   1.6470   0.0962 H              1 S1                 0.0000
     38 ****         3.0908   2.7411  -2.4801 H              1 S1                 0.0000
     39 ****         4.3812   1.5835  -2.1533 H              1 S1                 0.0000
     40 ****         1.4943   1.0748  -2.7590 H              1 S1                 0.0000
     41 ****         2.8542  -0.0338  -2.9652 H              1 S1                 0.0000
     42 ****        -4.1947   0.2088  -0.9327 LP             1 S1                 0.0000
     43 ****        -1.9815   0.9227   1.0097 LP             1 S1                 0.0000
     44 ****        -0.4290   1.6890   1.0589 LP             1 S1                 0.0000
     45 ****         1.1957  -0.3974  -1.1234 LP             1 S1                 0.0000
     46 ****         2.7817  -0.5395  -0.7614 LP             1 S1                 0.0000
@<TRIPOS>BOND
    1    1    2 1     
    2    1   20 1     
    3    1   21 1     
    4    1   22 1     
    5    2    3 1     
    6    2    9 1     
    7    2   23 1     
    8    3    4 1     
    9    3   24 1     
   10    3   25 1     
   11    4    8 1     
   12    4    5 1     
   13    5    6 2     
   14    5   26 1     
   15    6    7 1     
   16    6   27 1     
   17    7    8 2     
   18    7   28 1     
   19    9   10 am    
   20    9   29 1     
   21   10   11 2     
   22   10   12 am    
   23   12   13 1     
   24   12   30 1     
   25   13   14 1     
   26   13   15 1     
   27   13   31 1     
   28   14   32 1     
   29   14   33 1     
   30   14   34 1     
   31   15   19 1     
   32   15   16 1     
   33   15   35 1     
   34   16   17 1     
   35   16   36 1     
   36   16   37 1     
   37   17   18 1     
   38   17   38 1     
   39   17   39 1     
   40   18   19 1     
   41   18   40 1     
   42   18   41 1     
   43    8   42 1     
   44   11   43 1     
   45   11   44 1     
   46   19   45 1     
   47   19   46 1     
@<TRIPOS>SUBSTRUCTURE
      1 S1             1
@<TRIPOS>SET
LONE_PAIRS      STATIC     ATOMS    <user>   **** ""
5 42 43 44 45 46
DONOR_HYDROGENS      STATIC     ATOMS    <user>   **** ""
2 29 30
ATOM$BLUE        STATIC     ATOMS    COLORGROUP SYSTEM
5 42 43 44 45 46
ATOM$RED        STATIC     ATOMS    COLORGROUP SYSTEM
2 29 30
