AV-unprocessed.smi:686|AV-procd|sdf|3348|dock10
  -GOLD-   22720 0323D 1   1.00000     0.00000
 Structure written by MMmdl.
 40 41  0  0  0  0  0  0  0  0  3 V2000
  147.1741  140.7778  152.9078 C   0  0  0  0  0  0  0  0  0  0  0  0
  146.6371  139.3990  153.3457 C   0  0  1  0  0  0  0  0  0  0  0  0
  146.4124  138.3982  152.1993 C   0  0  0  0  0  0  0  0  0  0  0  0
  146.6660  137.0443  152.7565 N   0  3  2  0  0  0  0  0  0  0  0  0
  145.6945  135.9912  152.3473 C   0  0  0  0  0  0  0  0  0  0  0  0
  146.0548  134.6173  152.9447 C   0  0  0  0  0  0  0  0  0  0  0  0
  145.6166  135.8793  150.8131 C   0  0  0  0  0  0  0  0  0  0  0  0
  146.8679  137.2085  154.2156 C   0  0  0  0  0  0  0  0  0  0  0  0
  147.4484  138.6155  154.3926 C   0  0  1  0  0  0  0  0  0  0  0  0
  148.8737  138.6107  154.0637 N   0  5  0  0  0  0  0  0  0  0  0  0
  149.9651  139.3832  154.9912 S   0  0  0  0  0  0  0  0  0  0  0  0
  150.1173  140.8115  154.6655 O   0  0  0  0  0  0  0  0  0  0  0  0
  149.7722  139.0510  156.4109 O   0  0  0  0  0  0  0  0  0  0  0  0
  151.5473  138.5580  154.5014 C   0  0  0  0  0  0  0  0  0  0  0  0
  152.1216  137.8134  155.6737 C   0  0  0  0  0  0  0  0  0  0  0  0
  152.6740  138.3408  156.8740 C   0  0  0  0  0  0  0  0  0  0  0  0
  153.0336  137.2273  157.5765 C   0  0  0  0  0  0  0  0  0  0  0  0
  152.7232  136.1053  156.8798 O   0  0  0  0  0  0  0  0  0  0  0  0
  152.1385  136.4894  155.6678 N   0  0  0  0  0  0  0  0  0  0  0  0
  148.1327  140.7057  152.3912 H   0  0  0  0  0  0  0  0  0  0  0  0
  147.3008  141.4522  153.7564 H   0  0  0  0  0  0  0  0  0  0  0  0
  146.4765  141.2551  152.2194 H   0  0  0  0  0  0  0  0  0  0  0  0
  145.6595  139.5778  153.7974 H   0  0  0  0  0  0  0  0  0  0  0  0
  145.3988  138.5028  151.8094 H   0  0  0  0  0  0  0  0  0  0  0  0
  147.1023  138.5678  151.3707 H   0  0  0  0  0  0  0  0  0  0  0  0
  144.7103  136.2745  152.7236 H   0  0  0  0  0  0  0  0  0  0  0  0
  145.3674  133.8468  152.5940 H   0  0  0  0  0  0  0  0  0  0  0  0
  145.9978  134.6161  154.0333 H   0  0  0  0  0  0  0  0  0  0  0  0
  147.0630  134.3135  152.6610 H   0  0  0  0  0  0  0  0  0  0  0  0
  144.9185  135.0970  150.5139 H   0  0  0  0  0  0  0  0  0  0  0  0
  146.5893  135.6339  150.3854 H   0  0  0  0  0  0  0  0  0  0  0  0
  145.2738  136.8039  150.3490 H   0  0  0  0  0  0  0  0  0  0  0  0
  145.9039  137.1502  154.7239 H   0  0  0  0  0  0  0  0  0  0  0  0
  147.5053  136.4250  154.6267 H   0  0  0  0  0  0  0  0  0  0  0  0
  147.2565  139.0001  155.3946 H   0  0  0  0  0  0  0  0  0  0  0  0
  151.3366  137.8787  153.6757 H   0  0  0  0  0  0  0  0  0  0  0  0
  152.2434  139.3143  154.1390 H   0  0  0  0  0  0  0  0  0  0  0  0
  152.7943  139.3731  157.1670 H   0  0  0  0  0  0  0  0  0  0  0  0
  153.4965  137.0753  158.5401 H   0  0  0  0  0  0  0  0  0  0  0  0
  147.5698  136.7697  152.3979 H   0  0  0  0  0  0  0  0  0  0  0  0
  1  2  1  0  0  0  0
  1 20  1  0  0  0  0
  1 21  1  0  0  0  0
  1 22  1  0  0  0  0
  2  9  1  0  0  0  0
  2  3  1  0  0  0  0
  2 23  1  0  0  0  0
  3  4  1  0  0  0  0
  3 24  1  0  0  0  0
  3 25  1  0  0  0  0
  4  5  1  0  0  0  0
  4  8  1  0  0  0  0
  4 40  1  0  0  0  0
  5  6  1  0  0  0  0
  5  7  1  0  0  0  0
  5 26  1  0  0  0  0
  6 27  1  0  0  0  0
  6 28  1  0  0  0  0
  6 29  1  0  0  0  0
  7 30  1  0  0  0  0
  7 31  1  0  0  0  0
  7 32  1  0  0  0  0
  8  9  1  0  0  0  0
  8 33  1  0  0  0  0
  8 34  1  0  0  0  0
  9 10  1  0  0  0  0
  9 35  1  0  0  0  0
 10 11  1  0  0  0  0
 11 12  2  0  0  0  0
 11 13  2  0  0  0  0
 11 14  1  0  0  0  0
 14 15  1  0  0  0  0
 14 36  1  0  0  0  0
 14 37  1  0  0  0  0
 15 19  2  0  0  0  0
 15 16  1  0  0  0  0
 16 17  2  0  0  0  0
 16 38  1  0  0  0  0
 17 18  1  0  0  0  0
 17 39  1  0  0  0  0
 18 19  1  0  0  0  0
M  CHG  1   4   1
M  CHG  1  10  -1
M  END
> <s_m_source_file>
AV-unprocessed.smi

> <i_m_source_file_index>
686

> <i_lp_mmshare_version>
43012

> <i_f3d_flags>
0

> <s_epik_input>
W0NIM11bQ0BASF0xW0NIMl1OKFtDSF0oW0NIM10pW0NIM10pW0NIMl1bQ0BIXTFbTkhdUyg9TykoPU8pW0NIMl1jMltjSF1bY0hdb24y

> <s_epik_cmdline>
J2VwaWtfcHl0aG9uJywgJy1waCcsICc3LjAnLCAnLXRuJywgJzgnLCAnLW1hJywgJzIwMCcsICctbWV0YWxfYmluZGluZycsICctaW1hZScsICc8aW5maWxlLm1hZT4nLCAnLW9tYWUnLCAnPG91dGZpbGUubWFlPic=

> <r_epik_Ionization_Penalty>
3.62478

> <r_epik_Ionization_Penalty_Charging>
3.62478

> <r_epik_Ionization_Penalty_Neutral>
2.03645e-10

> <r_epik_State_Penalty>
3.6247

> <r_epik_Charging_Adjusted_Penalty>
7.24949

> <i_epik_Tot_Q>
0

> <i_epik_Tot_abs_Q>
2

> <r_epik_Metal_State_Penalty>
0.530836

> <b_epik_Metal_Only>
1

> <s_lp_Force_Field>
OPLS_2005

> <r_lp_Energy>
18.5921

> <b_lp_Chiralities_Consistent>
1

> <s_lp_Variant>
AV-unprocessed.smi:686-12

> <Gold.Version>
5.8.1

> <Gold.Id.Protein>
6NUR|6NUR_protein|mol2

> <Gold.PLP.Fitness>
36.3118

> <Gold.PLP.PLP>
-25.6633

> <Gold.PLP.part.hbond>
-3.8774

> <Gold.PLP.part.metal>
0.0000

> <Gold.PLP.part.buried>
-3.1904

> <Gold.PLP.part.nonpolar>
-19.6869

> <Gold.PLP.part.repulsive>
0.4028

> <Gold.PLP.ligand.clash>
0.0000

> <Gold.PLP.ligand.torsion>
0.8648

> <Gold.PLP.Chemscore.Hbond>
3.7600

> <Gold.PLP.Chemscore.CHOScore>
0.0000

> <Gold.PLP.Chemscore.Metal>
0.0000

> <Gold.Chemscore.Hbonds>
donor molecule, donor type, donor heavy atom, donor atom, acceptor molecule, acceptor atom, score
      L1  H     4    40       P1  7948  2.00
      P1  H  7989  7998       L1    12  0.75
      P1  H 10752 10763       L1    19  0.98

> <Gold.PLP.Chemscore.Internal.Correction>
1.0980

> <Gold.Rescore>
     Score         DG    S(hbond)    S(metal)    S(lipo)     H(rot)  DE(clash)    DE(int)     intcor
     15.10     -16.23       2.20        0.00      64.53       1.61       0.22       0.91       ----

> <Gold.Chemscore.Fitness>
15.1049

> <Gold.Chemscore.DG>
-16.2330

> <Gold.Chemscore.ZeroCoef>
-5.4800

> <Gold.Chemscore.Hbond>
2.1969

> <Gold.Chemscore.Metal>
0.0000

> <Gold.Chemscore.Lipo>
64.5262

> <Gold.Chemscore.Internal_Hbond>
0.0000

> <Gold.Chemscore.DEClash>
0.2171

> <Gold.Chemscore.DEInternal>
0.9110

> <Gold.Chemscore.Rot>
1.6149

> <Gold.Chemscore.Internal.Correction>
   9.000000E+99

> <Gold.Chemscore.Hbonds>
donor molecule, donor type, donor heavy atom, donor atom, acceptor molecule, acceptor atom, score
      L1  H     4    40       P1  7948  0.97
      P1  H  7989  7998       L1    12  0.38
      P1  H 10752 10763       L1    19  0.23

> <Gold.Chemscore.Hbond.Weighted>
-7.3376

> <Gold.Chemscore.Metal.Weighted>
-0.0000

> <Gold.Chemscore.Lipo.Weighted>
-7.5496

> <Gold.Chemscore.Internal_Hbond.Weighted>
0.0000

> <Gold.Chemscore.DEClash.Weighted>
0.2171

> <Gold.Chemscore.DEInternal.Weighted>
0.9110

> <Gold.Chemscore.Rot.Weighted>
4.1341

> <Gold.Chemscore.Internal.Correction.Weighted>
   9.000000E+99

> <Gold.Protein.RotatedTorsions>
[ 6907 6896 6895 6894 ] final   50.26 input  -60.11 | X-H torsion
[ 7974 7965 7964 7962 ] final -108.27 input  175.53 | X-H torsion
[ 8008 7997 7996 7995 ] final   50.84 input   59.86 | X-H torsion
[ 10167 10162 10161 10158 ] final  -18.52 input  -65.29 | X-H torsion
[ 10718 10713 10712 10709 ] final  -78.58 input   66.30 | X-H torsion
[ 10763 10752 10751 10750 ] final   63.45 input  -60.55 | X-H torsion
[ 11005 11000 10999 10996 ] final  -37.07 input  -57.11 | X-H torsion

> <Gold.Protein.ActiveResidues>
 VAL166  LYS551  ARG553  GLY616  TRP617  ASP618  TYR619  PRO620  LYS621  CYS622 
 ASP623  PHE694  ASN695  SER759  ASP760  ASP761  ALA762  ILE779  LEU786  VAL792 
 PHE793  MET794  SER795  GLU796  ALA797  LYS798  CYS799  TRP800  GLU811  SER814 

> <Gold.Protein.RotatedAtoms>
  152.2999  134.7623  160.0359 H   0  0  0  0  0  0  0  0  0  0  0  0  # atno 6907 bound_to 6896
  151.8140  133.3380  159.3572 H   0  0  0  0  0  0  0  0  0  0  0  0  # atno 6908 bound_to 6896
  150.7269  134.5566  159.5866 H   0  0  0  0  0  0  0  0  0  0  0  0  # atno 6909 bound_to 6896
  145.1950  140.9031  143.3403 H   0  0  0  0  0  0  0  0  0  0  0  0  # atno 7974 bound_to 7965
  155.4255  140.3448  155.4275 H   0  0  0  0  0  0  0  0  0  0  0  0  # atno 8008 bound_to 7997
  156.1368  140.1530  156.9013 H   0  0  0  0  0  0  0  0  0  0  0  0  # atno 8009 bound_to 7997
  154.4938  140.0833  156.7632 H   0  0  0  0  0  0  0  0  0  0  0  0  # atno 8010 bound_to 7997
  140.7259  143.4909  150.9994 H   0  0  0  0  0  0  0  0  0  0  0  0  # atno 10167 bound_to 10162
  156.0114  130.4522  150.3519 H   0  0  0  0  0  0  0  0  0  0  0  0  # atno 10718 bound_to 10713
  153.0018  135.5428  154.6354 H   0  0  0  0  0  0  0  0  0  0  0  0  # atno 10763 bound_to 10752
  154.5621  135.2835  155.0911 H   0  0  0  0  0  0  0  0  0  0  0  0  # atno 10764 bound_to 10752
  154.2109  135.6467  153.5167 H   0  0  0  0  0  0  0  0  0  0  0  0  # atno 10765 bound_to 10752
  140.9923  133.6998  156.1873 H   0  0  0  0  0  0  0  0  0  0  0  0  # atno 11005 bound_to 11000
  145.0004  139.3604  143.6170 LP  0  0  0  0  0  0  0  0  0  0  0  0  # atno 17320 bound_to 7965
  146.3429  139.9225  142.8765 LP  0  0  0  0  0  0  0  0  0  0  0  0  # atno 17321 bound_to 7965
  139.8613  143.7311  152.3173 LP  0  0  0  0  0  0  0  0  0  0  0  0  # atno 17342 bound_to 10162
  139.7527  144.7529  151.0481 LP  0  0  0  0  0  0  0  0  0  0  0  0  # atno 17343 bound_to 10162
  157.1611  131.0345  151.2840 LP  0  0  0  0  0  0  0  0  0  0  0  0  # atno 17370 bound_to 10713
  157.4310  130.7491  149.6990 LP  0  0  0  0  0  0  0  0  0  0  0  0  # atno 17371 bound_to 10713
  140.7020  134.4554  157.5586 LP  0  0  0  0  0  0  0  0  0  0  0  0  # atno 17394 bound_to 11000
  139.8998  134.8582  156.1944 LP  0  0  0  0  0  0  0  0  0  0  0  0  # atno 17395 bound_to 11000

$$$$
