AV-unprocessed.smi:1920|AV-procd|sdf|7780|dock6
  -GOLD-   22720 9523D 1   1.00000     0.00000
 Structure written by MMmdl.
 37 38  0  0  0  0  0  0  0  0  2 V2000
  148.4470  140.4630  157.0329 C   0  0  0  0  0  0  0  0  0  0  0  0
  149.0610  141.1524  155.8071 C   0  0  1  0  0  0  0  0  0  0  0  0
  147.9929  141.4254  154.7268 C   0  0  0  0  0  0  0  0  0  0  0  0
  147.7959  140.2924  153.8161 N   0  0  0  0  0  0  0  0  0  0  0  0
  146.8548  140.1783  152.8250 C   0  0  0  0  0  0  0  0  0  0  0  0
  147.0481  138.9529  152.2414 C   0  0  0  0  0  0  0  0  0  0  0  0
  148.1037  138.3750  152.8942 N   0  3  0  0  0  0  0  0  0  0  0  0
  148.5591  139.1922  153.8492 C   0  0  0  0  0  0  0  0  0  0  0  0
  149.7034  142.3944  156.2352 N   0  0  0  0  0  0  0  0  0  0  0  0
  150.8593  142.4893  156.9116 C   0  0  0  0  0  0  0  0  0  0  0  0
  151.5283  141.5117  157.2476 O   0  0  0  0  0  0  0  0  0  0  0  0
  151.3294  143.9087  157.2517 C   0  0  0  0  0  0  0  0  0  0  0  0
  152.2955  143.9885  158.4554 C   0  0  1  0  0  0  0  0  0  0  0  0
  152.2355  145.3012  159.1987 C   0  0  0  0  0  0  0  0  0  0  0  0
  151.9906  145.1484  160.4978 C   0  0  0  0  0  0  0  0  0  0  0  0
  151.8356  143.7054  160.8882 C   0  0  0  0  0  0  0  0  0  0  0  0
  151.9813  142.9398  159.5537 C   0  0  0  0  0  0  0  0  0  0  0  0
  147.9840  139.5147  156.7585 H   0  0  0  0  0  0  0  0  0  0  0  0
  147.6807  141.0847  157.4976 H   0  0  0  0  0  0  0  0  0  0  0  0
  149.2066  140.2504  157.7861 H   0  0  0  0  0  0  0  0  0  0  0  0
  149.8094  140.4708  155.3989 H   0  0  0  0  0  0  0  0  0  0  0  0
  147.0278  141.6271  155.1935 H   0  0  0  0  0  0  0  0  0  0  0  0
  148.2495  142.3089  154.1396 H   0  0  0  0  0  0  0  0  0  0  0  0
  146.1318  140.9545  152.6194 H   0  0  0  0  0  0  0  0  0  0  0  0
  146.5279  138.4628  151.4313 H   0  0  0  0  0  0  0  0  0  0  0  0
  149.3766  138.9963  154.5200 H   0  0  0  0  0  0  0  0  0  0  0  0
  149.2225  143.2533  156.0084 H   0  0  0  0  0  0  0  0  0  0  0  0
  151.8082  144.3450  156.3733 H   0  0  0  0  0  0  0  0  0  0  0  0
  150.4459  144.5154  157.4528 H   0  0  0  0  0  0  0  0  0  0  0  0
  153.3220  143.8512  158.1123 H   0  0  0  0  0  0  0  0  0  0  0  0
  152.3987  146.2488  158.7087 H   0  0  0  0  0  0  0  0  0  0  0  0
  151.9178  145.9505  161.2174 H   0  0  0  0  0  0  0  0  0  0  0  0
  152.6113  143.4245  161.6011 H   0  0  0  0  0  0  0  0  0  0  0  0
  150.8612  143.5375  161.3479 H   0  0  0  0  0  0  0  0  0  0  0  0
  151.0588  142.4008  159.3332 H   0  0  0  0  0  0  0  0  0  0  0  0
  152.7747  142.1942  159.6171 H   0  0  0  0  0  0  0  0  0  0  0  0
  148.4856  137.4606  152.6870 H   0  0  0  0  0  0  0  0  0  0  0  0
  1  2  1  0  0  0  0
  1 18  1  0  0  0  0
  1 19  1  0  0  0  0
  1 20  1  0  0  0  0
  2  3  1  0  0  0  0
  2  9  1  0  0  0  0
  2 21  1  0  0  0  0
  3  4  1  0  0  0  0
  3 22  1  0  0  0  0
  3 23  1  0  0  0  0
  4  8  1  0  0  0  0
  4  5  1  0  0  0  0
  5  6  2  0  0  0  0
  5 24  1  0  0  0  0
  6  7  1  0  0  0  0
  6 25  1  0  0  0  0
  7  8  2  0  0  0  0
  7 37  1  0  0  0  0
  8 26  1  0  0  0  0
  9 10  1  0  0  0  0
  9 27  1  0  0  0  0
 10 11  2  0  0  0  0
 10 12  1  0  0  0  0
 12 13  1  0  0  0  0
 12 28  1  0  0  0  0
 12 29  1  0  0  0  0
 13 17  1  0  0  0  0
 13 14  1  0  0  0  0
 13 30  1  0  0  0  0
 14 15  2  0  0  0  0
 14 31  1  0  0  0  0
 15 16  1  0  0  0  0
 15 32  1  0  0  0  0
 16 17  1  0  0  0  0
 16 33  1  0  0  0  0
 16 34  1  0  0  0  0
 17 35  1  0  0  0  0
 17 36  1  0  0  0  0
M  CHG  1   7   1
M  END
> <s_m_source_file>
AV-unprocessed.smi

> <i_m_source_file_index>
1920

> <i_lp_mmshare_version>
43012

> <i_f3d_flags>
0

> <s_epik_input>
W2NIXTFuW2NIXVtjSF1uMVtDSDJdW0NAQEhdKFtDSDNdKVtOSF1DKD1PKVtDSDJdW0NAQEhdMltDSF09W0NIXVtDSDJdW0NIMl0y

> <s_epik_cmdline>
J2VwaWtfcHl0aG9uJywgJy1waCcsICc3LjAnLCAnLXRuJywgJzgnLCAnLW1hJywgJzIwMCcsICctbWV0YWxfYmluZGluZycsICctaW1hZScsICc8aW5maWxlLm1hZT4nLCAnLW9tYWUnLCAnPG91dGZpbGUubWFlPic=

> <r_lp_tautomer_probability>
1

> <r_epik_Ionization_Penalty>
0.24816

> <r_epik_Ionization_Penalty_Charging>
0

> <r_epik_Ionization_Penalty_Neutral>
0.24816

> <r_epik_State_Penalty>
0.2394

> <r_epik_Charging_Adjusted_Penalty>
0.2394

> <i_epik_Tot_Q>
1

> <i_epik_Tot_abs_Q>
1

> <r_epik_Metal_State_Penalty>
0.531457

> <b_epik_Metal_Only>
0

> <s_lp_Force_Field>
OPLS_2005

> <r_lp_Energy>
19.5873

> <b_lp_Chiralities_Consistent>
1

> <s_lp_Variant>
AV-unprocessed.smi:1920-4

> <Gold.Version>
5.8.1

> <Gold.Id.Protein>
6NUR|6NUR_protein|mol2

> <Gold.PLP.Fitness>
47.6724

> <Gold.PLP.PLP>
-38.4071

> <Gold.PLP.part.hbond>
-3.0000

> <Gold.PLP.part.metal>
0.0000

> <Gold.PLP.part.buried>
1.1225

> <Gold.PLP.part.nonpolar>
-37.4757

> <Gold.PLP.part.repulsive>
0.1697

> <Gold.PLP.ligand.clash>
0.0000

> <Gold.PLP.ligand.torsion>
1.1933

> <Gold.PLP.Chemscore.Hbond>
3.0000

> <Gold.PLP.Chemscore.CHOScore>
0.8749

> <Gold.PLP.Chemscore.Metal>
0.0000

> <Gold.Chemscore.Hbonds>
donor molecule, donor type, donor heavy atom, donor atom, acceptor molecule, acceptor atom, score
      L1  H     7    37       P1  7948  2.00
      L1  H     9    27       P1  8028  1.00
      L1  C     5    24       P1 10175  0.77

> <Gold.PLP.Chemscore.Internal.Correction>
0.0272

> <Gold.Rescore>
     Score         DG    S(hbond)    S(metal)    S(lipo)     H(rot)  DE(clash)    DE(int)     intcor
     16.57     -18.87       1.98        0.00     101.98       2.01       0.25       2.05       ----

> <Gold.Chemscore.Fitness>
16.5728

> <Gold.Chemscore.DG>
-18.8745

> <Gold.Chemscore.ZeroCoef>
-5.4800

> <Gold.Chemscore.Hbond>
1.9808

> <Gold.Chemscore.Metal>
0.0000

> <Gold.Chemscore.Lipo>
101.9833

> <Gold.Chemscore.Internal_Hbond>
0.0000

> <Gold.Chemscore.DEClash>
0.2526

> <Gold.Chemscore.DEInternal>
2.0491

> <Gold.Chemscore.Rot>
2.0130

> <Gold.Chemscore.Internal.Correction>
   9.000000E+99

> <Gold.Chemscore.Hbonds>
donor molecule, donor type, donor heavy atom, donor atom, acceptor molecule, acceptor atom, score
      L1  H     7    37       P1  7948  0.93
      L1  H     9    27       P1  8028  0.94

> <Gold.Chemscore.Hbond.Weighted>
-6.6157

> <Gold.Chemscore.Metal.Weighted>
-0.0000

> <Gold.Chemscore.Lipo.Weighted>
-11.9320

> <Gold.Chemscore.Internal_Hbond.Weighted>
0.0000

> <Gold.Chemscore.DEClash.Weighted>
0.2526

> <Gold.Chemscore.DEInternal.Weighted>
2.0491

> <Gold.Chemscore.Rot.Weighted>
5.1533

> <Gold.Chemscore.Internal.Correction.Weighted>
   9.000000E+99

> <Gold.Protein.RotatedTorsions>
[ 6907 6896 6895 6894 ] final -131.64 input  -60.11 | X-H torsion
[ 7974 7965 7964 7962 ] final  113.37 input  175.53 | X-H torsion
[ 8008 7997 7996 7995 ] final  171.36 input   59.86 | X-H torsion
[ 10167 10162 10161 10158 ] final  -41.17 input  -65.29 | X-H torsion
[ 10718 10713 10712 10709 ] final   68.24 input   66.30 | X-H torsion
[ 10763 10752 10751 10750 ] final   40.94 input  -60.55 | X-H torsion
[ 11005 11000 10999 10996 ] final  -53.23 input  -57.11 | X-H torsion

> <Gold.Protein.ActiveResidues>
 VAL166  LYS551  ARG553  GLY616  TRP617  ASP618  TYR619  PRO620  LYS621  CYS622 
 ASP623  PHE694  ASN695  SER759  ASP760  ASP761  ALA762  ILE779  LEU786  VAL792 
 PHE793  MET794  SER795  GLU796  ALA797  LYS798  CYS799  TRP800  GLU811  SER814 

> <Gold.Protein.RotatedAtoms>
  150.9532  133.6526  159.2767 H   0  0  0  0  0  0  0  0  0  0  0  0  # atno 6907 bound_to 6896
  151.3875  135.0949  159.9525 H   0  0  0  0  0  0  0  0  0  0  0  0  # atno 6908 bound_to 6896
  152.5118  133.9054  159.7516 H   0  0  0  0  0  0  0  0  0  0  0  0  # atno 6909 bound_to 6896
  145.2178  139.2876  143.4234 H   0  0  0  0  0  0  0  0  0  0  0  0  # atno 7974 bound_to 7965
  156.1278  140.1514  156.9110 H   0  0  0  0  0  0  0  0  0  0  0  0  # atno 8008 bound_to 7997
  154.4885  140.0858  156.7582 H   0  0  0  0  0  0  0  0  0  0  0  0  # atno 8009 bound_to 7997
  155.4311  140.3427  155.4282 H   0  0  0  0  0  0  0  0  0  0  0  0  # atno 8010 bound_to 7997
  140.7011  143.3110  151.3029 H   0  0  0  0  0  0  0  0  0  0  0  0  # atno 10167 bound_to 10162
  157.6277  130.9363  150.0350 H   0  0  0  0  0  0  0  0  0  0  0  0  # atno 10718 bound_to 10713
  152.9922  135.6176  154.2707 H   0  0  0  0  0  0  0  0  0  0  0  0  # atno 10763 bound_to 10752
  154.2440  135.2787  155.2844 H   0  0  0  0  0  0  0  0  0  0  0  0  # atno 10764 bound_to 10752
  154.5345  135.5779  153.6844 H   0  0  0  0  0  0  0  0  0  0  0  0  # atno 10765 bound_to 10752
  141.0965  133.6624  156.4142 H   0  0  0  0  0  0  0  0  0  0  0  0  # atno 11005 bound_to 11000
  146.3383  140.2474  142.8597 LP  0  0  0  0  0  0  0  0  0  0  0  0  # atno 17320 bound_to 7965
  144.9795  140.8445  143.5406 LP  0  0  0  0  0  0  0  0  0  0  0  0  # atno 17321 bound_to 7965
  139.6532  144.0323  152.2641 LP  0  0  0  0  0  0  0  0  0  0  0  0  # atno 17342 bound_to 10162
  139.9866  144.6391  150.7852 LP  0  0  0  0  0  0  0  0  0  0  0  0  # atno 17343 bound_to 10162
  156.1460  130.3642  149.9509 LP  0  0  0  0  0  0  0  0  0  0  0  0  # atno 17370 bound_to 10713
  156.7540  130.9126  151.3638 LP  0  0  0  0  0  0  0  0  0  0  0  0  # atno 17371 bound_to 10713
  140.5126  134.6380  157.5290 LP  0  0  0  0  0  0  0  0  0  0  0  0  # atno 17394 bound_to 11000
  139.9804  134.7147  155.9871 LP  0  0  0  0  0  0  0  0  0  0  0  0  # atno 17395 bound_to 11000

$$$$
