#       Name:                AV-unprocessed.smi:2771
#       Creating user name   scv26
#       Creation time:       Fri Mar 27 15:10:54 2020


#       File generated by GOLD software.
#

@<TRIPOS>MOLECULE
AV-unprocessed.smi:2771
    48    49     1
SMALL
NO_CHARGES


@<TRIPOS>ATOM
      1 ****        -4.9221   4.5778  -0.4790 C.3            1 S1                 0.0000
      2 ****        -5.0241   3.0781  -0.6613 C.ar           1 S1                 0.0000
      3 ****        -6.2777   2.4412  -0.7448 C.ar           1 S1                 0.0000
      4 ****        -6.3018   1.0452  -0.9139 C.ar           1 S1                 0.0000
      5 ****        -5.0801   0.3485  -0.9912 C.ar           1 S1                 0.0000
      6 ****        -3.8649   1.0636  -0.8965 C.ar           1 S1                 0.0000
      7 ****        -2.6897   0.2708  -0.9854 N.am           1 S1                 0.0000
      8 ****        -1.4090   0.6727  -0.9048 C.2            1 S1                 0.0000
      9 ****        -1.0358   1.8329  -0.7288 O.2            1 S1                 0.0000
     10 ****        -0.5665  -0.3622  -1.0338 N.am           1 S1                 0.0000
     11 ****         0.8899  -0.2753  -0.9825 C.3            1 S1                 0.0000
     12 ****         1.4251  -0.5497   0.4428 C.3            1 S1                 0.0000
     13 ****         1.2344   0.6470   1.1745 O.3            1 S1                 0.0000
     14 ****         2.9353  -0.9133   0.5120 C.3            1 S1                 0.0000
     15 ****         3.2777  -2.2108  -0.2633 C.3            1 S1                 0.0000
     16 ****         4.7678  -2.5776  -0.1632 C.3            1 S1                 0.0000
     17 ****         5.2168  -2.7098   1.2970 C.3            1 S1                 0.0000
     18 ****         4.9054  -1.4259   2.0754 C.3            1 S1                 0.0000
     19 ****         3.4146  -1.0658   1.9788 C.3            1 S1                 0.0000
     20 ****        -3.8529   2.4100  -0.7334 N.ar           1 S1                 0.0000
     21 ****        -5.8827   5.0626  -0.6548 H              1 S1                 0.0000
     22 ****        -4.1976   4.9997  -1.1762 H              1 S1                 0.0000
     23 ****        -4.6001   4.8131   0.5356 H              1 S1                 0.0000
     24 ****        -7.1970   3.0047  -0.6814 H              1 S1                 0.0000
     25 ****        -7.2408   0.5163  -0.9828 H              1 S1                 0.0000
     26 ****        -5.0814  -0.7240  -1.1210 H              1 S1                 0.0000
     27 ****        -2.8421  -0.7171  -1.1242 H              1 S1                 0.0000
     28 ****        -0.9601  -1.2811  -1.1740 H              1 S1                 0.0000
     29 ****         1.2344  -1.0321  -1.6828 H              1 S1                 0.0000
     30 ****         1.2555   0.6772  -1.3712 H              1 S1                 0.0000
     31 ****         0.8444  -1.3455   0.9118 H              1 S1                 0.0000
     32 ****         0.3281   0.9052   1.0968 H              1 S1                 0.0000
     33 ****         3.4989  -0.0961   0.0586 H              1 S1                 0.0000
     34 ****         2.6730  -3.0358   0.1157 H              1 S1                 0.0000
     35 ****         3.0363  -2.1118  -1.3198 H              1 S1                 0.0000
     36 ****         4.9563  -3.5110  -0.6945 H              1 S1                 0.0000
     37 ****         5.3655  -1.8130  -0.6611 H              1 S1                 0.0000
     38 ****         4.7093  -3.5556   1.7629 H              1 S1                 0.0000
     39 ****         6.2850  -2.9240   1.3419 H              1 S1                 0.0000
     40 ****         5.1909  -1.5474   3.1208 H              1 S1                 0.0000
     41 ****         5.5063  -0.6039   1.6846 H              1 S1                 0.0000
     42 ****         3.2495  -0.1446   2.5377 H              1 S1                 0.0000
     43 ****         2.8239  -1.8350   2.4785 H              1 S1                 0.0000
     44 ****        -1.7094   2.5658  -0.6331 LP             1 S1                 0.0000
     45 ****        -0.0591   2.0423  -0.6815 LP             1 S1                 0.0000
     46 ****         1.8229   1.3660   0.8045 LP             1 S1                 0.0000
     47 ****         1.4602   0.4937   2.1366 LP             1 S1                 0.0000
     48 ****        -2.9853   2.9030  -0.6672 LP             1 S1                 0.0000
@<TRIPOS>BOND
    1    1    2 1     
    2    1   21 1     
    3    1   22 1     
    4    1   23 1     
    5    2   20 ar    
    6    2    3 ar    
    7    3    4 ar    
    8    3   24 1     
    9    4    5 ar    
   10    4   25 1     
   11    5    6 ar    
   12    5   26 1     
   13    6    7 1     
   14    6   20 ar    
   15    7    8 am    
   16    7   27 1     
   17    8    9 2     
   18    8   10 am    
   19   10   11 1     
   20   10   28 1     
   21   11   12 1     
   22   11   29 1     
   23   11   30 1     
   24   12   13 1     
   25   12   14 1     
   26   12   31 1     
   27   13   32 1     
   28   14   19 1     
   29   14   15 1     
   30   14   33 1     
   31   15   16 1     
   32   15   34 1     
   33   15   35 1     
   34   16   17 1     
   35   16   36 1     
   36   16   37 1     
   37   17   18 1     
   38   17   38 1     
   39   17   39 1     
   40   18   19 1     
   41   18   40 1     
   42   18   41 1     
   43   19   42 1     
   44   19   43 1     
   45    9   44 1     
   46    9   45 1     
   47   13   46 1     
   48   13   47 1     
   49   20   48 1     
@<TRIPOS>SUBSTRUCTURE
      1 S1             1
@<TRIPOS>SET
LONE_PAIRS      STATIC     ATOMS    <user>   **** ""
5 44 45 46 47 48
DONOR_HYDROGENS      STATIC     ATOMS    <user>   **** ""
3 27 28 32
ATOM$BLUE        STATIC     ATOMS    COLORGROUP SYSTEM
5 44 45 46 47 48
ATOM$RED        STATIC     ATOMS    COLORGROUP SYSTEM
3 27 28 32
