AV-unprocessed.smi:1965|AV-procd|sdf|7947|dock3
  -GOLD-   2272010113D 1   1.00000     0.00000
 Structure written by MMmdl.
 36 38  0  0  0  0  0  0  0  0  3 V2000
  151.2307  141.1039  157.7884 O   0  0  0  0  0  0  0  0  0  0  0  0
  150.8926  142.2348  157.4419 C   0  0  0  0  0  0  0  0  0  0  0  0
  151.4399  143.3691  157.9509 N   0  5  0  0  0  0  0  0  0  0  0  0
  151.7941  143.4859  159.2442 C   0  0  0  0  0  0  0  0  0  0  0  0
  152.3231  142.4815  159.9526 N   0  0  0  0  0  0  0  0  0  0  0  0
  152.6133  142.8268  161.2739 C   0  0  0  0  0  0  0  0  0  0  0  0
  152.2978  144.1245  161.5783 C   0  0  0  0  0  0  0  0  0  0  0  0
  151.6294  144.9586  160.2046 S   0  0  0  0  0  0  0  0  0  0  0  0
  149.9300  142.3683  156.5105 N   0  0  0  0  0  0  0  0  0  0  0  0
  149.2445  141.2793  155.8258 C   0  0  1  0  0  0  0  0  0  0  0  0
  148.0218  141.7203  155.0064 C   0  0  0  0  0  0  0  0  0  0  0  0
  148.0472  140.8480  153.7357 C   0  0  0  0  0  0  0  0  0  0  0  0
  149.1989  139.9258  153.8727 N   0  3  2  0  0  0  0  0  0  0  0  0
  148.7828  138.5772  154.3467 C   0  0  0  0  0  0  0  0  0  0  0  0
  149.9843  137.6980  154.7179 C   0  0  0  0  0  0  0  0  0  0  0  0
  150.8245  138.3821  155.7993 C   0  0  0  0  0  0  0  0  0  0  0  0
  151.2975  139.7479  155.2904 C   0  0  0  0  0  0  0  0  0  0  0  0
  150.1435  140.6338  154.7696 C   0  0  2  0  0  0  0  0  0  0  0  0
  153.0433  142.0845  161.9297 H   0  0  0  0  0  0  0  0  0  0  0  0
  152.4209  144.6397  162.5190 H   0  0  0  0  0  0  0  0  0  0  0  0
  149.6669  143.3079  156.2518 H   0  0  0  0  0  0  0  0  0  0  0  0
  148.9393  140.5277  156.5561 H   0  0  0  0  0  0  0  0  0  0  0  0
  147.1006  141.5853  155.5742 H   0  0  0  0  0  0  0  0  0  0  0  0
  148.0861  142.7745  154.7329 H   0  0  0  0  0  0  0  0  0  0  0  0
  147.1057  140.3204  153.5759 H   0  0  0  0  0  0  0  0  0  0  0  0
  148.2139  141.4795  152.8623 H   0  0  0  0  0  0  0  0  0  0  0  0
  148.1257  138.6739  155.2126 H   0  0  0  0  0  0  0  0  0  0  0  0
  148.1973  138.0921  153.5648 H   0  0  0  0  0  0  0  0  0  0  0  0
  149.6385  136.7277  155.0754 H   0  0  0  0  0  0  0  0  0  0  0  0
  150.5947  137.5060  153.8346 H   0  0  0  0  0  0  0  0  0  0  0  0
  150.2382  138.5014  156.7111 H   0  0  0  0  0  0  0  0  0  0  0  0
  151.6826  137.7619  156.0597 H   0  0  0  0  0  0  0  0  0  0  0  0
  151.8510  140.2699  156.0718 H   0  0  0  0  0  0  0  0  0  0  0  0
  152.0074  139.5872  154.4778 H   0  0  0  0  0  0  0  0  0  0  0  0
  150.5899  141.4363  154.1783 H   0  0  0  0  0  0  0  0  0  0  0  0
  149.6395  139.8043  152.9721 H   0  0  0  0  0  0  0  0  0  0  0  0
  1  2  2  0  0  0  0
  2  3  1  0  0  0  0
  2  9  1  0  0  0  0
  3  4  1  0  0  0  0
  4  8  1  0  0  0  0
  4  5  2  0  0  0  0
  5  6  1  0  0  0  0
  6  7  2  0  0  0  0
  6 19  1  0  0  0  0
  7  8  1  0  0  0  0
  7 20  1  0  0  0  0
  9 10  1  0  0  0  0
  9 21  1  0  0  0  0
 10 18  1  0  0  0  0
 10 11  1  0  0  0  0
 10 22  1  0  0  0  0
 11 12  1  0  0  0  0
 11 23  1  0  0  0  0
 11 24  1  0  0  0  0
 12 13  1  0  0  0  0
 12 25  1  0  0  0  0
 12 26  1  0  0  0  0
 13 18  1  0  0  0  0
 13 14  1  0  0  0  0
 13 36  1  0  0  0  0
 14 15  1  0  0  0  0
 14 27  1  0  0  0  0
 14 28  1  0  0  0  0
 15 16  1  0  0  0  0
 15 29  1  0  0  0  0
 15 30  1  0  0  0  0
 16 17  1  0  0  0  0
 16 31  1  0  0  0  0
 16 32  1  0  0  0  0
 17 18  1  0  0  0  0
 17 33  1  0  0  0  0
 17 34  1  0  0  0  0
 18 35  1  0  0  0  0
M  CHG  1   3  -1
M  CHG  1  13   1
M  END
> <s_m_source_file>
AV-unprocessed.smi

> <i_m_source_file_index>
1965

> <i_lp_mmshare_version>
43012

> <i_f3d_flags>
0

> <s_epik_input>
czFbY0hdW2NIXW5jMVtOSF1DKD1PKVtOSF1bQ0BIXShbQ0gyXVtDSDJdMilbQ0BASF0oTjIzKVtDSDJdW0NIMl1bQ0gyXVtDSDJdMw==

> <s_epik_cmdline>
J2VwaWtfcHl0aG9uJywgJy1waCcsICc3LjAnLCAnLXRuJywgJzgnLCAnLW1hJywgJzIwMCcsICctbWV0YWxfYmluZGluZycsICctaW1hZScsICc8aW5maWxlLm1hZT4nLCAnLW9tYWUnLCAnPG91dGZpbGUubWFlPic=

> <r_lp_tautomer_probability>
1

> <r_epik_Ionization_Penalty>
7.4116

> <r_epik_Ionization_Penalty_Charging>
6.13869

> <r_epik_Ionization_Penalty_Neutral>
1.27291

> <r_epik_State_Penalty>
6.13761

> <r_epik_Charging_Adjusted_Penalty>
12.2763

> <i_epik_Tot_Q>
0

> <i_epik_Tot_abs_Q>
2

> <r_epik_Metal_State_Penalty>
2.08142

> <b_epik_Metal_Only>
1

> <s_lp_Force_Field>
OPLS_2005

> <r_lp_Energy>
29.0908

> <b_lp_Chiralities_Consistent>
1

> <s_lp_Variant>
AV-unprocessed.smi:1965-16

> <Gold.Version>
5.8.1

> <Gold.Id.Protein>
6NUR|6NUR_protein|mol2

> <Gold.PLP.Fitness>
40.8938

> <Gold.PLP.PLP>
-36.2539

> <Gold.PLP.part.hbond>
-2.0000

> <Gold.PLP.part.metal>
0.0000

> <Gold.PLP.part.buried>
-2.5027

> <Gold.PLP.part.nonpolar>
-32.2804

> <Gold.PLP.part.repulsive>
0.3005

> <Gold.PLP.ligand.clash>
0.0000

> <Gold.PLP.ligand.torsion>
0.6853

> <Gold.PLP.Chemscore.Hbond>
2.0000

> <Gold.PLP.Chemscore.CHOScore>
0.0000

> <Gold.PLP.Chemscore.Metal>
0.0000

> <Gold.Chemscore.Hbonds>
donor molecule, donor type, donor heavy atom, donor atom, acceptor molecule, acceptor atom, score
      L1  H     9    21       P1  8028  1.00
      L1  H    13    36       P1  7957  0.99

> <Gold.PLP.Chemscore.Internal.Correction>
0.0106

> <Gold.Rescore>
     Score         DG    S(hbond)    S(metal)    S(lipo)     H(rot)  DE(clash)    DE(int)     intcor
     17.64     -18.91       1.98        0.00      80.01       1.00       0.05       1.21       ----

> <Gold.Chemscore.Fitness>
17.6442

> <Gold.Chemscore.DG>
-18.9103

> <Gold.Chemscore.ZeroCoef>
-5.4800

> <Gold.Chemscore.Hbond>
1.9847

> <Gold.Chemscore.Metal>
0.0000

> <Gold.Chemscore.Lipo>
80.0119

> <Gold.Chemscore.Internal_Hbond>
0.0000

> <Gold.Chemscore.DEClash>
0.0513

> <Gold.Chemscore.DEInternal>
1.2149

> <Gold.Chemscore.Rot>
1.0000

> <Gold.Chemscore.Internal.Correction>
   9.000000E+99

> <Gold.Chemscore.Hbonds>
donor molecule, donor type, donor heavy atom, donor atom, acceptor molecule, acceptor atom, score
      L1  H     9    21       P1  8028  1.00
      L1  H    13    36       P1  7957  0.94

> <Gold.Chemscore.Hbond.Weighted>
-6.6289

> <Gold.Chemscore.Metal.Weighted>
-0.0000

> <Gold.Chemscore.Lipo.Weighted>
-9.3614

> <Gold.Chemscore.Internal_Hbond.Weighted>
0.0000

> <Gold.Chemscore.DEClash.Weighted>
0.0513

> <Gold.Chemscore.DEInternal.Weighted>
1.2149

> <Gold.Chemscore.Rot.Weighted>
2.5600

> <Gold.Chemscore.Internal.Correction.Weighted>
   9.000000E+99

> <Gold.Protein.RotatedTorsions>
[ 6907 6896 6895 6894 ] final -164.67 input  -60.11 | X-H torsion
[ 7974 7965 7964 7962 ] final  -75.09 input  175.53 | X-H torsion
[ 8008 7997 7996 7995 ] final  170.16 input   59.86 | X-H torsion
[ 10167 10162 10161 10158 ] final -139.63 input  -65.29 | X-H torsion
[ 10718 10713 10712 10709 ] final  102.73 input   66.30 | X-H torsion
[ 10763 10752 10751 10750 ] final   53.99 input  -60.55 | X-H torsion
[ 11005 11000 10999 10996 ] final   15.67 input  -57.11 | X-H torsion

> <Gold.Protein.ActiveResidues>
 VAL166  LYS551  ARG553  GLY616  TRP617  ASP618  TYR619  PRO620  LYS621  CYS622 
 ASP623  PHE694  ASN695  SER759  ASP760  ASP761  ALA762  ILE779  LEU786  VAL792 
 PHE793  MET794  SER795  GLU796  ALA797  LYS798  CYS799  TRP800  GLU811  SER814 

> <Gold.Protein.RotatedAtoms>
  151.4154  133.3714  159.2749 H   0  0  0  0  0  0  0  0  0  0  0  0  # atno 6907 bound_to 6896
  150.9332  134.8747  159.7575 H   0  0  0  0  0  0  0  0  0  0  0  0  # atno 6908 bound_to 6896
  152.5038  134.4100  159.9497 H   0  0  0  0  0  0  0  0  0  0  0  0  # atno 6909 bound_to 6896
  145.6305  140.9339  143.1089 H   0  0  0  0  0  0  0  0  0  0  0  0  # atno 7974 bound_to 7965
  156.1391  140.1545  156.8949 H   0  0  0  0  0  0  0  0  0  0  0  0  # atno 8008 bound_to 7997
  154.4972  140.0835  156.7760 H   0  0  0  0  0  0  0  0  0  0  0  0  # atno 8009 bound_to 7997
  155.4113  140.3419  155.4266 H   0  0  0  0  0  0  0  0  0  0  0  0  # atno 8010 bound_to 7997
  139.8360  143.7384  152.2665 H   0  0  0  0  0  0  0  0  0  0  0  0  # atno 10167 bound_to 10162
  157.6794  131.0760  150.5448 H   0  0  0  0  0  0  0  0  0  0  0  0  # atno 10718 bound_to 10713
  152.9800  135.5760  154.4832 H   0  0  0  0  0  0  0  0  0  0  0  0  # atno 10763 bound_to 10752
  154.4377  135.2775  155.1871 H   0  0  0  0  0  0  0  0  0  0  0  0  # atno 10764 bound_to 10752
  154.3552  135.6200  153.5716 H   0  0  0  0  0  0  0  0  0  0  0  0  # atno 10765 bound_to 10752
  140.4557  134.1178  155.7709 H   0  0  0  0  0  0  0  0  0  0  0  0  # atno 11005 bound_to 11000
  144.7195  139.8078  143.7387 LP  0  0  0  0  0  0  0  0  0  0  0  0  # atno 17320 bound_to 7965
  146.1360  139.4405  143.0139 LP  0  0  0  0  0  0  0  0  0  0  0  0  # atno 17321 bound_to 7965
  139.7606  144.7507  151.0369 LP  0  0  0  0  0  0  0  0  0  0  0  0  # atno 17342 bound_to 10162
  140.7802  143.4755  151.0088 LP  0  0  0  0  0  0  0  0  0  0  0  0  # atno 17343 bound_to 10162
  156.5754  130.4290  149.6001 LP  0  0  0  0  0  0  0  0  0  0  0  0  # atno 17370 bound_to 10713
  156.2706  130.7014  151.1811 LP  0  0  0  0  0  0  0  0  0  0  0  0  # atno 17371 bound_to 10713
  141.1644  133.8731  157.1757 LP  0  0  0  0  0  0  0  0  0  0  0  0  # atno 17394 bound_to 11000
  139.9978  135.0040  157.0121 LP  0  0  0  0  0  0  0  0  0  0  0  0  # atno 17395 bound_to 11000

$$$$
