AV-unprocessed.smi:81|AV-procd|sdf|792|dock3
  -GOLD-   2262017163D 1   1.00000     0.00000
 Structure written by MMmdl.
 64 67  0  0  0  0  0  0  0  0  2 V2000
  146.1957  132.5589  152.7407 C   0  0  0  0  0  0  0  0  0  0  0  0
  146.5265  133.2394  154.0793 C   0  0  0  0  0  0  0  0  0  0  0  0
  146.4568  132.2249  155.2291 C   0  0  0  0  0  0  0  0  0  0  0  0
  145.5895  134.4364  154.3623 C   0  0  0  0  0  0  0  0  0  0  0  0
  145.6924  135.5322  153.3919 N   0  0  0  0  0  0  0  0  0  0  0  0
  146.3657  136.6304  153.8130 C   0  0  0  0  0  0  0  0  0  0  0  0
  146.5605  137.6236  152.9098 N   0  0  0  0  0  0  0  0  0  0  0  0
  147.2502  138.7157  153.2506 C   0  0  0  0  0  0  0  0  0  0  0  0
  147.8244  139.0085  154.4186 N   0  0  0  0  0  0  0  0  0  0  0  0
  147.6411  138.0082  155.3271 C   0  0  0  0  0  0  0  0  0  0  0  0
  146.9334  136.7925  155.1094 C   0  0  0  0  0  0  0  0  0  0  0  0
  146.9593  136.0189  156.2638 N   0  0  0  0  0  0  0  0  0  0  0  0
  147.6432  136.7349  157.1135 C   0  0  0  0  0  0  0  0  0  0  0  0
  148.0834  137.9486  156.6369 N   0  0  0  0  0  0  0  0  0  0  0  0
  148.8584  138.9384  157.3689 C   0  0  0  0  0  0  0  0  0  0  0  0
  150.2943  139.1277  156.8233 C   0  0  1  0  0  0  0  0  0  0  0  0
  151.1791  139.2919  157.9209 O   0  0  0  0  0  0  0  0  0  0  0  0
  150.7662  137.9331  156.0083 C   0  0  0  0  0  0  0  0  0  0  0  0
  151.8404  138.5432  155.1174 C   0  0  0  0  0  0  0  0  0  0  0  0
  151.3319  139.8269  154.7853 O   0  0  0  0  0  0  0  0  0  0  0  0
  150.4495  140.2867  155.8080 C   0  0  2  0  0  0  0  0  0  0  0  0
  150.9376  141.6360  156.3613 C   0  0  0  0  0  0  0  0  0  0  0  0
  144.5527  135.7172  152.4779 C   0  0  2  0  0  0  0  0  0  0  0  0
  143.3434  134.7814  152.7173 C   0  0  0  0  0  0  0  0  0  0  0  0
  143.4029  133.4568  151.9321 C   0  0  0  0  0  0  0  0  0  0  0  0
  143.6414  133.7060  150.4920 N   0  3  2  0  0  0  0  0  0  0  0  0
  143.5248  132.4769  149.6787 C   0  0  0  0  0  0  0  0  0  0  0  0
  144.9227  134.4151  150.2702 C   0  0  0  0  0  0  0  0  0  0  0  0
  144.9261  135.7831  150.9771 C   0  0  0  0  0  0  0  0  0  0  0  0
  145.1715  132.1849  152.7291 H   0  0  0  0  0  0  0  0  0  0  0  0
  146.8603  131.7144  152.5554 H   0  0  0  0  0  0  0  0  0  0  0  0
  146.3074  133.2481  151.9038 H   0  0  0  0  0  0  0  0  0  0  0  0
  147.5583  133.5890  154.0335 H   0  0  0  0  0  0  0  0  0  0  0  0
  145.4498  131.8220  155.3418 H   0  0  0  0  0  0  0  0  0  0  0  0
  146.7394  132.6848  156.1766 H   0  0  0  0  0  0  0  0  0  0  0  0
  147.1331  131.3871  155.0568 H   0  0  0  0  0  0  0  0  0  0  0  0
  144.5601  134.0765  154.3762 H   0  0  0  0  0  0  0  0  0  0  0  0
  145.7772  134.8206  155.3641 H   0  0  0  0  0  0  0  0  0  0  0  0
  147.3597  139.4601  152.4758 H   0  0  0  0  0  0  0  0  0  0  0  0
  147.8424  136.3986  158.1209 H   0  0  0  0  0  0  0  0  0  0  0  0
  148.3168  139.8850  157.3371 H   0  0  0  0  0  0  0  0  0  0  0  0
  148.8880  138.6412  158.4180 H   0  0  0  0  0  0  0  0  0  0  0  0
  150.6681  139.5072  158.6865 H   0  0  0  0  0  0  0  0  0  0  0  0
  151.1318  137.1032  156.6150 H   0  0  0  0  0  0  0  0  0  0  0  0
  149.9552  137.5567  155.3830 H   0  0  0  0  0  0  0  0  0  0  0  0
  152.7761  138.6613  155.6655 H   0  0  0  0  0  0  0  0  0  0  0  0
  152.0398  137.9474  154.2264 H   0  0  0  0  0  0  0  0  0  0  0  0
  149.4940  140.4457  155.3078 H   0  0  0  0  0  0  0  0  0  0  0  0
  150.2867  141.9999  157.1556 H   0  0  0  0  0  0  0  0  0  0  0  0
  150.9500  142.3894  155.5734 H   0  0  0  0  0  0  0  0  0  0  0  0
  151.9494  141.5648  156.7607 H   0  0  0  0  0  0  0  0  0  0  0  0
  144.1899  136.7127  152.7374 H   0  0  0  0  0  0  0  0  0  0  0  0
  143.2028  134.5944  153.7823 H   0  0  0  0  0  0  0  0  0  0  0  0
  142.4453  135.3102  152.3959 H   0  0  0  0  0  0  0  0  0  0  0  0
  144.1799  132.7970  152.3169 H   0  0  0  0  0  0  0  0  0  0  0  0
  142.4580  132.9268  152.0581 H   0  0  0  0  0  0  0  0  0  0  0  0
  144.2831  131.7474  149.9615 H   0  0  0  0  0  0  0  0  0  0  0  0
  143.6444  132.7026  148.6185 H   0  0  0  0  0  0  0  0  0  0  0  0
  142.5442  132.0187  149.8116 H   0  0  0  0  0  0  0  0  0  0  0  0
  145.7459  133.7903  150.6116 H   0  0  0  0  0  0  0  0  0  0  0  0
  145.0735  134.5667  149.2007 H   0  0  0  0  0  0  0  0  0  0  0  0
  144.1903  136.4135  150.4764 H   0  0  0  0  0  0  0  0  0  0  0  0
  145.8837  136.2822  150.8288 H   0  0  0  0  0  0  0  0  0  0  0  0
  142.9078  134.3255  150.1783 H   0  0  0  0  0  0  0  0  0  0  0  0
  1  2  1  0  0  0  0
  1 30  1  0  0  0  0
  1 31  1  0  0  0  0
  1 32  1  0  0  0  0
  2  3  1  0  0  0  0
  2  4  1  0  0  0  0
  2 33  1  0  0  0  0
  3 34  1  0  0  0  0
  3 35  1  0  0  0  0
  3 36  1  0  0  0  0
  4  5  1  0  0  0  0
  4 37  1  0  0  0  0
  4 38  1  0  0  0  0
  5  6  1  0  0  0  0
  5 23  1  0  0  0  0
  6 11  1  0  0  0  0
  6  7  2  0  0  0  0
  7  8  1  0  0  0  0
  8  9  2  0  0  0  0
  8 39  1  0  0  0  0
  9 10  1  0  0  0  0
 10 14  1  0  0  0  0
 10 11  2  0  0  0  0
 11 12  1  0  0  0  0
 12 13  2  0  0  0  0
 13 14  1  0  0  0  0
 13 40  1  0  0  0  0
 14 15  1  0  0  0  0
 15 16  1  0  0  0  0
 15 41  1  0  0  0  0
 15 42  1  0  0  0  0
 16 21  1  0  0  0  0
 16 17  1  0  0  0  0
 16 18  1  0  0  0  0
 17 43  1  0  0  0  0
 18 19  1  0  0  0  0
 18 44  1  0  0  0  0
 18 45  1  0  0  0  0
 19 20  1  0  0  0  0
 19 46  1  0  0  0  0
 19 47  1  0  0  0  0
 20 21  1  0  0  0  0
 21 22  1  0  0  0  0
 21 48  1  0  0  0  0
 22 49  1  0  0  0  0
 22 50  1  0  0  0  0
 22 51  1  0  0  0  0
 23 29  1  0  0  0  0
 23 24  1  0  0  0  0
 23 52  1  0  0  0  0
 24 25  1  0  0  0  0
 24 53  1  0  0  0  0
 24 54  1  0  0  0  0
 25 26  1  0  0  0  0
 25 55  1  0  0  0  0
 25 56  1  0  0  0  0
 26 27  1  0  0  0  0
 26 28  1  0  0  0  0
 26 64  1  0  0  0  0
 27 57  1  0  0  0  0
 27 58  1  0  0  0  0
 27 59  1  0  0  0  0
 28 29  1  0  0  0  0
 28 60  1  0  0  0  0
 28 61  1  0  0  0  0
 29 62  1  0  0  0  0
 29 63  1  0  0  0  0
M  CHG  1  26   1
M  END
> <s_m_source_file>
AV-unprocessed.smi

> <i_m_source_file_index>
81

> <i_lp_mmshare_version>
43012

> <i_f3d_flags>
0

> <s_epik_input>
W0NIMl0xW0NIMl1OKFtDSDNdKVtDSDJdW0NIMl1bQ0hdMU4oW0NIMl1bQ0hdKFtDSDNdKVtDSDNdKWMobltjSF1uMiljKGMyMyluW2NIXW4zW0NIMl1bQ0BAXTQoW09IXSlbQ0gyXVtDSDJdT1tDQEhdNFtDSDNd

> <s_epik_cmdline>
J2VwaWtfcHl0aG9uJywgJy1waCcsICc3LjAnLCAnLXRuJywgJzgnLCAnLW1hJywgJzIwMCcsICctbWV0YWxfYmluZGluZycsICctaW1hZScsICc8aW5maWxlLm1hZT4nLCAnLW9tYWUnLCAnPG91dGZpbGUubWFlPic=

> <r_lp_tautomer_probability>
1

> <r_epik_Ionization_Penalty>
0.00272708

> <r_epik_Ionization_Penalty_Charging>
0.00158983

> <r_epik_Ionization_Penalty_Neutral>
0.00113725

> <r_epik_State_Penalty>
-0

> <r_epik_Charging_Adjusted_Penalty>
0.00158983

> <i_epik_Tot_Q>
1

> <i_epik_Tot_abs_Q>
1

> <r_epik_Metal_State_Penalty>
-0

> <b_epik_Metal_Only>
0

> <s_lp_Force_Field>
OPLS_2005

> <r_lp_Energy>
48.65

> <b_lp_Chiralities_Consistent>
1

> <s_lp_Variant>
AV-unprocessed.smi:81-7

> <Gold.Version>
5.8.1

> <Gold.Id.Protein>
6NUR|6NUR_protein|mol2

> <Gold.PLP.Fitness>
40.7816

> <Gold.PLP.PLP>
-31.9701

> <Gold.PLP.part.hbond>
-1.9330

> <Gold.PLP.part.metal>
0.0000

> <Gold.PLP.part.buried>
-5.4015

> <Gold.PLP.part.nonpolar>
-27.0612

> <Gold.PLP.part.repulsive>
0.9478

> <Gold.PLP.ligand.clash>
0.0000

> <Gold.PLP.ligand.torsion>
1.6389

> <Gold.PLP.Chemscore.Hbond>
2.9270

> <Gold.PLP.Chemscore.CHOScore>
0.6316

> <Gold.PLP.Chemscore.Metal>
0.0000

> <Gold.Chemscore.Hbonds>
donor molecule, donor type, donor heavy atom, donor atom, acceptor molecule, acceptor atom, score
      L1  H    26    64       P1 10186  1.82
      P1  H  7989  7998       L1    20  1.00
      L1  C     8    39       P1  7957  0.66

> <Gold.PLP.Chemscore.Internal.Correction>
1.4136

> <Gold.Rescore>
     Score         DG    S(hbond)    S(metal)    S(lipo)     H(rot)  DE(clash)    DE(int)     intcor
     12.08     -15.06       1.92        0.00      77.64       2.32       0.12       2.85       ----

> <Gold.Chemscore.Fitness>
12.0820

> <Gold.Chemscore.DG>
-15.0574

> <Gold.Chemscore.ZeroCoef>
-5.4800

> <Gold.Chemscore.Hbond>
1.9230

> <Gold.Chemscore.Metal>
0.0000

> <Gold.Chemscore.Lipo>
77.6448

> <Gold.Chemscore.Internal_Hbond>
0.0000

> <Gold.Chemscore.DEClash>
0.1240

> <Gold.Chemscore.DEInternal>
2.8514

> <Gold.Chemscore.Rot>
2.3163

> <Gold.Chemscore.Internal.Correction>
   9.000000E+99

> <Gold.Chemscore.Hbonds>
donor molecule, donor type, donor heavy atom, donor atom, acceptor molecule, acceptor atom, score
      L1  H    26    64       P1 10186  0.75
      P1  H  7989  7998       L1    20  0.96

> <Gold.Chemscore.Hbond.Weighted>
-6.4227

> <Gold.Chemscore.Metal.Weighted>
-0.0000

> <Gold.Chemscore.Lipo.Weighted>
-9.0844

> <Gold.Chemscore.Internal_Hbond.Weighted>
0.0000

> <Gold.Chemscore.DEClash.Weighted>
0.1240

> <Gold.Chemscore.DEInternal.Weighted>
2.8514

> <Gold.Chemscore.Rot.Weighted>
5.9297

> <Gold.Chemscore.Internal.Correction.Weighted>
   9.000000E+99

> <Gold.Protein.RotatedTorsions>
[ 6907 6896 6895 6894 ] final   44.35 input  -60.11 | X-H torsion
[ 7974 7965 7964 7962 ] final -105.98 input  175.53 | X-H torsion
[ 8008 7997 7996 7995 ] final  152.44 input   59.86 | X-H torsion
[ 10167 10162 10161 10158 ] final   -5.22 input  -65.29 | X-H torsion
[ 10718 10713 10712 10709 ] final   10.42 input   66.30 | X-H torsion
[ 10763 10752 10751 10750 ] final  -41.30 input  -60.55 | X-H torsion
[ 11005 11000 10999 10996 ] final -103.38 input  -57.11 | X-H torsion

> <Gold.Protein.ActiveResidues>
 VAL166  LYS551  ARG553  GLY616  TRP617  ASP618  TYR619  PRO620  LYS621  CYS622 
 ASP623  PHE694  ASN695  SER759  ASP760  ASP761  ALA762  ILE779  LEU786  VAL792 
 PHE793  MET794  SER795  GLU796  ALA797  LYS798  CYS799  TRP800  GLU811  SER814 

> <Gold.Protein.RotatedAtoms>
  152.2315  134.8317  160.0472 H   0  0  0  0  0  0  0  0  0  0  0  0  # atno 6907 bound_to 6896
  151.9065  133.3545  159.3857 H   0  0  0  0  0  0  0  0  0  0  0  0  # atno 6908 bound_to 6896
  150.7027  134.4701  159.5465 H   0  0  0  0  0  0  0  0  0  0  0  0  # atno 6909 bound_to 6896
  145.2236  140.9144  143.3245 H   0  0  0  0  0  0  0  0  0  0  0  0  # atno 7974 bound_to 7965
  156.2629  140.2020  156.6334 H   0  0  0  0  0  0  0  0  0  0  0  0  # atno 8008 bound_to 7997
  154.6665  140.0555  157.0144 H   0  0  0  0  0  0  0  0  0  0  0  0  # atno 8009 bound_to 7997
  155.1199  140.3223  155.4503 H   0  0  0  0  0  0  0  0  0  0  0  0  # atno 8010 bound_to 7997
  140.6955  143.6333  150.8503 H   0  0  0  0  0  0  0  0  0  0  0  0  # atno 10167 bound_to 10162
  156.9807  130.6004  149.5676 H   0  0  0  0  0  0  0  0  0  0  0  0  # atno 10718 bound_to 10713
  153.9602  135.6740  153.4745 H   0  0  0  0  0  0  0  0  0  0  0  0  # atno 10763 bound_to 10752
  153.0842  135.4907  154.8560 H   0  0  0  0  0  0  0  0  0  0  0  0  # atno 10764 bound_to 10752
  154.7277  135.3131  154.8903 H   0  0  0  0  0  0  0  0  0  0  0  0  # atno 10765 bound_to 10752
  141.1148  133.8635  157.1479 H   0  0  0  0  0  0  0  0  0  0  0  0  # atno 11005 bound_to 11000
  144.9742  139.3849  143.6294 LP  0  0  0  0  0  0  0  0  0  0  0  0  # atno 17320 bound_to 7965
  146.3370  139.8853  142.8817 LP  0  0  0  0  0  0  0  0  0  0  0  0  # atno 17321 bound_to 7965
  140.0050  143.5703  152.2861 LP  0  0  0  0  0  0  0  0  0  0  0  0  # atno 17342 bound_to 10162
  139.6406  144.7654  151.2346 LP  0  0  0  0  0  0  0  0  0  0  0  0  # atno 17343 bound_to 10162
  156.0245  130.5340  150.8370 LP  0  0  0  0  0  0  0  0  0  0  0  0  # atno 17370 bound_to 10713
  157.5528  131.0944  150.9671 LP  0  0  0  0  0  0  0  0  0  0  0  0  # atno 17371 bound_to 10713
  140.0063  135.0007  157.0300 LP  0  0  0  0  0  0  0  0  0  0  0  0  # atno 17394 bound_to 11000
  140.4676  134.1420  155.7199 LP  0  0  0  0  0  0  0  0  0  0  0  0  # atno 17395 bound_to 11000

$$$$
