#       Name:                AV-unprocessed.smi:1947
#       Creating user name   scv26
#       Creation time:       Fri Mar 27 10:01:41 2020


#       File generated by GOLD software.
#

@<TRIPOS>MOLECULE
AV-unprocessed.smi:1947
    45    46     1
SMALL
NO_CHARGES


@<TRIPOS>ATOM
      1 ****        -0.4456   1.4302  -1.1692 C.3            1 S1                 0.0000
      2 ****        -1.2989   1.7166   0.0767 C.3            1 S1                 0.0000
      3 ****        -2.5197   0.7792   0.1632 C.3            1 S1                 0.0000
      4 ****        -3.3848   1.0947   1.3938 C.3            1 S1                 0.0000
      5 ****        -2.5587   1.0303   2.6874 C.3            1 S1                 0.0000
      6 ****        -1.3333   1.9570   2.6152 C.3            1 S1                 0.0000
      7 ****        -0.4653   1.6662   1.3767 C.3            1 S1                 0.0000
      8 ****         0.0963   0.3669   1.5167 O.3            1 S1                 0.0000
      9 ****         1.5061   0.3543   1.6742 C.3            1 S1                 0.0000
     10 ****         1.9886  -1.1037   1.6901 C.3            1 S1                 0.0000
     11 ****         1.6175  -1.8050   0.4654 N.am           1 S1                 0.0000
     12 ****         2.1949  -1.6290  -0.7312 C.2            1 S1                 0.0000
     13 ****         3.1538  -0.8803  -0.9179 O.2            1 S1                 0.0000
     14 ****         1.5847  -2.3618  -1.6763 N.am           1 S1                 0.0000
     15 ****         1.8674  -2.4036  -3.0642 C.2            1 S1                 0.0000
     16 ****         1.1256  -3.2099  -3.8327 N.2            1 S1                 0.0000
     17 ****         1.5063  -3.1517  -5.1679 N.2            1 S1                 0.0000
     18 ****         2.5202  -2.3013  -5.3544 C.2            1 S1                 0.0000
     19 ****         3.1117  -1.4856  -3.9178 S.3            1 S1                 0.0000
     20 ****        -0.0669   0.4081  -1.1679 H              1 S1                 0.0000
     21 ****         0.4116   2.1019  -1.2216 H              1 S1                 0.0000
     22 ****        -1.0266   1.5650  -2.0818 H              1 S1                 0.0000
     23 ****        -1.6763   2.7351  -0.0257 H              1 S1                 0.0000
     24 ****        -3.1240   0.8697  -0.7399 H              1 S1                 0.0000
     25 ****        -2.1880  -0.2592   0.2075 H              1 S1                 0.0000
     26 ****        -3.8218   2.0886   1.2886 H              1 S1                 0.0000
     27 ****        -4.2190   0.3948   1.4507 H              1 S1                 0.0000
     28 ****        -3.1812   1.3040   3.5396 H              1 S1                 0.0000
     29 ****        -2.2329   0.0041   2.8614 H              1 S1                 0.0000
     30 ****        -1.6694   2.9942   2.5834 H              1 S1                 0.0000
     31 ****        -0.7360   1.8563   3.5219 H              1 S1                 0.0000
     32 ****         0.3156   2.4273   1.3178 H              1 S1                 0.0000
     33 ****         1.9844   0.9011   0.8599 H              1 S1                 0.0000
     34 ****         1.7774   0.8523   2.6059 H              1 S1                 0.0000
     35 ****         3.0698  -1.1440   1.8295 H              1 S1                 0.0000
     36 ****         1.5444  -1.6309   2.5349 H              1 S1                 0.0000
     37 ****         0.8341  -2.4386   0.5276 H              1 S1                 0.0000
     38 ****         0.8156  -2.9408  -1.3726 H              1 S1                 0.0000
     39 ****         2.9222  -2.1530  -6.3456 H              1 S1                 0.0000
     40 ****        -0.1324  -0.1628   0.6999 LP             1 S1                 0.0000
     41 ****        -0.3125  -0.0661   2.3200 LP             1 S1                 0.0000
     42 ****         3.5417  -0.3646  -0.1540 LP             1 S1                 0.0000
     43 ****         3.5450  -0.7877  -1.8336 LP             1 S1                 0.0000
     44 ****         0.3850  -3.7861  -3.4871 LP             1 S1                 0.0000
     45 ****         1.0750  -3.6807  -5.8988 LP             1 S1                 0.0000
@<TRIPOS>BOND
    1    1    2 1     
    2    1   20 1     
    3    1   21 1     
    4    1   22 1     
    5    2    7 1     
    6    2    3 1     
    7    2   23 1     
    8    3    4 1     
    9    3   24 1     
   10    3   25 1     
   11    4    5 1     
   12    4   26 1     
   13    4   27 1     
   14    5    6 1     
   15    5   28 1     
   16    5   29 1     
   17    6    7 1     
   18    6   30 1     
   19    6   31 1     
   20    7    8 1     
   21    7   32 1     
   22    8    9 1     
   23    9   10 1     
   24    9   33 1     
   25    9   34 1     
   26   10   11 1     
   27   10   35 1     
   28   10   36 1     
   29   11   12 am    
   30   11   37 1     
   31   12   13 2     
   32   12   14 am    
   33   14   15 1     
   34   14   38 1     
   35   15   19 1     
   36   15   16 2     
   37   16   17 1     
   38   17   18 2     
   39   18   19 1     
   40   18   39 1     
   41    8   40 1     
   42    8   41 1     
   43   13   42 1     
   44   13   43 1     
   45   16   44 1     
   46   17   45 1     
@<TRIPOS>SUBSTRUCTURE
      1 S1             1
@<TRIPOS>SET
LONE_PAIRS      STATIC     ATOMS    <user>   **** ""
6 40 41 42 43 44 45
DONOR_HYDROGENS      STATIC     ATOMS    <user>   **** ""
2 37 38
ATOM$BLUE        STATIC     ATOMS    COLORGROUP SYSTEM
6 40 41 42 43 44 45
ATOM$RED        STATIC     ATOMS    COLORGROUP SYSTEM
2 37 38
