AV-unprocessed.smi:2032|AV-procd|sdf|8236|dock8
  -GOLD-   2272010503D 1   1.00000     0.00000
 Structure written by MMmdl.
 42 43  0  0  0  0  0  0  0  0  1 V2000
  154.2208  141.2569  160.7771 C   0  0  0  0  0  0  0  0  0  0  0  0
  153.4250  142.0906  159.7674 C   0  0  1  0  0  0  0  0  0  0  0  0
  152.6242  141.2077  158.7943 C   0  0  0  0  0  0  0  0  0  0  0  0
  151.7985  141.9922  157.8742 N   0  0  0  0  0  0  0  0  0  0  0  0
  151.0576  141.1460  156.9127 C   0  0  1  0  0  0  0  0  0  0  0  0
  150.1596  140.0854  157.5891 C   0  0  0  0  0  0  0  0  0  0  0  0
  150.1946  141.9474  155.9023 C   0  0  0  0  0  0  0  0  0  0  0  0
  149.7256  141.1206  154.7917 N   0  0  0  0  0  0  0  0  0  0  0  0
  148.6813  140.2810  154.8274 C   0  0  0  0  0  0  0  0  0  0  0  0
  147.9980  140.0859  155.8332 O   0  0  0  0  0  0  0  0  0  0  0  0
  148.4872  139.6995  153.6308 N   0  0  0  0  0  0  0  0  0  0  0  0
  147.4799  138.7711  153.2588 C   0  0  0  0  0  0  0  0  0  0  0  0
  146.9249  137.8847  154.0936 N   0  0  0  0  0  0  0  0  0  0  0  0
  145.9610  137.0979  153.4579 C   0  0  0  0  0  0  0  0  0  0  0  0
  145.7932  137.4015  152.1297 C   0  0  0  0  0  0  0  0  0  0  0  0
  146.8458  138.6952  151.6211 S   0  0  0  0  0  0  0  0  0  0  0  0
  150.9134  142.8451  158.6723 C   0  0  0  0  0  0  0  0  0  0  0  0
  151.6667  143.7267  159.6884 C   0  0  2  0  0  0  0  0  0  0  0  0
  152.4141  144.9032  159.0376 C   0  0  0  0  0  0  0  0  0  0  0  0
  152.5319  142.9287  160.4943 O   0  0  0  0  0  0  0  0  0  0  0  0
  154.9260  140.5964  160.2721 H   0  0  0  0  0  0  0  0  0  0  0  0
  153.5603  140.6392  161.3863 H   0  0  0  0  0  0  0  0  0  0  0  0
  154.7904  141.8992  161.4492 H   0  0  0  0  0  0  0  0  0  0  0  0
  154.1265  142.7073  159.2049 H   0  0  0  0  0  0  0  0  0  0  0  0
  153.3410  140.6015  158.2432 H   0  0  0  0  0  0  0  0  0  0  0  0
  151.9946  140.5168  159.3574 H   0  0  0  0  0  0  0  0  0  0  0  0
  151.7885  140.5944  156.3193 H   0  0  0  0  0  0  0  0  0  0  0  0
  149.5365  139.5701  156.8576 H   0  0  0  0  0  0  0  0  0  0  0  0
  149.4955  140.5345  158.3282 H   0  0  0  0  0  0  0  0  0  0  0  0
  150.7427  139.3117  158.0874 H   0  0  0  0  0  0  0  0  0  0  0  0
  149.3235  142.3781  156.3945 H   0  0  0  0  0  0  0  0  0  0  0  0
  150.7499  142.8118  155.5341 H   0  0  0  0  0  0  0  0  0  0  0  0
  150.2221  141.2203  153.9184 H   0  0  0  0  0  0  0  0  0  0  0  0
  149.1303  139.9579  152.8970 H   0  0  0  0  0  0  0  0  0  0  0  0
  145.4410  136.3426  154.0284 H   0  0  0  0  0  0  0  0  0  0  0  0
  145.1170  136.9440  151.4230 H   0  0  0  0  0  0  0  0  0  0  0  0
  150.3289  143.5033  158.0313 H   0  0  0  0  0  0  0  0  0  0  0  0
  150.1982  142.2199  159.2090 H   0  0  0  0  0  0  0  0  0  0  0  0
  150.9301  144.1567  160.3676 H   0  0  0  0  0  0  0  0  0  0  0  0
  151.7179  145.5684  158.5261 H   0  0  0  0  0  0  0  0  0  0  0  0
  153.1442  144.5692  158.3007 H   0  0  0  0  0  0  0  0  0  0  0  0
  152.9412  145.4918  159.7885 H   0  0  0  0  0  0  0  0  0  0  0  0
  1  2  1  0  0  0  0
  1 21  1  0  0  0  0
  1 22  1  0  0  0  0
  1 23  1  0  0  0  0
  2 20  1  0  0  0  0
  2  3  1  0  0  0  0
  2 24  1  0  0  0  0
  3  4  1  0  0  0  0
  3 25  1  0  0  0  0
  3 26  1  0  0  0  0
  4  5  1  0  0  0  0
  4 17  1  0  0  0  0
  5  6  1  0  0  0  0
  5  7  1  0  0  0  0
  5 27  1  0  0  0  0
  6 28  1  0  0  0  0
  6 29  1  0  0  0  0
  6 30  1  0  0  0  0
  7  8  1  0  0  0  0
  7 31  1  0  0  0  0
  7 32  1  0  0  0  0
  8  9  1  0  0  0  0
  8 33  1  0  0  0  0
  9 10  2  0  0  0  0
  9 11  1  0  0  0  0
 11 12  1  0  0  0  0
 11 34  1  0  0  0  0
 12 16  1  0  0  0  0
 12 13  2  0  0  0  0
 13 14  1  0  0  0  0
 14 15  2  0  0  0  0
 14 35  1  0  0  0  0
 15 16  1  0  0  0  0
 15 36  1  0  0  0  0
 17 18  1  0  0  0  0
 17 37  1  0  0  0  0
 17 38  1  0  0  0  0
 18 19  1  0  0  0  0
 18 20  1  0  0  0  0
 18 39  1  0  0  0  0
 19 40  1  0  0  0  0
 19 41  1  0  0  0  0
 19 42  1  0  0  0  0
M  END
> <s_m_source_file>
AV-unprocessed.smi

> <i_m_source_file_index>
2032

> <i_lp_mmshare_version>
43012

> <i_f3d_flags>
0

> <s_epik_input>
W0NIM11bQ0BASF0xW0NIMl1OKFtDSDJdW0NASF0oTzEpW0NIM10pW0NASF0oW0NIM10pW0NIMl1bTkhdQyg9TylbTkhdYzJuW2NIXVtjSF1zMg==

> <s_epik_cmdline>
J2VwaWtfcHl0aG9uJywgJy1waCcsICc3LjAnLCAnLXRuJywgJzgnLCAnLW1hJywgJzIwMCcsICctbWV0YWxfYmluZGluZycsICctaW1hZScsICc8aW5maWxlLm1hZT4nLCAnLW9tYWUnLCAnPG91dGZpbGUubWFlPic=

> <r_lp_tautomer_probability>
0.999

> <r_epik_Ionization_Penalty>
0.219202

> <r_epik_Ionization_Penalty_Charging>
0

> <r_epik_Ionization_Penalty_Neutral>
0.219202

> <r_epik_State_Penalty>
0.209349

> <r_epik_Charging_Adjusted_Penalty>
0.209349

> <i_epik_Tot_Q>
0

> <i_epik_Tot_abs_Q>
0

> <r_epik_Metal_State_Penalty>
0.247737

> <b_epik_Metal_Only>
0

> <s_lp_Force_Field>
OPLS_2005

> <r_lp_Energy>
32.3781

> <b_lp_Chiralities_Consistent>
1

> <s_lp_Variant>
AV-unprocessed.smi:2032-6

> <Gold.Version>
5.8.1

> <Gold.Id.Protein>
6NUR|6NUR_protein|mol2

> <Gold.PLP.Fitness>
39.6865

> <Gold.PLP.PLP>
-35.2293

> <Gold.PLP.part.hbond>
-1.0000

> <Gold.PLP.part.metal>
0.0000

> <Gold.PLP.part.buried>
-2.4096

> <Gold.PLP.part.nonpolar>
-32.3405

> <Gold.PLP.part.repulsive>
0.9742

> <Gold.PLP.ligand.clash>
0.0000

> <Gold.PLP.ligand.torsion>
0.4004

> <Gold.PLP.Chemscore.Hbond>
1.0000

> <Gold.PLP.Chemscore.CHOScore>
0.7400

> <Gold.PLP.Chemscore.Metal>
0.0000

> <Gold.Chemscore.Hbonds>
donor molecule, donor type, donor heavy atom, donor atom, acceptor molecule, acceptor atom, score
      L1  H    11    34       P1  7957  1.00
      L1  C    15    36       P1 10171  0.56

> <Gold.PLP.Chemscore.Internal.Correction>
0.0379

> <Gold.Rescore>
     Score         DG    S(hbond)    S(metal)    S(lipo)     H(rot)  DE(clash)    DE(int)     intcor
     13.54     -16.44       0.99        0.00      99.73       1.57       0.06       2.83       ----

> <Gold.Chemscore.Fitness>
13.5417

> <Gold.Chemscore.DG>
-16.4353

> <Gold.Chemscore.ZeroCoef>
-5.4800

> <Gold.Chemscore.Hbond>
0.9936

> <Gold.Chemscore.Metal>
0.0000

> <Gold.Chemscore.Lipo>
99.7326

> <Gold.Chemscore.Internal_Hbond>
0.0000

> <Gold.Chemscore.DEClash>
0.0589

> <Gold.Chemscore.DEInternal>
2.8348

> <Gold.Chemscore.Rot>
1.5750

> <Gold.Chemscore.Internal.Correction>
   9.000000E+99

> <Gold.Chemscore.Hbonds>
donor molecule, donor type, donor heavy atom, donor atom, acceptor molecule, acceptor atom, score
      L1  H    11    34       P1  7957  0.96

> <Gold.Chemscore.Hbond.Weighted>
-3.3185

> <Gold.Chemscore.Metal.Weighted>
-0.0000

> <Gold.Chemscore.Lipo.Weighted>
-11.6687

> <Gold.Chemscore.Internal_Hbond.Weighted>
0.0000

> <Gold.Chemscore.DEClash.Weighted>
0.0589

> <Gold.Chemscore.DEInternal.Weighted>
2.8348

> <Gold.Chemscore.Rot.Weighted>
4.0319

> <Gold.Chemscore.Internal.Correction.Weighted>
   9.000000E+99

> <Gold.Protein.RotatedTorsions>
[ 6907 6896 6895 6894 ] final   29.24 input  -60.11 | X-H torsion
[ 7974 7965 7964 7962 ] final   98.24 input  175.53 | X-H torsion
[ 8008 7997 7996 7995 ] final  171.75 input   59.86 | X-H torsion
[ 10167 10162 10161 10158 ] final  148.97 input  -65.29 | X-H torsion
[ 10718 10713 10712 10709 ] final  -21.33 input   66.30 | X-H torsion
[ 10763 10752 10751 10750 ] final  -20.37 input  -60.55 | X-H torsion
[ 11005 11000 10999 10996 ] final  -98.98 input  -57.11 | X-H torsion

> <Gold.Protein.ActiveResidues>
 VAL166  LYS551  ARG553  GLY616  TRP617  ASP618  TYR619  PRO620  LYS621  CYS622 
 ASP623  PHE694  ASN695  SER759  ASP760  ASP761  ALA762  ILE779  LEU786  VAL792 
 PHE793  MET794  SER795  GLU796  ALA797  LYS798  CYS799  TRP800  GLU811  SER814 

> <Gold.Protein.RotatedAtoms>
  152.0287  134.9780  160.0571 H   0  0  0  0  0  0  0  0  0  0  0  0  # atno 6907 bound_to 6896
  152.1265  133.4378  159.4709 H   0  0  0  0  0  0  0  0  0  0  0  0  # atno 6908 bound_to 6896
  150.6853  134.2390  159.4508 H   0  0  0  0  0  0  0  0  0  0  0  0  # atno 6909 bound_to 6896
  145.4148  139.2329  143.3228 H   0  0  0  0  0  0  0  0  0  0  0  0  # atno 7974 bound_to 7965
  156.1241  140.1504  156.9162 H   0  0  0  0  0  0  0  0  0  0  0  0  # atno 8008 bound_to 7997
  154.4858  140.0865  156.7524 H   0  0  0  0  0  0  0  0  0  0  0  0  # atno 8009 bound_to 7997
  155.4375  140.3429  155.4288 H   0  0  0  0  0  0  0  0  0  0  0  0  # atno 8010 bound_to 7997
  139.4867  144.5638  151.7182 H   0  0  0  0  0  0  0  0  0  0  0  0  # atno 10167 bound_to 10162
  156.5196  130.4629  149.6604 H   0  0  0  0  0  0  0  0  0  0  0  0  # atno 10718 bound_to 10713
  153.6193  135.6993  153.5316 H   0  0  0  0  0  0  0  0  0  0  0  0  # atno 10763 bound_to 10752
  153.2951  135.4145  155.1201 H   0  0  0  0  0  0  0  0  0  0  0  0  # atno 10764 bound_to 10752
  154.8546  135.3635  154.5734 H   0  0  0  0  0  0  0  0  0  0  0  0  # atno 10765 bound_to 10752
  141.1325  133.8287  157.0912 H   0  0  0  0  0  0  0  0  0  0  0  0  # atno 11005 bound_to 11000
  146.2687  140.4864  142.8823 LP  0  0  0  0  0  0  0  0  0  0  0  0  # atno 17320 bound_to 7965
  144.8285  140.6668  143.6306 LP  0  0  0  0  0  0  0  0  0  0  0  0  # atno 17321 bound_to 7965
  140.5212  144.0875  150.6023 LP  0  0  0  0  0  0  0  0  0  0  0  0  # atno 17342 bound_to 10162
  140.3834  143.2790  152.0144 LP  0  0  0  0  0  0  0  0  0  0  0  0  # atno 17343 bound_to 10162
  156.3162  130.7255  151.2158 LP  0  0  0  0  0  0  0  0  0  0  0  0  # atno 17370 bound_to 10713
  157.7439  131.0468  150.4912 LP  0  0  0  0  0  0  0  0  0  0  0  0  # atno 17371 bound_to 10713
  140.0391  134.9863  157.0928 LP  0  0  0  0  0  0  0  0  0  0  0  0  # atno 17394 bound_to 11000
  140.4163  134.1928  155.7163 LP  0  0  0  0  0  0  0  0  0  0  0  0  # atno 17395 bound_to 11000

$$$$
