AV-unprocessed.smi:2478|AV-procd|sdf|9764|dock6
  -GOLD-   2272013403D 1   1.00000     0.00000
 Structure written by MMmdl.
 42 43  0  0  0  0  0  0  0  0  1 V2000
  151.4653  145.6643  159.8905 C   0  0  0  0  0  0  0  0  0  0  0  0
  152.4454  144.5234  160.2052 C   0  0  1  0  0  0  0  0  0  0  0  0
  152.1899  143.9147  161.5990 C   0  0  0  0  0  0  0  0  0  0  0  0
  153.1969  142.7987  161.9211 C   0  0  0  0  0  0  0  0  0  0  0  0
  153.1948  141.7133  160.8342 C   0  0  0  0  0  0  0  0  0  0  0  0
  153.4514  142.3181  159.4442 C   0  0  0  0  0  0  0  0  0  0  0  0
  152.4358  143.4323  159.1110 C   0  0  1  0  0  0  0  0  0  0  0  0
  151.1204  142.8955  159.0228 O   0  0  0  0  0  0  0  0  0  0  0  0
  150.6659  142.6548  157.6986 C   0  0  0  0  0  0  0  0  0  0  0  0
  149.2670  142.0410  157.7513 C   0  0  0  0  0  0  0  0  0  0  0  0
  149.1262  140.8217  157.6479 O   0  0  0  0  0  0  0  0  0  0  0  0
  148.2593  142.9191  157.9070 N   0  0  0  0  0  0  0  0  0  0  0  0
  146.8623  142.6630  157.9781 C   0  0  0  0  0  0  0  0  0  0  0  0
  146.1335  142.2366  156.9165 N   0  0  0  0  0  0  0  0  0  0  0  0
  144.8118  142.0159  157.0661 C   0  0  0  0  0  0  0  0  0  0  0  0
  144.1362  142.2041  158.2836 C   0  0  0  0  0  0  0  0  0  0  0  0
  144.8785  142.6453  159.3924 C   0  0  0  0  0  0  0  0  0  0  0  0
  146.2652  142.8906  159.2441 C   0  0  0  0  0  0  0  0  0  0  0  0
  147.0564  143.3086  160.2930 O   0  0  0  0  0  0  0  0  0  0  0  0
  146.7457  144.4625  160.9416 C   0  0  0  0  0  0  0  0  0  0  0  0
  145.8219  144.2295  161.9062 F   0  0  0  0  0  0  0  0  0  0  0  0
  147.8522  144.9597  161.5452 F   0  0  0  0  0  0  0  0  0  0  0  0
  150.4323  145.3150  159.8903 H   0  0  0  0  0  0  0  0  0  0  0  0
  151.6697  146.0993  158.9119 H   0  0  0  0  0  0  0  0  0  0  0  0
  151.5440  146.4628  160.6286 H   0  0  0  0  0  0  0  0  0  0  0  0
  153.4447  144.9612  160.2188 H   0  0  0  0  0  0  0  0  0  0  0  0
  152.2518  144.6911  162.3621 H   0  0  0  0  0  0  0  0  0  0  0  0
  151.1759  143.5155  161.6491 H   0  0  0  0  0  0  0  0  0  0  0  0
  154.1974  143.2240  162.0097 H   0  0  0  0  0  0  0  0  0  0  0  0
  152.9626  142.3550  162.8891 H   0  0  0  0  0  0  0  0  0  0  0  0
  153.9527  140.9623  161.0585 H   0  0  0  0  0  0  0  0  0  0  0  0
  152.2356  141.1937  160.8369 H   0  0  0  0  0  0  0  0  0  0  0  0
  154.4592  142.7343  159.4167 H   0  0  0  0  0  0  0  0  0  0  0  0
  153.4334  141.5330  158.6891 H   0  0  0  0  0  0  0  0  0  0  0  0
  152.7067  143.8968  158.1610 H   0  0  0  0  0  0  0  0  0  0  0  0
  150.6390  143.5910  157.1381 H   0  0  0  0  0  0  0  0  0  0  0  0
  151.3261  141.9665  157.1714 H   0  0  0  0  0  0  0  0  0  0  0  0
  148.5231  143.8907  157.9840 H   0  0  0  0  0  0  0  0  0  0  0  0
  144.2793  141.6763  156.1903 H   0  0  0  0  0  0  0  0  0  0  0  0
  143.0768  142.0112  158.3653 H   0  0  0  0  0  0  0  0  0  0  0  0
  144.3814  142.7847  160.3408 H   0  0  0  0  0  0  0  0  0  0  0  0
  146.3701  145.2225  160.2558 H   0  0  0  0  0  0  0  0  0  0  0  0
  1  2  1  0  0  0  0
  1 23  1  0  0  0  0
  1 24  1  0  0  0  0
  1 25  1  0  0  0  0
  2  7  1  0  0  0  0
  2  3  1  0  0  0  0
  2 26  1  0  0  0  0
  3  4  1  0  0  0  0
  3 27  1  0  0  0  0
  3 28  1  0  0  0  0
  4  5  1  0  0  0  0
  4 29  1  0  0  0  0
  4 30  1  0  0  0  0
  5  6  1  0  0  0  0
  5 31  1  0  0  0  0
  5 32  1  0  0  0  0
  6  7  1  0  0  0  0
  6 33  1  0  0  0  0
  6 34  1  0  0  0  0
  7  8  1  0  0  0  0
  7 35  1  0  0  0  0
  8  9  1  0  0  0  0
  9 10  1  0  0  0  0
  9 36  1  0  0  0  0
  9 37  1  0  0  0  0
 10 11  2  0  0  0  0
 10 12  1  0  0  0  0
 12 13  1  0  0  0  0
 12 38  1  0  0  0  0
 13 18  1  0  0  0  0
 13 14  2  0  0  0  0
 14 15  1  0  0  0  0
 15 16  2  0  0  0  0
 15 39  1  0  0  0  0
 16 17  1  0  0  0  0
 16 40  1  0  0  0  0
 17 18  2  0  0  0  0
 17 41  1  0  0  0  0
 18 19  1  0  0  0  0
 19 20  1  0  0  0  0
 20 21  1  0  0  0  0
 20 22  1  0  0  0  0
 20 42  1  0  0  0  0
M  END
> <s_m_source_file>
AV-unprocessed.smi

> <i_m_source_file_index>
2478

> <i_lp_mmshare_version>
43012

> <i_f3d_flags>
0

> <s_epik_input>
W0NIM11bQ0BASF0xW0NIMl1bQ0gyXVtDSDJdW0NIMl1bQ0BIXTFPW0NIMl1DKD1PKVtOSF1jMm5bY0hdW2NIXVtjSF1jMk9bQ0hdKEYpRg==

> <s_epik_cmdline>
J2VwaWtfcHl0aG9uJywgJy1waCcsICc3LjAnLCAnLXRuJywgJzgnLCAnLW1hJywgJzIwMCcsICctbWV0YWxfYmluZGluZycsICctaW1hZScsICc8aW5maWxlLm1hZT4nLCAnLW9tYWUnLCAnPG91dGZpbGUubWFlPic=

> <r_lp_tautomer_probability>
1

> <r_epik_Ionization_Penalty>
6.06012e-05

> <r_epik_Ionization_Penalty_Charging>
0

> <r_epik_Ionization_Penalty_Neutral>
6.06012e-05

> <r_epik_State_Penalty>
-0

> <r_epik_Charging_Adjusted_Penalty>
0

> <i_epik_Tot_Q>
0

> <i_epik_Tot_abs_Q>
0

> <r_epik_Metal_State_Penalty>
-0

> <b_epik_Metal_Only>
0

> <s_lp_Force_Field>
OPLS_2005

> <r_lp_Energy>
14.9607

> <b_lp_Chiralities_Consistent>
1

> <s_lp_Variant>
AV-unprocessed.smi:2478-2

> <Gold.Version>
5.8.1

> <Gold.Id.Protein>
6NUR|6NUR_protein|mol2

> <Gold.PLP.Fitness>
47.7021

> <Gold.PLP.PLP>
-47.6215

> <Gold.PLP.part.hbond>
-3.1269

> <Gold.PLP.part.metal>
0.0000

> <Gold.PLP.part.buried>
-7.5617

> <Gold.PLP.part.nonpolar>
-36.6180

> <Gold.PLP.part.repulsive>
0.3056

> <Gold.PLP.ligand.clash>
0.0000

> <Gold.PLP.ligand.torsion>
1.8016

> <Gold.PLP.Chemscore.Hbond>
1.1939

> <Gold.PLP.Chemscore.CHOScore>
0.0000

> <Gold.PLP.Chemscore.Metal>
0.0000

> <Gold.Chemscore.Hbonds>
donor molecule, donor type, donor heavy atom, donor atom, acceptor molecule, acceptor atom, score
      L1  H    12    38       P1  8029  0.21
      P1  H  6933  6944       L1    19  0.89

> <Gold.PLP.Chemscore.Internal.Correction>
0.1022

> <Gold.Rescore>
     Score         DG    S(hbond)    S(metal)    S(lipo)     H(rot)  DE(clash)    DE(int)     intcor
     13.15     -15.61       0.93        0.00     100.57       1.85       0.65       1.81       ----

> <Gold.Chemscore.Fitness>
13.1485

> <Gold.Chemscore.DG>
-15.6086

> <Gold.Chemscore.ZeroCoef>
-5.4800

> <Gold.Chemscore.Hbond>
0.9261

> <Gold.Chemscore.Metal>
0.0000

> <Gold.Chemscore.Lipo>
100.5696

> <Gold.Chemscore.Internal_Hbond>
0.0000

> <Gold.Chemscore.DEClash>
0.6549

> <Gold.Chemscore.DEInternal>
1.8053

> <Gold.Chemscore.Rot>
1.8481

> <Gold.Chemscore.Internal.Correction>
   9.000000E+99

> <Gold.Chemscore.Hbonds>
donor molecule, donor type, donor heavy atom, donor atom, acceptor molecule, acceptor atom, score
      L1  H    12    38       P1  8029  0.01
      P1  H  6933  6944       L1    19  0.52

> <Gold.Chemscore.Hbond.Weighted>
-3.0931

> <Gold.Chemscore.Metal.Weighted>
-0.0000

> <Gold.Chemscore.Lipo.Weighted>
-11.7666

> <Gold.Chemscore.Internal_Hbond.Weighted>
0.0000

> <Gold.Chemscore.DEClash.Weighted>
0.6549

> <Gold.Chemscore.DEInternal.Weighted>
1.8053

> <Gold.Chemscore.Rot.Weighted>
4.7311

> <Gold.Chemscore.Internal.Correction.Weighted>
   9.000000E+99

> <Gold.Protein.RotatedTorsions>
[ 6907 6896 6895 6894 ] final   18.01 input  -60.11 | X-H torsion
[ 7974 7965 7964 7962 ] final -110.34 input  175.53 | X-H torsion
[ 8008 7997 7996 7995 ] final  -50.65 input   59.86 | X-H torsion
[ 10167 10162 10161 10158 ] final  128.40 input  -65.29 | X-H torsion
[ 10718 10713 10712 10709 ] final -102.42 input   66.30 | X-H torsion
[ 10763 10752 10751 10750 ] final -100.04 input  -60.55 | X-H torsion
[ 11005 11000 10999 10996 ] final  -56.85 input  -57.11 | X-H torsion

> <Gold.Protein.ActiveResidues>
 VAL166  LYS551  ARG553  GLY616  TRP617  ASP618  TYR619  PRO620  LYS621  CYS622 
 ASP623  PHE694  ASN695  SER759  ASP760  ASP761  ALA762  ILE779  LEU786  VAL792 
 PHE793  MET794  SER795  GLU796  ALA797  LYS798  CYS799  TRP800  GLU811  SER814 

> <Gold.Protein.RotatedAtoms>
  151.8585  135.0532  160.0466 H   0  0  0  0  0  0  0  0  0  0  0  0  # atno 6907 bound_to 6896
  152.2681  133.5353  159.5430 H   0  0  0  0  0  0  0  0  0  0  0  0  # atno 6908 bound_to 6896
  150.7141  134.0652  159.3887 H   0  0  0  0  0  0  0  0  0  0  0  0  # atno 6909 bound_to 6896
  145.1694  140.8918  143.3544 H   0  0  0  0  0  0  0  0  0  0  0  0  # atno 7974 bound_to 7965
  154.4066  140.1267  156.4701 H   0  0  0  0  0  0  0  0  0  0  0  0  # atno 8008 bound_to 7997
  155.7188  140.3493  155.4987 H   0  0  0  0  0  0  0  0  0  0  0  0  # atno 8009 bound_to 7997
  155.9234  140.1056  157.1179 H   0  0  0  0  0  0  0  0  0  0  0  0  # atno 8010 bound_to 7997
  139.5529  144.6827  151.4270 H   0  0  0  0  0  0  0  0  0  0  0  0  # atno 10167 bound_to 10162
  156.0228  130.5419  150.7105 H   0  0  0  0  0  0  0  0  0  0  0  0  # atno 10718 bound_to 10713
  154.7547  135.4949  153.9353 H   0  0  0  0  0  0  0  0  0  0  0  0  # atno 10763 bound_to 10752
  153.1183  135.6725  153.9388 H   0  0  0  0  0  0  0  0  0  0  0  0  # atno 10764 bound_to 10752
  153.9127  135.3097  155.3427 H   0  0  0  0  0  0  0  0  0  0  0  0  # atno 10765 bound_to 10752
  141.1138  133.6610  156.4681 H   0  0  0  0  0  0  0  0  0  0  0  0  # atno 11005 bound_to 11000
  145.0248  139.3392  143.6054 LP  0  0  0  0  0  0  0  0  0  0  0  0  # atno 17320 bound_to 7965
  146.3471  139.9563  142.8723 LP  0  0  0  0  0  0  0  0  0  0  0  0  # atno 17321 bound_to 7965
  140.6796  143.8113  150.7103 LP  0  0  0  0  0  0  0  0  0  0  0  0  # atno 17342 bound_to 10162
  140.1562  143.4315  152.2098 LP  0  0  0  0  0  0  0  0  0  0  0  0  # atno 17343 bound_to 10162
  157.4745  131.0896  151.0606 LP  0  0  0  0  0  0  0  0  0  0  0  0  # atno 17370 bound_to 10713
  157.1057  130.6000  149.5470 LP  0  0  0  0  0  0  0  0  0  0  0  0  # atno 17371 bound_to 10713
  140.4701  134.6761  157.5125 LP  0  0  0  0  0  0  0  0  0  0  0  0  # atno 17394 bound_to 11000
  140.0048  134.6780  155.9472 LP  0  0  0  0  0  0  0  0  0  0  0  0  # atno 17395 bound_to 11000

$$$$
