AV-unprocessed.smi:2114|AV-procd|sdf|8617|dock6
  -GOLD-   2272011363D 1   1.00000     0.00000
 Structure written by MMmdl.
 47 48  0  0  0  0  0  0  0  0  1 V2000
  148.7908  133.0235  153.5743 C   0  0  0  0  0  0  0  0  0  0  0  0
  148.1058  133.5115  154.7144 O   0  0  0  0  0  0  0  0  0  0  0  0
  148.5842  134.7789  155.1354 C   0  0  0  0  0  0  0  0  0  0  0  0
  150.0922  134.6882  155.4153 C   0  0  2  0  0  0  0  0  0  0  0  0
  150.4323  133.4599  156.2751 C   0  0  0  0  0  0  0  0  0  0  0  0
  150.5363  135.9087  156.0828 N   0  0  0  0  0  0  0  0  0  0  0  0
  151.3072  136.8615  155.5335 C   0  0  0  0  0  0  0  0  0  0  0  0
  151.7261  136.8155  154.3767 O   0  0  0  0  0  0  0  0  0  0  0  0
  151.5860  138.0505  156.4064 C   0  0  0  0  0  0  0  0  0  0  0  0
  151.4527  137.9897  157.8108 C   0  0  0  0  0  0  0  0  0  0  0  0
  151.7468  139.1334  158.5776 C   0  0  0  0  0  0  0  0  0  0  0  0
  152.1742  140.3130  157.9235 C   0  0  0  0  0  0  0  0  0  0  0  0
  152.4658  141.4734  158.6727 N   0  0  0  0  0  0  0  0  0  0  0  0
  151.6563  142.6658  158.4306 C   0  0  0  0  0  0  0  0  0  0  0  0
  152.2919  143.8941  159.1074 C   0  0  1  0  0  0  0  0  0  0  0  0
  151.4134  145.1422  158.9764 C   0  0  0  0  0  0  0  0  0  0  0  0
  152.4758  143.6194  160.4933 O   0  0  0  0  0  0  0  0  0  0  0  0
  153.3559  142.5217  160.7187 C   0  0  1  0  0  0  0  0  0  0  0  0
  153.5585  142.3707  162.2300 C   0  0  0  0  0  0  0  0  0  0  0  0
  152.7556  141.2517  160.0868 C   0  0  0  0  0  0  0  0  0  0  0  0
  152.3216  140.3624  156.5768 N   0  0  0  0  0  0  0  0  0  0  0  0
  152.0380  139.2638  155.8456 C   0  0  0  0  0  0  0  0  0  0  0  0
  148.3758  132.0586  153.2829 H   0  0  0  0  0  0  0  0  0  0  0  0
  149.8525  132.8840  153.7831 H   0  0  0  0  0  0  0  0  0  0  0  0
  148.6862  133.7043  152.7286 H   0  0  0  0  0  0  0  0  0  0  0  0
  148.3822  135.5348  154.3743 H   0  0  0  0  0  0  0  0  0  0  0  0
  148.0559  135.0791  156.0418 H   0  0  0  0  0  0  0  0  0  0  0  0
  150.6078  134.5922  154.4580 H   0  0  0  0  0  0  0  0  0  0  0  0
  150.1087  132.5399  155.7878 H   0  0  0  0  0  0  0  0  0  0  0  0
  149.9448  133.5097  157.2491 H   0  0  0  0  0  0  0  0  0  0  0  0
  151.5066  133.3787  156.4440 H   0  0  0  0  0  0  0  0  0  0  0  0
  150.2161  136.0480  157.0300 H   0  0  0  0  0  0  0  0  0  0  0  0
  151.1350  137.0834  158.3058 H   0  0  0  0  0  0  0  0  0  0  0  0
  151.6564  139.0880  159.6526 H   0  0  0  0  0  0  0  0  0  0  0  0
  151.5690  142.8484  157.3585 H   0  0  0  0  0  0  0  0  0  0  0  0
  150.6492  142.5015  158.8172 H   0  0  0  0  0  0  0  0  0  0  0  0
  153.2615  144.1036  158.6520 H   0  0  0  0  0  0  0  0  0  0  0  0
  151.2499  145.3991  157.9295 H   0  0  0  0  0  0  0  0  0  0  0  0
  151.8815  145.9998  159.4599 H   0  0  0  0  0  0  0  0  0  0  0  0
  150.4384  144.9890  159.4400 H   0  0  0  0  0  0  0  0  0  0  0  0
  154.3223  142.7378  160.2597 H   0  0  0  0  0  0  0  0  0  0  0  0
  154.2341  141.5453  162.4550 H   0  0  0  0  0  0  0  0  0  0  0  0
  152.6130  142.1780  162.7380 H   0  0  0  0  0  0  0  0  0  0  0  0
  153.9878  143.2772  162.6576 H   0  0  0  0  0  0  0  0  0  0  0  0
  151.8287  140.9814  160.5944 H   0  0  0  0  0  0  0  0  0  0  0  0
  153.4475  140.4228  160.2301 H   0  0  0  0  0  0  0  0  0  0  0  0
  152.1735  139.3658  154.7785 H   0  0  0  0  0  0  0  0  0  0  0  0
  1  2  1  0  0  0  0
  1 23  1  0  0  0  0
  1 24  1  0  0  0  0
  1 25  1  0  0  0  0
  2  3  1  0  0  0  0
  3  4  1  0  0  0  0
  3 26  1  0  0  0  0
  3 27  1  0  0  0  0
  4  5  1  0  0  0  0
  4  6  1  0  0  0  0
  4 28  1  0  0  0  0
  5 29  1  0  0  0  0
  5 30  1  0  0  0  0
  5 31  1  0  0  0  0
  6  7  1  0  0  0  0
  6 32  1  0  0  0  0
  7  8  2  0  0  0  0
  7  9  1  0  0  0  0
  9 22  1  0  0  0  0
  9 10  2  0  0  0  0
 10 11  1  0  0  0  0
 10 33  1  0  0  0  0
 11 12  2  0  0  0  0
 11 34  1  0  0  0  0
 12 13  1  0  0  0  0
 12 21  1  0  0  0  0
 13 20  1  0  0  0  0
 13 14  1  0  0  0  0
 14 15  1  0  0  0  0
 14 35  1  0  0  0  0
 14 36  1  0  0  0  0
 15 16  1  0  0  0  0
 15 17  1  0  0  0  0
 15 37  1  0  0  0  0
 16 38  1  0  0  0  0
 16 39  1  0  0  0  0
 16 40  1  0  0  0  0
 17 18  1  0  0  0  0
 18 19  1  0  0  0  0
 18 20  1  0  0  0  0
 18 41  1  0  0  0  0
 19 42  1  0  0  0  0
 19 43  1  0  0  0  0
 19 44  1  0  0  0  0
 20 45  1  0  0  0  0
 20 46  1  0  0  0  0
 21 22  2  0  0  0  0
 22 47  1  0  0  0  0
M  END
> <s_m_source_file>
AV-unprocessed.smi

> <i_m_source_file_index>
2114

> <i_lp_mmshare_version>
43012

> <i_f3d_flags>
0

> <s_epik_input>
W0NIM11PW0NIMl1bQ0BIXShbQ0gzXSlbTkhdQyg9TyljMVtjSF1bY0hdYyhuW2NIXTEpTjJbQ0gyXVtDQEBIXShbQ0gzXSlPW0NAQEhdKFtDSDNdKVtDSDJdMg==

> <s_epik_cmdline>
J2VwaWtfcHl0aG9uJywgJy1waCcsICc3LjAnLCAnLXRuJywgJzgnLCAnLW1hJywgJzIwMCcsICctbWV0YWxfYmluZGluZycsICctaW1hZScsICc8aW5maWxlLm1hZT4nLCAnLW9tYWUnLCAnPG91dGZpbGUubWFlPic=

> <r_lp_tautomer_probability>
1

> <r_epik_Ionization_Penalty>
1.92915e-05

> <r_epik_Ionization_Penalty_Charging>
0

> <r_epik_Ionization_Penalty_Neutral>
1.92915e-05

> <r_epik_State_Penalty>
-0

> <r_epik_Charging_Adjusted_Penalty>
0

> <i_epik_Tot_Q>
0

> <i_epik_Tot_abs_Q>
0

> <r_epik_Metal_State_Penalty>
-0

> <b_epik_Metal_Only>
0

> <s_lp_Force_Field>
OPLS_2005

> <r_lp_Energy>
18.4653

> <b_lp_Chiralities_Consistent>
1

> <s_lp_Variant>
AV-unprocessed.smi:2114-1

> <Gold.Version>
5.8.1

> <Gold.Id.Protein>
6NUR|6NUR_protein|mol2

> <Gold.PLP.Fitness>
42.7770

> <Gold.PLP.PLP>
-39.5371

> <Gold.PLP.part.hbond>
-2.0000

> <Gold.PLP.part.metal>
0.0000

> <Gold.PLP.part.buried>
-4.3818

> <Gold.PLP.part.nonpolar>
-33.5954

> <Gold.PLP.part.repulsive>
0.7011

> <Gold.PLP.ligand.clash>
0.0000

> <Gold.PLP.ligand.torsion>
0.6017

> <Gold.PLP.Chemscore.Hbond>
1.3684

> <Gold.PLP.Chemscore.CHOScore>
0.0000

> <Gold.PLP.Chemscore.Metal>
0.0000

> <Gold.Chemscore.Hbonds>
donor molecule, donor type, donor heavy atom, donor atom, acceptor molecule, acceptor atom, score
      P1  H  7997  8009       L1    21  0.30
      P1  H 10752 10763       L1     8  1.00

> <Gold.PLP.Chemscore.Internal.Correction>
0.3382

> <Gold.Rescore>
     Score         DG    S(hbond)    S(metal)    S(lipo)     H(rot)  DE(clash)    DE(int)     intcor
     16.35     -17.15       0.99        0.00     104.78       1.52       0.15       0.64       ----

> <Gold.Chemscore.Fitness>
16.3548

> <Gold.Chemscore.DG>
-17.1488

> <Gold.Chemscore.ZeroCoef>
-5.4800

> <Gold.Chemscore.Hbond>
0.9901

> <Gold.Chemscore.Metal>
0.0000

> <Gold.Chemscore.Lipo>
104.7845

> <Gold.Chemscore.Internal_Hbond>
0.0000

> <Gold.Chemscore.DEClash>
0.1497

> <Gold.Chemscore.DEInternal>
0.6443

> <Gold.Chemscore.Rot>
1.5226

> <Gold.Chemscore.Internal.Correction>
   9.000000E+99

> <Gold.Chemscore.Hbonds>
donor molecule, donor type, donor heavy atom, donor atom, acceptor molecule, acceptor atom, score
      P1  H  7997  8009       L1    21  0.01
      P1  H 10752 10763       L1     8  0.70

> <Gold.Chemscore.Hbond.Weighted>
-3.3069

> <Gold.Chemscore.Metal.Weighted>
-0.0000

> <Gold.Chemscore.Lipo.Weighted>
-12.2598

> <Gold.Chemscore.Internal_Hbond.Weighted>
0.0000

> <Gold.Chemscore.DEClash.Weighted>
0.1497

> <Gold.Chemscore.DEInternal.Weighted>
0.6443

> <Gold.Chemscore.Rot.Weighted>
3.8980

> <Gold.Chemscore.Internal.Correction.Weighted>
   9.000000E+99

> <Gold.Protein.RotatedTorsions>
[ 6907 6896 6895 6894 ] final   80.36 input  -60.11 | X-H torsion
[ 7974 7965 7964 7962 ] final  146.45 input  175.53 | X-H torsion
[ 8008 7997 7996 7995 ] final -144.27 input   59.86 | X-H torsion
[ 10167 10162 10161 10158 ] final   -5.71 input  -65.29 | X-H torsion
[ 10718 10713 10712 10709 ] final   85.78 input   66.30 | X-H torsion
[ 10763 10752 10751 10750 ] final   41.30 input  -60.55 | X-H torsion
[ 11005 11000 10999 10996 ] final  149.88 input  -57.11 | X-H torsion

> <Gold.Protein.ActiveResidues>
 VAL166  LYS551  ARG553  GLY616  TRP617  ASP618  TYR619  PRO620  LYS621  CYS622 
 ASP623  PHE694  ASN695  SER759  ASP760  ASP761  ALA762  ILE779  LEU786  VAL792 
 PHE793  MET794  SER795  GLU796  ALA797  LYS798  CYS799  TRP800  GLU811  SER814 

> <Gold.Protein.RotatedAtoms>
  152.5232  134.3369  159.9202 H   0  0  0  0  0  0  0  0  0  0  0  0  # atno 6907 bound_to 6896
  151.3318  133.3991  159.2671 H   0  0  0  0  0  0  0  0  0  0  0  0  # atno 6908 bound_to 6896
  150.9874  134.9234  159.7937 H   0  0  0  0  0  0  0  0  0  0  0  0  # atno 6909 bound_to 6896
  144.8670  139.5906  143.5904 H   0  0  0  0  0  0  0  0  0  0  0  0  # atno 7974 bound_to 7965
  155.5241  140.0594  157.2901 H   0  0  0  0  0  0  0  0  0  0  0  0  # atno 8008 bound_to 7997
  154.4507  140.1947  156.0474 H   0  0  0  0  0  0  0  0  0  0  0  0  # atno 8009 bound_to 7997
  156.0698  140.3261  155.7566 H   0  0  0  0  0  0  0  0  0  0  0  0  # atno 8010 bound_to 7997
  140.6972  143.6277  150.8552 H   0  0  0  0  0  0  0  0  0  0  0  0  # atno 10167 bound_to 10162
  157.6920  131.0189  150.2874 H   0  0  0  0  0  0  0  0  0  0  0  0  # atno 10718 bound_to 10713
  152.9912  135.6166  154.2766 H   0  0  0  0  0  0  0  0  0  0  0  0  # atno 10763 bound_to 10752
  154.2496  135.2786  155.2823 H   0  0  0  0  0  0  0  0  0  0  0  0  # atno 10764 bound_to 10752
  154.5299  135.5791  153.6808 H   0  0  0  0  0  0  0  0  0  0  0  0  # atno 10765 bound_to 10752
  140.1083  134.8940  157.1899 H   0  0  0  0  0  0  0  0  0  0  0  0  # atno 11005 bound_to 11000
  146.2903  139.7120  142.9166 LP  0  0  0  0  0  0  0  0  0  0  0  0  # atno 17320 bound_to 7965
  145.4202  141.0405  143.2968 LP  0  0  0  0  0  0  0  0  0  0  0  0  # atno 17321 bound_to 7965
  139.9996  143.5758  152.2880 LP  0  0  0  0  0  0  0  0  0  0  0  0  # atno 17342 bound_to 10162
  139.6443  144.7657  151.2275 LP  0  0  0  0  0  0  0  0  0  0  0  0  # atno 17343 bound_to 10162
  156.3411  130.3815  149.7408 LP  0  0  0  0  0  0  0  0  0  0  0  0  # atno 17370 bound_to 10713
  156.4917  130.8088  151.3097 LP  0  0  0  0  0  0  0  0  0  0  0  0  # atno 17371 bound_to 10713
  140.3125  134.3007  155.7263 LP  0  0  0  0  0  0  0  0  0  0  0  0  # atno 17394 bound_to 11000
  141.2124  133.7659  156.9797 LP  0  0  0  0  0  0  0  0  0  0  0  0  # atno 17395 bound_to 11000

$$$$
