AV-unprocessed.smi:3116|AV-procd|sdf|11865|dock10
  -GOLD-   2272017243D 1   1.00000     0.00000
 Structure written by MMmdl.
 34 34  0  0  0  0  0  0  0  0  2 V2000
  148.9089  141.3825  154.6083 C   0  0  0  0  0  0  0  0  0  0  0  0
  149.8993  140.2865  155.0299 C   0  0  1  0  0  0  0  0  0  0  0  0
  150.0731  140.3130  156.5013 N   0  3  0  0  0  0  0  0  0  0  0  0
  150.2340  141.6543  157.1163 C   0  0  1  0  0  0  0  0  0  0  0  0
  149.0139  141.9602  158.0058 C   0  0  0  0  0  0  0  0  0  0  0  0
  151.5732  141.7204  157.8968 C   0  0  2  0  0  0  0  0  0  0  0  0
  151.7315  140.5992  158.9417 C   0  0  0  0  0  0  0  0  0  0  0  0
  151.7341  143.0219  158.5374 N   0  0  0  0  0  0  0  0  0  0  0  0
  151.5629  144.2826  157.9989 C   0  0  0  0  0  0  0  0  0  0  0  0
  151.8704  145.1889  158.9726 C   0  0  0  0  0  0  0  0  0  0  0  0
  152.2371  144.3801  160.0834 C   0  0  0  0  0  0  0  0  0  0  0  0
  152.1625  143.0860  159.8176 N   0  0  0  0  0  0  0  0  0  0  0  0
  149.4012  138.9168  154.5469 C   0  0  0  0  0  0  0  0  0  0  0  0
  149.1822  138.7752  153.2372 N   0  0  0  0  0  0  0  0  0  0  0  0
  149.2029  138.0024  155.3447 O   0  0  0  0  0  0  0  0  0  0  0  0
  148.7758  141.4024  153.5257 H   0  0  0  0  0  0  0  0  0  0  0  0
  149.2658  142.3682  154.9093 H   0  0  0  0  0  0  0  0  0  0  0  0
  147.9276  141.2335  155.0613 H   0  0  0  0  0  0  0  0  0  0  0  0
  150.8584  140.5014  154.5569 H   0  0  0  0  0  0  0  0  0  0  0  0
  149.2793  139.8648  156.9356 H   0  0  0  0  0  0  0  0  0  0  0  0
  150.2762  142.4011  156.3219 H   0  0  0  0  0  0  0  0  0  0  0  0
  149.0450  142.9767  158.3971 H   0  0  0  0  0  0  0  0  0  0  0  0
  148.9619  141.2771  158.8543 H   0  0  0  0  0  0  0  0  0  0  0  0
  148.0792  141.8695  157.4528 H   0  0  0  0  0  0  0  0  0  0  0  0
  152.3906  141.6052  157.1819 H   0  0  0  0  0  0  0  0  0  0  0  0
  151.8105  139.6192  158.4718 H   0  0  0  0  0  0  0  0  0  0  0  0
  150.8877  140.5703  159.6316 H   0  0  0  0  0  0  0  0  0  0  0  0
  152.6385  140.7391  159.5313 H   0  0  0  0  0  0  0  0  0  0  0  0
  151.2423  144.4313  156.9784 H   0  0  0  0  0  0  0  0  0  0  0  0
  151.8440  146.2661  158.9004 H   0  0  0  0  0  0  0  0  0  0  0  0
  152.5581  144.6926  161.0663 H   0  0  0  0  0  0  0  0  0  0  0  0
  148.8619  137.8919  152.8669 H   0  0  0  0  0  0  0  0  0  0  0  0
  149.3465  139.5547  152.6160 H   0  0  0  0  0  0  0  0  0  0  0  0
  150.8988  139.7689  156.7118 H   0  0  0  0  0  0  0  0  0  0  0  0
  1  2  1  0  0  0  0
  1 16  1  0  0  0  0
  1 17  1  0  0  0  0
  1 18  1  0  0  0  0
  2  3  1  0  0  0  0
  2 13  1  0  0  0  0
  2 19  1  0  0  0  0
  3  4  1  0  0  0  0
  3 20  1  0  0  0  0
  3 34  1  0  0  0  0
  4  5  1  0  0  0  0
  4  6  1  0  0  0  0
  4 21  1  0  0  0  0
  5 22  1  0  0  0  0
  5 23  1  0  0  0  0
  5 24  1  0  0  0  0
  6  7  1  0  0  0  0
  6  8  1  0  0  0  0
  6 25  1  0  0  0  0
  7 26  1  0  0  0  0
  7 27  1  0  0  0  0
  7 28  1  0  0  0  0
  8 12  1  0  0  0  0
  8  9  1  0  0  0  0
  9 10  2  0  0  0  0
  9 29  1  0  0  0  0
 10 11  1  0  0  0  0
 10 30  1  0  0  0  0
 11 12  2  0  0  0  0
 11 31  1  0  0  0  0
 13 14  1  0  0  0  0
 13 15  2  0  0  0  0
 14 32  1  0  0  0  0
 14 33  1  0  0  0  0
M  CHG  1   3   1
M  END
> <s_m_source_file>
AV-unprocessed.smi

> <i_m_source_file_index>
3116

> <i_lp_mmshare_version>
43012

> <i_f3d_flags>
0

> <s_epik_input>
W05IMl1DKD1PKVtDQEhdKFtDSDNdKVtOSF1bQ0BIXShbQ0gzXSlbQ0BIXShbQ0gzXSluMVtjSF1bY0hdW2NIXW4x

> <s_epik_cmdline>
J2VwaWtfcHl0aG9uJywgJy1waCcsICc3LjAnLCAnLXRuJywgJzgnLCAnLW1hJywgJzIwMCcsICctbWV0YWxfYmluZGluZycsICctaW1hZScsICc8aW5maWxlLm1hZT4nLCAnLW9tYWUnLCAnPG91dGZpbGUubWFlPic=

> <r_lp_tautomer_probability>
1

> <r_epik_Ionization_Penalty>
0.15658

> <r_epik_Ionization_Penalty_Charging>
0.156568

> <r_epik_Ionization_Penalty_Neutral>
1.19778e-05

> <r_epik_State_Penalty>
0.145866

> <r_epik_Charging_Adjusted_Penalty>
0.302434

> <i_epik_Tot_Q>
1

> <i_epik_Tot_abs_Q>
1

> <r_epik_Metal_State_Penalty>
0.146064

> <b_epik_Metal_Only>
0

> <s_lp_Force_Field>
OPLS_2005

> <r_lp_Energy>
9.00386

> <b_lp_Chiralities_Consistent>
1

> <s_lp_Variant>
AV-unprocessed.smi:3116-4

> <Gold.Version>
5.8.1

> <Gold.Id.Protein>
6NUR|6NUR_protein|mol2

> <Gold.PLP.Fitness>
40.6555

> <Gold.PLP.PLP>
-33.7476

> <Gold.PLP.part.hbond>
-1.7716

> <Gold.PLP.part.metal>
0.0000

> <Gold.PLP.part.buried>
-4.5253

> <Gold.PLP.part.nonpolar>
-27.0252

> <Gold.PLP.part.repulsive>
0.2422

> <Gold.PLP.ligand.clash>
0.0000

> <Gold.PLP.ligand.torsion>
1.1004

> <Gold.PLP.Chemscore.Hbond>
2.0000

> <Gold.PLP.Chemscore.CHOScore>
0.9954

> <Gold.PLP.Chemscore.Metal>
0.0000

> <Gold.Chemscore.Hbonds>
donor molecule, donor type, donor heavy atom, donor atom, acceptor molecule, acceptor atom, score
      L1  H    14    32       P1  7948  1.00
      L1  H    14    33       P1  7957  0.93
      L1  C     9    29       P1  8028  0.62

> <Gold.PLP.Chemscore.Internal.Correction>
0.1225

> <Gold.Rescore>
     Score         DG    S(hbond)    S(metal)    S(lipo)     H(rot)  DE(clash)    DE(int)     intcor
     14.07     -15.05       1.95        0.00      79.54       2.45       0.01       0.97       ----

> <Gold.Chemscore.Fitness>
14.0723

> <Gold.Chemscore.DG>
-15.0468

> <Gold.Chemscore.ZeroCoef>
-5.4800

> <Gold.Chemscore.Hbond>
1.9533

> <Gold.Chemscore.Metal>
0.0000

> <Gold.Chemscore.Lipo>
79.5391

> <Gold.Chemscore.Internal_Hbond>
0.0000

> <Gold.Chemscore.DEClash>
0.0095

> <Gold.Chemscore.DEInternal>
0.9651

> <Gold.Chemscore.Rot>
2.4465

> <Gold.Chemscore.Internal.Correction>
   9.000000E+99

> <Gold.Chemscore.Hbonds>
donor molecule, donor type, donor heavy atom, donor atom, acceptor molecule, acceptor atom, score
      L1  H    14    32       P1  7948  0.98
      L1  H    14    33       P1  7957  0.87

> <Gold.Chemscore.Hbond.Weighted>
-6.5239

> <Gold.Chemscore.Metal.Weighted>
-0.0000

> <Gold.Chemscore.Lipo.Weighted>
-9.3061

> <Gold.Chemscore.Internal_Hbond.Weighted>
0.0000

> <Gold.Chemscore.DEClash.Weighted>
0.0095

> <Gold.Chemscore.DEInternal.Weighted>
0.9651

> <Gold.Chemscore.Rot.Weighted>
6.2631

> <Gold.Chemscore.Internal.Correction.Weighted>
   9.000000E+99

> <Gold.Protein.RotatedTorsions>
[ 6907 6896 6895 6894 ] final -137.00 input  -60.11 | X-H torsion
[ 7974 7965 7964 7962 ] final  106.00 input  175.53 | X-H torsion
[ 8008 7997 7996 7995 ] final   56.66 input   59.86 | X-H torsion
[ 10167 10162 10161 10158 ] final -152.34 input  -65.29 | X-H torsion
[ 10718 10713 10712 10709 ] final   81.21 input   66.30 | X-H torsion
[ 10763 10752 10751 10750 ] final   71.50 input  -60.55 | X-H torsion
[ 11005 11000 10999 10996 ] final -142.16 input  -57.11 | X-H torsion

> <Gold.Protein.ActiveResidues>
 VAL166  LYS551  ARG553  GLY616  TRP617  ASP618  TYR619  PRO620  LYS621  CYS622 
 ASP623  PHE694  ASN695  SER759  ASP760  ASP761  ALA762  ILE779  LEU786  VAL792 
 PHE793  MET794  SER795  GLU796  ALA797  LYS798  CYS799  TRP800  GLU811  SER814 

> <Gold.Protein.RotatedAtoms>
  151.0170  133.5912  159.2675 H   0  0  0  0  0  0  0  0  0  0  0  0  # atno 6907 bound_to 6896
  151.3042  135.0776  159.9259 H   0  0  0  0  0  0  0  0  0  0  0  0  # atno 6908 bound_to 6896
  152.5314  133.9846  159.7877 H   0  0  0  0  0  0  0  0  0  0  0  0  # atno 6909 bound_to 6896
  145.3123  139.2536  143.3756 H   0  0  0  0  0  0  0  0  0  0  0  0  # atno 7974 bound_to 7965
  155.5211  140.3479  155.4407 H   0  0  0  0  0  0  0  0  0  0  0  0  # atno 8008 bound_to 7997
  156.0784  140.1380  156.9770 H   0  0  0  0  0  0  0  0  0  0  0  0  # atno 8009 bound_to 7997
  154.4566  140.0951  156.6750 H   0  0  0  0  0  0  0  0  0  0  0  0  # atno 8010 bound_to 7997
  139.7190  143.8987  152.2496 H   0  0  0  0  0  0  0  0  0  0  0  0  # atno 10167 bound_to 10162
  157.6827  130.9994  150.2193 H   0  0  0  0  0  0  0  0  0  0  0  0  # atno 10718 bound_to 10713
  153.0402  135.5135  154.7602 H   0  0  0  0  0  0  0  0  0  0  0  0  # atno 10763 bound_to 10752
  154.6545  135.2930  154.9947 H   0  0  0  0  0  0  0  0  0  0  0  0  # atno 10764 bound_to 10752
  154.0820  135.6662  153.4892 H   0  0  0  0  0  0  0  0  0  0  0  0  # atno 10765 bound_to 10752
  140.8252  134.2583  157.4882 H   0  0  0  0  0  0  0  0  0  0  0  0  # atno 11005 bound_to 11000
  146.3113  140.3662  142.8669 LP  0  0  0  0  0  0  0  0  0  0  0  0  # atno 17320 bound_to 7965
  144.9005  140.7637  143.5870 LP  0  0  0  0  0  0  0  0  0  0  0  0  # atno 17321 bound_to 7965
  139.8878  144.6982  150.8805 LP  0  0  0  0  0  0  0  0  0  0  0  0  # atno 17342 bound_to 10162
  140.7750  143.3610  151.1828 LP  0  0  0  0  0  0  0  0  0  0  0  0  # atno 17343 bound_to 10162
  156.2848  130.3738  149.7899 LP  0  0  0  0  0  0  0  0  0  0  0  0  # atno 17370 bound_to 10713
  156.5577  130.8369  151.3319 LP  0  0  0  0  0  0  0  0  0  0  0  0  # atno 17371 bound_to 10713
  139.8707  134.9557  156.4214 LP  0  0  0  0  0  0  0  0  0  0  0  0  # atno 17394 bound_to 11000
  140.9056  133.7748  155.9731 LP  0  0  0  0  0  0  0  0  0  0  0  0  # atno 17395 bound_to 11000

$$$$
