AV-unprocessed.smi:1108|AV-procd|sdf|4787|dock2
  -GOLD-   22720 3333D 1   1.00000     0.00000
 Structure written by MMmdl.
 31 32  0  0  0  0  0  0  0  0  1 V2000
  150.0483  140.1479  155.1582 C   0  0  0  0  0  0  0  0  0  0  0  0
  148.9008  141.1319  155.4232 C   0  0  2  0  0  0  0  0  0  0  0  0
  148.2195  141.5659  154.1076 C   0  0  0  0  0  0  0  0  0  0  0  0
  147.0663  142.4210  154.3258 N   0  0  0  0  0  0  0  0  0  0  0  0
  146.3026  143.0864  153.3900 C   0  0  0  0  0  0  0  0  0  0  0  0
  145.3378  143.7744  154.0682 C   0  0  0  0  0  0  0  0  0  0  0  0
  145.5938  143.4589  155.4319 C   0  0  0  0  0  0  0  0  0  0  0  0
  146.6262  142.6452  155.5826 N   0  0  0  0  0  0  0  0  0  0  0  0
  149.4281  142.2902  156.1438 N   0  0  0  0  0  0  0  0  0  0  0  0
  150.2710  142.2467  157.1864 C   0  0  0  0  0  0  0  0  0  0  0  0
  150.7159  141.2073  157.6736 O   0  0  0  0  0  0  0  0  0  0  0  0
  150.5605  143.4738  157.6388 N   0  0  0  0  0  0  0  0  0  0  0  0
  151.4146  143.7666  158.7437 C   0  0  0  0  0  0  0  0  0  0  0  0
  151.5240  145.2103  159.1839 C   0  0  0  0  0  0  0  0  0  0  0  0
  152.6742  144.5586  158.4670 C   0  0  0  0  0  0  0  0  0  0  0  0
  149.6876  139.2533  154.6498 H   0  0  0  0  0  0  0  0  0  0  0  0
  150.5156  139.8287  156.0905 H   0  0  0  0  0  0  0  0  0  0  0  0
  150.8214  140.5963  154.5333 H   0  0  0  0  0  0  0  0  0  0  0  0
  148.1693  140.6108  156.0439 H   0  0  0  0  0  0  0  0  0  0  0  0
  148.9274  142.0895  153.4635 H   0  0  0  0  0  0  0  0  0  0  0  0
  147.8855  140.6888  153.5513 H   0  0  0  0  0  0  0  0  0  0  0  0
  146.5118  143.0212  152.3324 H   0  0  0  0  0  0  0  0  0  0  0  0
  144.5677  144.4078  153.6540 H   0  0  0  0  0  0  0  0  0  0  0  0
  145.0631  143.7940  156.3107 H   0  0  0  0  0  0  0  0  0  0  0  0
  149.1228  143.1973  155.8229 H   0  0  0  0  0  0  0  0  0  0  0  0
  150.1411  144.2631  157.1693 H   0  0  0  0  0  0  0  0  0  0  0  0
  151.4852  143.0191  159.5329 H   0  0  0  0  0  0  0  0  0  0  0  0
  150.9489  145.9550  158.6372 H   0  0  0  0  0  0  0  0  0  0  0  0
  151.6391  145.4018  160.2489 H   0  0  0  0  0  0  0  0  0  0  0  0
  153.5581  144.3152  159.0529 H   0  0  0  0  0  0  0  0  0  0  0  0
  152.8666  144.8677  157.4413 H   0  0  0  0  0  0  0  0  0  0  0  0
  1  2  1  0  0  0  0
  1 16  1  0  0  0  0
  1 17  1  0  0  0  0
  1 18  1  0  0  0  0
  2  3  1  0  0  0  0
  2  9  1  0  0  0  0
  2 19  1  0  0  0  0
  3  4  1  0  0  0  0
  3 20  1  0  0  0  0
  3 21  1  0  0  0  0
  4  8  1  0  0  0  0
  4  5  1  0  0  0  0
  5  6  2  0  0  0  0
  5 22  1  0  0  0  0
  6  7  1  0  0  0  0
  6 23  1  0  0  0  0
  7  8  2  0  0  0  0
  7 24  1  0  0  0  0
  9 10  1  0  0  0  0
  9 25  1  0  0  0  0
 10 11  2  0  0  0  0
 10 12  1  0  0  0  0
 12 13  1  0  0  0  0
 12 26  1  0  0  0  0
 13 15  1  0  0  0  0
 13 14  1  0  0  0  0
 13 27  1  0  0  0  0
 14 15  1  0  0  0  0
 14 28  1  0  0  0  0
 14 29  1  0  0  0  0
 15 30  1  0  0  0  0
 15 31  1  0  0  0  0
M  END
> <s_m_source_file>
AV-unprocessed.smi

> <i_m_source_file_index>
1108

> <i_lp_mmshare_version>
43012

> <i_f3d_flags>
0

> <s_epik_input>
W0NIMl0xW0NIMl1bQ0hdMVtOSF1DKD1PKVtOSF1bQ0BIXShbQ0gzXSlbQ0gyXW4yW2NIXVtjSF1bY0hdbjI=

> <s_epik_cmdline>
J2VwaWtfcHl0aG9uJywgJy1waCcsICc3LjAnLCAnLXRuJywgJzgnLCAnLW1hJywgJzIwMCcsICctbWV0YWxfYmluZGluZycsICctaW1hZScsICc8aW5maWxlLm1hZT4nLCAnLW9tYWUnLCAnPG91dGZpbGUubWFlPic=

> <r_lp_tautomer_probability>
1

> <r_epik_Ionization_Penalty>
7.55353e-05

> <r_epik_Ionization_Penalty_Charging>
0

> <r_epik_Ionization_Penalty_Neutral>
7.55353e-05

> <r_epik_State_Penalty>
-0

> <r_epik_Charging_Adjusted_Penalty>
0

> <i_epik_Tot_Q>
0

> <i_epik_Tot_abs_Q>
0

> <r_epik_Metal_State_Penalty>
-0

> <b_epik_Metal_Only>
0

> <s_lp_Force_Field>
OPLS_2005

> <r_lp_Energy>
13.7116

> <b_lp_Chiralities_Consistent>
1

> <s_lp_Variant>
AV-unprocessed.smi:1108-1

> <Gold.Version>
5.8.1

> <Gold.Id.Protein>
6NUR|6NUR_protein|mol2

> <Gold.PLP.Fitness>
41.7213

> <Gold.PLP.PLP>
-36.5909

> <Gold.PLP.part.hbond>
-2.0000

> <Gold.PLP.part.metal>
0.0000

> <Gold.PLP.part.buried>
-4.3521

> <Gold.PLP.part.nonpolar>
-31.3757

> <Gold.PLP.part.repulsive>
0.2843

> <Gold.PLP.ligand.clash>
0.0000

> <Gold.PLP.ligand.torsion>
0.2303

> <Gold.PLP.Chemscore.Hbond>
1.8480

> <Gold.PLP.Chemscore.CHOScore>
0.0000

> <Gold.PLP.Chemscore.Metal>
0.0000

> <Gold.Chemscore.Hbonds>
donor molecule, donor type, donor heavy atom, donor atom, acceptor molecule, acceptor atom, score
      L1  H     9    25       P1  8028  1.00
      L1  H    12    26       P1  8028  0.86

> <Gold.PLP.Chemscore.Internal.Correction>
0.0470

> <Gold.Rescore>
     Score         DG    S(hbond)    S(metal)    S(lipo)     H(rot)  DE(clash)    DE(int)     intcor
     15.14     -16.39       1.85        0.00      77.81       1.71       0.01       1.24       ----

> <Gold.Chemscore.Fitness>
15.1379

> <Gold.Chemscore.DG>
-16.3897

> <Gold.Chemscore.ZeroCoef>
-5.4800

> <Gold.Chemscore.Hbond>
1.8495

> <Gold.Chemscore.Metal>
0.0000

> <Gold.Chemscore.Lipo>
77.8092

> <Gold.Chemscore.Internal_Hbond>
0.0000

> <Gold.Chemscore.DEClash>
0.0110

> <Gold.Chemscore.DEInternal>
1.2408

> <Gold.Chemscore.Rot>
1.7075

> <Gold.Chemscore.Internal.Correction>
   9.000000E+99

> <Gold.Chemscore.Hbonds>
donor molecule, donor type, donor heavy atom, donor atom, acceptor molecule, acceptor atom, score
      L1  H     9    25       P1  8028  0.95
      L1  H    12    26       P1  8028  0.61

> <Gold.Chemscore.Hbond.Weighted>
-6.1773

> <Gold.Chemscore.Metal.Weighted>
-0.0000

> <Gold.Chemscore.Lipo.Weighted>
-9.1037

> <Gold.Chemscore.Internal_Hbond.Weighted>
0.0000

> <Gold.Chemscore.DEClash.Weighted>
0.0110

> <Gold.Chemscore.DEInternal.Weighted>
1.2408

> <Gold.Chemscore.Rot.Weighted>
4.3713

> <Gold.Chemscore.Internal.Correction.Weighted>
   9.000000E+99

> <Gold.Protein.RotatedTorsions>
[ 6907 6896 6895 6894 ] final  -92.33 input  -60.11 | X-H torsion
[ 7974 7965 7964 7962 ] final  -73.96 input  175.53 | X-H torsion
[ 8008 7997 7996 7995 ] final -125.29 input   59.86 | X-H torsion
[ 10167 10162 10161 10158 ] final  152.32 input  -65.29 | X-H torsion
[ 10718 10713 10712 10709 ] final -142.69 input   66.30 | X-H torsion
[ 10763 10752 10751 10750 ] final  154.31 input  -60.55 | X-H torsion
[ 11005 11000 10999 10996 ] final  172.44 input  -57.11 | X-H torsion

> <Gold.Protein.ActiveResidues>
 VAL166  LYS551  ARG553  GLY616  TRP617  ASP618  TYR619  PRO620  LYS621  CYS622 
 ASP623  PHE694  ASN695  SER759  ASP760  ASP761  ALA762  ILE779  LEU786  VAL792 
 PHE793  MET794  SER795  GLU796  ALA797  LYS798  CYS799  TRP800  GLU811  SER814 

> <Gold.Protein.RotatedAtoms>
  150.6904  134.2139  159.4369 H   0  0  0  0  0  0  0  0  0  0  0  0  # atno 6907 bound_to 6896
  152.0099  134.9879  160.0577 H   0  0  0  0  0  0  0  0  0  0  0  0  # atno 6908 bound_to 6896
  152.1498  133.4480  159.4845 H   0  0  0  0  0  0  0  0  0  0  0  0  # atno 6909 bound_to 6896
  145.6454  140.9298  143.1013 H   0  0  0  0  0  0  0  0  0  0  0  0  # atno 7974 bound_to 7965
  155.2109  140.0419  157.2933 H   0  0  0  0  0  0  0  0  0  0  0  0  # atno 8008 bound_to 7997
  154.6012  140.2452  155.7761 H   0  0  0  0  0  0  0  0  0  0  0  0  # atno 8009 bound_to 7997
  156.2322  140.2934  156.0227 H   0  0  0  0  0  0  0  0  0  0  0  0  # atno 8010 bound_to 7997
  139.4834  144.5367  151.7633 H   0  0  0  0  0  0  0  0  0  0  0  0  # atno 10167 bound_to 10162
  156.3489  130.7677  151.1827 H   0  0  0  0  0  0  0  0  0  0  0  0  # atno 10718 bound_to 10713
  154.1503  135.2815  155.3137 H   0  0  0  0  0  0  0  0  0  0  0  0  # atno 10763 bound_to 10752
  154.6222  135.5463  153.7591 H   0  0  0  0  0  0  0  0  0  0  0  0  # atno 10764 bound_to 10752
  153.0223  135.6442  154.1648 H   0  0  0  0  0  0  0  0  0  0  0  0  # atno 10765 bound_to 10752
  140.3298  134.7367  157.4126 H   0  0  0  0  0  0  0  0  0  0  0  0  # atno 11005 bound_to 11000
  144.7142  139.8258  143.7404 LP  0  0  0  0  0  0  0  0  0  0  0  0  # atno 17320 bound_to 7965
  146.1247  139.4271  143.0206 LP  0  0  0  0  0  0  0  0  0  0  0  0  # atno 17321 bound_to 7965
  140.4901  144.1323  150.5948 LP  0  0  0  0  0  0  0  0  0  0  0  0  # atno 17342 bound_to 10162
  140.4181  143.2624  151.9750 LP  0  0  0  0  0  0  0  0  0  0  0  0  # atno 17343 bound_to 10162
  157.7458  131.0433  150.4737 LP  0  0  0  0  0  0  0  0  0  0  0  0  # atno 17370 bound_to 10713
  156.4929  130.4099  149.6396 LP  0  0  0  0  0  0  0  0  0  0  0  0  # atno 17371 bound_to 10713
  140.0870  134.5652  155.8482 LP  0  0  0  0  0  0  0  0  0  0  0  0  # atno 17394 bound_to 11000
  141.2066  133.6657  156.6253 LP  0  0  0  0  0  0  0  0  0  0  0  0  # atno 17395 bound_to 11000

$$$$
