AV-unprocessed.smi:1297|AV-procd|sdf|5416|dock5
  -GOLD-   22720 4573D 1   1.00000     0.00000
 Structure written by MMmdl.
 26 27  0  0  0  0  0  0  0  0  1 V2000
  150.9883  136.7647  155.1467 C   0  0  0  0  0  0  0  0  0  0  0  0
  152.0007  138.0758  154.4031 S   0  0  0  0  0  0  0  0  0  0  0  0
  151.9695  139.2731  155.7066 C   0  0  0  0  0  0  0  0  0  0  0  0
  152.8830  139.3550  156.6795 N   0  0  0  0  0  0  0  0  0  0  0  0
  152.4824  140.3975  157.4826 N   0  0  0  0  0  0  0  0  0  0  0  0
  151.3712  140.8724  156.9170 C   0  0  0  0  0  0  0  0  0  0  0  0
  150.5734  142.0023  157.4882 C   0  0  0  0  0  0  0  0  0  0  0  0
  151.1038  143.4187  157.4647 C   0  0  0  0  0  0  0  0  0  0  0  0
  150.9833  142.6869  158.7748 C   0  0  0  0  0  0  0  0  0  0  0  0
  150.9924  140.2005  155.8094 N   0  0  0  0  0  0  0  0  0  0  0  0
  149.8272  140.4160  154.9580 C   0  0  0  0  0  0  0  0  0  0  0  0
  149.1651  139.0982  154.5465 C   0  0  0  0  0  0  0  0  0  0  0  0
  149.1197  138.8115  153.2431 N   0  0  0  0  0  0  0  0  0  0  0  0
  148.7094  138.3397  155.3990 O   0  0  0  0  0  0  0  0  0  0  0  0
  150.9070  135.9233  154.4588 H   0  0  0  0  0  0  0  0  0  0  0  0
  149.9828  137.1285  155.3602 H   0  0  0  0  0  0  0  0  0  0  0  0
  151.4388  136.4062  156.0727 H   0  0  0  0  0  0  0  0  0  0  0  0
  149.5103  141.8509  157.3116 H   0  0  0  0  0  0  0  0  0  0  0  0
  152.1075  143.5794  157.0763 H   0  0  0  0  0  0  0  0  0  0  0  0
  150.3920  144.2164  157.2632 H   0  0  0  0  0  0  0  0  0  0  0  0
  150.1904  142.9970  159.4523 H   0  0  0  0  0  0  0  0  0  0  0  0
  151.9069  142.3671  159.2537 H   0  0  0  0  0  0  0  0  0  0  0  0
  149.1057  141.0472  155.4773 H   0  0  0  0  0  0  0  0  0  0  0  0
  150.1331  140.9692  154.0693 H   0  0  0  0  0  0  0  0  0  0  0  0
  148.6923  137.9516  152.9298 H   0  0  0  0  0  0  0  0  0  0  0  0
  149.5145  139.4564  152.5739 H   0  0  0  0  0  0  0  0  0  0  0  0
  1  2  1  0  0  0  0
  1 15  1  0  0  0  0
  1 16  1  0  0  0  0
  1 17  1  0  0  0  0
  2  3  1  0  0  0  0
  3 10  1  0  0  0  0
  3  4  2  0  0  0  0
  4  5  1  0  0  0  0
  5  6  2  0  0  0  0
  6  7  1  0  0  0  0
  6 10  1  0  0  0  0
  7  9  1  0  0  0  0
  7  8  1  0  0  0  0
  7 18  1  0  0  0  0
  8  9  1  0  0  0  0
  8 19  1  0  0  0  0
  8 20  1  0  0  0  0
  9 21  1  0  0  0  0
  9 22  1  0  0  0  0
 10 11  1  0  0  0  0
 11 12  1  0  0  0  0
 11 23  1  0  0  0  0
 11 24  1  0  0  0  0
 12 13  1  0  0  0  0
 12 14  2  0  0  0  0
 13 25  1  0  0  0  0
 13 26  1  0  0  0  0
M  END
> <s_m_source_file>
AV-unprocessed.smi

> <i_m_source_file_index>
1297

> <i_lp_mmshare_version>
43012

> <i_f3d_flags>
0

> <s_epik_input>
W0NIM11TYzFubmMoW0NIXTJbQ0gyXVtDSDJdMiluMVtDSDJdQyg9TylbTkgyXQ==

> <s_epik_cmdline>
J2VwaWtfcHl0aG9uJywgJy1waCcsICc3LjAnLCAnLXRuJywgJzgnLCAnLW1hJywgJzIwMCcsICctbWV0YWxfYmluZGluZycsICctaW1hZScsICc8aW5maWxlLm1hZT4nLCAnLW9tYWUnLCAnPG91dGZpbGUubWFlPic=

> <r_lp_tautomer_probability>
1

> <r_epik_Ionization_Penalty>
2.14715e-06

> <r_epik_Ionization_Penalty_Charging>
0

> <r_epik_Ionization_Penalty_Neutral>
2.14715e-06

> <r_epik_State_Penalty>
-0

> <r_epik_Charging_Adjusted_Penalty>
0

> <i_epik_Tot_Q>
0

> <i_epik_Tot_abs_Q>
0

> <r_epik_Metal_State_Penalty>
-0

> <b_epik_Metal_Only>
0

> <s_lp_Force_Field>
OPLS_2005

> <r_lp_Energy>
5.16146

> <b_lp_Chiralities_Consistent>
1

> <s_lp_Variant>
AV-unprocessed.smi:1297-1

> <Gold.Version>
5.8.1

> <Gold.Id.Protein>
6NUR|6NUR_protein|mol2

> <Gold.PLP.Fitness>
32.7244

> <Gold.PLP.PLP>
-26.9691

> <Gold.PLP.part.hbond>
-3.6690

> <Gold.PLP.part.metal>
0.0000

> <Gold.PLP.part.buried>
-1.4408

> <Gold.PLP.part.nonpolar>
-22.5967

> <Gold.PLP.part.repulsive>
0.1674

> <Gold.PLP.ligand.clash>
0.0000

> <Gold.PLP.ligand.torsion>
0.7088

> <Gold.PLP.Chemscore.Hbond>
2.3457

> <Gold.PLP.Chemscore.CHOScore>
0.0000

> <Gold.PLP.Chemscore.Metal>
0.0000

> <Gold.Chemscore.Hbonds>
donor molecule, donor type, donor heavy atom, donor atom, acceptor molecule, acceptor atom, score
      L1  H    13    25       P1  7948  0.88
      L1  H    13    26       P1  7957  0.99
      P1  H  7997  8010       L1     4  0.30

> <Gold.PLP.Chemscore.Internal.Correction>
0.1356

> <Gold.Rescore>
     Score         DG    S(hbond)    S(metal)    S(lipo)     H(rot)  DE(clash)    DE(int)     intcor
     11.47     -12.24       2.21        0.00      42.49       2.19       0.23       0.55       ----

> <Gold.Chemscore.Fitness>
11.4657

> <Gold.Chemscore.DG>
-12.2409

> <Gold.Chemscore.ZeroCoef>
-5.4800

> <Gold.Chemscore.Hbond>
2.2143

> <Gold.Chemscore.Metal>
0.0000

> <Gold.Chemscore.Lipo>
42.4861

> <Gold.Chemscore.Internal_Hbond>
0.0000

> <Gold.Chemscore.DEClash>
0.2254

> <Gold.Chemscore.DEInternal>
0.5498

> <Gold.Chemscore.Rot>
2.1897

> <Gold.Chemscore.Internal.Correction>
   9.000000E+99

> <Gold.Chemscore.Hbonds>
donor molecule, donor type, donor heavy atom, donor atom, acceptor molecule, acceptor atom, score
      L1  H    13    25       P1  7948  0.82
      L1  H    13    26       P1  7957  0.88

> <Gold.Chemscore.Hbond.Weighted>
-7.3957

> <Gold.Chemscore.Metal.Weighted>
-0.0000

> <Gold.Chemscore.Lipo.Weighted>
-4.9709

> <Gold.Chemscore.Internal_Hbond.Weighted>
0.0000

> <Gold.Chemscore.DEClash.Weighted>
0.2254

> <Gold.Chemscore.DEInternal.Weighted>
0.5498

> <Gold.Chemscore.Rot.Weighted>
5.6057

> <Gold.Chemscore.Internal.Correction.Weighted>
   9.000000E+99

> <Gold.Protein.RotatedTorsions>
[ 6907 6896 6895 6894 ] final  -20.59 input  -60.11 | X-H torsion
[ 7974 7965 7964 7962 ] final  159.24 input  175.53 | X-H torsion
[ 8008 7997 7996 7995 ] final   55.52 input   59.86 | X-H torsion
[ 10167 10162 10161 10158 ] final   16.34 input  -65.29 | X-H torsion
[ 10718 10713 10712 10709 ] final -161.36 input   66.30 | X-H torsion
[ 10763 10752 10751 10750 ] final   10.76 input  -60.55 | X-H torsion
[ 11005 11000 10999 10996 ] final  104.28 input  -57.11 | X-H torsion

> <Gold.Protein.ActiveResidues>
 VAL166  LYS551  ARG553  GLY616  TRP617  ASP618  TYR619  PRO620  LYS621  CYS622 
 ASP623  PHE694  ASN695  SER759  ASP760  ASP761  ALA762  ILE779  LEU786  VAL792 
 PHE793  MET794  SER795  GLU796  ALA797  LYS798  CYS799  TRP800  GLU811  SER814 

> <Gold.Protein.RotatedAtoms>
  151.2459  135.0605  159.9042 H   0  0  0  0  0  0  0  0  0  0  0  0  # atno 6907 bound_to 6896
  152.5387  134.0385  159.8067 H   0  0  0  0  0  0  0  0  0  0  0  0  # atno 6908 bound_to 6896
  151.0585  133.5515  159.2667 H   0  0  0  0  0  0  0  0  0  0  0  0  # atno 6909 bound_to 6896
  144.7801  139.7590  143.6263 H   0  0  0  0  0  0  0  0  0  0  0  0  # atno 7974 bound_to 7965
  155.5024  140.3475  155.4373 H   0  0  0  0  0  0  0  0  0  0  0  0  # atno 8008 bound_to 7997
  156.0904  140.1409  156.9626 H   0  0  0  0  0  0  0  0  0  0  0  0  # atno 8009 bound_to 7997
  154.4632  140.0927  156.6926 H   0  0  0  0  0  0  0  0  0  0  0  0  # atno 8010 bound_to 7997
  140.5804  143.8992  150.6785 H   0  0  0  0  0  0  0  0  0  0  0  0  # atno 10167 bound_to 10162
  156.5952  130.8787  151.2900 H   0  0  0  0  0  0  0  0  0  0  0  0  # atno 10718 bound_to 10713
  153.1997  135.6854  153.8246 H   0  0  0  0  0  0  0  0  0  0  0  0  # atno 10763 bound_to 10752
  153.7517  135.3223  155.3323 H   0  0  0  0  0  0  0  0  0  0  0  0  # atno 10764 bound_to 10752
  154.8164  135.4682  154.0758 H   0  0  0  0  0  0  0  0  0  0  0  0  # atno 10765 bound_to 10752
  139.8790  134.9294  156.5337 H   0  0  0  0  0  0  0  0  0  0  0  0  # atno 11005 bound_to 11000
  146.2004  139.5295  142.9747 LP  0  0  0  0  0  0  0  0  0  0  0  0  # atno 17320 bound_to 7965
  145.6075  141.0345  143.1984 LP  0  0  0  0  0  0  0  0  0  0  0  0  # atno 17321 bound_to 7965
  140.2490  143.3607  152.1422 LP  0  0  0  0  0  0  0  0  0  0  0  0  # atno 17342 bound_to 10162
  139.5166  144.6980  151.5574 LP  0  0  0  0  0  0  0  0  0  0  0  0  # atno 17343 bound_to 10162
  157.7293  130.9670  150.1783 LP  0  0  0  0  0  0  0  0  0  0  0  0  # atno 17370 bound_to 10713
  156.2516  130.3701  149.8227 LP  0  0  0  0  0  0  0  0  0  0  0  0  # atno 17371 bound_to 10713
  140.8361  133.8241  155.9030 LP  0  0  0  0  0  0  0  0  0  0  0  0  # atno 17394 bound_to 11000
  140.9282  134.2056  157.4882 LP  0  0  0  0  0  0  0  0  0  0  0  0  # atno 17395 bound_to 11000

$$$$
