AV-unprocessed.smi:1608|AV-procd|sdf|6468|dock2
  -GOLD-   22720 7123D 1   1.00000     0.00000
 Structure written by MMmdl.
 42 43  0  0  0  0  0  0  0  0  1 V2000
  151.4236  143.9452  161.2567 C   0  0  0  0  0  0  0  0  0  0  0  0
  152.3941  142.8539  161.1413 N   0  0  0  0  0  0  0  0  0  0  0  0
  153.2185  142.5887  162.2508 C   0  0  0  0  0  0  0  0  0  0  0  0
  154.1501  141.6181  162.2472 C   0  0  0  0  0  0  0  0  0  0  0  0
  154.9187  141.4419  163.4063 N   0  0  0  0  0  0  0  0  0  0  0  0
  154.8480  142.1034  164.5759 C   0  0  0  0  0  0  0  0  0  0  0  0
  154.0371  142.9848  164.8586 O   0  0  0  0  0  0  0  0  0  0  0  0
  155.7811  141.6626  165.4323 N   0  0  0  0  0  0  0  0  0  0  0  0
  155.9657  142.1420  166.7987 C   0  0  1  0  0  0  0  0  0  0  0  0
  155.8854  143.6768  166.8504 C   0  0  0  0  0  0  0  0  0  0  0  0
  156.0219  144.1559  168.2998 C   0  0  0  0  0  0  0  0  0  0  0  0
  154.9661  143.5002  169.2066 C   0  0  0  0  0  0  0  0  0  0  0  0
  154.9919  142.0274  169.0968 N   0  0  0  0  0  0  0  0  0  0  0  0
  155.7647  141.0767  170.3329 S   0  0  0  0  0  0  0  0  0  0  0  0
  154.5161  140.9864  171.6809 C   0  0  0  0  0  0  0  0  0  0  0  0
  155.9607  139.7205  169.7987 O   0  0  0  0  0  0  0  0  0  0  0  0
  156.9211  141.8383  170.8292 O   0  0  0  0  0  0  0  0  0  0  0  0
  154.9004  141.5103  167.7165 C   0  0  0  0  0  0  0  0  0  0  0  0
  154.2616  140.8189  161.0356 C   0  0  0  0  0  0  0  0  0  0  0  0
  153.4725  141.0650  159.9713 C   0  0  0  0  0  0  0  0  0  0  0  0
  152.4750  142.1380  159.9830 C   0  0  0  0  0  0  0  0  0  0  0  0
  151.7544  142.3769  159.0139 O   0  0  0  0  0  0  0  0  0  0  0  0
  151.4824  144.4628  162.2146 H   0  0  0  0  0  0  0  0  0  0  0  0
  150.4068  143.5640  161.1535 H   0  0  0  0  0  0  0  0  0  0  0  0
  151.5881  144.6898  160.4764 H   0  0  0  0  0  0  0  0  0  0  0  0
  153.0510  143.2322  163.1028 H   0  0  0  0  0  0  0  0  0  0  0  0
  155.6108  140.7095  163.3473 H   0  0  0  0  0  0  0  0  0  0  0  0
  156.4069  140.9351  165.1191 H   0  0  0  0  0  0  0  0  0  0  0  0
  156.9506  141.8301  167.1467 H   0  0  0  0  0  0  0  0  0  0  0  0
  156.6706  144.1224  166.2387 H   0  0  0  0  0  0  0  0  0  0  0  0
  154.9345  144.0173  166.4380 H   0  0  0  0  0  0  0  0  0  0  0  0
  157.0232  143.9322  168.6655 H   0  0  0  0  0  0  0  0  0  0  0  0
  155.9197  145.2405  168.3415 H   0  0  0  0  0  0  0  0  0  0  0  0
  155.1112  143.8074  170.2420 H   0  0  0  0  0  0  0  0  0  0  0  0
  153.9735  143.8484  168.9194 H   0  0  0  0  0  0  0  0  0  0  0  0
  154.9187  140.3892  172.4985 H   0  0  0  0  0  0  0  0  0  0  0  0
  153.6068  140.5134  171.3140 H   0  0  0  0  0  0  0  0  0  0  0  0
  154.2947  141.9857  172.0513 H   0  0  0  0  0  0  0  0  0  0  0  0
  153.9032  141.7343  167.3351 H   0  0  0  0  0  0  0  0  0  0  0  0
  154.9915  140.4241  167.7154 H   0  0  0  0  0  0  0  0  0  0  0  0
  154.9591  140.0007  160.9590 H   0  0  0  0  0  0  0  0  0  0  0  0
  153.5713  140.4513  159.0879 H   0  0  0  0  0  0  0  0  0  0  0  0
  1  2  1  0  0  0  0
  1 23  1  0  0  0  0
  1 24  1  0  0  0  0
  1 25  1  0  0  0  0
  2 21  1  0  0  0  0
  2  3  1  0  0  0  0
  3  4  2  0  0  0  0
  3 26  1  0  0  0  0
  4  5  1  0  0  0  0
  4 19  1  0  0  0  0
  5  6  1  0  0  0  0
  5 27  1  0  0  0  0
  6  7  2  0  0  0  0
  6  8  1  0  0  0  0
  8  9  1  0  0  0  0
  8 28  1  0  0  0  0
  9 18  1  0  0  0  0
  9 10  1  0  0  0  0
  9 29  1  0  0  0  0
 10 11  1  0  0  0  0
 10 30  1  0  0  0  0
 10 31  1  0  0  0  0
 11 12  1  0  0  0  0
 11 32  1  0  0  0  0
 11 33  1  0  0  0  0
 12 13  1  0  0  0  0
 12 34  1  0  0  0  0
 12 35  1  0  0  0  0
 13 14  1  0  0  0  0
 13 18  1  0  0  0  0
 14 15  1  0  0  0  0
 14 16  2  0  0  0  0
 14 17  2  0  0  0  0
 15 36  1  0  0  0  0
 15 37  1  0  0  0  0
 15 38  1  0  0  0  0
 18 39  1  0  0  0  0
 18 40  1  0  0  0  0
 19 20  2  0  0  0  0
 19 41  1  0  0  0  0
 20 21  1  0  0  0  0
 20 42  1  0  0  0  0
 21 22  2  0  0  0  0
M  END
> <s_m_source_file>
AV-unprocessed.smi

> <i_m_source_file_index>
1608

> <i_lp_mmshare_version>
43012

> <i_f3d_flags>
0

> <s_epik_input>
Tz1jMVtjSF1bY0hdYyhbY0hdbjFbQ0gzXSlbTkhdQyg9TylbTkhdW0NAQEhdMltDSDJdW0NIMl1bQ0gyXU4oW0NIMl0yKVMoPU8pKD1PKVtDSDNd

> <s_epik_cmdline>
J2VwaWtfcHl0aG9uJywgJy1waCcsICc3LjAnLCAnLXRuJywgJzgnLCAnLW1hJywgJzIwMCcsICctbWV0YWxfYmluZGluZycsICctaW1hZScsICc8aW5maWxlLm1hZT4nLCAnLW9tYWUnLCAnPG91dGZpbGUubWFlPic=

> <r_lp_tautomer_probability>
1

> <r_epik_Ionization_Penalty>
2.44111e-05

> <r_epik_Ionization_Penalty_Charging>
5.7429e-06

> <r_epik_Ionization_Penalty_Neutral>
1.86682e-05

> <r_epik_State_Penalty>
-0

> <r_epik_Charging_Adjusted_Penalty>
5.7429e-06

> <i_epik_Tot_Q>
0

> <i_epik_Tot_abs_Q>
0

> <r_epik_Metal_State_Penalty>
-0

> <b_epik_Metal_Only>
0

> <s_lp_Force_Field>
OPLS_2005

> <r_lp_Energy>
11.6091

> <b_lp_Chiralities_Consistent>
1

> <s_lp_Variant>
AV-unprocessed.smi:1608-2

> <Gold.Version>
5.8.1

> <Gold.Id.Protein>
6NUR|6NUR_protein|mol2

> <Gold.PLP.Fitness>
46.9314

> <Gold.PLP.PLP>
-47.4365

> <Gold.PLP.part.hbond>
-2.8247

> <Gold.PLP.part.metal>
0.0000

> <Gold.PLP.part.buried>
-4.8534

> <Gold.PLP.part.nonpolar>
-39.8134

> <Gold.PLP.part.repulsive>
0.2994

> <Gold.PLP.ligand.clash>
0.0000

> <Gold.PLP.ligand.torsion>
1.2805

> <Gold.PLP.Chemscore.Hbond>
0.0000

> <Gold.PLP.Chemscore.CHOScore>
0.0000

> <Gold.PLP.Chemscore.Metal>
0.0000

> <Gold.PLP.Chemscore.Internal.Correction>
2.0559

> <Gold.Rescore>
     Score         DG    S(hbond)    S(metal)    S(lipo)     H(rot)  DE(clash)    DE(int)     intcor
      6.39     -13.57       0.00        0.00      91.04       1.00       3.28       3.90       ----

> <Gold.Chemscore.Fitness>
6.3914

> <Gold.Chemscore.DG>
-13.5714

> <Gold.Chemscore.ZeroCoef>
-5.4800

> <Gold.Chemscore.Hbond>
0.0000

> <Gold.Chemscore.Metal>
0.0000

> <Gold.Chemscore.Lipo>
91.0375

> <Gold.Chemscore.Internal_Hbond>
0.0000

> <Gold.Chemscore.DEClash>
3.2843

> <Gold.Chemscore.DEInternal>
3.8957

> <Gold.Chemscore.Rot>
1.0000

> <Gold.Chemscore.Internal.Correction>
   9.000000E+99

> <Gold.Chemscore.Hbond.Weighted>
-0.0000

> <Gold.Chemscore.Metal.Weighted>
-0.0000

> <Gold.Chemscore.Lipo.Weighted>
-10.6514

> <Gold.Chemscore.Internal_Hbond.Weighted>
0.0000

> <Gold.Chemscore.DEClash.Weighted>
3.2843

> <Gold.Chemscore.DEInternal.Weighted>
3.8957

> <Gold.Chemscore.Rot.Weighted>
2.5600

> <Gold.Chemscore.Internal.Correction.Weighted>
   9.000000E+99

> <Gold.Protein.RotatedTorsions>
[ 6907 6896 6895 6894 ] final  -56.86 input  -60.11 | X-H torsion
[ 7974 7965 7964 7962 ] final   72.44 input  175.53 | X-H torsion
[ 8008 7997 7996 7995 ] final -118.36 input   59.86 | X-H torsion
[ 10167 10162 10161 10158 ] final -104.91 input  -65.29 | X-H torsion
[ 10718 10713 10712 10709 ] final -114.51 input   66.30 | X-H torsion
[ 10763 10752 10751 10750 ] final   37.67 input  -60.55 | X-H torsion
[ 11005 11000 10999 10996 ] final -164.73 input  -57.11 | X-H torsion

> <Gold.Protein.ActiveResidues>
 VAL166  LYS551  ARG553  GLY616  TRP617  ASP618  TYR619  PRO620  LYS621  CYS622 
 ASP623  PHE694  ASN695  SER759  ASP760  ASP761  ALA762  ILE779  LEU786  VAL792 
 PHE793  MET794  SER795  GLU796  ALA797  LYS798  CYS799  TRP800  GLU811  SER814 

> <Gold.Protein.RotatedAtoms>
  150.8133  134.7300  159.6707 H   0  0  0  0  0  0  0  0  0  0  0  0  # atno 6907 bound_to 6896
  152.4252  134.5877  159.9975 H   0  0  0  0  0  0  0  0  0  0  0  0  # atno 6908 bound_to 6896
  151.6081  133.3312  159.3097 H   0  0  0  0  0  0  0  0  0  0  0  0  # atno 6909 bound_to 6896
  145.7533  139.2769  143.1418 H   0  0  0  0  0  0  0  0  0  0  0  0  # atno 7974 bound_to 7965
  155.0984  140.0396  157.2689 H   0  0  0  0  0  0  0  0  0  0  0  0  # atno 8008 bound_to 7997
  154.6777  140.2626  155.6916 H   0  0  0  0  0  0  0  0  0  0  0  0  # atno 8009 bound_to 7997
  156.2683  140.2785  156.1310 H   0  0  0  0  0  0  0  0  0  0  0  0  # atno 8010 bound_to 7997
  140.2042  143.3795  152.1104 H   0  0  0  0  0  0  0  0  0  0  0  0  # atno 10167 bound_to 10162
  156.0835  130.6031  150.8784 H   0  0  0  0  0  0  0  0  0  0  0  0  # atno 10718 bound_to 10713
  153.0029  135.6271  154.2182 H   0  0  0  0  0  0  0  0  0  0  0  0  # atno 10763 bound_to 10752
  154.1925  135.2808  155.3019 H   0  0  0  0  0  0  0  0  0  0  0  0  # atno 10764 bound_to 10752
  154.5748  135.5665  153.7188 H   0  0  0  0  0  0  0  0  0  0  0  0  # atno 10765 bound_to 10752
  140.5836  134.5116  157.5182 H   0  0  0  0  0  0  0  0  0  0  0  0  # atno 11005 bound_to 11000
  146.0335  140.8235  142.9864 LP  0  0  0  0  0  0  0  0  0  0  0  0  # atno 17320 bound_to 7965
  144.6845  140.2804  143.7293 LP  0  0  0  0  0  0  0  0  0  0  0  0  # atno 17321 bound_to 7965
  139.5205  144.7034  151.5427 LP  0  0  0  0  0  0  0  0  0  0  0  0  # atno 17342 bound_to 10162
  140.6369  143.8966  150.6656 LP  0  0  0  0  0  0  0  0  0  0  0  0  # atno 17343 bound_to 10162
  157.5961  131.0943  150.9039 LP  0  0  0  0  0  0  0  0  0  0  0  0  # atno 17370 bound_to 10713
  156.9206  130.5313  149.5279 LP  0  0  0  0  0  0  0  0  0  0  0  0  # atno 17371 bound_to 10713
  139.9306  134.7971  156.0942 LP  0  0  0  0  0  0  0  0  0  0  0  0  # atno 17394 bound_to 11000
  141.0980  133.6688  156.2690 LP  0  0  0  0  0  0  0  0  0  0  0  0  # atno 17395 bound_to 11000

$$$$
