AV-unprocessed.smi:630|AV-procd|sdf|3117|dock2
  -GOLD-   22720 0 43D 1   1.00000     0.00000
 Structure written by MMmdl.
 37 38  0  0  0  0  0  0  0  0  1 V2000
  149.9762  136.8483  154.0832 N   0  0  0  0  0  0  0  0  0  0  0  0
  149.9783  138.0253  154.7148 C   0  0  0  0  0  0  0  0  0  0  0  0
  150.7081  138.2461  155.6793 O   0  0  0  0  0  0  0  0  0  0  0  0
  149.0211  139.1124  154.1889 C   0  0  2  0  0  0  0  0  0  0  0  0
  149.2628  140.4206  154.9804 C   0  0  0  0  0  0  0  0  0  0  0  0
  148.7241  141.6710  154.2660 C   0  0  0  0  0  0  0  0  0  0  0  0
  147.2586  142.0175  154.5749 C   0  0  0  0  0  0  0  0  0  0  0  0
  146.2977  140.8262  154.7223 C   0  0  0  0  0  0  0  0  0  0  0  0
  146.5166  139.6763  153.7257 C   0  0  0  0  0  0  0  0  0  0  0  0
  147.5433  138.6255  154.2105 C   0  0  1  0  0  0  0  0  0  0  0  0
  147.4087  137.4217  153.3850 N   0  0  0  0  0  0  0  0  0  0  0  0
  146.2845  136.7085  153.2198 C   0  0  0  0  0  0  0  0  0  0  0  0
  145.2037  137.0146  153.7238 O   0  0  0  0  0  0  0  0  0  0  0  0
  146.5031  135.6338  152.4423 N   0  0  0  0  0  0  0  0  0  0  0  0
  145.5791  134.6287  152.0534 C   0  0  0  0  0  0  0  0  0  0  0  0
  144.2522  134.7976  152.0122 N   0  0  0  0  0  0  0  0  0  0  0  0
  143.5889  133.6410  151.5955 C   0  0  0  0  0  0  0  0  0  0  0  0
  144.4322  132.5933  151.3206 C   0  0  0  0  0  0  0  0  0  0  0  0
  146.1032  133.0205  151.5758 S   0  0  0  0  0  0  0  0  0  0  0  0
  150.5929  136.1127  154.3966 H   0  0  0  0  0  0  0  0  0  0  0  0
  149.3639  136.6981  153.2949 H   0  0  0  0  0  0  0  0  0  0  0  0
  149.2940  139.2999  153.1486 H   0  0  0  0  0  0  0  0  0  0  0  0
  148.8598  140.3499  155.9917 H   0  0  0  0  0  0  0  0  0  0  0  0
  150.3380  140.5618  155.1047 H   0  0  0  0  0  0  0  0  0  0  0  0
  149.3357  142.5301  154.5438 H   0  0  0  0  0  0  0  0  0  0  0  0
  148.8573  141.5640  153.1890 H   0  0  0  0  0  0  0  0  0  0  0  0
  147.2159  142.6022  155.4948 H   0  0  0  0  0  0  0  0  0  0  0  0
  146.8920  142.6805  153.7904 H   0  0  0  0  0  0  0  0  0  0  0  0
  146.3448  140.4383  155.7407 H   0  0  0  0  0  0  0  0  0  0  0  0
  145.2807  141.2034  154.6094 H   0  0  0  0  0  0  0  0  0  0  0  0
  145.5530  139.1805  153.5976 H   0  0  0  0  0  0  0  0  0  0  0  0
  146.7817  140.0603  152.7398 H   0  0  0  0  0  0  0  0  0  0  0  0
  147.2934  138.3611  155.2402 H   0  0  0  0  0  0  0  0  0  0  0  0
  148.2457  137.0955  152.9252 H   0  0  0  0  0  0  0  0  0  0  0  0
  147.4440  135.5132  152.0982 H   0  0  0  0  0  0  0  0  0  0  0  0
  142.5114  133.6516  151.5225 H   0  0  0  0  0  0  0  0  0  0  0  0
  144.1727  131.6003  150.9849 H   0  0  0  0  0  0  0  0  0  0  0  0
  1  2  1  0  0  0  0
  1 20  1  0  0  0  0
  1 21  1  0  0  0  0
  2  3  2  0  0  0  0
  2  4  1  0  0  0  0
  4 10  1  0  0  0  0
  4  5  1  0  0  0  0
  4 22  1  0  0  0  0
  5  6  1  0  0  0  0
  5 23  1  0  0  0  0
  5 24  1  0  0  0  0
  6  7  1  0  0  0  0
  6 25  1  0  0  0  0
  6 26  1  0  0  0  0
  7  8  1  0  0  0  0
  7 27  1  0  0  0  0
  7 28  1  0  0  0  0
  8  9  1  0  0  0  0
  8 29  1  0  0  0  0
  8 30  1  0  0  0  0
  9 10  1  0  0  0  0
  9 31  1  0  0  0  0
  9 32  1  0  0  0  0
 10 11  1  0  0  0  0
 10 33  1  0  0  0  0
 11 12  1  0  0  0  0
 11 34  1  0  0  0  0
 12 13  2  0  0  0  0
 12 14  1  0  0  0  0
 14 15  1  0  0  0  0
 14 35  1  0  0  0  0
 15 19  1  0  0  0  0
 15 16  2  0  0  0  0
 16 17  1  0  0  0  0
 17 18  2  0  0  0  0
 17 36  1  0  0  0  0
 18 19  1  0  0  0  0
 18 37  1  0  0  0  0
M  END
> <s_m_source_file>
AV-unprocessed.smi

> <i_m_source_file_index>
630

> <i_lp_mmshare_version>
43012

> <i_f3d_flags>
0

> <s_epik_input>
W05IMl1DKD1PKVtDQEBIXTFbQ0gyXVtDSDJdW0NIMl1bQ0gyXVtDSDJdW0NASF0xW05IXUMoPU8pW05IXWMybltjSF1bY0hdczI=

> <s_epik_cmdline>
J2VwaWtfcHl0aG9uJywgJy1waCcsICc3LjAnLCAnLXRuJywgJzgnLCAnLW1hJywgJzIwMCcsICctbWV0YWxfYmluZGluZycsICctaW1hZScsICc8aW5maWxlLm1hZT4nLCAnLW9tYWUnLCAnPG91dGZpbGUubWFlPic=

> <r_lp_tautomer_probability>
0.999

> <r_epik_Ionization_Penalty>
0.000342689

> <r_epik_Ionization_Penalty_Charging>
0

> <r_epik_Ionization_Penalty_Neutral>
0.000342689

> <r_epik_State_Penalty>
0.000177984

> <r_epik_Charging_Adjusted_Penalty>
0.000177984

> <i_epik_Tot_Q>
0

> <i_epik_Tot_abs_Q>
0

> <r_epik_Metal_State_Penalty>
0.00743087

> <b_epik_Metal_Only>
0

> <s_lp_Force_Field>
OPLS_2005

> <r_lp_Energy>
11.5687

> <b_lp_Chiralities_Consistent>
1

> <s_lp_Variant>
AV-unprocessed.smi:630-1

> <Gold.Version>
5.8.1

> <Gold.Id.Protein>
6NUR|6NUR_protein|mol2

> <Gold.PLP.Fitness>
36.9774

> <Gold.PLP.PLP>
-25.3413

> <Gold.PLP.part.hbond>
-3.7479

> <Gold.PLP.part.metal>
0.0000

> <Gold.PLP.part.buried>
-0.2808

> <Gold.PLP.part.nonpolar>
-22.2062

> <Gold.PLP.part.repulsive>
0.3450

> <Gold.PLP.ligand.clash>
0.0000

> <Gold.PLP.ligand.torsion>
0.1549

> <Gold.PLP.Chemscore.Hbond>
2.9600

> <Gold.PLP.Chemscore.CHOScore>
1.0000

> <Gold.PLP.Chemscore.Metal>
0.0000

> <Gold.Chemscore.Hbonds>
donor molecule, donor type, donor heavy atom, donor atom, acceptor molecule, acceptor atom, score
      L1  H     1    21       P1  7948  1.00
      L1  H    11    34       P1  7948  1.00
      L1  H    14    35       P1  7948  0.96
      L1  C    17    36       P1 10186  0.87

> <Gold.PLP.Chemscore.Internal.Correction>
0.0658

> <Gold.Rescore>
     Score         DG    S(hbond)    S(metal)    S(lipo)     H(rot)  DE(clash)    DE(int)     intcor
     14.77     -17.76       2.85        0.00      56.69       1.52       0.10       2.89       ----

> <Gold.Chemscore.Fitness>
14.7650

> <Gold.Chemscore.DG>
-17.7556

> <Gold.Chemscore.ZeroCoef>
-5.4800

> <Gold.Chemscore.Hbond>
2.8533

> <Gold.Chemscore.Metal>
0.0000

> <Gold.Chemscore.Lipo>
56.6909

> <Gold.Chemscore.Internal_Hbond>
0.0000

> <Gold.Chemscore.DEClash>
0.1001

> <Gold.Chemscore.DEInternal>
2.8905

> <Gold.Chemscore.Rot>
1.5184

> <Gold.Chemscore.Internal.Correction>
   9.000000E+99

> <Gold.Chemscore.Hbonds>
donor molecule, donor type, donor heavy atom, donor atom, acceptor molecule, acceptor atom, score
      L1  H     1    21       P1  7948  0.81
      L1  H    11    34       P1  7948  0.90
      L1  H    14    35       P1  7948  0.92

> <Gold.Chemscore.Hbond.Weighted>
-9.5299

> <Gold.Chemscore.Metal.Weighted>
-0.0000

> <Gold.Chemscore.Lipo.Weighted>
-6.6328

> <Gold.Chemscore.Internal_Hbond.Weighted>
0.0000

> <Gold.Chemscore.DEClash.Weighted>
0.1001

> <Gold.Chemscore.DEInternal.Weighted>
2.8905

> <Gold.Chemscore.Rot.Weighted>
3.8872

> <Gold.Chemscore.Internal.Correction.Weighted>
   9.000000E+99

> <Gold.Protein.RotatedTorsions>
[ 6907 6896 6895 6894 ] final  141.89 input  -60.11 | X-H torsion
[ 7974 7965 7964 7962 ] final  137.22 input  175.53 | X-H torsion
[ 8008 7997 7996 7995 ] final  -79.63 input   59.86 | X-H torsion
[ 10167 10162 10161 10158 ] final  -46.47 input  -65.29 | X-H torsion
[ 10718 10713 10712 10709 ] final -103.81 input   66.30 | X-H torsion
[ 10763 10752 10751 10750 ] final  169.03 input  -60.55 | X-H torsion
[ 11005 11000 10999 10996 ] final   29.41 input  -57.11 | X-H torsion

> <Gold.Protein.ActiveResidues>
 VAL166  LYS551  ARG553  GLY616  TRP617  ASP618  TYR619  PRO620  LYS621  CYS622 
 ASP623  PHE694  ASN695  SER759  ASP760  ASP761  ALA762  ILE779  LEU786  VAL792 
 PHE793  MET794  SER795  GLU796  ALA797  LYS798  CYS799  TRP800  GLU811  SER814 

> <Gold.Protein.RotatedAtoms>
  152.2254  133.5016  159.5185 H   0  0  0  0  0  0  0  0  0  0  0  0  # atno 6907 bound_to 6896
  150.7023  134.1287  159.4070 H   0  0  0  0  0  0  0  0  0  0  0  0  # atno 6908 bound_to 6896
  151.9208  135.0299  160.0572 H   0  0  0  0  0  0  0  0  0  0  0  0  # atno 6909 bound_to 6896
  144.9489  139.4842  143.5535 H   0  0  0  0  0  0  0  0  0  0  0  0  # atno 7974 bound_to 7965
  154.5804  140.0675  156.9095 H   0  0  0  0  0  0  0  0  0  0  0  0  # atno 8008 bound_to 7997
  155.2473  140.3349  155.4267 H   0  0  0  0  0  0  0  0  0  0  0  0  # atno 8009 bound_to 7997
  156.2185  140.1788  156.7518 H   0  0  0  0  0  0  0  0  0  0  0  0  # atno 8010 bound_to 7997
  140.6816  143.2829  151.3788 H   0  0  0  0  0  0  0  0  0  0  0  0  # atno 10167 bound_to 10162
  156.0279  130.5485  150.7306 H   0  0  0  0  0  0  0  0  0  0  0  0  # atno 10718 bound_to 10713
  154.3773  135.2753  155.2232 H   0  0  0  0  0  0  0  0  0  0  0  0  # atno 10763 bound_to 10752
  154.4354  135.5967  153.6098 H   0  0  0  0  0  0  0  0  0  0  0  0  # atno 10764 bound_to 10752
  152.9836  135.6005  154.4011 H   0  0  0  0  0  0  0  0  0  0  0  0  # atno 10765 bound_to 10752
  140.3053  134.2711  155.7745 H   0  0  0  0  0  0  0  0  0  0  0  0  # atno 11005 bound_to 11000
  146.3314  139.8560  142.8864 LP  0  0  0  0  0  0  0  0  0  0  0  0  # atno 17320 bound_to 7965
  145.2875  141.0157  143.3682 LP  0  0  0  0  0  0  0  0  0  0  0  0  # atno 17321 bound_to 7965
  139.6142  144.1036  152.2329 LP  0  0  0  0  0  0  0  0  0  0  0  0  # atno 17342 bound_to 10162
  140.0460  144.5970  150.7373 LP  0  0  0  0  0  0  0  0  0  0  0  0  # atno 17343 bound_to 10162
  157.4899  131.0910  151.0438 LP  0  0  0  0  0  0  0  0  0  0  0  0  # atno 17370 bound_to 10713
  157.0848  130.5918  149.5427 LP  0  0  0  0  0  0  0  0  0  0  0  0  # atno 17371 bound_to 10713
  141.2119  133.7673  156.9827 LP  0  0  0  0  0  0  0  0  0  0  0  0  # atno 17394 bound_to 11000
  140.1073  134.9499  157.2013 LP  0  0  0  0  0  0  0  0  0  0  0  0  # atno 17395 bound_to 11000

$$$$
