#       Name:                AV-unprocessed.smi:1963
#       Creating user name   scv26
#       Creation time:       Fri Mar 27 10:09:43 2020


#       File generated by GOLD software.
#

@<TRIPOS>MOLECULE
AV-unprocessed.smi:1963
    55    56     1
SMALL
NO_CHARGES


@<TRIPOS>ATOM
      1 ****        -5.0352  -1.5816   3.3182 C.3            1 S1                 0.0000
      2 ****        -4.3450  -0.7493   2.2434 C.2            1 S1                 0.0000
      3 ****        -4.0580   0.4275   2.4609 O.2            1 S1                 0.0000
      4 ****        -4.0853  -1.3751   1.0848 N.am           1 S1                 0.0000
      5 ****        -3.4225  -0.7754  -0.0757 C.3            1 S1                 0.0000
      6 ****        -1.8967  -0.8348   0.1365 C.2            1 S1                 0.0000
      7 ****        -1.3678  -1.8839   0.5067 O.2            1 S1                 0.0000
      8 ****        -1.2267   0.2973  -0.1480 N.am           1 S1                 0.0000
      9 ****         0.1707   0.5411  -0.0732 C.ar           1 S1                 0.0000
     10 ****         0.7013   1.5957  -0.8405 C.ar           1 S1                 0.0000
     11 ****         2.0808   1.8679  -0.7766 C.ar           1 S1                 0.0000
     12 ****         2.9015   1.0800   0.0643 C.ar           1 S1                 0.0000
     13 ****         4.2893   1.3298   0.1395 N.3            1 S1                 0.0000
     14 ****         4.9950   1.3771  -1.1389 C.3            1 S1                 0.0000
     15 ****         6.4088   1.9538  -0.9503 C.3            1 S1                 0.0000
     16 ****         7.1077   1.2070   0.0402 O.3            1 S1                 0.0000
     17 ****         6.4589   1.2700   1.3057 C.3            1 S1                 0.0000
     18 ****         5.0497   0.6640   1.1959 C.3            1 S1                 0.0000
     19 ****         2.3853   0.0809   0.8217 N.ar           1 S1                 0.0000
     20 ****         1.0623  -0.1788   0.7562 C.ar           1 S1                 0.0000
     21 ****        -3.8163  -1.5792  -1.3508 C.3            1 S1                 0.0000
     22 ****        -3.1397  -1.0517  -2.6336 C.3            1 S1                 0.0000
     23 ****        -5.3429  -1.6054  -1.5632 C.3            1 S1                 0.0000
     24 ****        -4.4212  -2.4421   3.5853 H              1 S1                 0.0000
     25 ****        -5.9998  -1.9419   2.9597 H              1 S1                 0.0000
     26 ****        -5.2047  -0.9900   4.2186 H              1 S1                 0.0000
     27 ****        -4.3516  -2.3455   1.0016 H              1 S1                 0.0000
     28 ****        -3.7448   0.2623  -0.1873 H              1 S1                 0.0000
     29 ****        -1.7796   1.0537  -0.5245 H              1 S1                 0.0000
     30 ****         0.0615   2.1906  -1.4759 H              1 S1                 0.0000
     31 ****         2.4872   2.6817  -1.3582 H              1 S1                 0.0000
     32 ****         5.0565   0.3659  -1.5435 H              1 S1                 0.0000
     33 ****         4.4628   1.9798  -1.8734 H              1 S1                 0.0000
     34 ****         6.9622   1.9031  -1.8881 H              1 S1                 0.0000
     35 ****         6.3639   3.0059  -0.6639 H              1 S1                 0.0000
     36 ****         7.0493   0.7161   2.0355 H              1 S1                 0.0000
     37 ****         6.4122   2.3037   1.6521 H              1 S1                 0.0000
     38 ****         4.5373   0.7669   2.1534 H              1 S1                 0.0000
     39 ****         5.1182  -0.4019   0.9743 H              1 S1                 0.0000
     40 ****         0.7256  -0.9724   1.4048 H              1 S1                 0.0000
     41 ****        -3.4954  -2.6143  -1.2200 H              1 S1                 0.0000
     42 ****        -3.3696   0.0017  -2.7965 H              1 S1                 0.0000
     43 ****        -3.4793  -1.6030  -3.5109 H              1 S1                 0.0000
     44 ****        -2.0552  -1.1559  -2.6001 H              1 S1                 0.0000
     45 ****        -5.7438  -0.5967  -1.6686 H              1 S1                 0.0000
     46 ****        -5.8636  -2.0857  -0.7344 H              1 S1                 0.0000
     47 ****        -5.6041  -2.1610  -2.4643 H              1 S1                 0.0000
     48 ****        -4.2775   0.8406   3.3448 LP             1 S1                 0.0000
     49 ****        -3.6053   0.9707   1.7538 LP             1 S1                 0.0000
     50 ****        -1.9281  -2.6960   0.6693 LP             1 S1                 0.0000
     51 ****        -0.3781  -1.9233   0.6446 LP             1 S1                 0.0000
     52 ****         4.2573   2.2753   0.4637 LP             1 S1                 0.0000
     53 ****         8.0323   1.5767   0.1318 LP             1 S1                 0.0000
     54 ****         7.1581   0.2516  -0.2505 LP             1 S1                 0.0000
     55 ****         2.9775  -0.4570   1.4216 LP             1 S1                 0.0000
@<TRIPOS>BOND
    1    1    2 1     
    2    1   24 1     
    3    1   25 1     
    4    1   26 1     
    5    2    3 2     
    6    2    4 am    
    7    4    5 1     
    8    4   27 1     
    9    5    6 1     
   10    5   21 1     
   11    5   28 1     
   12    6    7 2     
   13    6    8 am    
   14    8    9 1     
   15    8   29 1     
   16    9   20 ar    
   17    9   10 ar    
   18   10   11 ar    
   19   10   30 1     
   20   11   12 ar    
   21   11   31 1     
   22   12   13 1     
   23   12   19 ar    
   24   13   18 1     
   25   13   14 1     
   26   14   15 1     
   27   14   32 1     
   28   14   33 1     
   29   15   16 1     
   30   15   34 1     
   31   15   35 1     
   32   16   17 1     
   33   17   18 1     
   34   17   36 1     
   35   17   37 1     
   36   18   38 1     
   37   18   39 1     
   38   19   20 ar    
   39   20   40 1     
   40   21   22 1     
   41   21   23 1     
   42   21   41 1     
   43   22   42 1     
   44   22   43 1     
   45   22   44 1     
   46   23   45 1     
   47   23   46 1     
   48   23   47 1     
   49    3   48 1     
   50    3   49 1     
   51    7   50 1     
   52    7   51 1     
   53   13   52 1     
   54   16   53 1     
   55   16   54 1     
   56   19   55 1     
@<TRIPOS>SUBSTRUCTURE
      1 S1             1
@<TRIPOS>SET
LONE_PAIRS      STATIC     ATOMS    <user>   **** ""
8 48 49 50 51 52 53 54 55
DONOR_HYDROGENS      STATIC     ATOMS    <user>   **** ""
2 27 29
ATOM$BLUE        STATIC     ATOMS    COLORGROUP SYSTEM
8 48 49 50 51 52 53 54 55
ATOM$RED        STATIC     ATOMS    COLORGROUP SYSTEM
2 27 29
