AV-unprocessed.smi:1071|AV-procd|sdf|4681|dock1
  -GOLD-   22720 3193D 1   1.00000     0.00000
 Structure written by MMmdl.
 46 47  0  0  0  0  0  0  0  0  1 V2000
  147.7781  127.8350  151.5355 C   0  0  0  0  0  0  0  0  0  0  0  0
  147.2413  128.8746  152.3342 O   0  0  0  0  0  0  0  0  0  0  0  0
  148.2041  129.4420  153.2069 C   0  0  0  0  0  0  0  0  0  0  0  0
  147.4835  130.1362  154.3665 C   0  0  0  0  0  0  0  0  0  0  0  0
  148.4565  130.6406  155.2765 O   0  0  0  0  0  0  0  0  0  0  0  0
  148.9522  131.9121  155.0739 C   0  0  0  0  0  0  0  0  0  0  0  0
  149.9684  132.3823  155.9290 C   0  0  0  0  0  0  0  0  0  0  0  0
  150.4801  133.6790  155.7315 C   0  0  0  0  0  0  0  0  0  0  0  0
  149.9496  134.4713  154.6855 C   0  0  0  0  0  0  0  0  0  0  0  0
  150.3916  135.7846  154.3705 N   0  0  0  0  0  0  0  0  0  0  0  0
  151.2032  136.5950  155.0782 C   0  0  0  0  0  0  0  0  0  0  0  0
  151.8045  136.2454  156.0931 O   0  0  0  0  0  0  0  0  0  0  0  0
  151.3858  137.7987  154.4812 N   0  0  0  0  0  0  0  0  0  0  0  0
  150.2396  138.5731  153.9788 C   0  0  0  0  0  0  0  0  0  0  0  0
  149.7866  139.5603  155.0754 C   0  0  0  0  0  0  0  0  0  0  0  0
  150.8874  140.4588  155.4312 N   0  0  0  0  0  0  0  0  0  0  0  0
  150.4605  141.3649  156.4872 C   0  0  0  0  0  0  0  0  0  0  0  0
  152.0603  139.7010  155.8755 C   0  0  0  0  0  0  0  0  0  0  0  0
  152.5007  138.7266  154.7619 C   0  0  1  0  0  0  0  0  0  0  0  0
  153.8568  138.0575  155.0682 C   0  0  0  0  0  0  0  0  0  0  0  0
  148.9455  133.9016  153.8756 C   0  0  0  0  0  0  0  0  0  0  0  0
  148.4505  132.6596  154.0596 N   0  0  0  0  0  0  0  0  0  0  0  0
  147.0013  127.4365  150.8832 H   0  0  0  0  0  0  0  0  0  0  0  0
  148.1519  127.0168  152.1526 H   0  0  0  0  0  0  0  0  0  0  0  0
  148.5913  128.1997  150.9066 H   0  0  0  0  0  0  0  0  0  0  0  0
  148.8892  128.6809  153.5837 H   0  0  0  0  0  0  0  0  0  0  0  0
  148.7976  130.1743  152.6576 H   0  0  0  0  0  0  0  0  0  0  0  0
  146.8916  130.9651  153.9750 H   0  0  0  0  0  0  0  0  0  0  0  0
  146.8017  129.4389  154.8569 H   0  0  0  0  0  0  0  0  0  0  0  0
  150.3528  131.7567  156.7213 H   0  0  0  0  0  0  0  0  0  0  0  0
  151.2727  134.0285  156.3742 H   0  0  0  0  0  0  0  0  0  0  0  0
  149.9584  136.2027  153.5599 H   0  0  0  0  0  0  0  0  0  0  0  0
  150.5246  139.1130  153.0744 H   0  0  0  0  0  0  0  0  0  0  0  0
  149.3950  137.9465  153.6897 H   0  0  0  0  0  0  0  0  0  0  0  0
  148.9405  140.1474  154.7168 H   0  0  0  0  0  0  0  0  0  0  0  0
  149.4480  139.0132  155.9572 H   0  0  0  0  0  0  0  0  0  0  0  0
  151.2630  142.0571  156.7446 H   0  0  0  0  0  0  0  0  0  0  0  0
  150.1767  140.8193  157.3884 H   0  0  0  0  0  0  0  0  0  0  0  0
  149.6040  141.9559  156.1611 H   0  0  0  0  0  0  0  0  0  0  0  0
  152.8699  140.3961  156.1026 H   0  0  0  0  0  0  0  0  0  0  0  0
  151.8361  139.1553  156.7936 H   0  0  0  0  0  0  0  0  0  0  0  0
  152.6694  139.3065  153.8521 H   0  0  0  0  0  0  0  0  0  0  0  0
  154.6571  138.7976  155.0522 H   0  0  0  0  0  0  0  0  0  0  0  0
  154.1014  137.2985  154.3247 H   0  0  0  0  0  0  0  0  0  0  0  0
  153.8813  137.5923  156.0533 H   0  0  0  0  0  0  0  0  0  0  0  0
  148.5200  134.4614  153.0554 H   0  0  0  0  0  0  0  0  0  0  0  0
  1  2  1  0  0  0  0
  1 23  1  0  0  0  0
  1 24  1  0  0  0  0
  1 25  1  0  0  0  0
  2  3  1  0  0  0  0
  3  4  1  0  0  0  0
  3 26  1  0  0  0  0
  3 27  1  0  0  0  0
  4  5  1  0  0  0  0
  4 28  1  0  0  0  0
  4 29  1  0  0  0  0
  5  6  1  0  0  0  0
  6 22  1  0  0  0  0
  6  7  2  0  0  0  0
  7  8  1  0  0  0  0
  7 30  1  0  0  0  0
  8  9  2  0  0  0  0
  8 31  1  0  0  0  0
  9 10  1  0  0  0  0
  9 21  1  0  0  0  0
 10 11  1  0  0  0  0
 10 32  1  0  0  0  0
 11 12  2  0  0  0  0
 11 13  1  0  0  0  0
 13 19  1  0  0  0  0
 13 14  1  0  0  0  0
 14 15  1  0  0  0  0
 14 33  1  0  0  0  0
 14 34  1  0  0  0  0
 15 16  1  0  0  0  0
 15 35  1  0  0  0  0
 15 36  1  0  0  0  0
 16 17  1  0  0  0  0
 16 18  1  0  0  0  0
 17 37  1  0  0  0  0
 17 38  1  0  0  0  0
 17 39  1  0  0  0  0
 18 19  1  0  0  0  0
 18 40  1  0  0  0  0
 18 41  1  0  0  0  0
 19 20  1  0  0  0  0
 19 42  1  0  0  0  0
 20 43  1  0  0  0  0
 20 44  1  0  0  0  0
 20 45  1  0  0  0  0
 21 22  2  0  0  0  0
 21 46  1  0  0  0  0
M  END
> <s_m_source_file>
AV-unprocessed.smi

> <i_m_source_file_index>
1071

> <i_lp_mmshare_version>
43012

> <i_f3d_flags>
0

> <s_epik_input>
W0NIM11PW0NIMl1bQ0gyXU9jMVtjSF1bY0hdYyhbY0hdbjEpW05IXUMoPU8pTjJbQ0gyXVtDSDJdTihbQ0gzXSlbQ0gyXVtDQEhdMltDSDNd

> <s_epik_cmdline>
J2VwaWtfcHl0aG9uJywgJy1waCcsICc3LjAnLCAnLXRuJywgJzgnLCAnLW1hJywgJzIwMCcsICctbWV0YWxfYmluZGluZycsICctaW1hZScsICc8aW5maWxlLm1hZT4nLCAnLW9tYWUnLCAnPG91dGZpbGUubWFlPic=

> <r_lp_tautomer_probability>
1

> <r_epik_Ionization_Penalty>
0.623446

> <r_epik_Ionization_Penalty_Charging>
0

> <r_epik_Ionization_Penalty_Neutral>
0.623446

> <r_epik_State_Penalty>
0.639577

> <r_epik_Charging_Adjusted_Penalty>
0.639577

> <i_epik_Tot_Q>
0

> <i_epik_Tot_abs_Q>
0

> <r_epik_Metal_State_Penalty>
0.639567

> <b_epik_Metal_Only>
0

> <s_lp_Force_Field>
OPLS_2005

> <r_lp_Energy>
47.7745

> <b_lp_Chiralities_Consistent>
1

> <s_lp_Variant>
AV-unprocessed.smi:1071-5

> <Gold.Version>
5.8.1

> <Gold.Id.Protein>
6NUR|6NUR_protein|mol2

> <Gold.PLP.Fitness>
44.2044

> <Gold.PLP.PLP>
-35.3296

> <Gold.PLP.part.hbond>
-4.0000

> <Gold.PLP.part.metal>
0.0000

> <Gold.PLP.part.buried>
1.5496

> <Gold.PLP.part.nonpolar>
-34.7494

> <Gold.PLP.part.repulsive>
0.3192

> <Gold.PLP.ligand.clash>
0.0000

> <Gold.PLP.ligand.torsion>
0.7627

> <Gold.PLP.Chemscore.Hbond>
2.2772

> <Gold.PLP.Chemscore.CHOScore>
0.9908

> <Gold.PLP.Chemscore.Metal>
0.0000

> <Gold.Chemscore.Hbonds>
donor molecule, donor type, donor heavy atom, donor atom, acceptor molecule, acceptor atom, score
      L1  H    10    32       P1  7948  0.75
      P1  H  7989  7998       L1    16  0.63
      P1  H 10752 10764       L1    12  0.89
      L1  C    21    46       P1  7948  0.99

> <Gold.PLP.Chemscore.Internal.Correction>
0.5961

> <Gold.Rescore>
     Score         DG    S(hbond)    S(metal)    S(lipo)     H(rot)  DE(clash)    DE(int)     intcor
     11.19     -15.49       1.38        0.00      80.51       1.57       0.03       4.28       ----

> <Gold.Chemscore.Fitness>
11.1881

> <Gold.Chemscore.DG>
-15.4918

> <Gold.Chemscore.ZeroCoef>
-5.4800

> <Gold.Chemscore.Hbond>
1.3841

> <Gold.Chemscore.Metal>
0.0000

> <Gold.Chemscore.Lipo>
80.5054

> <Gold.Chemscore.Internal_Hbond>
0.0000

> <Gold.Chemscore.DEClash>
0.0256

> <Gold.Chemscore.DEInternal>
4.2781

> <Gold.Chemscore.Rot>
1.5743

> <Gold.Chemscore.Internal.Correction>
   9.000000E+99

> <Gold.Chemscore.Hbonds>
donor molecule, donor type, donor heavy atom, donor atom, acceptor molecule, acceptor atom, score
      L1  H    10    32       P1  7948  0.09
      P1  H  7989  7998       L1    16  0.02
      P1  H 10752 10764       L1    12  0.17

> <Gold.Chemscore.Hbond.Weighted>
-4.6228

> <Gold.Chemscore.Metal.Weighted>
-0.0000

> <Gold.Chemscore.Lipo.Weighted>
-9.4191

> <Gold.Chemscore.Internal_Hbond.Weighted>
0.0000

> <Gold.Chemscore.DEClash.Weighted>
0.0256

> <Gold.Chemscore.DEInternal.Weighted>
4.2781

> <Gold.Chemscore.Rot.Weighted>
4.0301

> <Gold.Chemscore.Internal.Correction.Weighted>
   9.000000E+99

> <Gold.Protein.RotatedTorsions>
[ 6907 6896 6895 6894 ] final   14.30 input  -60.11 | X-H torsion
[ 7974 7965 7964 7962 ] final  -36.09 input  175.53 | X-H torsion
[ 8008 7997 7996 7995 ] final  177.94 input   59.86 | X-H torsion
[ 10167 10162 10161 10158 ] final -114.02 input  -65.29 | X-H torsion
[ 10718 10713 10712 10709 ] final   54.42 input   66.30 | X-H torsion
[ 10763 10752 10751 10750 ] final  -12.92 input  -60.55 | X-H torsion
[ 11005 11000 10999 10996 ] final  168.06 input  -57.11 | X-H torsion

> <Gold.Protein.ActiveResidues>
 VAL166  LYS551  ARG553  GLY616  TRP617  ASP618  TYR619  PRO620  LYS621  CYS622 
 ASP623  PHE694  ASN695  SER759  ASP760  ASP761  ALA762  ILE779  LEU786  VAL792 
 PHE793  MET794  SER795  GLU796  ALA797  LYS798  CYS799  TRP800  GLU811  SER814 

> <Gold.Protein.RotatedAtoms>
  151.8000  135.0711  160.0398 H   0  0  0  0  0  0  0  0  0  0  0  0  # atno 6907 bound_to 6896
  152.3095  133.5734  159.5680 H   0  0  0  0  0  0  0  0  0  0  0  0  # atno 6908 bound_to 6896
  150.7313  134.0089  159.3705 H   0  0  0  0  0  0  0  0  0  0  0  0  # atno 6909 bound_to 6896
  146.0691  140.6237  142.8961 H   0  0  0  0  0  0  0  0  0  0  0  0  # atno 7974 bound_to 7965
  156.0601  140.1346  156.9950 H   0  0  0  0  0  0  0  0  0  0  0  0  # atno 8008 bound_to 7997
  154.4478  140.0993  156.6576 H   0  0  0  0  0  0  0  0  0  0  0  0  # atno 8009 bound_to 7997
  155.5390  140.3460  155.4445 H   0  0  0  0  0  0  0  0  0  0  0  0  # atno 8010 bound_to 7997
  140.1055  143.4574  152.1785 H   0  0  0  0  0  0  0  0  0  0  0  0  # atno 10167 bound_to 10162
  157.5255  130.8594  149.8616 H   0  0  0  0  0  0  0  0  0  0  0  0  # atno 10718 bound_to 10713
  153.5056  135.7017  153.5808 H   0  0  0  0  0  0  0  0  0  0  0  0  # atno 10763 bound_to 10752
  153.3920  135.3893  155.1930 H   0  0  0  0  0  0  0  0  0  0  0  0  # atno 10764 bound_to 10752
  154.8707  135.3860  154.4531 H   0  0  0  0  0  0  0  0  0  0  0  0  # atno 10765 bound_to 10752
  140.2833  134.7732  157.3777 H   0  0  0  0  0  0  0  0  0  0  0  0  # atno 11005 bound_to 11000
  144.7220  140.4405  143.7001 LP  0  0  0  0  0  0  0  0  0  0  0  0  # atno 17320 bound_to 7965
  145.6424  139.1552  143.2908 LP  0  0  0  0  0  0  0  0  0  0  0  0  # atno 17321 bound_to 7965
  139.5647  144.7428  151.4055 LP  0  0  0  0  0  0  0  0  0  0  0  0  # atno 17342 bound_to 10162
  140.6954  143.7761  150.7319 LP  0  0  0  0  0  0  0  0  0  0  0  0  # atno 17343 bound_to 10162
  156.0384  130.3745  150.1500 LP  0  0  0  0  0  0  0  0  0  0  0  0  # atno 17370 bound_to 10713
  156.9686  130.9827  151.3463 LP  0  0  0  0  0  0  0  0  0  0  0  0  # atno 17371 bound_to 10713
  140.1263  134.5154  155.8142 LP  0  0  0  0  0  0  0  0  0  0  0  0  # atno 17394 bound_to 11000
  141.2159  133.6774  156.6957 LP  0  0  0  0  0  0  0  0  0  0  0  0  # atno 17395 bound_to 11000

$$$$
