#       Name:                AV-unprocessed.smi:290
#       Creating user name   scv26
#       Creation time:       Thu Mar 26 22:11:15 2020


#       File generated by GOLD software.
#

@<TRIPOS>MOLECULE
AV-unprocessed.smi:290
    68    71     1
SMALL
NO_CHARGES


@<TRIPOS>ATOM
      1 ****        -2.9300  -3.2761   1.7246 C.3            1 S1                 0.0000
      2 ****        -3.9725  -2.3916   2.4182 C.3            1 S1                 0.0000
      3 ****        -5.1235  -3.1816   2.6890 O.3            1 S1                 0.0000
      4 ****        -6.2040  -2.2980   2.9153 C.3            1 S1                 0.0000
      5 ****        -6.0224  -1.2886   1.7924 C.3            1 S1                 0.0000
      6 ****        -4.5038  -1.1317   1.6678 C.3            1 S1                 0.0000
      7 ****        -4.1361   0.0052   2.4285 O.3            1 S1                 0.0000
      8 ****        -4.1083  -0.9256   0.1746 C.3            1 S1                 0.0000
      9 ****        -2.7507  -0.4526  -0.0722 N.pl3          1 S1                 0.0000
     10 ****        -1.6896  -1.1923  -0.5410 C.2            1 S1                 0.0000
     11 ****        -0.5745  -0.5338  -0.6929 N.2            1 S1                 0.0000
     12 ****        -0.8938   0.7762  -0.3531 C.ar           1 S1                 0.0000
     13 ****        -0.1721   2.0081  -0.3065 C.ar           1 S1                 0.0000
     14 ****         1.1397   2.1681  -0.6286 N.pl3          1 S1                 0.0000
     15 ****         1.9438   3.2094  -0.0131 C.3            1 S1                 0.0000
     16 ****         3.3407   2.6107   0.0774 C.3            1 S1                 0.0000
     17 ****         3.4301   1.6695  -1.1352 C.3            1 S1                 0.0000
     18 ****         4.4650   0.6041  -0.9438 N.4            1 S1                 1.0000
     19 ****         5.8337   1.1801  -0.8735 C.3            1 S1                 0.0000
     20 ****         4.3787  -0.5286  -1.9107 C.3            1 S1                 0.0000
     21 ****         5.2935  -1.7199  -1.5680 C.3            1 S1                 0.0000
     22 ****         4.9472  -2.2536  -0.3072 O.3            1 S1                 0.0000
     23 ****         1.9688   1.1698  -1.2979 C.3            1 S1                 0.0000
     24 ****         1.5462   1.0363  -2.7780 C.3            1 S1                 0.0000
     25 ****        -0.8585   3.1129   0.0873 N.ar           1 S1                 0.0000
     26 ****        -2.1533   3.0344   0.4035 C.ar           1 S1                 0.0000
     27 ****        -2.9463   1.9633   0.4038 N.ar           1 S1                 0.0000
     28 ****        -2.2667   0.8426   0.0271 C.ar           1 S1                 0.0000
     29 ****         3.6957   2.2656  -2.0105 H              1 S1                 0.0000
     30 ****         1.8540   0.2252  -0.7677 H              1 S1                 0.0000
     31 ****        -1.9821  -2.7520   1.6170 H              1 S1                 0.0000
     32 ****        -3.2654  -3.6114   0.7437 H              1 S1                 0.0000
     33 ****        -2.7307  -4.1668   2.3207 H              1 S1                 0.0000
     34 ****        -3.5680  -2.1015   3.3904 H              1 S1                 0.0000
     35 ****        -7.1636  -2.8129   2.8705 H              1 S1                 0.0000
     36 ****        -6.1049  -1.8259   3.8942 H              1 S1                 0.0000
     37 ****        -6.4325  -1.7188   0.8774 H              1 S1                 0.0000
     38 ****        -6.5513  -0.3519   1.9747 H              1 S1                 0.0000
     39 ****        -4.4907   0.7753   2.0106 H              1 S1                 0.0000
     40 ****        -4.2715  -1.8407  -0.3952 H              1 S1                 0.0000
     41 ****        -4.7780  -0.1873  -0.2691 H              1 S1                 0.0000
     42 ****        -1.7636  -2.2462  -0.7655 H              1 S1                 0.0000
     43 ****         1.9366   4.0900  -0.6563 H              1 S1                 0.0000
     44 ****         1.5781   3.4992   0.9728 H              1 S1                 0.0000
     45 ****         4.1100   3.3831   0.0860 H              1 S1                 0.0000
     46 ****         3.4263   2.0385   1.0025 H              1 S1                 0.0000
     47 ****         6.1432   1.5671  -1.8452 H              1 S1                 0.0000
     48 ****         6.5665   0.4439  -0.5481 H              1 S1                 0.0000
     49 ****         5.8971   1.9942  -0.1530 H              1 S1                 0.0000
     50 ****         3.3661  -0.9255  -1.9374 H              1 S1                 0.0000
     51 ****         4.6029  -0.1636  -2.9140 H              1 S1                 0.0000
     52 ****         5.1605  -2.5040  -2.3139 H              1 S1                 0.0000
     53 ****         6.3507  -1.4593  -1.5891 H              1 S1                 0.0000
     54 ****         5.4807  -3.0175  -0.1454 H              1 S1                 0.0000
     55 ****         2.1620   0.3270  -3.3272 H              1 S1                 0.0000
     56 ****         1.6234   1.9947  -3.2924 H              1 S1                 0.0000
     57 ****         0.5136   0.7034  -2.8762 H              1 S1                 0.0000
     58 ****        -2.6205   3.9627   0.6980 H              1 S1                 0.0000
     59 ****         4.2766   0.1988  -0.0377 H              1 S1                 0.0000
     60 ****        -4.9676  -3.7447   3.5005 LP             1 S1                 0.0000
     61 ****        -5.3237  -3.7720   1.9071 LP             1 S1                 0.0000
     62 ****        -3.1394   0.0739   2.4713 LP             1 S1                 0.0000
     63 ****        -4.5048  -0.0755   3.3545 LP             1 S1                 0.0000
     64 ****         0.3118  -0.8909  -0.9878 LP             1 S1                 0.0000
     65 ****         3.9809  -2.5110  -0.3044 LP             1 S1                 0.0000
     66 ****         5.1123  -1.5707   0.4044 LP             1 S1                 0.0000
     67 ****        -0.3888   3.9941   0.1408 LP             1 S1                 0.0000
     68 ****        -3.9157   1.9793   0.6489 LP             1 S1                 0.0000
@<TRIPOS>BOND
    1    1    2 1     
    2    1   31 1     
    3    1   32 1     
    4    1   33 1     
    5    2    6 1     
    6    2    3 1     
    7    2   34 1     
    8    3    4 1     
    9    4    5 1     
   10    4   35 1     
   11    4   36 1     
   12    5    6 1     
   13    5   37 1     
   14    5   38 1     
   15    6    7 1     
   16    6    8 1     
   17    7   39 1     
   18    8    9 1     
   19    8   40 1     
   20    8   41 1     
   21    9   28 1     
   22    9   10 1     
   23   10   11 2     
   24   10   42 1     
   25   11   12 1     
   26   12   28 ar    
   27   12   13 ar    
   28   13   14 1     
   29   13   25 ar    
   30   14   23 1     
   31   14   15 1     
   32   15   16 1     
   33   15   43 1     
   34   15   44 1     
   35   16   17 1     
   36   16   45 1     
   37   16   46 1     
   38   17   29 1     
   39   17   18 1     
   40   17   23 1     
   41   18   19 1     
   42   18   20 1     
   43   18   59 1     
   44   19   47 1     
   45   19   48 1     
   46   19   49 1     
   47   20   21 1     
   48   20   50 1     
   49   20   51 1     
   50   21   22 1     
   51   21   52 1     
   52   21   53 1     
   53   22   54 1     
   54   23   30 1     
   55   23   24 1     
   56   24   55 1     
   57   24   56 1     
   58   24   57 1     
   59   25   26 ar    
   60   26   27 ar    
   61   26   58 1     
   62   27   28 ar    
   63    3   60 1     
   64    3   61 1     
   65    7   62 1     
   66    7   63 1     
   67   11   64 1     
   68   22   65 1     
   69   22   66 1     
   70   25   67 1     
   71   27   68 1     
@<TRIPOS>SUBSTRUCTURE
      1 S1             1
@<TRIPOS>SET
LONE_PAIRS      STATIC     ATOMS    <user>   **** ""
9 60 61 62 63 64 65 66 67 68
DONOR_HYDROGENS      STATIC     ATOMS    <user>   **** ""
3 39 59 54
ATOM$BLUE        STATIC     ATOMS    COLORGROUP SYSTEM
9 60 61 62 63 64 65 66 67 68
ATOM$RED        STATIC     ATOMS    COLORGROUP SYSTEM
3 39 59 54
