AV-unprocessed.smi:287|AV-procd|sdf|2196|dock8
  -GOLD-   2262022 03D 1   1.00000     0.00000
 Structure written by MMmdl.
 55 58  0  0  0  0  0  0  0  0  1 V2000
  147.2571  140.9695  153.6611 C   0  0  0  0  0  0  0  0  0  0  0  0
  148.5563  140.6808  154.3316 C   0  0  0  0  0  0  0  0  0  0  0  0
  149.4016  139.6098  154.3320 C   0  0  0  0  0  0  0  0  0  0  0  0
  150.5007  139.9344  155.1819 C   0  0  0  0  0  0  0  0  0  0  0  0
  151.6960  139.0372  155.4760 C   0  0  2  0  0  0  0  0  0  0  0  0
  151.9310  138.9434  156.9940 C   0  0  0  0  0  0  0  0  0  0  0  0
  152.9077  139.5443  154.9509 O   0  0  0  0  0  0  0  0  0  0  0  0
  151.5200  137.6233  154.8785 C   0  0  0  0  0  0  0  0  0  0  0  0
  150.8435  136.7044  155.7849 N   0  0  0  0  0  0  0  0  0  0  0  0
  149.5753  136.3046  155.5556 C   0  0  0  0  0  0  0  0  0  0  0  0
  148.6185  137.0335  156.1760 N   0  0  0  0  0  0  0  0  0  0  0  0
  147.3316  136.7175  156.0220 C   0  0  0  0  0  0  0  0  0  0  0  0
  146.7987  135.7305  155.3024 N   0  0  0  0  0  0  0  0  0  0  0  0
  147.7493  134.9858  154.6661 C   0  0  0  0  0  0  0  0  0  0  0  0
  149.1566  135.2089  154.7422 C   0  0  0  0  0  0  0  0  0  0  0  0
  149.8138  134.2590  153.9706 N   0  0  0  0  0  0  0  0  0  0  0  0
  148.8568  133.5207  153.4826 C   0  0  0  0  0  0  0  0  0  0  0  0
  147.5780  133.8886  153.8354 N   0  0  0  0  0  0  0  0  0  0  0  0
  146.3179  133.1720  153.4275 C   0  0  1  0  0  0  0  0  0  0  0  0
  145.4660  134.0916  152.8233 O   0  0  0  0  0  0  0  0  0  0  0  0
  145.6357  134.0478  151.4139 C   0  0  2  0  0  0  0  0  0  0  0  0
  144.3790  134.5979  150.7223 C   0  0  0  0  0  0  0  0  0  0  0  0
  144.3305  134.1566  149.3821 O   0  0  0  0  0  0  0  0  0  0  0  0
  145.8769  132.5540  151.1442 C   0  0  1  0  0  0  0  0  0  0  0  0
  146.7274  132.3865  150.0279 O   0  0  0  0  0  0  0  0  0  0  0  0
  146.5431  132.0299  152.4210 C   0  0  2  0  0  0  0  0  0  0  0  0
  145.9064  130.8418  152.8469 O   0  0  0  0  0  0  0  0  0  0  0  0
  150.2320  141.2050  155.6324 C   0  0  0  0  0  0  0  0  0  0  0  0
  150.9454  142.1616  156.5300 C   0  0  0  0  0  0  0  0  0  0  0  0
  149.0538  141.6627  155.1243 O   0  0  0  0  0  0  0  0  0  0  0  0
  145.8950  132.8340  154.3747 H   0  0  0  0  0  0  0  0  0  0  0  0
  146.5097  134.6364  151.1350 H   0  0  0  0  0  0  0  0  0  0  0  0
  144.9272  132.0467  150.9645 H   0  0  0  0  0  0  0  0  0  0  0  0
  147.6057  131.8192  152.3050 H   0  0  0  0  0  0  0  0  0  0  0  0
  147.0065  140.1871  152.9443 H   0  0  0  0  0  0  0  0  0  0  0  0
  147.3008  141.9174  153.1244 H   0  0  0  0  0  0  0  0  0  0  0  0
  146.4505  141.0297  154.3919 H   0  0  0  0  0  0  0  0  0  0  0  0
  149.2501  138.6933  153.7812 H   0  0  0  0  0  0  0  0  0  0  0  0
  151.0703  138.5107  157.5054 H   0  0  0  0  0  0  0  0  0  0  0  0
  152.1101  139.9275  157.4294 H   0  0  0  0  0  0  0  0  0  0  0  0
  152.7936  138.3175  157.2270 H   0  0  0  0  0  0  0  0  0  0  0  0
  153.2650  138.9061  154.3527 H   0  0  0  0  0  0  0  0  0  0  0  0
  150.9993  137.6688  153.9209 H   0  0  0  0  0  0  0  0  0  0  0  0
  152.5095  137.2071  154.6838 H   0  0  0  0  0  0  0  0  0  0  0  0
  151.4082  136.3428  156.5399 H   0  0  0  0  0  0  0  0  0  0  0  0
  146.6280  137.3432  156.5506 H   0  0  0  0  0  0  0  0  0  0  0  0
  149.0617  132.6735  152.8443 H   0  0  0  0  0  0  0  0  0  0  0  0
  143.4844  134.2243  151.2210 H   0  0  0  0  0  0  0  0  0  0  0  0
  144.3448  135.6869  150.7662 H   0  0  0  0  0  0  0  0  0  0  0  0
  145.1270  134.4216  148.9483 H   0  0  0  0  0  0  0  0  0  0  0  0
  147.4872  131.8957  150.3016 H   0  0  0  0  0  0  0  0  0  0  0  0
  146.4584  130.1085  152.6216 H   0  0  0  0  0  0  0  0  0  0  0  0
  151.0405  141.7508  157.5351 H   0  0  0  0  0  0  0  0  0  0  0  0
  150.4105  143.1090  156.6044 H   0  0  0  0  0  0  0  0  0  0  0  0
  151.9463  142.3715  156.1524 H   0  0  0  0  0  0  0  0  0  0  0  0
  1  2  1  0  0  0  0
  1 35  1  0  0  0  0
  1 36  1  0  0  0  0
  1 37  1  0  0  0  0
  2 30  1  0  0  0  0
  2  3  2  0  0  0  0
  3  4  1  0  0  0  0
  3 38  1  0  0  0  0
  4  5  1  0  0  0  0
  4 28  2  0  0  0  0
  5  6  1  0  0  0  0
  5  7  1  0  0  0  0
  5  8  1  0  0  0  0
  6 39  1  0  0  0  0
  6 40  1  0  0  0  0
  6 41  1  0  0  0  0
  7 42  1  0  0  0  0
  8  9  1  0  0  0  0
  8 43  1  0  0  0  0
  8 44  1  0  0  0  0
  9 10  1  0  0  0  0
  9 45  1  0  0  0  0
 10 15  1  0  0  0  0
 10 11  2  0  0  0  0
 11 12  1  0  0  0  0
 12 13  2  0  0  0  0
 12 46  1  0  0  0  0
 13 14  1  0  0  0  0
 14 18  1  0  0  0  0
 14 15  2  0  0  0  0
 15 16  1  0  0  0  0
 16 17  2  0  0  0  0
 17 18  1  0  0  0  0
 17 47  1  0  0  0  0
 18 19  1  0  0  0  0
 19 31  1  0  0  0  0
 19 26  1  0  0  0  0
 19 20  1  0  0  0  0
 20 21  1  0  0  0  0
 21 32  1  0  0  0  0
 21 22  1  0  0  0  0
 21 24  1  0  0  0  0
 22 23  1  0  0  0  0
 22 48  1  0  0  0  0
 22 49  1  0  0  0  0
 23 50  1  0  0  0  0
 24 33  1  0  0  0  0
 24 25  1  0  0  0  0
 24 26  1  0  0  0  0
 25 51  1  0  0  0  0
 26 34  1  0  0  0  0
 26 27  1  0  0  0  0
 27 52  1  0  0  0  0
 28 29  1  0  0  0  0
 28 30  1  0  0  0  0
 29 53  1  0  0  0  0
 29 54  1  0  0  0  0
 29 55  1  0  0  0  0
M  END
> <s_m_source_file>
AV-unprocessed.smi

> <i_m_source_file_index>
287

> <i_lp_mmshare_version>
43012

> <i_f3d_flags>
0

> <s_epik_input>
W0NIM11jMVtjSF1jKGMobzEpW0NIM10pW0NAQF0oW0NIM10pKFtPSF0pW0NIMl1bTkhdYyhuW2NIXW4yKWMoYzIzKW5bY0hdbjNbQ0BASF00T1tDQEhdKFtDSDJdW09IXSlbQ0BASF0oW09IXSlbQ0BIXTRbT0hd

> <s_epik_cmdline>
J2VwaWtfcHl0aG9uJywgJy1waCcsICc3LjAnLCAnLXRuJywgJzgnLCAnLW1hJywgJzIwMCcsICctbWV0YWxfYmluZGluZycsICctaW1hZScsICc8aW5maWxlLm1hZT4nLCAnLW9tYWUnLCAnPG91dGZpbGUubWFlPic=

> <r_lp_tautomer_probability>
1

> <r_epik_Ionization_Penalty>
0.000992612

> <r_epik_Ionization_Penalty_Charging>
0

> <r_epik_Ionization_Penalty_Neutral>
0.000992612

> <r_epik_State_Penalty>
-0

> <r_epik_Charging_Adjusted_Penalty>
0

> <i_epik_Tot_Q>
0

> <i_epik_Tot_abs_Q>
0

> <r_epik_Metal_State_Penalty>
-0

> <b_epik_Metal_Only>
0

> <s_epik_Chemistry_Notes>
This compound contains an acetal/aminal-like group ( X-CH(R)-Y where X, Y are N, S, or O) that may be acid/base labile, releasing an aldehyde.

> <s_lp_Force_Field>
OPLS_2005

> <r_lp_Energy>
37.3025

> <b_lp_Chiralities_Consistent>
1

> <s_lp_Variant>
AV-unprocessed.smi:287-20

> <Gold.Version>
5.8.1

> <Gold.Id.Protein>
6NUR|6NUR_protein|mol2

> <Gold.PLP.Fitness>
49.9802

> <Gold.PLP.PLP>
-44.2828

> <Gold.PLP.part.hbond>
-3.3354

> <Gold.PLP.part.metal>
0.0000

> <Gold.PLP.part.buried>
-5.4318

> <Gold.PLP.part.nonpolar>
-35.4364

> <Gold.PLP.part.repulsive>
0.7986

> <Gold.PLP.ligand.clash>
0.0000

> <Gold.PLP.ligand.torsion>
1.6975

> <Gold.PLP.Chemscore.Hbond>
3.0000

> <Gold.PLP.Chemscore.CHOScore>
0.0000

> <Gold.PLP.Chemscore.Metal>
0.0000

> <Gold.Chemscore.Hbonds>
donor molecule, donor type, donor heavy atom, donor atom, acceptor molecule, acceptor atom, score
      L1  H    23    50       P1  7921  1.00
      L1  H    25    51       P1 10747  1.00
      P1  H  7989  7998       L1     7  0.07
      P1  H  7997  8008       L1     7  1.00

> <Gold.PLP.Chemscore.Internal.Correction>
0.0924

> <Gold.Rescore>
     Score         DG    S(hbond)    S(metal)    S(lipo)     H(rot)  DE(clash)    DE(int)     intcor
     10.53     -12.53       2.94        0.00      91.47       5.27       0.17       1.83       ----

> <Gold.Chemscore.Fitness>
10.5253

> <Gold.Chemscore.DG>
-12.5313

> <Gold.Chemscore.ZeroCoef>
-5.4800

> <Gold.Chemscore.Hbond>
2.9441

> <Gold.Chemscore.Metal>
0.0000

> <Gold.Chemscore.Lipo>
91.4683

> <Gold.Chemscore.Internal_Hbond>
0.0000

> <Gold.Chemscore.DEClash>
0.1741

> <Gold.Chemscore.DEInternal>
1.8318

> <Gold.Chemscore.Rot>
5.2672

> <Gold.Chemscore.Internal.Correction>
   9.000000E+99

> <Gold.Chemscore.Hbonds>
donor molecule, donor type, donor heavy atom, donor atom, acceptor molecule, acceptor atom, score
      L1  H    23    50       P1  7921  0.98
      L1  H    25    51       P1 10747  1.00
      P1  H  7997  8008       L1     7  0.35

> <Gold.Chemscore.Hbond.Weighted>
-9.8334

> <Gold.Chemscore.Metal.Weighted>
-0.0000

> <Gold.Chemscore.Lipo.Weighted>
-10.7018

> <Gold.Chemscore.Internal_Hbond.Weighted>
0.0000

> <Gold.Chemscore.DEClash.Weighted>
0.1741

> <Gold.Chemscore.DEInternal.Weighted>
1.8318

> <Gold.Chemscore.Rot.Weighted>
13.4839

> <Gold.Chemscore.Internal.Correction.Weighted>
   9.000000E+99

> <Gold.Protein.RotatedTorsions>
[ 6907 6896 6895 6894 ] final   63.78 input  -60.11 | X-H torsion
[ 7974 7965 7964 7962 ] final  160.94 input  175.53 | X-H torsion
[ 8008 7997 7996 7995 ] final  -11.85 input   59.86 | X-H torsion
[ 10167 10162 10161 10158 ] final  -53.71 input  -65.29 | X-H torsion
[ 10718 10713 10712 10709 ] final  159.68 input   66.30 | X-H torsion
[ 10763 10752 10751 10750 ] final  171.12 input  -60.55 | X-H torsion
[ 11005 11000 10999 10996 ] final -113.21 input  -57.11 | X-H torsion

> <Gold.Protein.ActiveResidues>
 VAL166  LYS551  ARG553  GLY616  TRP617  ASP618  TYR619  PRO620  LYS621  CYS622 
 ASP623  PHE694  ASN695  SER759  ASP760  ASP761  ALA762  ILE779  LEU786  VAL792 
 PHE793  MET794  SER795  GLU796  ALA797  LYS798  CYS799  TRP800  GLU811  SER814 

> <Gold.Protein.RotatedAtoms>
  152.4280  134.5832  159.9953 H   0  0  0  0  0  0  0  0  0  0  0  0  # atno 6907 bound_to 6896
  151.5963  133.3355  159.3046 H   0  0  0  0  0  0  0  0  0  0  0  0  # atno 6908 bound_to 6896
  150.8171  134.7395  159.6804 H   0  0  0  0  0  0  0  0  0  0  0  0  # atno 6909 bound_to 6896
  144.7711  139.7827  143.6296 H   0  0  0  0  0  0  0  0  0  0  0  0  # atno 7974 bound_to 7965
  154.5429  140.2291  155.8612 H   0  0  0  0  0  0  0  0  0  0  0  0  # atno 8008 bound_to 7997
  156.1875  140.3085  155.9229 H   0  0  0  0  0  0  0  0  0  0  0  0  # atno 8009 bound_to 7997
  155.3223  140.0441  157.3030 H   0  0  0  0  0  0  0  0  0  0  0  0  # atno 8010 bound_to 7997
  140.6470  143.2541  151.4832 H   0  0  0  0  0  0  0  0  0  0  0  0  # atno 10167 bound_to 10162
  157.1608  131.0586  151.2233 H   0  0  0  0  0  0  0  0  0  0  0  0  # atno 10718 bound_to 10713
  154.4073  135.2756  155.2059 H   0  0  0  0  0  0  0  0  0  0  0  0  # atno 10763 bound_to 10752
  154.4059  135.6033  153.5928 H   0  0  0  0  0  0  0  0  0  0  0  0  # atno 10764 bound_to 10752
  152.9831  135.5937  154.4350 H   0  0  0  0  0  0  0  0  0  0  0  0  # atno 10765 bound_to 10752
  141.0628  133.9507  157.2634 H   0  0  0  0  0  0  0  0  0  0  0  0  # atno 11005 bound_to 11000
  146.1858  139.5073  142.9837 LP  0  0  0  0  0  0  0  0  0  0  0  0  # atno 17320 bound_to 7965
  145.6321  141.0302  143.1857 LP  0  0  0  0  0  0  0  0  0  0  0  0  # atno 17321 bound_to 7965
  139.5681  144.1993  152.1796 LP  0  0  0  0  0  0  0  0  0  0  0  0  # atno 17342 bound_to 10162
  140.1281  144.5313  150.6820 LP  0  0  0  0  0  0  0  0  0  0  0  0  # atno 17343 bound_to 10162
  157.4134  130.7398  149.6857 LP  0  0  0  0  0  0  0  0  0  0  0  0  # atno 17370 bound_to 10713
  155.9754  130.4089  150.3851 LP  0  0  0  0  0  0  0  0  0  0  0  0  # atno 17371 bound_to 10713
  139.9449  135.0185  156.8820 LP  0  0  0  0  0  0  0  0  0  0  0  0  # atno 17394 bound_to 11000
  140.5833  134.0331  155.7472 LP  0  0  0  0  0  0  0  0  0  0  0  0  # atno 17395 bound_to 11000

$$$$
