#       Name:                AV-unprocessed.smi:1695
#       Creating user name   scv26
#       Creation time:       Fri Mar 27 07:55:33 2020


#       File generated by GOLD software.
#

@<TRIPOS>MOLECULE
AV-unprocessed.smi:1695
    56    58     1
SMALL
NO_CHARGES


@<TRIPOS>ATOM
      1 ****        -4.1956   4.2221  -3.3131 C.3            1 S1                 0.0000
      2 ****        -3.7638   2.9917  -2.5350 C.ar           1 S1                 0.0000
      3 ****        -3.9275   2.9732  -1.1317 C.ar           1 S1                 0.0000
      4 ****        -3.5385   1.8484  -0.3719 C.ar           1 S1                 0.0000
      5 ****        -3.6077   1.6178   0.9912 N.2            1 S1                 0.0000
      6 ****        -3.0982   0.3935   1.0817 C.2            1 S1                 0.0000
      7 ****        -2.6921  -0.1935  -0.0611 N.pl3          1 S1                 0.0000
      8 ****        -2.1014  -1.5149  -0.2049 C.3            1 S1                 0.0000
      9 ****        -0.5562  -1.5138  -0.1976 C.3            1 S1                 0.0000
     10 ****        -0.0907  -0.8649  -1.3652 O.3            1 S1                 0.0000
     11 ****         0.0488  -0.8105   1.0385 C.3            1 S1                 0.0000
     12 ****         1.5145  -1.0176   1.1627 N.4            1 S1                 1.0000
     13 ****         2.1752   0.0735   1.9245 C.3            1 S1                 0.0000
     14 ****         3.7045  -0.0861   1.9066 C.3            1 S1                 0.0000
     15 ****         4.1301  -1.4589   2.4626 C.3            1 S1                 0.0000
     16 ****         5.6520  -1.6385   2.3812 C.2            1 S1                 0.0000
     17 ****         6.3087  -1.8190   3.5298 N.am           1 S1                 0.0000
     18 ****         6.2288  -1.6143   1.2955 O.2            1 S1                 0.0000
     19 ****         3.3984  -2.5667   1.6806 C.3            1 S1                 0.0000
     20 ****         1.8761  -2.3529   1.7082 C.3            1 S1                 0.0000
     21 ****        -2.9749   0.7337  -1.0593 C.ar           1 S1                 0.0000
     22 ****        -2.8100   0.7395  -2.4556 C.ar           1 S1                 0.0000
     23 ****        -3.2038   1.8713  -3.1996 C.ar           1 S1                 0.0000
     24 ****        -3.0189   1.8677  -4.7067 C.3            1 S1                 0.0000
     25 ****        -4.5968   4.9913  -2.6525 H              1 S1                 0.0000
     26 ****        -4.9700   3.9646  -4.0359 H              1 S1                 0.0000
     27 ****        -3.3492   4.6515  -3.8495 H              1 S1                 0.0000
     28 ****        -4.3562   3.8256  -0.6253 H              1 S1                 0.0000
     29 ****        -3.0063  -0.1032   2.0364 H              1 S1                 0.0000
     30 ****        -2.4698  -2.1395   0.6100 H              1 S1                 0.0000
     31 ****        -2.4774  -1.9649  -1.1250 H              1 S1                 0.0000
     32 ****        -0.2299  -2.5517  -0.2479 H              1 S1                 0.0000
     33 ****         0.8363  -1.0222  -1.4576 H              1 S1                 0.0000
     34 ****        -0.1641   0.2578   0.9712 H              1 S1                 0.0000
     35 ****        -0.4378  -1.1582   1.9513 H              1 S1                 0.0000
     36 ****         1.9149   1.0391   1.4892 H              1 S1                 0.0000
     37 ****         1.8063   0.0786   2.9515 H              1 S1                 0.0000
     38 ****         4.0644   0.0371   0.8835 H              1 S1                 0.0000
     39 ****         4.1610   0.7133   2.4919 H              1 S1                 0.0000
     40 ****         3.8269  -1.5171   3.5097 H              1 S1                 0.0000
     41 ****         7.3110  -1.9413   3.5290 H              1 S1                 0.0000
     42 ****         5.7972  -1.8321   4.4007 H              1 S1                 0.0000
     43 ****         3.7385  -2.5889   0.6436 H              1 S1                 0.0000
     44 ****         3.6364  -3.5436   2.1041 H              1 S1                 0.0000
     45 ****         1.5046  -2.4426   2.7305 H              1 S1                 0.0000
     46 ****         1.3989  -3.1446   1.1322 H              1 S1                 0.0000
     47 ****        -2.3815  -0.1201  -2.9495 H              1 S1                 0.0000
     48 ****        -2.5741   0.9333  -5.0502 H              1 S1                 0.0000
     49 ****        -2.3627   2.6824  -5.0136 H              1 S1                 0.0000
     50 ****        -3.9788   1.9862  -5.2099 H              1 S1                 0.0000
     51 ****         1.8885  -0.9673   0.2259 H              1 S1                 0.0000
     52 ****        -3.9505   2.2147   1.7165 LP             1 S1                 0.0000
     53 ****        -0.2577   0.1182  -1.2911 LP             1 S1                 0.0000
     54 ****        -0.5727  -1.2257  -2.1636 LP             1 S1                 0.0000
     55 ****         5.7058  -1.4766   0.4544 LP             1 S1                 0.0000
     56 ****         7.2210  -1.7324   1.2537 LP             1 S1                 0.0000
@<TRIPOS>BOND
    1    1    2 1     
    2    1   25 1     
    3    1   26 1     
    4    1   27 1     
    5    2   23 ar    
    6    2    3 ar    
    7    3    4 ar    
    8    3   28 1     
    9    4   21 ar    
   10    4    5 1     
   11    5    6 2     
   12    6    7 1     
   13    6   29 1     
   14    7    8 1     
   15    7   21 1     
   16    8    9 1     
   17    8   30 1     
   18    8   31 1     
   19    9   10 1     
   20    9   11 1     
   21    9   32 1     
   22   10   33 1     
   23   11   12 1     
   24   11   34 1     
   25   11   35 1     
   26   12   20 1     
   27   12   13 1     
   28   12   51 1     
   29   13   14 1     
   30   13   36 1     
   31   13   37 1     
   32   14   15 1     
   33   14   38 1     
   34   14   39 1     
   35   15   16 1     
   36   15   19 1     
   37   15   40 1     
   38   16   17 am    
   39   16   18 2     
   40   17   41 1     
   41   17   42 1     
   42   19   20 1     
   43   19   43 1     
   44   19   44 1     
   45   20   45 1     
   46   20   46 1     
   47   21   22 ar    
   48   22   23 ar    
   49   22   47 1     
   50   23   24 1     
   51   24   48 1     
   52   24   49 1     
   53   24   50 1     
   54    5   52 1     
   55   10   53 1     
   56   10   54 1     
   57   18   55 1     
   58   18   56 1     
@<TRIPOS>SUBSTRUCTURE
      1 S1             1
@<TRIPOS>SET
LONE_PAIRS      STATIC     ATOMS    <user>   **** ""
5 52 53 54 55 56
DONOR_HYDROGENS      STATIC     ATOMS    <user>   **** ""
4 33 51 41 42
ATOM$BLUE        STATIC     ATOMS    COLORGROUP SYSTEM
5 52 53 54 55 56
ATOM$RED        STATIC     ATOMS    COLORGROUP SYSTEM
4 33 51 41 42
