#       Name:                AV-unprocessed.smi:496
#       Creating user name   scv26
#       Creation time:       Thu Mar 26 23:16:25 2020


#       File generated by GOLD software.
#

@<TRIPOS>MOLECULE
AV-unprocessed.smi:496
    49    51     1
SMALL
NO_CHARGES


@<TRIPOS>ATOM
      1 ****        -3.9761   3.1267   0.0572 C.3            1 S1                 0.0000
      2 ****        -3.2477   1.9952   0.5005 O.3            1 S1                 0.0000
      3 ****        -1.8523   2.1360   0.3009 C.3            1 S1                 0.0000
      4 ****        -1.1547   0.8611   0.7889 C.3            1 S1                 0.0000
      5 ****         0.2993   0.9222   0.5885 N.pl3          1 S1                 0.0000
      6 ****         1.0645   0.5008  -0.4602 C.2            1 S1                 0.0000
      7 ****         0.5725  -0.1781  -1.7030 C.3            1 S1                 0.0000
      8 ****         1.5424  -0.0096  -2.8837 C.3            1 S1                 0.0000
      9 ****         0.3428  -1.5969  -1.4488 N.am           1 S1                 0.0000
     10 ****        -0.8022  -2.2617  -1.6697 C.2            1 S1                 0.0000
     11 ****        -1.8074  -1.7465  -2.1583 O.2            1 S1                 0.0000
     12 ****        -0.7991  -3.6849  -1.2831 C.2            1 S1                 0.0000
     13 ****        -1.7711  -4.6413  -1.4043 C.2            1 S1                 0.0000
     14 ****        -1.2323  -5.8405  -0.8617 C.2            1 S1                 0.0000
     15 ****         0.0312  -5.5310  -0.4471 C.2            1 S1                 0.0000
     16 ****         0.3115  -4.2228  -0.6968 O.3            1 S1                 0.0000
     17 ****         2.3633   0.7711  -0.1395 N.pl3          1 S1                 1.0000
     18 ****         2.4251   1.3949   1.1070 C.ar           1 S1                 0.0000
     19 ****         3.5116   1.8644   1.8387 C.ar           1 S1                 0.0000
     20 ****         3.2254   2.4575   3.0860 C.ar           1 S1                 0.0000
     21 ****         1.9022   2.5655   3.5614 C.ar           1 S1                 0.0000
     22 ****         0.8091   2.0843   2.8109 C.ar           1 S1                 0.0000
     23 ****         1.1013   1.4983   1.5795 C.ar           1 S1                 0.0000
     24 ****        -5.0404   2.9676   0.2300 H              1 S1                 0.0000
     25 ****        -3.8301   3.2960  -1.0104 H              1 S1                 0.0000
     26 ****        -3.6776   4.0254   0.5986 H              1 S1                 0.0000
     27 ****        -1.6404   2.2966  -0.7575 H              1 S1                 0.0000
     28 ****        -1.4823   3.0042   0.8487 H              1 S1                 0.0000
     29 ****        -1.3630   0.6755   1.8429 H              1 S1                 0.0000
     30 ****        -1.5330  -0.0047   0.2457 H              1 S1                 0.0000
     31 ****        -0.3627   0.3104  -1.9815 H              1 S1                 0.0000
     32 ****         1.7137   1.0448  -3.1034 H              1 S1                 0.0000
     33 ****         1.1395  -0.4697  -3.7866 H              1 S1                 0.0000
     34 ****         2.5094  -0.4721  -2.6822 H              1 S1                 0.0000
     35 ****         1.1104  -2.1159  -1.0474 H              1 S1                 0.0000
     36 ****        -2.7523  -4.4950  -1.8323 H              1 S1                 0.0000
     37 ****        -1.7090  -6.8066  -0.7843 H              1 S1                 0.0000
     38 ****         0.8257  -6.0925   0.0218 H              1 S1                 0.0000
     39 ****         4.5260   1.7840   1.4763 H              1 S1                 0.0000
     40 ****         4.0368   2.8382   3.6894 H              1 S1                 0.0000
     41 ****         1.7214   3.0271   4.5216 H              1 S1                 0.0000
     42 ****        -0.2008   2.1741   3.1830 H              1 S1                 0.0000
     43 ****         3.1486   0.5491  -0.7374 H              1 S1                 0.0000
     44 ****        -3.5644   1.1920  -0.0041 LP             1 S1                 0.0000
     45 ****        -3.4205   1.8649   1.4768 LP             1 S1                 0.0000
     46 ****        -1.7995  -0.7800  -2.4147 LP             1 S1                 0.0000
     47 ****        -2.6320  -2.2944  -2.2988 LP             1 S1                 0.0000
     48 ****         0.5148  -3.7453   0.1580 LP             1 S1                 0.0000
     49 ****         1.0954  -4.1506  -1.3135 LP             1 S1                 0.0000
@<TRIPOS>BOND
    1    1    2 1     
    2    1   24 1     
    3    1   25 1     
    4    1   26 1     
    5    2    3 1     
    6    3    4 1     
    7    3   27 1     
    8    3   28 1     
    9    4    5 1     
   10    4   29 1     
   11    4   30 1     
   12    5   23 1     
   13    5    6 1     
   14    6    7 1     
   15    6   17 2     
   16    7    8 1     
   17    7    9 1     
   18    7   31 1     
   19    8   32 1     
   20    8   33 1     
   21    8   34 1     
   22    9   10 am    
   23    9   35 1     
   24   10   11 2     
   25   10   12 1     
   26   12   16 1     
   27   12   13 2     
   28   13   14 1     
   29   13   36 1     
   30   14   15 2     
   31   14   37 1     
   32   15   16 1     
   33   15   38 1     
   34   17   18 1     
   35   17   43 1     
   36   18   23 ar    
   37   18   19 ar    
   38   19   20 ar    
   39   19   39 1     
   40   20   21 ar    
   41   20   40 1     
   42   21   22 ar    
   43   21   41 1     
   44   22   23 ar    
   45   22   42 1     
   46    2   44 1     
   47    2   45 1     
   48   11   46 1     
   49   11   47 1     
   50   16   48 1     
   51   16   49 1     
@<TRIPOS>SUBSTRUCTURE
      1 S1             1
@<TRIPOS>SET
LONE_PAIRS      STATIC     ATOMS    <user>   **** ""
6 44 45 46 47 48 49
DONOR_HYDROGENS      STATIC     ATOMS    <user>   **** ""
2 35 43
ATOM$BLUE        STATIC     ATOMS    COLORGROUP SYSTEM
6 44 45 46 47 48 49
ATOM$RED        STATIC     ATOMS    COLORGROUP SYSTEM
2 35 43
