AV-unprocessed.smi:2826|AV-procd|sdf|10894|dock5
  -GOLD-   2272015343D 1   1.00000     0.00000
 Structure written by MMmdl.
 50 51  0  0  0  0  0  0  0  0  1 V2000
  147.4189  128.3808  152.9432 C   0  0  0  0  0  0  0  0  0  0  0  0
  148.3258  128.8611  153.9295 O   0  0  0  0  0  0  0  0  0  0  0  0
  148.5751  130.2170  153.9847 C   0  0  0  0  0  0  0  0  0  0  0  0
  149.5636  130.6854  154.8712 C   0  0  0  0  0  0  0  0  0  0  0  0
  149.8233  132.0671  154.9311 C   0  0  0  0  0  0  0  0  0  0  0  0
  149.0921  132.9432  154.0936 C   0  0  0  0  0  0  0  0  0  0  0  0
  149.2708  134.3550  154.1012 N   0  0  0  0  0  0  0  0  0  0  0  0
  149.8247  135.1176  155.0592 C   0  0  0  0  0  0  0  0  0  0  0  0
  150.3011  134.6987  156.1141 O   0  0  0  0  0  0  0  0  0  0  0  0
  149.8194  136.4128  154.7129 N   0  0  0  0  0  0  0  0  0  0  0  0
  150.3648  137.4993  155.5215 C   0  0  2  0  0  0  0  0  0  0  0  0
  150.6218  138.7308  154.6419 C   0  0  0  0  0  0  0  0  0  0  0  0
  151.3282  139.8313  155.4486 C   0  0  0  0  0  0  0  0  0  0  0  0
  152.5358  139.3245  156.0065 O   0  0  0  0  0  0  0  0  0  0  0  0
  152.3273  138.2621  156.9343 C   0  0  2  0  0  0  0  0  0  0  0  0
  153.6837  137.8768  157.5537 C   0  0  0  0  0  0  0  0  0  0  0  0
  153.5925  136.9875  158.8130 C   0  0  0  0  0  0  0  0  0  0  0  0
  152.8074  137.7030  159.9231 C   0  0  0  0  0  0  0  0  0  0  0  0
  154.9743  136.5543  159.3321 C   0  0  0  0  0  0  0  0  0  0  0  0
  151.6797  137.0741  156.1973 C   0  0  0  0  0  0  0  0  0  0  0  0
  148.1080  132.3757  153.2483 C   0  0  0  0  0  0  0  0  0  0  0  0
  147.2598  133.2377  152.3298 C   0  0  0  0  0  0  0  0  0  0  0  0
  147.8581  131.0490  153.1904 N   0  0  0  0  0  0  0  0  0  0  0  0
  147.3348  127.2974  153.0277 H   0  0  0  0  0  0  0  0  0  0  0  0
  147.7688  128.6073  151.9351 H   0  0  0  0  0  0  0  0  0  0  0  0
  146.4217  128.8015  153.0795 H   0  0  0  0  0  0  0  0  0  0  0  0
  150.1101  129.9971  155.4989 H   0  0  0  0  0  0  0  0  0  0  0  0
  150.5648  132.4280  155.6267 H   0  0  0  0  0  0  0  0  0  0  0  0
  149.0116  134.8297  153.2488 H   0  0  0  0  0  0  0  0  0  0  0  0
  149.4126  136.6671  153.8248 H   0  0  0  0  0  0  0  0  0  0  0  0
  149.6408  137.7743  156.2911 H   0  0  0  0  0  0  0  0  0  0  0  0
  151.2455  138.4562  153.7899 H   0  0  0  0  0  0  0  0  0  0  0  0
  149.6836  139.1096  154.2349 H   0  0  0  0  0  0  0  0  0  0  0  0
  151.5671  140.6752  154.8011 H   0  0  0  0  0  0  0  0  0  0  0  0
  150.6806  140.2118  156.2400 H   0  0  0  0  0  0  0  0  0  0  0  0
  151.6499  138.5963  157.7207 H   0  0  0  0  0  0  0  0  0  0  0  0
  154.2933  137.3706  156.8039 H   0  0  0  0  0  0  0  0  0  0  0  0
  154.2190  138.7940  157.8028 H   0  0  0  0  0  0  0  0  0  0  0  0
  153.0336  136.0866  158.5575 H   0  0  0  0  0  0  0  0  0  0  0  0
  153.3086  138.6195  160.2356 H   0  0  0  0  0  0  0  0  0  0  0  0
  152.6990  137.0664  160.8018 H   0  0  0  0  0  0  0  0  0  0  0  0
  151.8047  137.9694  159.5878 H   0  0  0  0  0  0  0  0  0  0  0  0
  155.6010  137.4176  159.5577 H   0  0  0  0  0  0  0  0  0  0  0  0
  155.5033  135.9366  158.6072 H   0  0  0  0  0  0  0  0  0  0  0  0
  154.8816  135.9651  160.2449 H   0  0  0  0  0  0  0  0  0  0  0  0
  151.4960  136.2579  156.8971 H   0  0  0  0  0  0  0  0  0  0  0  0
  152.3724  136.6907  155.4464 H   0  0  0  0  0  0  0  0  0  0  0  0
  147.8947  133.8164  151.6582 H   0  0  0  0  0  0  0  0  0  0  0  0
  146.6530  133.9299  152.9138 H   0  0  0  0  0  0  0  0  0  0  0  0
  146.5882  132.6326  151.7188 H   0  0  0  0  0  0  0  0  0  0  0  0
  1  2  1  0  0  0  0
  1 24  1  0  0  0  0
  1 25  1  0  0  0  0
  1 26  1  0  0  0  0
  2  3  1  0  0  0  0
  3 23  1  0  0  0  0
  3  4  2  0  0  0  0
  4  5  1  0  0  0  0
  4 27  1  0  0  0  0
  5  6  2  0  0  0  0
  5 28  1  0  0  0  0
  6  7  1  0  0  0  0
  6 21  1  0  0  0  0
  7  8  1  0  0  0  0
  7 29  1  0  0  0  0
  8  9  2  0  0  0  0
  8 10  1  0  0  0  0
 10 11  1  0  0  0  0
 10 30  1  0  0  0  0
 11 20  1  0  0  0  0
 11 12  1  0  0  0  0
 11 31  1  0  0  0  0
 12 13  1  0  0  0  0
 12 32  1  0  0  0  0
 12 33  1  0  0  0  0
 13 14  1  0  0  0  0
 13 34  1  0  0  0  0
 13 35  1  0  0  0  0
 14 15  1  0  0  0  0
 15 16  1  0  0  0  0
 15 20  1  0  0  0  0
 15 36  1  0  0  0  0
 16 17  1  0  0  0  0
 16 37  1  0  0  0  0
 16 38  1  0  0  0  0
 17 18  1  0  0  0  0
 17 19  1  0  0  0  0
 17 39  1  0  0  0  0
 18 40  1  0  0  0  0
 18 41  1  0  0  0  0
 18 42  1  0  0  0  0
 19 43  1  0  0  0  0
 19 44  1  0  0  0  0
 19 45  1  0  0  0  0
 20 46  1  0  0  0  0
 20 47  1  0  0  0  0
 21 22  1  0  0  0  0
 21 23  2  0  0  0  0
 22 48  1  0  0  0  0
 22 49  1  0  0  0  0
 22 50  1  0  0  0  0
M  END
> <s_m_source_file>
AV-unprocessed.smi

> <i_m_source_file_index>
2826

> <i_lp_mmshare_version>
43012

> <i_f3d_flags>
0

> <s_epik_input>
W0NIM11PYzFbY0hdW2NIXWMoYyhuMSlbQ0gzXSlbTkhdQyg9TylbTkhdW0NAQEhdMltDSDJdW0NIMl1PW0NASF0oW0NIMl0yKVtDSDJdW0NIXShbQ0gzXSlbQ0gzXQ==

> <s_epik_cmdline>
J2VwaWtfcHl0aG9uJywgJy1waCcsICc3LjAnLCAnLXRuJywgJzgnLCAnLW1hJywgJzIwMCcsICctbWV0YWxfYmluZGluZycsICctaW1hZScsICc8aW5maWxlLm1hZT4nLCAnLW9tYWUnLCAnPG91dGZpbGUubWFlPic=

> <r_lp_tautomer_probability>
1

> <r_epik_Ionization_Penalty>
0.000249977

> <r_epik_Ionization_Penalty_Charging>
0

> <r_epik_Ionization_Penalty_Neutral>
0.000249977

> <r_epik_State_Penalty>
-0

> <r_epik_Charging_Adjusted_Penalty>
0

> <i_epik_Tot_Q>
0

> <i_epik_Tot_abs_Q>
0

> <r_epik_Metal_State_Penalty>
-0

> <b_epik_Metal_Only>
0

> <s_lp_Force_Field>
OPLS_2005

> <r_lp_Energy>
13.3689

> <b_lp_Chiralities_Consistent>
1

> <s_lp_Variant>
AV-unprocessed.smi:2826-3

> <Gold.Version>
5.8.1

> <Gold.Id.Protein>
6NUR|6NUR_protein|mol2

> <Gold.PLP.Fitness>
40.8651

> <Gold.PLP.PLP>
-33.5267

> <Gold.PLP.part.hbond>
-3.0000

> <Gold.PLP.part.metal>
0.0000

> <Gold.PLP.part.buried>
-4.8966

> <Gold.PLP.part.nonpolar>
-27.3655

> <Gold.PLP.part.repulsive>
0.9398

> <Gold.PLP.ligand.clash>
0.0828

> <Gold.PLP.ligand.torsion>
0.5068

> <Gold.PLP.Chemscore.Hbond>
2.7920

> <Gold.PLP.Chemscore.CHOScore>
0.0000

> <Gold.PLP.Chemscore.Metal>
0.0000

> <Gold.Chemscore.Hbonds>
donor molecule, donor type, donor heavy atom, donor atom, acceptor molecule, acceptor atom, score
      L1  H     7    29       P1  7948  0.85
      L1  H    10    30       P1  7948  0.98
      P1  H  7997  8009       L1    14  1.00

> <Gold.PLP.Chemscore.Internal.Correction>
0.0587

> <Gold.Rescore>
     Score         DG    S(hbond)    S(metal)    S(lipo)     H(rot)  DE(clash)    DE(int)     intcor
     13.74     -16.82       1.81        0.00      78.08       1.51       0.00       3.08       ----

> <Gold.Chemscore.Fitness>
13.7415

> <Gold.Chemscore.DG>
-16.8216

> <Gold.Chemscore.ZeroCoef>
-5.4800

> <Gold.Chemscore.Hbond>
1.8145

> <Gold.Chemscore.Metal>
0.0000

> <Gold.Chemscore.Lipo>
78.0829

> <Gold.Chemscore.Internal_Hbond>
0.0000

> <Gold.Chemscore.DEClash>
0.0009

> <Gold.Chemscore.DEInternal>
3.0791

> <Gold.Chemscore.Rot>
1.5057

> <Gold.Chemscore.Internal.Correction>
   9.000000E+99

> <Gold.Chemscore.Hbonds>
donor molecule, donor type, donor heavy atom, donor atom, acceptor molecule, acceptor atom, score
      L1  H     7    29       P1  7948  0.14
      L1  H    10    30       P1  7948  0.79
      P1  H  7997  8009       L1    14  0.72

> <Gold.Chemscore.Hbond.Weighted>
-6.0605

> <Gold.Chemscore.Metal.Weighted>
-0.0000

> <Gold.Chemscore.Lipo.Weighted>
-9.1357

> <Gold.Chemscore.Internal_Hbond.Weighted>
0.0000

> <Gold.Chemscore.DEClash.Weighted>
0.0009

> <Gold.Chemscore.DEInternal.Weighted>
3.0791

> <Gold.Chemscore.Rot.Weighted>
3.8547

> <Gold.Chemscore.Internal.Correction.Weighted>
   9.000000E+99

> <Gold.Protein.RotatedTorsions>
[ 6907 6896 6895 6894 ] final  172.69 input  -60.11 | X-H torsion
[ 7974 7965 7964 7962 ] final  -36.29 input  175.53 | X-H torsion
[ 8008 7997 7996 7995 ] final -158.45 input   59.86 | X-H torsion
[ 10167 10162 10161 10158 ] final   60.94 input  -65.29 | X-H torsion
[ 10718 10713 10712 10709 ] final   13.43 input   66.30 | X-H torsion
[ 10763 10752 10751 10750 ] final   15.04 input  -60.55 | X-H torsion
[ 11005 11000 10999 10996 ] final   26.73 input  -57.11 | X-H torsion

> <Gold.Protein.ActiveResidues>
 VAL166  LYS551  ARG553  GLY616  TRP617  ASP618  TYR619  PRO620  LYS621  CYS622 
 ASP623  PHE694  ASN695  SER759  ASP760  ASP761  ALA762  ILE779  LEU786  VAL792 
 PHE793  MET794  SER795  GLU796  ALA797  LYS798  CYS799  TRP800  GLU811  SER814 

> <Gold.Protein.RotatedAtoms>
  151.7803  133.3349  159.3469 H   0  0  0  0  0  0  0  0  0  0  0  0  # atno 6907 bound_to 6896
  150.7429  134.5937  159.6010 H   0  0  0  0  0  0  0  0  0  0  0  0  # atno 6908 bound_to 6896
  152.3281  134.7296  160.0348 H   0  0  0  0  0  0  0  0  0  0  0  0  # atno 6909 bound_to 6896
  146.0674  140.6261  142.8968 H   0  0  0  0  0  0  0  0  0  0  0  0  # atno 7974 bound_to 7965
  155.7477  140.0822  157.2216 H   0  0  0  0  0  0  0  0  0  0  0  0  # atno 8008 bound_to 7997
  154.4015  140.1566  156.2744 H   0  0  0  0  0  0  0  0  0  0  0  0  # atno 8009 bound_to 7997
  155.8960  140.3412  155.5993 H   0  0  0  0  0  0  0  0  0  0  0  0  # atno 8010 bound_to 7997
  140.1602  144.4378  150.6713 H   0  0  0  0  0  0  0  0  0  0  0  0  # atno 10167 bound_to 10162
  157.0246  130.6168  149.5726 H   0  0  0  0  0  0  0  0  0  0  0  0  # atno 10718 bound_to 10713
  153.1564  135.6788  153.8807 H   0  0  0  0  0  0  0  0  0  0  0  0  # atno 10763 bound_to 10752
  153.8217  135.3129  155.3412 H   0  0  0  0  0  0  0  0  0  0  0  0  # atno 10764 bound_to 10752
  154.7900  135.4840  154.0119 H   0  0  0  0  0  0  0  0  0  0  0  0  # atno 10765 bound_to 10752
  140.3339  134.2408  155.7698 H   0  0  0  0  0  0  0  0  0  0  0  0  # atno 11005 bound_to 11000
  144.7211  140.4375  143.7008 LP  0  0  0  0  0  0  0  0  0  0  0  0  # atno 17320 bound_to 7965
  145.6452  139.1556  143.2893 LP  0  0  0  0  0  0  0  0  0  0  0  0  # atno 17321 bound_to 7965
  140.6648  143.2264  151.5770 LP  0  0  0  0  0  0  0  0  0  0  0  0  # atno 17342 bound_to 10162
  139.5385  144.2714  152.1301 LP  0  0  0  0  0  0  0  0  0  0  0  0  # atno 17343 bound_to 10162
  156.0090  130.5180  150.7927 LP  0  0  0  0  0  0  0  0  0  0  0  0  # atno 17370 bound_to 10713
  157.5224  131.0932  151.0062 LP  0  0  0  0  0  0  0  0  0  0  0  0  # atno 17371 bound_to 10713
  141.2056  133.7855  157.0222 LP  0  0  0  0  0  0  0  0  0  0  0  0  # atno 17394 bound_to 11000
  140.0838  134.9633  157.1666 LP  0  0  0  0  0  0  0  0  0  0  0  0  # atno 17395 bound_to 11000

$$$$
