AV-unprocessed.smi:26|AV-procd|sdf|186|dock3
  -GOLD-   2262015453D 1   1.00000     0.00000
 Structure written by MMmdl.
 58 61  0  0  0  0  0  0  0  0  1 V2000
  152.7270  138.7195  155.7278 C   0  0  0  0  0  0  0  0  0  0  0  0
  151.4612  138.7107  156.5253 C   0  0  0  0  0  0  0  0  0  0  0  0
  150.8291  137.6514  157.1041 C   0  0  0  0  0  0  0  0  0  0  0  0
  149.6540  138.1215  157.7491 C   0  0  0  0  0  0  0  0  0  0  0  0
  148.6336  137.3343  158.4892 C   0  0  0  0  0  0  0  0  0  0  0  0
  147.4692  137.2087  158.1065 O   0  0  0  0  0  0  0  0  0  0  0  0
  149.1167  136.6622  159.7886 C   0  0  0  0  0  0  0  0  0  0  0  0
  148.2059  135.6309  160.2713 N   0  0  0  0  0  0  0  0  0  0  0  0
  148.2503  134.3622  159.6400 C   0  0  0  0  0  0  0  0  0  0  0  0
  149.0262  134.1184  158.7142 O   0  0  0  0  0  0  0  0  0  0  0  0
  147.2990  133.3895  160.1661 C   0  0  0  0  0  0  0  0  0  0  0  0
  147.2519  132.1540  159.6394 F   0  0  0  0  0  0  0  0  0  0  0  0
  146.4584  133.7102  161.1730 C   0  0  0  0  0  0  0  0  0  0  0  0
  146.4359  134.9591  161.7705 N   0  0  0  0  0  0  0  0  0  0  0  0
  145.4597  135.2774  162.8806 C   0  0  1  0  0  0  0  0  0  0  0  0
  144.4912  136.3791  162.4351 C   0  0  0  0  0  0  0  0  0  0  0  0
  143.2949  135.5776  161.9688 C   0  0  0  0  0  0  0  0  0  0  0  0
  143.3217  134.3979  162.9332 C   0  0  0  0  0  0  0  0  0  0  0  0
  144.7031  134.1347  163.1621 O   0  0  0  0  0  0  0  0  0  0  0  0
  147.3111  135.9695  161.3153 C   0  0  0  0  0  0  0  0  0  0  0  0
  147.2788  137.1019  161.8025 O   0  0  0  0  0  0  0  0  0  0  0  0
  149.6008  139.4846  157.5647 C   0  0  0  0  0  0  0  0  0  0  0  0
  148.5743  140.4704  158.0520 C   0  0  0  0  0  0  0  0  0  0  0  0
  150.7129  139.8557  156.7944 N   0  0  0  0  0  0  0  0  0  0  0  0
  151.0626  141.2063  156.3250 C   0  0  1  0  0  0  0  0  0  0  0  0
  149.9625  141.7856  155.4120 C   0  0  0  0  0  0  0  0  0  0  0  0
  151.5446  142.1101  157.4644 C   0  0  0  0  0  0  0  0  0  0  0  0
  152.2619  141.5372  158.5391 C   0  0  0  0  0  0  0  0  0  0  0  0
  152.7306  142.3378  159.5984 C   0  0  0  0  0  0  0  0  0  0  0  0
  152.4915  143.7243  159.5919 C   0  0  0  0  0  0  0  0  0  0  0  0
  151.7857  144.3079  158.5236 C   0  0  0  0  0  0  0  0  0  0  0  0
  151.3174  143.5073  157.4637 C   0  0  0  0  0  0  0  0  0  0  0  0
  153.1363  137.7129  155.6383 H   0  0  0  0  0  0  0  0  0  0  0  0
  153.4848  139.3425  156.2034 H   0  0  0  0  0  0  0  0  0  0  0  0
  152.5517  139.0955  154.7195 H   0  0  0  0  0  0  0  0  0  0  0  0
  151.1786  136.6304  157.0575 H   0  0  0  0  0  0  0  0  0  0  0  0
  150.0984  136.2057  159.6537 H   0  0  0  0  0  0  0  0  0  0  0  0
  149.2477  137.3992  160.5824 H   0  0  0  0  0  0  0  0  0  0  0  0
  145.7724  132.9495  161.5142 H   0  0  0  0  0  0  0  0  0  0  0  0
  146.0584  135.5414  163.7536 H   0  0  0  0  0  0  0  0  0  0  0  0
  144.2301  136.9846  163.3039 H   0  0  0  0  0  0  0  0  0  0  0  0
  144.9201  137.0263  161.6691 H   0  0  0  0  0  0  0  0  0  0  0  0
  142.3614  136.1390  162.0083 H   0  0  0  0  0  0  0  0  0  0  0  0
  143.4452  135.2341  160.9447 H   0  0  0  0  0  0  0  0  0  0  0  0
  142.8543  134.6716  163.8802 H   0  0  0  0  0  0  0  0  0  0  0  0
  142.8065  133.5211  162.5405 H   0  0  0  0  0  0  0  0  0  0  0  0
  148.4134  140.3575  159.1240 H   0  0  0  0  0  0  0  0  0  0  0  0
  147.6202  140.3068  157.5511 H   0  0  0  0  0  0  0  0  0  0  0  0
  148.8514  141.5071  157.8923 H   0  0  0  0  0  0  0  0  0  0  0  0
  151.9386  141.1273  155.6848 H   0  0  0  0  0  0  0  0  0  0  0  0
  150.2918  142.7103  154.9378 H   0  0  0  0  0  0  0  0  0  0  0  0
  149.0373  141.9977  155.9455 H   0  0  0  0  0  0  0  0  0  0  0  0
  149.7213  141.0852  154.6118 H   0  0  0  0  0  0  0  0  0  0  0  0
  152.4553  140.4745  158.5556 H   0  0  0  0  0  0  0  0  0  0  0  0
  153.2745  141.8875  160.4155 H   0  0  0  0  0  0  0  0  0  0  0  0
  152.8506  144.3392  160.4038 H   0  0  0  0  0  0  0  0  0  0  0  0
  151.6033  145.3724  158.5160 H   0  0  0  0  0  0  0  0  0  0  0  0
  150.7799  143.9856  156.6593 H   0  0  0  0  0  0  0  0  0  0  0  0
  1  2  1  0  0  0  0
  1 33  1  0  0  0  0
  1 34  1  0  0  0  0
  1 35  1  0  0  0  0
  2 24  1  0  0  0  0
  2  3  2  0  0  0  0
  3  4  1  0  0  0  0
  3 36  1  0  0  0  0
  4  5  1  0  0  0  0
  4 22  2  0  0  0  0
  5  6  2  0  0  0  0
  5  7  1  0  0  0  0
  7  8  1  0  0  0  0
  7 37  1  0  0  0  0
  7 38  1  0  0  0  0
  8 20  1  0  0  0  0
  8  9  1  0  0  0  0
  9 10  2  0  0  0  0
  9 11  1  0  0  0  0
 11 12  1  0  0  0  0
 11 13  2  0  0  0  0
 13 14  1  0  0  0  0
 13 39  1  0  0  0  0
 14 15  1  0  0  0  0
 14 20  1  0  0  0  0
 15 19  1  0  0  0  0
 15 16  1  0  0  0  0
 15 40  1  0  0  0  0
 16 17  1  0  0  0  0
 16 41  1  0  0  0  0
 16 42  1  0  0  0  0
 17 18  1  0  0  0  0
 17 43  1  0  0  0  0
 17 44  1  0  0  0  0
 18 19  1  0  0  0  0
 18 45  1  0  0  0  0
 18 46  1  0  0  0  0
 20 21  2  0  0  0  0
 22 23  1  0  0  0  0
 22 24  1  0  0  0  0
 23 47  1  0  0  0  0
 23 48  1  0  0  0  0
 23 49  1  0  0  0  0
 24 25  1  0  0  0  0
 25 26  1  0  0  0  0
 25 27  1  0  0  0  0
 25 50  1  0  0  0  0
 26 51  1  0  0  0  0
 26 52  1  0  0  0  0
 26 53  1  0  0  0  0
 27 32  1  0  0  0  0
 27 28  2  0  0  0  0
 28 29  1  0  0  0  0
 28 54  1  0  0  0  0
 29 30  2  0  0  0  0
 29 55  1  0  0  0  0
 30 31  1  0  0  0  0
 30 56  1  0  0  0  0
 31 32  2  0  0  0  0
 31 57  1  0  0  0  0
 32 58  1  0  0  0  0
M  END
> <s_m_source_file>
AV-unprocessed.smi

> <i_m_source_file_index>
26

> <i_lp_mmshare_version>
43012

> <i_f3d_flags>
0

> <s_epik_input>
W2NIXTFbY0hdW2NIXVtjSF1bY0hdYzFbQ0BASF0oW0NIM10pbjJjKFtDSDNdKWMoW2NIXWMyW0NIM10pQyg9TylbQ0gyXW4zYyg9TyljKEYpW2NIXW4oYzM9TylbQ0BASF00W0NIMl1bQ0gyXVtDSDJdTzQ=

> <s_epik_cmdline>
J2VwaWtfcHl0aG9uJywgJy1waCcsICc3LjAnLCAnLXRuJywgJzgnLCAnLW1hJywgJzIwMCcsICctbWV0YWxfYmluZGluZycsICctaW1hZScsICc8aW5maWxlLm1hZT4nLCAnLW9tYWUnLCAnPG91dGZpbGUubWFlPic=

> <r_lp_tautomer_probability>
1

> <r_epik_Ionization_Penalty>
5.02402e-09

> <r_epik_Ionization_Penalty_Charging>
5.01743e-09

> <r_epik_Ionization_Penalty_Neutral>
6.58831e-12

> <r_epik_State_Penalty>
-0

> <r_epik_Charging_Adjusted_Penalty>
5.01743e-09

> <i_epik_Tot_Q>
0

> <i_epik_Tot_abs_Q>
0

> <r_epik_Metal_State_Penalty>
-0

> <b_epik_Metal_Only>
0

> <s_epik_Chemistry_Notes>
This compound contains an acetal/aminal-like group ( X-CH(R)-Y where X, Y are N, S, or O) that may be acid/base labile, releasing an aldehyde.

> <s_lp_Force_Field>
OPLS_2005

> <r_lp_Energy>
50.594

> <b_lp_Chiralities_Consistent>
1

> <s_lp_Variant>
AV-unprocessed.smi:26-4

> <Gold.Version>
5.8.1

> <Gold.Id.Protein>
6NUR|6NUR_protein|mol2

> <Gold.PLP.Fitness>
57.3400

> <Gold.PLP.PLP>
-53.3344

> <Gold.PLP.part.hbond>
-3.6062

> <Gold.PLP.part.metal>
0.0000

> <Gold.PLP.part.buried>
-3.3927

> <Gold.PLP.part.nonpolar>
-45.5062

> <Gold.PLP.part.repulsive>
0.0678

> <Gold.PLP.ligand.clash>
0.0000

> <Gold.PLP.ligand.torsion>
2.4558

> <Gold.PLP.Chemscore.Hbond>
2.7920

> <Gold.PLP.Chemscore.CHOScore>
0.0000

> <Gold.PLP.Chemscore.Metal>
0.0000

> <Gold.Chemscore.Hbonds>
donor molecule, donor type, donor heavy atom, donor atom, acceptor molecule, acceptor atom, score
      P1  H  6896  6909       L1    10  1.00
      P1  H  6931  6943       L1    21  0.77
      P1  H  6934  6947       L1    21  0.69

> <Gold.PLP.Chemscore.Internal.Correction>
0.5412

> <Gold.Rescore>
     Score         DG    S(hbond)    S(metal)    S(lipo)     H(rot)  DE(clash)    DE(int)     intcor
     21.11     -24.55       2.56        0.00     130.02       1.84       0.35       3.10       ----

> <Gold.Chemscore.Fitness>
21.1074

> <Gold.Chemscore.DG>
-24.5528

> <Gold.Chemscore.ZeroCoef>
-5.4800

> <Gold.Chemscore.Hbond>
2.5629

> <Gold.Chemscore.Metal>
0.0000

> <Gold.Chemscore.Lipo>
130.0221

> <Gold.Chemscore.Internal_Hbond>
0.0000

> <Gold.Chemscore.DEClash>
0.3479

> <Gold.Chemscore.DEInternal>
3.0974

> <Gold.Chemscore.Rot>
1.8359

> <Gold.Chemscore.Internal.Correction>
   9.000000E+99

> <Gold.Chemscore.Hbonds>
donor molecule, donor type, donor heavy atom, donor atom, acceptor molecule, acceptor atom, score
      P1  H  6896  6909       L1    10  0.76
      P1  H  6931  6943       L1    21  0.72
      P1  H  6934  6947       L1    21  0.67

> <Gold.Chemscore.Hbond.Weighted>
-8.5602

> <Gold.Chemscore.Metal.Weighted>
-0.0000

> <Gold.Chemscore.Lipo.Weighted>
-15.2126

> <Gold.Chemscore.Internal_Hbond.Weighted>
0.0000

> <Gold.Chemscore.DEClash.Weighted>
0.3479

> <Gold.Chemscore.DEInternal.Weighted>
3.0974

> <Gold.Chemscore.Rot.Weighted>
4.7000

> <Gold.Chemscore.Internal.Correction.Weighted>
   9.000000E+99

> <Gold.Protein.RotatedTorsions>
[ 6907 6896 6895 6894 ] final    6.54 input  -60.11 | X-H torsion
[ 7974 7965 7964 7962 ] final  -47.52 input  175.53 | X-H torsion
[ 8008 7997 7996 7995 ] final  111.39 input   59.86 | X-H torsion
[ 10167 10162 10161 10158 ] final  -95.41 input  -65.29 | X-H torsion
[ 10718 10713 10712 10709 ] final  169.79 input   66.30 | X-H torsion
[ 10763 10752 10751 10750 ] final -176.65 input  -60.55 | X-H torsion
[ 11005 11000 10999 10996 ] final  -95.18 input  -57.11 | X-H torsion

> <Gold.Protein.ActiveResidues>
 VAL166  LYS551  ARG553  GLY616  TRP617  ASP618  TYR619  PRO620  LYS621  CYS622 
 ASP623  PHE694  ASN695  SER759  ASP760  ASP761  ALA762  ILE779  LEU786  VAL792 
 PHE793  MET794  SER795  GLU796  ALA797  LYS798  CYS799  TRP800  GLU811  SER814 

> <Gold.Protein.RotatedAtoms>
  151.6753  135.0970  160.0205 H   0  0  0  0  0  0  0  0  0  0  0  0  # atno 6907 bound_to 6896
  152.3868  133.6617  159.6213 H   0  0  0  0  0  0  0  0  0  0  0  0  # atno 6908 bound_to 6896
  150.7792  133.8939  159.3362 H   0  0  0  0  0  0  0  0  0  0  0  0  # atno 6909 bound_to 6896
  145.9608  140.7481  142.9458 H   0  0  0  0  0  0  0  0  0  0  0  0  # atno 7974 bound_to 7965
  156.2120  140.3020  155.9755 H   0  0  0  0  0  0  0  0  0  0  0  0  # atno 8008 bound_to 7997
  155.2699  140.0433  157.3023 H   0  0  0  0  0  0  0  0  0  0  0  0  # atno 8009 bound_to 7997
  154.5714  140.2349  155.8195 H   0  0  0  0  0  0  0  0  0  0  0  0  # atno 8010 bound_to 7997
  140.3044  143.3142  152.0214 H   0  0  0  0  0  0  0  0  0  0  0  0  # atno 10167 bound_to 10162
  157.0175  131.0222  151.2784 H   0  0  0  0  0  0  0  0  0  0  0  0  # atno 10718 bound_to 10713
  154.5698  135.2827  155.0838 H   0  0  0  0  0  0  0  0  0  0  0  0  # atno 10763 bound_to 10752
  154.2215  135.6390  153.5150 H   0  0  0  0  0  0  0  0  0  0  0  0  # atno 10764 bound_to 10752
  153.0054  135.5515  154.6318 H   0  0  0  0  0  0  0  0  0  0  0  0  # atno 10765 bound_to 10752
  141.1449  133.8008  157.0400 H   0  0  0  0  0  0  0  0  0  0  0  0  # atno 11005 bound_to 11000
  144.6814  140.2587  143.7322 LP  0  0  0  0  0  0  0  0  0  0  0  0  # atno 17320 bound_to 7965
  145.8043  139.1977  143.2030 LP  0  0  0  0  0  0  0  0  0  0  0  0  # atno 17321 bound_to 7965
  139.4907  144.6431  151.6834 LP  0  0  0  0  0  0  0  0  0  0  0  0  # atno 17342 bound_to 10162
  140.5623  144.0248  150.6175 LP  0  0  0  0  0  0  0  0  0  0  0  0  # atno 17343 bound_to 10162
  157.5274  130.8037  149.7878 LP  0  0  0  0  0  0  0  0  0  0  0  0  # atno 17370 bound_to 10713
  156.0114  130.3832  150.2253 LP  0  0  0  0  0  0  0  0  0  0  0  0  # atno 17371 bound_to 10713
  140.0699  134.9708  157.1449 LP  0  0  0  0  0  0  0  0  0  0  0  0  # atno 17394 bound_to 11000
  140.3726  134.2373  155.7177 LP  0  0  0  0  0  0  0  0  0  0  0  0  # atno 17395 bound_to 11000

$$$$
