AV-unprocessed.smi:2717|AV-procd|sdf|10484|dock8
  -GOLD-   2272014533D 1   1.00000     0.00000
 Structure written by MMmdl.
 43 44  0  0  0  0  0  0  0  0  1 V2000
  152.3102  139.1917  158.7172 C   0  0  0  0  0  0  0  0  0  0  0  0
  152.9931  138.5091  157.5274 C   0  0  0  0  0  0  0  0  0  0  0  0
  152.0171  137.8804  156.5901 C   0  0  0  0  0  0  0  0  0  0  0  0
  151.2225  136.8622  156.9297 N   0  0  0  0  0  0  0  0  0  0  0  0
  150.4231  136.4244  155.8694 C   0  0  0  0  0  0  0  0  0  0  0  0
  149.4598  135.2951  156.0775 C   0  0  0  0  0  0  0  0  0  0  0  0
  149.7212  134.1239  155.1162 C   0  0  0  0  0  0  0  0  0  0  0  0
  148.9258  134.2404  153.8992 N   0  0  0  0  0  0  0  0  0  0  0  0
  147.9153  133.4267  153.5626 C   0  0  0  0  0  0  0  0  0  0  0  0
  147.5346  132.4786  154.2496 O   0  0  0  0  0  0  0  0  0  0  0  0
  147.3717  133.7681  152.3854 N   0  0  0  0  0  0  0  0  0  0  0  0
  146.2521  133.0839  151.7449 C   0  0  2  0  0  0  0  0  0  0  0  0
  146.6009  132.7073  150.2892 C   0  0  0  0  0  0  0  0  0  0  0  0
  145.4057  132.0547  149.5756 C   0  0  0  0  0  0  0  0  0  0  0  0
  144.1651  132.9629  149.6262 C   0  0  1  0  0  0  0  0  0  0  0  0
  143.0708  132.3023  149.0259 O   0  0  0  0  0  0  0  0  0  0  0  0
  143.8089  133.3289  151.0772 C   0  0  0  0  0  0  0  0  0  0  0  0
  145.0021  133.9835  151.7921 C   0  0  0  0  0  0  0  0  0  0  0  0
  150.6328  137.1267  154.7085 C   0  0  0  0  0  0  0  0  0  0  0  0
  151.8472  138.3605  154.9055 S   0  0  0  0  0  0  0  0  0  0  0  0
  153.0474  139.6441  159.3806 H   0  0  0  0  0  0  0  0  0  0  0  0
  151.7301  138.4766  159.3010 H   0  0  0  0  0  0  0  0  0  0  0  0
  151.6339  139.9792  158.3838 H   0  0  0  0  0  0  0  0  0  0  0  0
  153.5933  139.2344  156.9768 H   0  0  0  0  0  0  0  0  0  0  0  0
  153.6803  137.7412  157.8835 H   0  0  0  0  0  0  0  0  0  0  0  0
  149.5214  134.9399  157.1068 H   0  0  0  0  0  0  0  0  0  0  0  0
  148.4384  135.6558  155.9477 H   0  0  0  0  0  0  0  0  0  0  0  0
  150.7819  134.0613  154.8663 H   0  0  0  0  0  0  0  0  0  0  0  0
  149.4612  133.1822  155.6006 H   0  0  0  0  0  0  0  0  0  0  0  0
  149.1642  134.9920  153.2688 H   0  0  0  0  0  0  0  0  0  0  0  0
  147.7571  134.5632  151.8973 H   0  0  0  0  0  0  0  0  0  0  0  0
  146.0325  132.1707  152.3016 H   0  0  0  0  0  0  0  0  0  0  0  0
  146.9075  133.5986  149.7398 H   0  0  0  0  0  0  0  0  0  0  0  0
  147.4516  132.0253  150.2686 H   0  0  0  0  0  0  0  0  0  0  0  0
  145.6696  131.8355  148.5406 H   0  0  0  0  0  0  0  0  0  0  0  0
  145.1835  131.0969  150.0489 H   0  0  0  0  0  0  0  0  0  0  0  0
  144.3594  133.8748  149.0602 H   0  0  0  0  0  0  0  0  0  0  0  0
  142.2926  132.8196  149.1673 H   0  0  0  0  0  0  0  0  0  0  0  0
  142.9529  134.0044  151.0947 H   0  0  0  0  0  0  0  0  0  0  0  0
  143.5086  132.4331  151.6230 H   0  0  0  0  0  0  0  0  0  0  0  0
  144.7351  134.1986  152.8276 H   0  0  0  0  0  0  0  0  0  0  0  0
  145.2190  134.9442  151.3226 H   0  0  0  0  0  0  0  0  0  0  0  0
  150.1507  136.9917  153.7519 H   0  0  0  0  0  0  0  0  0  0  0  0
  1  2  1  0  0  0  0
  1 21  1  0  0  0  0
  1 22  1  0  0  0  0
  1 23  1  0  0  0  0
  2  3  1  0  0  0  0
  2 24  1  0  0  0  0
  2 25  1  0  0  0  0
  3 20  1  0  0  0  0
  3  4  2  0  0  0  0
  4  5  1  0  0  0  0
  5  6  1  0  0  0  0
  5 19  2  0  0  0  0
  6  7  1  0  0  0  0
  6 26  1  0  0  0  0
  6 27  1  0  0  0  0
  7  8  1  0  0  0  0
  7 28  1  0  0  0  0
  7 29  1  0  0  0  0
  8  9  1  0  0  0  0
  8 30  1  0  0  0  0
  9 10  2  0  0  0  0
  9 11  1  0  0  0  0
 11 12  1  0  0  0  0
 11 31  1  0  0  0  0
 12 18  1  0  0  0  0
 12 13  1  0  0  0  0
 12 32  1  0  0  0  0
 13 14  1  0  0  0  0
 13 33  1  0  0  0  0
 13 34  1  0  0  0  0
 14 15  1  0  0  0  0
 14 35  1  0  0  0  0
 14 36  1  0  0  0  0
 15 16  1  0  0  0  0
 15 17  1  0  0  0  0
 15 37  1  0  0  0  0
 16 38  1  0  0  0  0
 17 18  1  0  0  0  0
 17 39  1  0  0  0  0
 17 40  1  0  0  0  0
 18 41  1  0  0  0  0
 18 42  1  0  0  0  0
 19 20  1  0  0  0  0
 19 43  1  0  0  0  0
M  END
> <s_m_source_file>
AV-unprocessed.smi

> <i_m_source_file_index>
2717

> <i_lp_mmshare_version>
43012

> <i_f3d_flags>
0

> <s_epik_input>
W0NIM11bQ0gyXWMxbmMoW2NIXXMxKVtDSDJdW0NIMl1bTkhdQyg9TylbTkhdW0NAQEhdMltDSDJdW0NIMl1bQ0BASF0oW09IXSlbQ0gyXVtDSDJdMg==

> <s_epik_cmdline>
J2VwaWtfcHl0aG9uJywgJy1waCcsICc3LjAnLCAnLXRuJywgJzgnLCAnLW1hJywgJzIwMCcsICctbWV0YWxfYmluZGluZycsICctaW1hZScsICc8aW5maWxlLm1hZT4nLCAnLW9tYWUnLCAnPG91dGZpbGUubWFlPic=

> <r_epik_Ionization_Penalty>
0.00202099

> <r_epik_Ionization_Penalty_Charging>
0

> <r_epik_Ionization_Penalty_Neutral>
0.00202099

> <r_epik_State_Penalty>
0.00133629

> <r_epik_Charging_Adjusted_Penalty>
0.00133629

> <i_epik_Tot_Q>
0

> <i_epik_Tot_abs_Q>
0

> <r_epik_Metal_State_Penalty>
-0

> <b_epik_Metal_Only>
0

> <s_lp_Force_Field>
OPLS_2005

> <r_lp_Energy>
-3.71108

> <b_lp_Chiralities_Consistent>
1

> <s_lp_Variant>
AV-unprocessed.smi:2717-1

> <Gold.Version>
5.8.1

> <Gold.Id.Protein>
6NUR|6NUR_protein|mol2

> <Gold.PLP.Fitness>
48.8191

> <Gold.PLP.PLP>
-36.5531

> <Gold.PLP.part.hbond>
-4.5735

> <Gold.PLP.part.metal>
0.0000

> <Gold.PLP.part.buried>
-4.8102

> <Gold.PLP.part.nonpolar>
-27.7125

> <Gold.PLP.part.repulsive>
0.0638

> <Gold.PLP.ligand.clash>
0.0000

> <Gold.PLP.ligand.torsion>
0.3400

> <Gold.PLP.Chemscore.Hbond>
3.2525

> <Gold.PLP.Chemscore.CHOScore>
1.0516

> <Gold.PLP.Chemscore.Metal>
0.0000

> <Gold.Chemscore.Hbonds>
donor molecule, donor type, donor heavy atom, donor atom, acceptor molecule, acceptor atom, score
      L1  H     8    30       P1  7948  0.75
      L1  H    11    31       P1  7948  1.00
      L1  H    16    38       P1 10186  0.88
      P1  H 10785 10796       L1    16  0.63
      L1  C    19    43       P1  7948  0.98
      L1  C    19    43       P1  7949  0.10

> <Gold.PLP.Chemscore.Internal.Correction>
0.0335

> <Gold.Rescore>
     Score         DG    S(hbond)    S(metal)    S(lipo)     H(rot)  DE(clash)    DE(int)     intcor
     18.80     -19.08       2.64        0.00      89.14       2.21       0.04       0.25       ----

> <Gold.Chemscore.Fitness>
18.7961

> <Gold.Chemscore.DG>
-19.0834

> <Gold.Chemscore.ZeroCoef>
-5.4800

> <Gold.Chemscore.Hbond>
2.6429

> <Gold.Chemscore.Metal>
0.0000

> <Gold.Chemscore.Lipo>
89.1439

> <Gold.Chemscore.Internal_Hbond>
0.0000

> <Gold.Chemscore.DEClash>
0.0411

> <Gold.Chemscore.DEInternal>
0.2462

> <Gold.Chemscore.Rot>
2.2084

> <Gold.Chemscore.Internal.Correction>
   9.000000E+99

> <Gold.Chemscore.Hbonds>
donor molecule, donor type, donor heavy atom, donor atom, acceptor molecule, acceptor atom, score
      L1  H     8    30       P1  7948  0.09
      L1  H    11    31       P1  7948  0.28
      L1  H    16    38       P1 10186  0.85
      P1  H 10785 10796       L1    16  0.59

> <Gold.Chemscore.Hbond.Weighted>
-8.8271

> <Gold.Chemscore.Metal.Weighted>
-0.0000

> <Gold.Chemscore.Lipo.Weighted>
-10.4298

> <Gold.Chemscore.Internal_Hbond.Weighted>
0.0000

> <Gold.Chemscore.DEClash.Weighted>
0.0411

> <Gold.Chemscore.DEInternal.Weighted>
0.2462

> <Gold.Chemscore.Rot.Weighted>
5.6535

> <Gold.Chemscore.Internal.Correction.Weighted>
   9.000000E+99

> <Gold.Protein.RotatedTorsions>
[ 6907 6896 6895 6894 ] final  171.50 input  -60.11 | X-H torsion
[ 7974 7965 7964 7962 ] final  148.01 input  175.53 | X-H torsion
[ 8008 7997 7996 7995 ] final  -31.24 input   59.86 | X-H torsion
[ 10167 10162 10161 10158 ] final -143.44 input  -65.29 | X-H torsion
[ 10718 10713 10712 10709 ] final  138.40 input   66.30 | X-H torsion
[ 10763 10752 10751 10750 ] final  -25.06 input  -60.55 | X-H torsion
[ 11005 11000 10999 10996 ] final -158.18 input  -57.11 | X-H torsion

> <Gold.Protein.ActiveResidues>
 VAL166  LYS551  ARG553  GLY616  TRP617  ASP618  TYR619  PRO620  LYS621  CYS622 
 ASP623  PHE694  ASN695  SER759  ASP760  ASP761  ALA762  ILE779  LEU786  VAL792 
 PHE793  MET794  SER795  GLU796  ALA797  LYS798  CYS799  TRP800  GLU811  SER814 

> <Gold.Protein.RotatedAtoms>
  151.7992  133.3368  159.3521 H   0  0  0  0  0  0  0  0  0  0  0  0  # atno 6907 bound_to 6896
  150.7364  134.5770  159.5928 H   0  0  0  0  0  0  0  0  0  0  0  0  # atno 6908 bound_to 6896
  152.3155  134.7446  160.0377 H   0  0  0  0  0  0  0  0  0  0  0  0  # atno 6909 bound_to 6896
  144.8547  139.6100  143.5958 H   0  0  0  0  0  0  0  0  0  0  0  0  # atno 7974 bound_to 7965
  154.4221  140.1769  156.1536 H   0  0  0  0  0  0  0  0  0  0  0  0  # atno 8008 bound_to 7997
  155.9895  140.3370  155.6715 H   0  0  0  0  0  0  0  0  0  0  0  0  # atno 8009 bound_to 7997
  155.6391  140.0678  157.2615 H   0  0  0  0  0  0  0  0  0  0  0  0  # atno 8010 bound_to 7997
  139.7993  143.7856  152.2657 H   0  0  0  0  0  0  0  0  0  0  0  0  # atno 10167 bound_to 10162
  157.4257  131.1043  151.0305 H   0  0  0  0  0  0  0  0  0  0  0  0  # atno 10718 bound_to 10713
  153.6938  135.6960  153.5082 H   0  0  0  0  0  0  0  0  0  0  0  0  # atno 10763 bound_to 10752
  153.2393  135.4311  155.0680 H   0  0  0  0  0  0  0  0  0  0  0  0  # atno 10764 bound_to 10752
  154.8365  135.3504  154.6479 H   0  0  0  0  0  0  0  0  0  0  0  0  # atno 10765 bound_to 10752
  140.6565  134.4395  157.5235 H   0  0  0  0  0  0  0  0  0  0  0  0  # atno 11005 bound_to 11000
  146.2813  139.6886  142.9227 LP  0  0  0  0  0  0  0  0  0  0  0  0  # atno 17320 bound_to 7965
  145.4430  141.0423  143.2847 LP  0  0  0  0  0  0  0  0  0  0  0  0  # atno 17321 bound_to 7965
  139.7971  144.7388  150.9875 LP  0  0  0  0  0  0  0  0  0  0  0  0  # atno 17342 bound_to 10162
  140.7820  143.4383  151.0591 LP  0  0  0  0  0  0  0  0  0  0  0  0  # atno 17343 bound_to 10162
  157.1219  130.6065  149.5507 LP  0  0  0  0  0  0  0  0  0  0  0  0  # atno 17370 bound_to 10713
  155.9896  130.4943  150.7219 LP  0  0  0  0  0  0  0  0  0  0  0  0  # atno 17371 bound_to 10713
  139.9028  134.8517  156.1827 LP  0  0  0  0  0  0  0  0  0  0  0  0  # atno 17394 bound_to 11000
  141.0498  133.6895  156.1750 LP  0  0  0  0  0  0  0  0  0  0  0  0  # atno 17395 bound_to 11000

$$$$
