#       Name:                AV-unprocessed.smi:1274
#       Creating user name   scv26
#       Creation time:       Fri Mar 27 04:47:22 2020


#       File generated by GOLD software.
#

@<TRIPOS>MOLECULE
AV-unprocessed.smi:1274
    39    40     1
SMALL
NO_CHARGES


@<TRIPOS>ATOM
      1 ****         1.0281   2.7952   1.9276 O.2            1 S1                 0.0000
      2 ****         0.8274   1.9314   0.7527 S.o2           1 S1                 0.0000
      3 ****         1.2450   2.4500  -0.5605 O.2            1 S1                 0.0000
      4 ****         1.2690   0.3973   1.0265 N.pl3          1 S1                -1.0000
      5 ****         2.6807   0.0629   1.0958 C.3            1 S1                 0.0000
      6 ****         2.8631  -1.4706   1.0743 C.3            1 S1                 0.0000
      7 ****         2.4125  -2.1457  -0.2178 C.ar           1 S1                 0.0000
      8 ****         1.1024  -2.6558  -0.3522 C.ar           1 S1                 0.0000
      9 ****         0.7323  -3.2748  -1.5614 C.ar           1 S1                 0.0000
     10 ****         1.6921  -3.3638  -2.5888 C.ar           1 S1                 0.0000
     11 ****         2.9507  -2.8884  -2.4727 N.ar           1 S1                 0.0000
     12 ****         3.2960  -2.2931  -1.3105 C.ar           1 S1                 0.0000
     13 ****        -0.8841   1.6473   0.6260 N.3            1 S1                 0.0000
     14 ****        -1.7785   2.7835   0.9312 C.3            1 S1                 0.0000
     15 ****        -3.2289   2.3208   1.1521 C.3            1 S1                 0.0000
     16 ****        -3.7422   1.5075  -0.0386 C.3            1 S1                 0.0000
     17 ****        -2.7988   0.3277  -0.2850 C.3            1 S1                 0.0000
     18 ****        -1.3552   0.8084  -0.5012 C.3            1 S1                 0.0000
     19 ****         3.2442   0.4957   0.2684 H              1 S1                 0.0000
     20 ****         3.1350   0.4594   2.0042 H              1 S1                 0.0000
     21 ****         3.9163  -1.7058   1.2313 H              1 S1                 0.0000
     22 ****         2.3316  -1.9199   1.9146 H              1 S1                 0.0000
     23 ****         0.3913  -2.5673   0.4563 H              1 S1                 0.0000
     24 ****        -0.2633  -3.6699  -1.6978 H              1 S1                 0.0000
     25 ****         1.4426  -3.8324  -3.5292 H              1 S1                 0.0000
     26 ****         4.3088  -1.9226  -1.2507 H              1 S1                 0.0000
     27 ****        -1.4325   3.2977   1.8273 H              1 S1                 0.0000
     28 ****        -1.7274   3.5028   0.1131 H              1 S1                 0.0000
     29 ****        -3.2839   1.7167   2.0587 H              1 S1                 0.0000
     30 ****        -3.8725   3.1851   1.3174 H              1 S1                 0.0000
     31 ****        -4.7537   1.1496   0.1554 H              1 S1                 0.0000
     32 ****        -3.7931   2.1375  -0.9274 H              1 S1                 0.0000
     33 ****        -2.8320  -0.3553   0.5648 H              1 S1                 0.0000
     34 ****        -3.1332  -0.2416  -1.1525 H              1 S1                 0.0000
     35 ****        -1.2845   1.3869  -1.4230 H              1 S1                 0.0000
     36 ****        -0.7070  -0.0577  -0.6294 H              1 S1                 0.0000
     37 ****         0.5758  -0.3133   1.1468 LP             1 S1                 0.0000
     38 ****         3.6061  -2.9743  -3.2231 LP             1 S1                 0.0000
     39 ****        -0.9841   1.0450   1.4179 LP             1 S1                 0.0000
@<TRIPOS>BOND
    1    1    2 2     
    2    2    3 2     
    3    2    4 1     
    4    2   13 1     
    5    4    5 1     
    6    5    6 1     
    7    5   19 1     
    8    5   20 1     
    9    6    7 1     
   10    6   21 1     
   11    6   22 1     
   12    7   12 ar    
   13    7    8 ar    
   14    8    9 ar    
   15    8   23 1     
   16    9   10 ar    
   17    9   24 1     
   18   10   11 ar    
   19   10   25 1     
   20   11   12 ar    
   21   12   26 1     
   22   13   18 1     
   23   13   14 1     
   24   14   15 1     
   25   14   27 1     
   26   14   28 1     
   27   15   16 1     
   28   15   29 1     
   29   15   30 1     
   30   16   17 1     
   31   16   31 1     
   32   16   32 1     
   33   17   18 1     
   34   17   33 1     
   35   17   34 1     
   36   18   35 1     
   37   18   36 1     
   38    4   37 1     
   39   11   38 1     
   40   13   39 1     
@<TRIPOS>SUBSTRUCTURE
      1 S1             1
@<TRIPOS>SET
LONE_PAIRS      STATIC     ATOMS    <user>   **** ""
5 1 3 37 38 39
ATOM$BLUE        STATIC     ATOMS    COLORGROUP SYSTEM
5 1 3 37 38 39
