AV-unprocessed.smi:1830|AV-procd|sdf|7439|dock3
  -GOLD-   22720 9123D 1   1.00000     0.00000
 Structure written by MMmdl.
 53 56  0  0  0  0  0  0  0  0  2 V2000
  155.0673  140.4672  161.8661 O   0  0  0  0  0  0  0  0  0  0  0  0
  154.5651  140.0868  160.8087 C   0  0  0  0  0  0  0  0  0  0  0  0
  154.8890  138.9338  160.2070 N   0  0  0  0  0  0  0  0  0  0  0  0
  155.8578  137.9659  160.7112 C   0  0  0  0  0  0  0  0  0  0  0  0
  155.2630  137.0853  161.8254 C   0  0  1  0  0  0  0  0  0  0  0  0
  155.9221  135.6858  161.8617 C   0  0  0  0  0  0  0  0  0  0  0  0
  155.3805  134.9468  163.0170 N   0  3  1  0  0  0  0  0  0  0  0  0
  155.8469  133.5690  163.2489 C   0  0  0  0  0  0  0  0  0  0  0  0
  155.6138  133.3225  164.7534 C   0  0  0  0  0  0  0  0  0  0  0  0
  155.1645  134.6759  165.3345 C   0  0  0  0  0  0  0  0  0  0  0  0
  155.6111  135.6711  164.2685 C   0  0  2  0  0  0  0  0  0  0  0  0
  154.9013  137.0286  164.1975 C   0  0  0  0  0  0  0  0  0  0  0  0
  155.4502  137.7383  163.0866 O   0  0  0  0  0  0  0  0  0  0  0  0
  153.6178  140.7441  160.1197 N   0  0  0  0  0  0  0  0  0  0  0  0
  152.9356  141.9364  160.4916 C   0  0  0  0  0  0  0  0  0  0  0  0
  153.3128  142.6777  161.6381 C   0  0  0  0  0  0  0  0  0  0  0  0
  152.6510  143.8831  161.9289 C   0  0  0  0  0  0  0  0  0  0  0  0
  151.6434  144.3161  161.0512 C   0  0  0  0  0  0  0  0  0  0  0  0
  151.2834  143.6305  159.9479 N   0  0  0  0  0  0  0  0  0  0  0  0
  151.9024  142.4587  159.6615 C   0  0  0  0  0  0  0  0  0  0  0  0
  151.4720  141.7769  158.4999 N   0  0  0  0  0  0  0  0  0  0  0  0
  150.6346  142.4509  157.5131 C   0  0  0  0  0  0  0  0  0  0  0  0
  150.0717  141.3310  156.6431 C   0  0  0  0  0  0  0  0  0  0  0  0
  149.8736  140.2042  157.6524 C   0  0  0  0  0  0  0  0  0  0  0  0
  151.0333  140.3910  158.6365 C   0  0  0  0  0  0  0  0  0  0  0  0
  154.4263  138.7055  159.3392 H   0  0  0  0  0  0  0  0  0  0  0  0
  156.1558  137.3395  159.8702 H   0  0  0  0  0  0  0  0  0  0  0  0
  156.7637  138.4672  161.0567 H   0  0  0  0  0  0  0  0  0  0  0  0
  154.1920  136.9682  161.6488 H   0  0  0  0  0  0  0  0  0  0  0  0
  155.7106  135.1367  160.9436 H   0  0  0  0  0  0  0  0  0  0  0  0
  157.0067  135.7712  161.9495 H   0  0  0  0  0  0  0  0  0  0  0  0
  155.3061  132.8619  162.6194 H   0  0  0  0  0  0  0  0  0  0  0  0
  156.9098  133.4897  163.0157 H   0  0  0  0  0  0  0  0  0  0  0  0
  154.8590  132.5546  164.9252 H   0  0  0  0  0  0  0  0  0  0  0  0
  156.5377  132.9858  165.2252 H   0  0  0  0  0  0  0  0  0  0  0  0
  154.0784  134.6944  165.4364 H   0  0  0  0  0  0  0  0  0  0  0  0
  155.5984  134.8828  166.3133 H   0  0  0  0  0  0  0  0  0  0  0  0
  156.6847  135.8375  164.3835 H   0  0  0  0  0  0  0  0  0  0  0  0
  153.8226  136.9134  164.0807 H   0  0  0  0  0  0  0  0  0  0  0  0
  155.0735  137.6004  165.1095 H   0  0  0  0  0  0  0  0  0  0  0  0
  153.2467  140.2704  159.3091 H   0  0  0  0  0  0  0  0  0  0  0  0
  154.1124  142.3531  162.2859 H   0  0  0  0  0  0  0  0  0  0  0  0
  152.9187  144.4670  162.7969 H   0  0  0  0  0  0  0  0  0  0  0  0
  151.1163  145.2404  161.2358 H   0  0  0  0  0  0  0  0  0  0  0  0
  149.8135  142.9804  157.9982 H   0  0  0  0  0  0  0  0  0  0  0  0
  151.2089  143.1698  156.9279 H   0  0  0  0  0  0  0  0  0  0  0  0
  149.1524  141.6129  156.1290 H   0  0  0  0  0  0  0  0  0  0  0  0
  150.8057  141.0350  155.8923 H   0  0  0  0  0  0  0  0  0  0  0  0
  148.9250  140.3431  158.1729 H   0  0  0  0  0  0  0  0  0  0  0  0
  149.8630  139.2160  157.1922 H   0  0  0  0  0  0  0  0  0  0  0  0
  151.8589  139.7335  158.3642 H   0  0  0  0  0  0  0  0  0  0  0  0
  150.7320  140.1529  159.6577 H   0  0  0  0  0  0  0  0  0  0  0  0
  154.3787  134.8937  162.8982 H   0  0  0  0  0  0  0  0  0  0  0  0
  1  2  2  0  0  0  0
  2  3  1  0  0  0  0
  2 14  1  0  0  0  0
  3  4  1  0  0  0  0
  3 26  1  0  0  0  0
  4  5  1  0  0  0  0
  4 27  1  0  0  0  0
  4 28  1  0  0  0  0
  5 13  1  0  0  0  0
  5  6  1  0  0  0  0
  5 29  1  0  0  0  0
  6  7  1  0  0  0  0
  6 30  1  0  0  0  0
  6 31  1  0  0  0  0
  7 11  1  0  0  0  0
  7  8  1  0  0  0  0
  7 53  1  0  0  0  0
  8  9  1  0  0  0  0
  8 32  1  0  0  0  0
  8 33  1  0  0  0  0
  9 10  1  0  0  0  0
  9 34  1  0  0  0  0
  9 35  1  0  0  0  0
 10 11  1  0  0  0  0
 10 36  1  0  0  0  0
 10 37  1  0  0  0  0
 11 12  1  0  0  0  0
 11 38  1  0  0  0  0
 12 13  1  0  0  0  0
 12 39  1  0  0  0  0
 12 40  1  0  0  0  0
 14 15  1  0  0  0  0
 14 41  1  0  0  0  0
 15 20  1  0  0  0  0
 15 16  2  0  0  0  0
 16 17  1  0  0  0  0
 16 42  1  0  0  0  0
 17 18  2  0  0  0  0
 17 43  1  0  0  0  0
 18 19  1  0  0  0  0
 18 44  1  0  0  0  0
 19 20  2  0  0  0  0
 20 21  1  0  0  0  0
 21 25  1  0  0  0  0
 21 22  1  0  0  0  0
 22 23  1  0  0  0  0
 22 45  1  0  0  0  0
 22 46  1  0  0  0  0
 23 24  1  0  0  0  0
 23 47  1  0  0  0  0
 23 48  1  0  0  0  0
 24 25  1  0  0  0  0
 24 49  1  0  0  0  0
 24 50  1  0  0  0  0
 25 51  1  0  0  0  0
 25 52  1  0  0  0  0
M  CHG  1   7   1
M  END
> <s_m_source_file>
AV-unprocessed.smi

> <i_m_source_file_index>
1830

> <i_lp_mmshare_version>
43012

> <i_f3d_flags>
0

> <s_epik_input>
W0NIMl0xW0NIMl1bQ0gyXVtDQEhdKE4xMilbQ0gyXU9bQ0BASF0oW0NIMl0yKVtDSDJdW05IXUMoPU8pW05IXWMzW2NIXVtjSF1bY0hdbmMzTjRbQ0gyXVtDSDJdW0NIMl1bQ0gyXTQ=

> <s_epik_cmdline>
J2VwaWtfcHl0aG9uJywgJy1waCcsICc3LjAnLCAnLXRuJywgJzgnLCAnLW1hJywgJzIwMCcsICctbWV0YWxfYmluZGluZycsICctaW1hZScsICc8aW5maWxlLm1hZT4nLCAnLW9tYWUnLCAnPG91dGZpbGUubWFlPic=

> <r_lp_tautomer_probability>
1

> <r_epik_Ionization_Penalty>
0.193547

> <r_epik_Ionization_Penalty_Charging>
0.10673

> <r_epik_Ionization_Penalty_Neutral>
0.0868166

> <r_epik_State_Penalty>
0.173595

> <r_epik_Charging_Adjusted_Penalty>
0.280326

> <i_epik_Tot_Q>
1

> <i_epik_Tot_abs_Q>
1

> <r_epik_Metal_State_Penalty>
0.164683

> <b_epik_Metal_Only>
0

> <s_lp_Force_Field>
OPLS_2005

> <r_lp_Energy>
64.524

> <b_lp_Chiralities_Consistent>
1

> <s_lp_Variant>
AV-unprocessed.smi:1830-8

> <Gold.Version>
5.8.1

> <Gold.Id.Protein>
6NUR|6NUR_protein|mol2

> <Gold.PLP.Fitness>
47.2750

> <Gold.PLP.PLP>
-48.2743

> <Gold.PLP.part.hbond>
0.0000

> <Gold.PLP.part.metal>
0.0000

> <Gold.PLP.part.buried>
-7.1702

> <Gold.PLP.part.nonpolar>
-41.3418

> <Gold.PLP.part.repulsive>
0.2087

> <Gold.PLP.ligand.clash>
0.0000

> <Gold.PLP.ligand.torsion>
0.6717

> <Gold.PLP.Chemscore.Hbond>
0.0000

> <Gold.PLP.Chemscore.CHOScore>
0.0000

> <Gold.PLP.Chemscore.Metal>
0.0000

> <Gold.PLP.Chemscore.Internal.Correction>
0.3441

> <Gold.Rescore>
     Score         DG    S(hbond)    S(metal)    S(lipo)     H(rot)  DE(clash)    DE(int)     intcor
     12.52     -15.71       0.00        0.00     118.23       1.41       0.00       3.19       ----

> <Gold.Chemscore.Fitness>
12.5237

> <Gold.Chemscore.DG>
-15.7115

> <Gold.Chemscore.ZeroCoef>
-5.4800

> <Gold.Chemscore.Hbond>
0.0000

> <Gold.Chemscore.Metal>
0.0000

> <Gold.Chemscore.Lipo>
118.2272

> <Gold.Chemscore.Internal_Hbond>
0.0000

> <Gold.Chemscore.DEClash>
0.0017

> <Gold.Chemscore.DEInternal>
3.1860

> <Gold.Chemscore.Rot>
1.4067

> <Gold.Chemscore.Internal.Correction>
   9.000000E+99

> <Gold.Chemscore.Hbond.Weighted>
-0.0000

> <Gold.Chemscore.Metal.Weighted>
-0.0000

> <Gold.Chemscore.Lipo.Weighted>
-13.8326

> <Gold.Chemscore.Internal_Hbond.Weighted>
0.0000

> <Gold.Chemscore.DEClash.Weighted>
0.0017

> <Gold.Chemscore.DEInternal.Weighted>
3.1860

> <Gold.Chemscore.Rot.Weighted>
3.6011

> <Gold.Chemscore.Internal.Correction.Weighted>
   9.000000E+99

> <Gold.Protein.RotatedTorsions>
[ 6907 6896 6895 6894 ] final -110.62 input  -60.11 | X-H torsion
[ 7974 7965 7964 7962 ] final   23.88 input  175.53 | X-H torsion
[ 8008 7997 7996 7995 ] final  157.90 input   59.86 | X-H torsion
[ 10167 10162 10161 10158 ] final  149.95 input  -65.29 | X-H torsion
[ 10718 10713 10712 10709 ] final  -74.92 input   66.30 | X-H torsion
[ 10763 10752 10751 10750 ] final -104.80 input  -60.55 | X-H torsion
[ 11005 11000 10999 10996 ] final    8.39 input  -57.11 | X-H torsion

> <Gold.Protein.ActiveResidues>
 VAL166  LYS551  ARG553  GLY616  TRP617  ASP618  TYR619  PRO620  LYS621  CYS622 
 ASP623  PHE694  ASN695  SER759  ASP760  ASP761  ALA762  ILE779  LEU786  VAL792 
 PHE793  MET794  SER795  GLU796  ALA797  LYS798  CYS799  TRP800  GLU811  SER814 

> <Gold.Protein.RotatedAtoms>
  150.7636  133.9355  159.3439 H   0  0  0  0  0  0  0  0  0  0  0  0  # atno 6907 bound_to 6896
  151.7258  135.0883  160.0301 H   0  0  0  0  0  0  0  0  0  0  0  0  # atno 6908 bound_to 6896
  152.3621  133.6272  159.6058 H   0  0  0  0  0  0  0  0  0  0  0  0  # atno 6909 bound_to 6896
  146.1964  139.7682  142.8794 H   0  0  0  0  0  0  0  0  0  0  0  0  # atno 7974 bound_to 7965
  156.2335  140.1872  156.7180 H   0  0  0  0  0  0  0  0  0  0  0  0  # atno 8008 bound_to 7997
  154.6065  140.0628  156.9465 H   0  0  0  0  0  0  0  0  0  0  0  0  # atno 8009 bound_to 7997
  155.2087  140.3298  155.4334 H   0  0  0  0  0  0  0  0  0  0  0  0  # atno 8010 bound_to 7997
  139.4855  144.5561  151.7315 H   0  0  0  0  0  0  0  0  0  0  0  0  # atno 10167 bound_to 10162
  156.0225  130.4428  150.2965 H   0  0  0  0  0  0  0  0  0  0  0  0  # atno 10718 bound_to 10713
  154.7903  135.4773  154.0037 H   0  0  0  0  0  0  0  0  0  0  0  0  # atno 10763 bound_to 10752
  153.1621  135.6810  153.8735 H   0  0  0  0  0  0  0  0  0  0  0  0  # atno 10764 bound_to 10752
  153.8345  135.3187  155.3399 H   0  0  0  0  0  0  0  0  0  0  0  0  # atno 10765 bound_to 10752
  140.5375  134.0406  155.7893 H   0  0  0  0  0  0  0  0  0  0  0  0  # atno 11005 bound_to 11000
  145.3631  141.0329  143.3274 LP  0  0  0  0  0  0  0  0  0  0  0  0  # atno 17320 bound_to 7965
  144.8588  139.5208  143.6822 LP  0  0  0  0  0  0  0  0  0  0  0  0  # atno 17321 bound_to 7965
  140.5123  144.1006  150.5998 LP  0  0  0  0  0  0  0  0  0  0  0  0  # atno 17342 bound_to 10162
  140.3936  143.2739  152.0031 LP  0  0  0  0  0  0  0  0  0  0  0  0  # atno 17343 bound_to 10162
  157.1068  131.0210  151.3064 LP  0  0  0  0  0  0  0  0  0  0  0  0  # atno 17370 bound_to 10713
  157.4736  130.7723  149.7347 LP  0  0  0  0  0  0  0  0  0  0  0  0  # atno 17371 bound_to 10713
  141.1246  133.9404  157.2661 LP  0  0  0  0  0  0  0  0  0  0  0  0  # atno 17394 bound_to 11000
  139.9521  135.0173  156.9024 LP  0  0  0  0  0  0  0  0  0  0  0  0  # atno 17395 bound_to 11000

$$$$
