AV-unprocessed.smi:1601|AV-procd|sdf|6433|dock5
  -GOLD-   22720 7 73D 1   1.00000     0.00000
 Structure written by MMmdl.
 41 42  0  0  0  0  0  0  0  0  1 V2000
  151.0553  137.7381  159.0905 C   0  0  0  0  0  0  0  0  0  0  0  0
  149.6905  138.2861  158.5975 C   0  0  2  0  0  0  0  0  0  0  0  0
  148.6507  137.1322  158.6140 C   0  0  0  0  0  0  0  0  0  0  0  0
  148.5907  136.4638  159.9081 N   0  0  0  0  0  0  0  0  0  0  0  0
  147.6073  136.6155  160.8079 C   0  0  0  0  0  0  0  0  0  0  0  0
  146.6644  137.3904  160.6433 O   0  0  0  0  0  0  0  0  0  0  0  0
  147.7190  135.7633  162.0850 C   0  0  1  0  0  0  0  0  0  0  0  0
  147.7973  136.6086  163.3730 C   0  0  0  0  0  0  0  0  0  0  0  0
  146.6406  134.7813  162.1459 N   0  0  0  0  0  0  0  0  0  0  0  0
  146.7393  133.4063  162.0725 C   0  0  0  0  0  0  0  0  0  0  0  0
  145.4731  132.8995  162.1328 C   0  0  0  0  0  0  0  0  0  0  0  0
  144.6511  134.0559  162.2353 C   0  0  0  0  0  0  0  0  0  0  0  0
  145.3500  135.1789  162.2366 N   0  0  0  0  0  0  0  0  0  0  0  0
  149.7880  138.9684  157.2858 N   0  0  0  0  0  0  0  0  0  0  0  0
  150.5998  140.1900  157.3384 C   0  0  0  0  0  0  0  0  0  0  0  0
  150.7285  140.8823  155.9703 C   0  0  0  0  0  0  0  0  0  0  0  0
  151.2720  139.9744  155.0223 O   0  0  0  0  0  0  0  0  0  0  0  0
  150.4704  138.8100  154.8804 C   0  0  0  0  0  0  0  0  0  0  0  0
  150.3426  138.1011  156.2399 C   0  0  0  0  0  0  0  0  0  0  0  0
  150.9747  137.1884  160.0278 H   0  0  0  0  0  0  0  0  0  0  0  0
  151.7709  138.5342  159.2919 H   0  0  0  0  0  0  0  0  0  0  0  0
  151.4977  137.0643  158.3557 H   0  0  0  0  0  0  0  0  0  0  0  0
  149.3597  139.0212  159.3329 H   0  0  0  0  0  0  0  0  0  0  0  0
  147.6415  137.4939  158.4234 H   0  0  0  0  0  0  0  0  0  0  0  0
  148.8882  136.4106  157.8300 H   0  0  0  0  0  0  0  0  0  0  0  0
  149.3321  135.8119  160.1197 H   0  0  0  0  0  0  0  0  0  0  0  0
  148.6545  135.2072  162.0070 H   0  0  0  0  0  0  0  0  0  0  0  0
  148.6541  137.2829  163.3516 H   0  0  0  0  0  0  0  0  0  0  0  0
  147.9090  135.9698  164.2494 H   0  0  0  0  0  0  0  0  0  0  0  0
  146.9024  137.2148  163.5180 H   0  0  0  0  0  0  0  0  0  0  0  0
  147.6934  132.9079  161.9830 H   0  0  0  0  0  0  0  0  0  0  0  0
  145.1782  131.8610  162.1045 H   0  0  0  0  0  0  0  0  0  0  0  0
  143.5748  134.1130  162.3052 H   0  0  0  0  0  0  0  0  0  0  0  0
  150.1595  140.9171  158.0176 H   0  0  0  0  0  0  0  0  0  0  0  0
  151.5947  139.9573  157.7213 H   0  0  0  0  0  0  0  0  0  0  0  0
  149.7577  141.2429  155.6266 H   0  0  0  0  0  0  0  0  0  0  0  0
  151.3834  141.7504  156.0462 H   0  0  0  0  0  0  0  0  0  0  0  0
  149.4874  139.0793  154.4907 H   0  0  0  0  0  0  0  0  0  0  0  0
  150.9335  138.1468  154.1497 H   0  0  0  0  0  0  0  0  0  0  0  0
  151.3215  137.7298  156.5476 H   0  0  0  0  0  0  0  0  0  0  0  0
  149.7075  137.2307  156.0860 H   0  0  0  0  0  0  0  0  0  0  0  0
  1  2  1  0  0  0  0
  1 20  1  0  0  0  0
  1 21  1  0  0  0  0
  1 22  1  0  0  0  0
  2  3  1  0  0  0  0
  2 14  1  0  0  0  0
  2 23  1  0  0  0  0
  3  4  1  0  0  0  0
  3 24  1  0  0  0  0
  3 25  1  0  0  0  0
  4  5  1  0  0  0  0
  4 26  1  0  0  0  0
  5  6  2  0  0  0  0
  5  7  1  0  0  0  0
  7  8  1  0  0  0  0
  7  9  1  0  0  0  0
  7 27  1  0  0  0  0
  8 28  1  0  0  0  0
  8 29  1  0  0  0  0
  8 30  1  0  0  0  0
  9 13  1  0  0  0  0
  9 10  1  0  0  0  0
 10 11  2  0  0  0  0
 10 31  1  0  0  0  0
 11 12  1  0  0  0  0
 11 32  1  0  0  0  0
 12 13  2  0  0  0  0
 12 33  1  0  0  0  0
 14 19  1  0  0  0  0
 14 15  1  0  0  0  0
 15 16  1  0  0  0  0
 15 34  1  0  0  0  0
 15 35  1  0  0  0  0
 16 17  1  0  0  0  0
 16 36  1  0  0  0  0
 16 37  1  0  0  0  0
 17 18  1  0  0  0  0
 18 19  1  0  0  0  0
 18 38  1  0  0  0  0
 18 39  1  0  0  0  0
 19 40  1  0  0  0  0
 19 41  1  0  0  0  0
M  END
> <s_m_source_file>
AV-unprocessed.smi

> <i_m_source_file_index>
1601

> <i_lp_mmshare_version>
43012

> <i_f3d_flags>
0

> <s_epik_input>
W0NIMl0xW0NIMl1PW0NIMl1bQ0gyXU4xW0NASF0oW0NIM10pW0NIMl1bTkhdQyg9TylbQ0BIXShbQ0gzXSluMltjSF1bY0hdW2NIXW4y

> <s_epik_cmdline>
J2VwaWtfcHl0aG9uJywgJy1waCcsICc3LjAnLCAnLXRuJywgJzgnLCAnLW1hJywgJzIwMCcsICctbWV0YWxfYmluZGluZycsICctaW1hZScsICc8aW5maWxlLm1hZT4nLCAnLW9tYWUnLCAnPG91dGZpbGUubWFlPic=

> <r_lp_tautomer_probability>
1

> <r_epik_Ionization_Penalty>
0.203323

> <r_epik_Ionization_Penalty_Charging>
0

> <r_epik_Ionization_Penalty_Neutral>
0.203323

> <r_epik_State_Penalty>
0.193192

> <r_epik_Charging_Adjusted_Penalty>
0.193192

> <i_epik_Tot_Q>
0

> <i_epik_Tot_abs_Q>
0

> <r_epik_Metal_State_Penalty>
0.193187

> <b_epik_Metal_Only>
0

> <s_lp_Force_Field>
OPLS_2005

> <r_lp_Energy>
33.4287

> <b_lp_Chiralities_Consistent>
1

> <s_lp_Variant>
AV-unprocessed.smi:1601-3

> <Gold.Version>
5.8.1

> <Gold.Id.Protein>
6NUR|6NUR_protein|mol2

> <Gold.PLP.Fitness>
41.8135

> <Gold.PLP.PLP>
-36.1009

> <Gold.PLP.part.hbond>
-2.0000

> <Gold.PLP.part.metal>
0.0000

> <Gold.PLP.part.buried>
-5.9185

> <Gold.PLP.part.nonpolar>
-29.5116

> <Gold.PLP.part.repulsive>
0.2490

> <Gold.PLP.ligand.clash>
0.0000

> <Gold.PLP.ligand.torsion>
0.2275

> <Gold.PLP.Chemscore.Hbond>
2.0000

> <Gold.PLP.Chemscore.CHOScore>
0.0000

> <Gold.PLP.Chemscore.Metal>
0.0000

> <Gold.Chemscore.Hbonds>
donor molecule, donor type, donor heavy atom, donor atom, acceptor molecule, acceptor atom, score
      P1  H  6934  6947       L1     6  1.00
      P1  H  7989  7998       L1    17  1.00

> <Gold.PLP.Chemscore.Internal.Correction>
0.1676

> <Gold.Rescore>
     Score         DG    S(hbond)    S(metal)    S(lipo)     H(rot)  DE(clash)    DE(int)     intcor
     15.51     -16.05       1.89        0.00      75.48       1.79       0.03       0.52       ----

> <Gold.Chemscore.Fitness>
15.5086

> <Gold.Chemscore.DG>
-16.0544

> <Gold.Chemscore.ZeroCoef>
-5.4800

> <Gold.Chemscore.Hbond>
1.8919

> <Gold.Chemscore.Metal>
0.0000

> <Gold.Chemscore.Lipo>
75.4755

> <Gold.Chemscore.Internal_Hbond>
0.0000

> <Gold.Chemscore.DEClash>
0.0278

> <Gold.Chemscore.DEInternal>
0.5179

> <Gold.Chemscore.Rot>
1.7872

> <Gold.Chemscore.Internal.Correction>
   9.000000E+99

> <Gold.Chemscore.Hbonds>
donor molecule, donor type, donor heavy atom, donor atom, acceptor molecule, acceptor atom, score
      P1  H  6934  6947       L1     6  0.78
      P1  H  7989  7998       L1    17  0.65

> <Gold.Chemscore.Hbond.Weighted>
-6.3190

> <Gold.Chemscore.Metal.Weighted>
-0.0000

> <Gold.Chemscore.Lipo.Weighted>
-8.8306

> <Gold.Chemscore.Internal_Hbond.Weighted>
0.0000

> <Gold.Chemscore.DEClash.Weighted>
0.0278

> <Gold.Chemscore.DEInternal.Weighted>
0.5179

> <Gold.Chemscore.Rot.Weighted>
4.5752

> <Gold.Chemscore.Internal.Correction.Weighted>
   9.000000E+99

> <Gold.Protein.RotatedTorsions>
[ 6907 6896 6895 6894 ] final  -38.26 input  -60.11 | X-H torsion
[ 7974 7965 7964 7962 ] final  152.90 input  175.53 | X-H torsion
[ 8008 7997 7996 7995 ] final  -23.38 input   59.86 | X-H torsion
[ 10167 10162 10161 10158 ] final   79.60 input  -65.29 | X-H torsion
[ 10718 10713 10712 10709 ] final   93.58 input   66.30 | X-H torsion
[ 10763 10752 10751 10750 ] final -133.74 input  -60.55 | X-H torsion
[ 11005 11000 10999 10996 ] final   38.07 input  -57.11 | X-H torsion

> <Gold.Protein.ActiveResidues>
 VAL166  LYS551  ARG553  GLY616  TRP617  ASP618  TYR619  PRO620  LYS621  CYS622 
 ASP623  PHE694  ASN695  SER759  ASP760  ASP761  ALA762  ILE779  LEU786  VAL792 
 PHE793  MET794  SER795  GLU796  ALA797  LYS798  CYS799  TRP800  GLU811  SER814 

> <Gold.Protein.RotatedAtoms>
  151.0046  134.9349  159.7973 H   0  0  0  0  0  0  0  0  0  0  0  0  # atno 6907 bound_to 6896
  152.5287  134.3108  159.9123 H   0  0  0  0  0  0  0  0  0  0  0  0  # atno 6908 bound_to 6896
  151.3114  133.4037  159.2681 H   0  0  0  0  0  0  0  0  0  0  0  0  # atno 6909 bound_to 6896
  144.8191  139.6729  143.6108 H   0  0  0  0  0  0  0  0  0  0  0  0  # atno 7974 bound_to 7965
  154.4588  140.1982  156.0302 H   0  0  0  0  0  0  0  0  0  0  0  0  # atno 8008 bound_to 7997
  156.0800  140.3273  155.7654 H   0  0  0  0  0  0  0  0  0  0  0  0  # atno 8009 bound_to 7997
  155.5127  140.0563  157.2911 H   0  0  0  0  0  0  0  0  0  0  0  0  # atno 8010 bound_to 7997
  139.9586  144.5976  150.8093 H   0  0  0  0  0  0  0  0  0  0  0  0  # atno 10167 bound_to 10162
  157.6953  131.0483  150.4056 H   0  0  0  0  0  0  0  0  0  0  0  0  # atno 10718 bound_to 10713
  154.8729  135.3756  154.4621 H   0  0  0  0  0  0  0  0  0  0  0  0  # atno 10763 bound_to 10752
  153.5288  135.7028  153.5699 H   0  0  0  0  0  0  0  0  0  0  0  0  # atno 10764 bound_to 10752
  153.3912  135.3972  155.1890 H   0  0  0  0  0  0  0  0  0  0  0  0  # atno 10765 bound_to 10752
  140.2163  134.3695  155.8025 H   0  0  0  0  0  0  0  0  0  0  0  0  # atno 11005 bound_to 11000
  146.2495  139.6170  142.9436 LP  0  0  0  0  0  0  0  0  0  0  0  0  # atno 17320 bound_to 7965
  145.5146  141.0434  143.2469 LP  0  0  0  0  0  0  0  0  0  0  0  0  # atno 17321 bound_to 7965
  140.7560  143.3058  151.2967 LP  0  0  0  0  0  0  0  0  0  0  0  0  # atno 17342 bound_to 10162
  139.6572  144.0255  152.2667 LP  0  0  0  0  0  0  0  0  0  0  0  0  # atno 17343 bound_to 10162
  156.4445  130.3998  149.6676 LP  0  0  0  0  0  0  0  0  0  0  0  0  # atno 17370 bound_to 10713
  156.3847  130.7597  151.2593 LP  0  0  0  0  0  0  0  0  0  0  0  0  # atno 17371 bound_to 10713
  141.2225  133.7169  156.8501 LP  0  0  0  0  0  0  0  0  0  0  0  0  # atno 17394 bound_to 11000
  140.1897  134.8974  157.3046 LP  0  0  0  0  0  0  0  0  0  0  0  0  # atno 17395 bound_to 11000

$$$$
