#       Name:                AV-unprocessed.smi:3030
#       Creating user name   scv26
#       Creation time:       Fri Mar 27 16:48:37 2020


#       File generated by GOLD software.
#

@<TRIPOS>MOLECULE
AV-unprocessed.smi:3030
    56    57     1
SMALL
NO_CHARGES


@<TRIPOS>ATOM
      1 ****        -3.7560   5.3549   0.6609 C.3            1 S1                 0.0000
      2 ****        -3.9607   4.2630   1.7168 C.3            1 S1                 0.0000
      3 ****        -4.1194   2.9491   1.1104 N.pl3          1 S1                 0.0000
      4 ****        -5.3779   2.4431   0.8018 C.2            1 S1                 0.0000
      5 ****        -5.5935   1.2133   0.2966 C.2            1 S1                 0.0000
      6 ****        -4.4430   0.3212   0.0480 C.2            1 S1                 0.0000
      7 ****        -4.6040  -0.8087  -0.4135 O.2            1 S1                 0.0000
      8 ****        -3.0977   0.8597   0.3828 C.2            1 S1                 0.0000
      9 ****        -2.0096   0.0071   0.1335 N.am           1 S1                 0.0000
     10 ****        -0.7065   0.1759   0.4229 C.2            1 S1                 0.0000
     11 ****        -0.2140   1.1403   1.0076 O.2            1 S1                 0.0000
     12 ****         0.0133  -0.8685  -0.0103 N.am           1 S1                 0.0000
     13 ****         1.4608  -1.0205   0.1248 C.3            1 S1                 0.0000
     14 ****         1.7681  -1.7833   1.4297 C.3            1 S1                 0.0000
     15 ****         3.2765  -2.0184   1.6202 C.3            1 S1                 0.0000
     16 ****         3.5663  -2.7767   2.9236 C.3            1 S1                 0.0000
     17 ****         3.8546  -2.7533   0.3994 C.3            1 S1                 0.0000
     18 ****         3.5700  -1.9900  -0.9028 C.3            1 S1                 0.0000
     19 ****         2.0563  -1.7476  -1.1121 C.3            1 S1                 0.0000
     20 ****         1.7249  -1.0573  -2.4697 C.3            1 S1                 0.0000
     21 ****         2.0843  -1.9374  -3.6793 C.3            1 S1                 0.0000
     22 ****         2.3286   0.3510  -2.6236 C.3            1 S1                 0.0000
     23 ****        -3.0230   2.1193   0.8840 C.2            1 S1                 0.0000
     24 ****        -3.6400   6.3313   1.1312 H              1 S1                 0.0000
     25 ****        -4.6076   5.4109  -0.0178 H              1 S1                 0.0000
     26 ****        -2.8632   5.1639   0.0647 H              1 S1                 0.0000
     27 ****        -3.1127   4.2473   2.4026 H              1 S1                 0.0000
     28 ****        -4.8381   4.4931   2.3222 H              1 S1                 0.0000
     29 ****        -6.1923   3.1264   0.9948 H              1 S1                 0.0000
     30 ****        -6.5899   0.8638   0.0691 H              1 S1                 0.0000
     31 ****        -2.2564  -0.8589  -0.3234 H              1 S1                 0.0000
     32 ****        -0.4760  -1.6174  -0.4780 H              1 S1                 0.0000
     33 ****         1.9246  -0.0357   0.1984 H              1 S1                 0.0000
     34 ****         1.3766  -1.2254   2.2818 H              1 S1                 0.0000
     35 ****         1.2471  -2.7420   1.4259 H              1 S1                 0.0000
     36 ****         3.7639  -1.0448   1.6909 H              1 S1                 0.0000
     37 ****         3.1016  -3.7632   2.9206 H              1 S1                 0.0000
     38 ****         3.1845  -2.2319   3.7874 H              1 S1                 0.0000
     39 ****         4.6382  -2.9137   3.0687 H              1 S1                 0.0000
     40 ****         4.9310  -2.8828   0.5177 H              1 S1                 0.0000
     41 ****         3.4293  -3.7559   0.3341 H              1 S1                 0.0000
     42 ****         4.1036  -1.0396  -0.8790 H              1 S1                 0.0000
     43 ****         3.9869  -2.5571  -1.7341 H              1 S1                 0.0000
     44 ****         1.5854  -2.7317  -1.1471 H              1 S1                 0.0000
     45 ****         0.6428  -0.9357  -2.5203 H              1 S1                 0.0000
     46 ****         3.1623  -2.0440  -3.7998 H              1 S1                 0.0000
     47 ****         1.6976  -1.5043  -4.6023 H              1 S1                 0.0000
     48 ****         1.6562  -2.9356  -3.5840 H              1 S1                 0.0000
     49 ****         3.4181   0.3279  -2.6252 H              1 S1                 0.0000
     50 ****         2.0068   1.0191  -1.8253 H              1 S1                 0.0000
     51 ****         2.0137   0.8050  -3.5635 H              1 S1                 0.0000
     52 ****        -2.0908   2.5969   1.1391 H              1 S1                 0.0000
     53 ****        -5.5249  -1.1354  -0.6262 LP             1 S1                 0.0000
     54 ****        -3.8139  -1.3998  -0.5757 LP             1 S1                 0.0000
     55 ****        -0.7990   1.8912   1.3140 LP             1 S1                 0.0000
     56 ****         0.7711   1.1729   1.1763 LP             1 S1                 0.0000
@<TRIPOS>BOND
    1    1    2 1     
    2    1   24 1     
    3    1   25 1     
    4    1   26 1     
    5    2    3 1     
    6    2   27 1     
    7    2   28 1     
    8    3   23 1     
    9    3    4 1     
   10    4    5 2     
   11    4   29 1     
   12    5    6 1     
   13    5   30 1     
   14    6    7 2     
   15    6    8 1     
   16    8    9 1     
   17    8   23 2     
   18    9   10 am    
   19    9   31 1     
   20   10   11 2     
   21   10   12 am    
   22   12   13 1     
   23   12   32 1     
   24   13   19 1     
   25   13   14 1     
   26   13   33 1     
   27   14   15 1     
   28   14   34 1     
   29   14   35 1     
   30   15   16 1     
   31   15   17 1     
   32   15   36 1     
   33   16   37 1     
   34   16   38 1     
   35   16   39 1     
   36   17   18 1     
   37   17   40 1     
   38   17   41 1     
   39   18   19 1     
   40   18   42 1     
   41   18   43 1     
   42   19   20 1     
   43   19   44 1     
   44   20   21 1     
   45   20   22 1     
   46   20   45 1     
   47   21   46 1     
   48   21   47 1     
   49   21   48 1     
   50   22   49 1     
   51   22   50 1     
   52   22   51 1     
   53   23   52 1     
   54    7   53 1     
   55    7   54 1     
   56   11   55 1     
   57   11   56 1     
@<TRIPOS>SUBSTRUCTURE
      1 S1             1
@<TRIPOS>SET
LONE_PAIRS      STATIC     ATOMS    <user>   **** ""
4 53 54 55 56
DONOR_HYDROGENS      STATIC     ATOMS    <user>   **** ""
2 31 32
ATOM$BLUE        STATIC     ATOMS    COLORGROUP SYSTEM
4 53 54 55 56
ATOM$RED        STATIC     ATOMS    COLORGROUP SYSTEM
2 31 32
