#       Name:                AV-unprocessed.smi:591
#       Creating user name   scv26
#       Creation time:       Thu Mar 26 23:51:41 2020


#       File generated by GOLD software.
#

@<TRIPOS>MOLECULE
AV-unprocessed.smi:591
    46    47     1
SMALL
NO_CHARGES


@<TRIPOS>ATOM
      1 ****         0.6946   1.0840  -1.1733 O.2            1 S1                 0.0000
      2 ****         1.2631   0.4343  -0.2945 C.2            1 S1                 0.0000
      3 ****         2.7776   0.5607  -0.0744 C.3            1 S1                 0.0000
      4 ****         3.3457   1.8021  -0.6267 N.am           1 S1                 0.0000
      5 ****         3.9326   1.7257  -1.9053 C.2            1 S1                 0.0000
      6 ****         4.4937   2.7853  -2.5189 C.2            1 S1                 0.0000
      7 ****         5.0644   2.6859  -3.9251 C.3            1 S1                 0.0000
      8 ****         4.9795   3.8544  -4.5616 F              1 S1                 0.0000
      9 ****         6.3490   2.3366  -3.8682 F              1 S1                 0.0000
     10 ****         4.4165   1.7687  -4.6447 F              1 S1                 0.0000
     11 ****         4.4398   4.0465  -1.8059 C.2            1 S1                 0.0000
     12 ****         3.8707   4.1397  -0.5882 C.2            1 S1                 0.0000
     13 ****         3.2809   2.9740   0.0740 C.2            1 S1                 0.0000
     14 ****         2.7605   3.0462   1.1876 O.2            1 S1                 0.0000
     15 ****         0.6230  -0.4282   0.5074 N.am           1 S1                 0.0000
     16 ****        -0.8079  -0.6926   0.4544 C.3            1 S1                 0.0000
     17 ****        -1.2048  -1.7290   1.5161 C.3            1 S1                 0.0000
     18 ****        -2.7005  -1.9972   1.5478 C.2            1 S1                 0.0000
     19 ****        -3.4607  -1.6730   2.6122 C.2            1 S1                 0.0000
     20 ****        -4.9595  -1.9038   2.6929 C.3            1 S1                 0.0000
     21 ****        -5.5779  -2.2264   1.3223 C.3            1 S1                 0.0000
     22 ****        -4.7060  -3.2172   0.5410 C.3            1 S1                 0.0000
     23 ****        -3.2926  -2.6549   0.3059 C.3            1 S1                 0.0000
     24 ****         2.9957   0.4903   0.9931 H              1 S1                 0.0000
     25 ****         3.2591  -0.3107  -0.5203 H              1 S1                 0.0000
     26 ****         3.8874   0.7477  -2.3620 H              1 S1                 0.0000
     27 ****         4.8654   4.9320  -2.2546 H              1 S1                 0.0000
     28 ****         3.8494   5.0960  -0.0859 H              1 S1                 0.0000
     29 ****         1.1596  -0.9290   1.2010 H              1 S1                 0.0000
     30 ****        -1.3530   0.2385   0.6185 H              1 S1                 0.0000
     31 ****        -1.0673  -1.0488  -0.5435 H              1 S1                 0.0000
     32 ****        -0.6860  -2.6711   1.3348 H              1 S1                 0.0000
     33 ****        -0.8803  -1.3836   2.4988 H              1 S1                 0.0000
     34 ****        -3.0037  -1.2264   3.4834 H              1 S1                 0.0000
     35 ****        -5.1367  -2.7242   3.3888 H              1 S1                 0.0000
     36 ****        -5.4373  -1.0198   3.1159 H              1 S1                 0.0000
     37 ****        -6.5848  -2.6243   1.4516 H              1 S1                 0.0000
     38 ****        -5.6808  -1.3076   0.7432 H              1 S1                 0.0000
     39 ****        -4.6380  -4.1517   1.0998 H              1 S1                 0.0000
     40 ****        -5.1723  -3.4621  -0.4138 H              1 S1                 0.0000
     41 ****        -3.3220  -1.9123  -0.4919 H              1 S1                 0.0000
     42 ****        -2.6349  -3.4561  -0.0325 H              1 S1                 0.0000
     43 ****         1.2201   1.7045  -1.7554 LP             1 S1                 0.0000
     44 ****        -0.2924   0.9910  -1.3045 LP             1 S1                 0.0000
     45 ****         2.3666   2.2295   1.6094 LP             1 S1                 0.0000
     46 ****         2.7317   3.9216   1.6703 LP             1 S1                 0.0000
@<TRIPOS>BOND
    1    1    2 2     
    2    2    3 1     
    3    2   15 am    
    4    3    4 1     
    5    3   24 1     
    6    3   25 1     
    7    4   13 am    
    8    4    5 1     
    9    5    6 2     
   10    5   26 1     
   11    6    7 1     
   12    6   11 1     
   13    7    8 1     
   14    7    9 1     
   15    7   10 1     
   16   11   12 2     
   17   11   27 1     
   18   12   13 1     
   19   12   28 1     
   20   13   14 2     
   21   15   16 1     
   22   15   29 1     
   23   16   17 1     
   24   16   30 1     
   25   16   31 1     
   26   17   18 1     
   27   17   32 1     
   28   17   33 1     
   29   18   23 1     
   30   18   19 2     
   31   19   20 1     
   32   19   34 1     
   33   20   21 1     
   34   20   35 1     
   35   20   36 1     
   36   21   22 1     
   37   21   37 1     
   38   21   38 1     
   39   22   23 1     
   40   22   39 1     
   41   22   40 1     
   42   23   41 1     
   43   23   42 1     
   44    1   43 1     
   45    1   44 1     
   46   14   45 1     
   47   14   46 1     
@<TRIPOS>SUBSTRUCTURE
      1 S1             1
@<TRIPOS>SET
LONE_PAIRS      STATIC     ATOMS    <user>   **** ""
4 43 44 45 46
DONOR_HYDROGENS      STATIC     ATOMS    <user>   **** ""
1 29
ATOM$BLUE        STATIC     ATOMS    COLORGROUP SYSTEM
4 43 44 45 46
ATOM$RED        STATIC     ATOMS    COLORGROUP SYSTEM
1 29
