AV-unprocessed.smi:90|AV-procd|sdf|832|dock1
  -GOLD-   2262017253D 1   1.00000     0.00000
 Structure written by MMmdl.
 64 67  0  0  0  0  0  0  0  0  2 V2000
  150.9807  137.4964  159.5207 C   0  0  0  0  0  0  0  0  0  0  0  0
  151.0926  137.8969  158.1204 N   0  0  0  0  0  0  0  0  0  0  0  0
  151.7224  139.1753  157.8045 C   0  0  0  0  0  0  0  0  0  0  0  0
  151.1790  140.3232  158.6786 C   0  0  0  0  0  0  0  0  0  0  0  0
  151.9291  141.6701  158.5059 C   0  0  1  0  0  0  0  0  0  0  0  0
  151.0126  142.7168  157.8222 C   0  0  0  0  0  0  0  0  0  0  0  0
  151.7016  144.0744  157.6511 C   0  0  0  0  0  0  0  0  0  0  0  0
  152.2043  144.5711  159.0063 C   0  0  0  0  0  0  0  0  0  0  0  0
  153.1248  143.5241  159.6454 C   0  0  0  0  0  0  0  0  0  0  0  0
  152.4388  142.2140  159.8076 N   0  3  2  0  0  0  0  0  0  0  0  0
  153.2949  141.2751  160.5742 C   0  0  0  0  0  0  0  0  0  0  0  0
  150.5392  137.1088  157.1538 C   0  0  0  0  0  0  0  0  0  0  0  0
  150.7126  137.4805  155.8567 N   0  0  0  0  0  0  0  0  0  0  0  0
  150.1827  136.7673  154.8606 C   0  0  0  0  0  0  0  0  0  0  0  0
  149.4552  135.6536  154.9310 N   0  0  0  0  0  0  0  0  0  0  0  0
  149.2841  135.2555  156.2228 C   0  0  0  0  0  0  0  0  0  0  0  0
  149.7825  135.9167  157.3850 C   0  0  0  0  0  0  0  0  0  0  0  0
  149.3986  135.2022  158.5159 N   0  0  0  0  0  0  0  0  0  0  0  0
  148.7089  134.1973  158.0541 C   0  0  0  0  0  0  0  0  0  0  0  0
  148.6028  134.1410  156.6841 N   0  0  0  0  0  0  0  0  0  0  0  0
  147.8898  133.1328  155.9104 C   0  0  0  0  0  0  0  0  0  0  0  0
  148.7753  132.3057  154.9300 C   0  0  0  0  0  0  0  0  0  0  0  0
  149.2244  133.1833  153.7268 C   0  0  0  0  0  0  0  0  0  0  0  0
  148.1340  133.5909  152.9247 O   0  0  0  0  0  0  0  0  0  0  0  0
  150.0262  131.7642  155.6699 C   0  0  0  0  0  0  0  0  0  0  0  0
  150.7783  130.6787  154.8768 C   0  0  0  0  0  0  0  0  0  0  0  0
  149.8960  129.6167  154.5398 O   0  0  0  0  0  0  0  0  0  0  0  0
  148.8207  130.0378  153.7108 C   0  0  0  0  0  0  0  0  0  0  0  0
  147.9620  131.0733  154.4583 C   0  0  0  0  0  0  0  0  0  0  0  0
  149.9427  137.2846  159.7794 H   0  0  0  0  0  0  0  0  0  0  0  0
  151.3350  138.2850  160.1849 H   0  0  0  0  0  0  0  0  0  0  0  0
  151.5768  136.6042  159.7148 H   0  0  0  0  0  0  0  0  0  0  0  0
  152.7949  139.0760  157.9756 H   0  0  0  0  0  0  0  0  0  0  0  0
  151.6263  139.3786  156.7404 H   0  0  0  0  0  0  0  0  0  0  0  0
  150.1160  140.4715  158.4861 H   0  0  0  0  0  0  0  0  0  0  0  0
  151.2522  139.9769  159.7075 H   0  0  0  0  0  0  0  0  0  0  0  0
  152.7945  141.4964  157.8638 H   0  0  0  0  0  0  0  0  0  0  0  0
  150.6960  142.3747  156.8380 H   0  0  0  0  0  0  0  0  0  0  0  0
  150.1020  142.8463  158.4091 H   0  0  0  0  0  0  0  0  0  0  0  0
  152.5361  143.9823  156.9548 H   0  0  0  0  0  0  0  0  0  0  0  0
  151.0093  144.7968  157.2180 H   0  0  0  0  0  0  0  0  0  0  0  0
  152.7380  145.5142  158.8838 H   0  0  0  0  0  0  0  0  0  0  0  0
  151.3589  144.7739  159.6654 H   0  0  0  0  0  0  0  0  0  0  0  0
  154.0233  143.3932  159.0398 H   0  0  0  0  0  0  0  0  0  0  0  0
  153.4516  143.8925  160.6186 H   0  0  0  0  0  0  0  0  0  0  0  0
  154.1060  140.8894  159.9552 H   0  0  0  0  0  0  0  0  0  0  0  0
  152.7218  140.4365  160.9670 H   0  0  0  0  0  0  0  0  0  0  0  0
  153.7388  141.7685  161.4395 H   0  0  0  0  0  0  0  0  0  0  0  0
  150.3662  137.1445  153.8653 H   0  0  0  0  0  0  0  0  0  0  0  0
  148.2615  133.4601  158.7050 H   0  0  0  0  0  0  0  0  0  0  0  0
  147.4016  132.4659  156.6222 H   0  0  0  0  0  0  0  0  0  0  0  0
  147.0789  133.6247  155.3719 H   0  0  0  0  0  0  0  0  0  0  0  0
  149.7520  134.0725  154.0713 H   0  0  0  0  0  0  0  0  0  0  0  0
  149.9223  132.6544  153.0799 H   0  0  0  0  0  0  0  0  0  0  0  0
  148.3410  134.4285  152.5389 H   0  0  0  0  0  0  0  0  0  0  0  0
  150.7156  132.5753  155.9061 H   0  0  0  0  0  0  0  0  0  0  0  0
  149.7224  131.3342  156.6252 H   0  0  0  0  0  0  0  0  0  0  0  0
  151.2400  131.0842  153.9764 H   0  0  0  0  0  0  0  0  0  0  0  0
  151.5891  130.2749  155.4834 H   0  0  0  0  0  0  0  0  0  0  0  0
  149.1993  130.4341  152.7681 H   0  0  0  0  0  0  0  0  0  0  0  0
  148.2153  129.1663  153.4609 H   0  0  0  0  0  0  0  0  0  0  0  0
  147.5214  130.5770  155.3241 H   0  0  0  0  0  0  0  0  0  0  0  0
  147.1211  131.3772  153.8344 H   0  0  0  0  0  0  0  0  0  0  0  0
  151.6276  142.3920  160.3825 H   0  0  0  0  0  0  0  0  0  0  0  0
  1  2  1  0  0  0  0
  1 30  1  0  0  0  0
  1 31  1  0  0  0  0
  1 32  1  0  0  0  0
  2  3  1  0  0  0  0
  2 12  1  0  0  0  0
  3  4  1  0  0  0  0
  3 33  1  0  0  0  0
  3 34  1  0  0  0  0
  4  5  1  0  0  0  0
  4 35  1  0  0  0  0
  4 36  1  0  0  0  0
  5 10  1  0  0  0  0
  5  6  1  0  0  0  0
  5 37  1  0  0  0  0
  6  7  1  0  0  0  0
  6 38  1  0  0  0  0
  6 39  1  0  0  0  0
  7  8  1  0  0  0  0
  7 40  1  0  0  0  0
  7 41  1  0  0  0  0
  8  9  1  0  0  0  0
  8 42  1  0  0  0  0
  8 43  1  0  0  0  0
  9 10  1  0  0  0  0
  9 44  1  0  0  0  0
  9 45  1  0  0  0  0
 10 11  1  0  0  0  0
 10 64  1  0  0  0  0
 11 46  1  0  0  0  0
 11 47  1  0  0  0  0
 11 48  1  0  0  0  0
 12 17  1  0  0  0  0
 12 13  2  0  0  0  0
 13 14  1  0  0  0  0
 14 15  2  0  0  0  0
 14 49  1  0  0  0  0
 15 16  1  0  0  0  0
 16 20  1  0  0  0  0
 16 17  2  0  0  0  0
 17 18  1  0  0  0  0
 18 19  2  0  0  0  0
 19 20  1  0  0  0  0
 19 50  1  0  0  0  0
 20 21  1  0  0  0  0
 21 22  1  0  0  0  0
 21 51  1  0  0  0  0
 21 52  1  0  0  0  0
 22 29  1  0  0  0  0
 22 23  1  0  0  0  0
 22 25  1  0  0  0  0
 23 24  1  0  0  0  0
 23 53  1  0  0  0  0
 23 54  1  0  0  0  0
 24 55  1  0  0  0  0
 25 26  1  0  0  0  0
 25 56  1  0  0  0  0
 25 57  1  0  0  0  0
 26 27  1  0  0  0  0
 26 58  1  0  0  0  0
 26 59  1  0  0  0  0
 27 28  1  0  0  0  0
 28 29  1  0  0  0  0
 28 60  1  0  0  0  0
 28 61  1  0  0  0  0
 29 62  1  0  0  0  0
 29 63  1  0  0  0  0
M  CHG  1  10   1
M  END
> <s_m_source_file>
AV-unprocessed.smi

> <i_m_source_file_index>
90

> <i_lp_mmshare_version>
43012

> <i_f3d_flags>
0

> <s_epik_input>
W0NIM11OMVtDSDJdW0NIMl1bQ0gyXVtDSDJdW0NASF0xW0NIMl1bQ0gyXU4oW0NIM10pYyhuW2NIXW4yKWMoYzIzKW5bY0hdbjNbQ0gyXUM0KFtDSDJdW09IXSlbQ0gyXVtDSDJdT1tDSDJdW0NIMl00

> <s_epik_cmdline>
J2VwaWtfcHl0aG9uJywgJy1waCcsICc3LjAnLCAnLXRuJywgJzgnLCAnLW1hJywgJzIwMCcsICctbWV0YWxfYmluZGluZycsICctaW1hZScsICc8aW5maWxlLm1hZT4nLCAnLW9tYWUnLCAnPG91dGZpbGUubWFlPic=

> <r_lp_tautomer_probability>
1

> <r_epik_Ionization_Penalty>
0.00234895

> <r_epik_Ionization_Penalty_Charging>
0.00106647

> <r_epik_Ionization_Penalty_Neutral>
0.00128248

> <r_epik_State_Penalty>
-0

> <r_epik_Charging_Adjusted_Penalty>
0.00106647

> <i_epik_Tot_Q>
1

> <i_epik_Tot_abs_Q>
1

> <r_epik_Metal_State_Penalty>
-0

> <b_epik_Metal_Only>
0

> <s_lp_Force_Field>
OPLS_2005

> <r_lp_Energy>
42.6574

> <b_lp_Chiralities_Consistent>
1

> <s_lp_Variant>
AV-unprocessed.smi:90-4

> <Gold.Version>
5.8.1

> <Gold.Id.Protein>
6NUR|6NUR_protein|mol2

> <Gold.PLP.Fitness>
49.7263

> <Gold.PLP.PLP>
-43.5025

> <Gold.PLP.part.hbond>
-2.0000

> <Gold.PLP.part.metal>
0.0000

> <Gold.PLP.part.buried>
-6.9373

> <Gold.PLP.part.nonpolar>
-37.3512

> <Gold.PLP.part.repulsive>
0.4104

> <Gold.PLP.ligand.clash>
0.0000

> <Gold.PLP.ligand.torsion>
0.9865

> <Gold.PLP.Chemscore.Hbond>
1.7180

> <Gold.PLP.Chemscore.CHOScore>
0.9202

> <Gold.PLP.Chemscore.Metal>
0.0000

> <Gold.Chemscore.Hbonds>
donor molecule, donor type, donor heavy atom, donor atom, acceptor molecule, acceptor atom, score
      L1  H    24    55       P1  7948  0.85
      P1  H  6896  6907       L1    18  0.77
      L1  C    14    49       P1  7948  0.64
      L1  C    14    49       P1  7949  0.19

> <Gold.PLP.Chemscore.Internal.Correction>
0.2822

> <Gold.Rescore>
     Score         DG    S(hbond)    S(metal)    S(lipo)     H(rot)  DE(clash)    DE(int)     intcor
     13.01     -16.84       1.56        0.00     112.52       2.73       0.27       3.56       ----

> <Gold.Chemscore.Fitness>
13.0148

> <Gold.Chemscore.DG>
-16.8426

> <Gold.Chemscore.ZeroCoef>
-5.4800

> <Gold.Chemscore.Hbond>
1.5564

> <Gold.Chemscore.Metal>
0.0000

> <Gold.Chemscore.Lipo>
112.5234

> <Gold.Chemscore.Internal_Hbond>
0.0000

> <Gold.Chemscore.DEClash>
0.2678

> <Gold.Chemscore.DEInternal>
3.5600

> <Gold.Chemscore.Rot>
2.7347

> <Gold.Chemscore.Internal.Correction>
   9.000000E+99

> <Gold.Chemscore.Hbonds>
donor molecule, donor type, donor heavy atom, donor atom, acceptor molecule, acceptor atom, score
      L1  H    24    55       P1  7948  0.14
      P1  H  6896  6907       L1    18  0.11

> <Gold.Chemscore.Hbond.Weighted>
-5.1983

> <Gold.Chemscore.Metal.Weighted>
-0.0000

> <Gold.Chemscore.Lipo.Weighted>
-13.1652

> <Gold.Chemscore.Internal_Hbond.Weighted>
0.0000

> <Gold.Chemscore.DEClash.Weighted>
0.2678

> <Gold.Chemscore.DEInternal.Weighted>
3.5600

> <Gold.Chemscore.Rot.Weighted>
7.0009

> <Gold.Chemscore.Internal.Correction.Weighted>
   9.000000E+99

> <Gold.Protein.RotatedTorsions>
[ 6907 6896 6895 6894 ] final  -97.44 input  -60.11 | X-H torsion
[ 7974 7965 7964 7962 ] final  -44.17 input  175.53 | X-H torsion
[ 8008 7997 7996 7995 ] final   26.37 input   59.86 | X-H torsion
[ 10167 10162 10161 10158 ] final    3.46 input  -65.29 | X-H torsion
[ 10718 10713 10712 10709 ] final   53.45 input   66.30 | X-H torsion
[ 10763 10752 10751 10750 ] final   12.57 input  -60.55 | X-H torsion
[ 11005 11000 10999 10996 ] final -130.20 input  -57.11 | X-H torsion

> <Gold.Protein.ActiveResidues>
 VAL166  LYS551  ARG553  GLY616  TRP617  ASP618  TYR619  PRO620  LYS621  CYS622 
 ASP623  PHE694  ASN695  SER759  ASP760  ASP761  ALA762  ILE779  LEU786  VAL792 
 PHE793  MET794  SER795  GLU796  ALA797  LYS798  CYS799  TRP800  GLU811  SER814 

> <Gold.Protein.RotatedAtoms>
  150.7016  134.1349  159.4083 H   0  0  0  0  0  0  0  0  0  0  0  0  # atno 6907 bound_to 6896
  151.9334  135.0244  160.0540 H   0  0  0  0  0  0  0  0  0  0  0  0  # atno 6908 bound_to 6896
  152.2156  133.4909  159.5171 H   0  0  0  0  0  0  0  0  0  0  0  0  # atno 6909 bound_to 6896
  145.9947  140.7142  142.9300 H   0  0  0  0  0  0  0  0  0  0  0  0  # atno 7974 bound_to 7965
  155.0262  140.3153  155.4775 H   0  0  0  0  0  0  0  0  0  0  0  0  # atno 8008 bound_to 7997
  156.2882  140.2188  156.5325 H   0  0  0  0  0  0  0  0  0  0  0  0  # atno 8009 bound_to 7997
  154.7409  140.0473  157.0798 H   0  0  0  0  0  0  0  0  0  0  0  0  # atno 8010 bound_to 7997
  140.6584  143.7367  150.7695 H   0  0  0  0  0  0  0  0  0  0  0  0  # atno 10167 bound_to 10162
  157.5168  130.8537  149.8505 H   0  0  0  0  0  0  0  0  0  0  0  0  # atno 10718 bound_to 10713
  153.1809  135.6827  153.8479 H   0  0  0  0  0  0  0  0  0  0  0  0  # atno 10763 bound_to 10752
  153.7811  135.3182  155.3367 H   0  0  0  0  0  0  0  0  0  0  0  0  # atno 10764 bound_to 10752
  154.8059  135.4749  154.0486 H   0  0  0  0  0  0  0  0  0  0  0  0  # atno 10765 bound_to 10752
  140.9366  134.1248  157.4188 H   0  0  0  0  0  0  0  0  0  0  0  0  # atno 11005 bound_to 11000
  144.6900  140.3129  143.7245 LP  0  0  0  0  0  0  0  0  0  0  0  0  # atno 17320 bound_to 7965
  145.7578  139.1814  143.2284 LP  0  0  0  0  0  0  0  0  0  0  0  0  # atno 17321 bound_to 7965
  140.1031  143.4769  152.2414 LP  0  0  0  0  0  0  0  0  0  0  0  0  # atno 17342 bound_to 10162
  139.5812  144.7511  151.3634 LP  0  0  0  0  0  0  0  0  0  0  0  0  # atno 17343 bound_to 10162
  156.0325  130.3760  150.1648 LP  0  0  0  0  0  0  0  0  0  0  0  0  # atno 17370 bound_to 10713
  156.9836  130.9872  151.3431 LP  0  0  0  0  0  0  0  0  0  0  0  0  # atno 17371 bound_to 10713
  139.8809  135.0023  156.6118 LP  0  0  0  0  0  0  0  0  0  0  0  0  # atno 17394 bound_to 11000
  140.7790  133.8675  155.8552 LP  0  0  0  0  0  0  0  0  0  0  0  0  # atno 17395 bound_to 11000

$$$$
