#       Name:                AV-unprocessed.smi:832
#       Creating user name   scv26
#       Creation time:       Fri Mar 27 01:33:23 2020


#       File generated by GOLD software.
#

@<TRIPOS>MOLECULE
AV-unprocessed.smi:832
    47    48     1
SMALL
NO_CHARGES


@<TRIPOS>ATOM
      1 ****        -4.7005   5.6332  -0.8398 C.3            1 S1                 0.0000
      2 ****        -4.0546   4.3111  -0.6031 C.2            1 S1                 0.0000
      3 ****        -3.6065   3.6832   0.5251 C.2            1 S1                 0.0000
      4 ****        -3.1046   2.4513   0.0272 C.2            1 S1                 0.0000
      5 ****        -2.5344   1.4902   0.9006 N.am           1 S1                 0.0000
      6 ****        -2.0305   0.2874   0.5757 C.2            1 S1                 0.0000
      7 ****        -1.9938  -0.1825  -0.5619 O.2            1 S1                 0.0000
      8 ****        -1.5576  -0.3528   1.6553 N.am           1 S1                 0.0000
      9 ****        -0.9670  -1.6880   1.6551 C.3            1 S1                 0.0000
     10 ****         0.5624  -1.6522   1.4666 C.3            1 S1                 0.0000
     11 ****         1.2219  -3.0269   1.5528 C.3            1 S1                 0.0000
     12 ****         2.5287  -2.8878   0.7605 C.3            1 S1                 0.0000
     13 ****         2.4368  -1.6269  -0.0179 N.4            1 S1                 1.0000
     14 ****         2.9757  -1.6954  -1.4056 C.3            1 S1                 0.0000
     15 ****         4.4707  -2.0672  -1.4019 C.3            1 S1                 0.0000
     16 ****         2.7774  -0.3674  -2.1619 C.3            1 S1                 0.0000
     17 ****         1.0400  -1.1567   0.1009 C.3            1 S1                 0.0000
     18 ****        -3.2339   2.3378  -1.2858 N.2            1 S1                 0.0000
     19 ****        -3.8450   3.5284  -1.6962 O.3            1 S1                 0.0000
     20 ****        -4.5711   6.2895   0.0209 H              1 S1                 0.0000
     21 ****        -5.7693   5.5139  -1.0170 H              1 S1                 0.0000
     22 ****        -4.2659   6.1272  -1.7091 H              1 S1                 0.0000
     23 ****        -3.6351   4.0493   1.5406 H              1 S1                 0.0000
     24 ****        -2.5069   1.7475   1.8761 H              1 S1                 0.0000
     25 ****        -1.6307   0.1095   2.5500 H              1 S1                 0.0000
     26 ****        -1.2021  -2.1497   2.6143 H              1 S1                 0.0000
     27 ****        -1.4356  -2.3148   0.8941 H              1 S1                 0.0000
     28 ****         1.0024  -1.0158   2.2366 H              1 S1                 0.0000
     29 ****         1.3883  -3.3460   2.5823 H              1 S1                 0.0000
     30 ****         0.5881  -3.7753   1.0746 H              1 S1                 0.0000
     31 ****         3.3908  -2.8306   1.4259 H              1 S1                 0.0000
     32 ****         2.6628  -3.7585   0.1168 H              1 S1                 0.0000
     33 ****         2.4301  -2.4727  -1.9429 H              1 S1                 0.0000
     34 ****         4.8667  -2.0999  -2.4174 H              1 S1                 0.0000
     35 ****         4.6502  -3.0478  -0.9614 H              1 S1                 0.0000
     36 ****         5.0586  -1.3384  -0.8428 H              1 S1                 0.0000
     37 ****         3.2251  -0.4134  -3.1552 H              1 S1                 0.0000
     38 ****         3.2394   0.4657  -1.6311 H              1 S1                 0.0000
     39 ****         1.7227  -0.1312  -2.3045 H              1 S1                 0.0000
     40 ****         0.4359  -1.6027  -0.6913 H              1 S1                 0.0000
     41 ****         0.9742  -0.0718   0.0119 H              1 S1                 0.0000
     42 ****         2.9961  -0.9510   0.4827 H              1 S1                 0.0000
     43 ****        -2.3579   0.3420  -1.3315 LP             1 S1                 0.0000
     44 ****        -1.5999  -1.0886  -0.7161 LP             1 S1                 0.0000
     45 ****        -2.9552   1.5679  -1.8600 LP             1 S1                 0.0000
     46 ****        -3.2505   4.0061  -2.3430 LP             1 S1                 0.0000
     47 ****        -4.7194   3.3235  -2.1359 LP             1 S1                 0.0000
@<TRIPOS>BOND
    1    1    2 1     
    2    1   20 1     
    3    1   21 1     
    4    1   22 1     
    5    2   19 1     
    6    2    3 2     
    7    3    4 1     
    8    3   23 1     
    9    4    5 1     
   10    4   18 2     
   11    5    6 am    
   12    5   24 1     
   13    6    7 2     
   14    6    8 am    
   15    8    9 1     
   16    8   25 1     
   17    9   10 1     
   18    9   26 1     
   19    9   27 1     
   20   10   17 1     
   21   10   11 1     
   22   10   28 1     
   23   11   12 1     
   24   11   29 1     
   25   11   30 1     
   26   12   13 1     
   27   12   31 1     
   28   12   32 1     
   29   13   14 1     
   30   13   17 1     
   31   13   42 1     
   32   14   15 1     
   33   14   16 1     
   34   14   33 1     
   35   15   34 1     
   36   15   35 1     
   37   15   36 1     
   38   16   37 1     
   39   16   38 1     
   40   16   39 1     
   41   17   40 1     
   42   17   41 1     
   43   18   19 1     
   44    7   43 1     
   45    7   44 1     
   46   18   45 1     
   47   19   46 1     
   48   19   47 1     
@<TRIPOS>SUBSTRUCTURE
      1 S1             1
@<TRIPOS>SET
LONE_PAIRS      STATIC     ATOMS    <user>   **** ""
5 43 44 45 46 47
DONOR_HYDROGENS      STATIC     ATOMS    <user>   **** ""
3 24 25 42
ATOM$BLUE        STATIC     ATOMS    COLORGROUP SYSTEM
5 43 44 45 46 47
ATOM$RED        STATIC     ATOMS    COLORGROUP SYSTEM
3 24 25 42
