AV-unprocessed.smi:1803|AV-procd|sdf|7287|dock2
  -GOLD-   22720 8543D 1   1.00000     0.00000
 Structure written by MMmdl.
 35 37  0  0  0  0  0  0  0  0  3 V2000
  147.7109  134.9381  156.3007 O   0  0  0  0  0  0  0  0  0  0  0  0
  148.0075  135.5408  155.2701 C   0  0  0  0  0  0  0  0  0  0  0  0
  148.3217  136.8621  155.2408 N   0  5  0  0  0  0  0  0  0  0  0  0
  149.5601  137.3075  154.9583 C   0  0  0  0  0  0  0  0  0  0  0  0
  150.6572  136.5564  155.1466 N   0  0  0  0  0  0  0  0  0  0  0  0
  151.8304  137.2039  154.7844 N   0  0  0  0  0  0  0  0  0  0  0  0
  151.5883  138.4384  154.3440 C   0  0  0  0  0  0  0  0  0  0  0  0
  149.9043  138.9174  154.3203 S   0  0  0  0  0  0  0  0  0  0  0  0
  148.0262  134.8661  154.1054 N   0  0  0  0  0  0  0  0  0  0  0  0
  147.7083  133.4542  153.9315 C   0  0  2  0  0  0  0  0  0  0  0  0
  148.6738  132.5012  154.6537 C   0  0  0  0  0  0  0  0  0  0  0  0
  148.8831  131.3210  153.6850 C   0  0  0  0  0  0  0  0  0  0  0  0
  147.9886  131.5561  152.5281 N   0  3  1  0  0  0  0  0  0  0  0  0
  146.7093  130.8042  152.6473 C   0  0  0  0  0  0  0  0  0  0  0  0
  145.6893  131.2257  151.5812 C   0  0  0  0  0  0  0  0  0  0  0  0
  145.4111  132.7278  151.6802 C   0  0  0  0  0  0  0  0  0  0  0  0
  146.7218  133.5032  151.5086 C   0  0  0  0  0  0  0  0  0  0  0  0
  147.8376  133.0296  152.4668 C   0  0  1  0  0  0  0  0  0  0  0  0
  152.4058  139.0697  154.0293 H   0  0  0  0  0  0  0  0  0  0  0  0
  148.2810  135.3825  153.2760 H   0  0  0  0  0  0  0  0  0  0  0  0
  146.6903  133.2653  154.2761 H   0  0  0  0  0  0  0  0  0  0  0  0
  149.6300  132.9827  154.8645 H   0  0  0  0  0  0  0  0  0  0  0  0
  148.2557  132.1741  155.6062 H   0  0  0  0  0  0  0  0  0  0  0  0
  149.9129  131.3230  153.3260 H   0  0  0  0  0  0  0  0  0  0  0  0
  148.7094  130.3544  154.1600 H   0  0  0  0  0  0  0  0  0  0  0  0
  146.9160  129.7370  152.5599 H   0  0  0  0  0  0  0  0  0  0  0  0
  146.2789  130.9572  153.6384 H   0  0  0  0  0  0  0  0  0  0  0  0
  146.0644  130.9789  150.5870 H   0  0  0  0  0  0  0  0  0  0  0  0
  144.7623  130.6670  151.7128 H   0  0  0  0  0  0  0  0  0  0  0  0
  144.6946  133.0299  150.9160 H   0  0  0  0  0  0  0  0  0  0  0  0
  144.9565  132.9627  152.6432 H   0  0  0  0  0  0  0  0  0  0  0  0
  147.0670  133.3754  150.4817 H   0  0  0  0  0  0  0  0  0  0  0  0
  146.5461  134.5720  151.6344 H   0  0  0  0  0  0  0  0  0  0  0  0
  148.7833  133.4233  152.0883 H   0  0  0  0  0  0  0  0  0  0  0  0
  148.4442  131.2426  151.6833 H   0  0  0  0  0  0  0  0  0  0  0  0
  1  2  2  0  0  0  0
  2  3  1  0  0  0  0
  2  9  1  0  0  0  0
  3  4  1  0  0  0  0
  4  8  1  0  0  0  0
  4  5  2  0  0  0  0
  5  6  1  0  0  0  0
  6  7  2  0  0  0  0
  7  8  1  0  0  0  0
  7 19  1  0  0  0  0
  9 10  1  0  0  0  0
  9 20  1  0  0  0  0
 10 18  1  0  0  0  0
 10 11  1  0  0  0  0
 10 21  1  0  0  0  0
 11 12  1  0  0  0  0
 11 22  1  0  0  0  0
 11 23  1  0  0  0  0
 12 13  1  0  0  0  0
 12 24  1  0  0  0  0
 12 25  1  0  0  0  0
 13 18  1  0  0  0  0
 13 14  1  0  0  0  0
 13 35  1  0  0  0  0
 14 15  1  0  0  0  0
 14 26  1  0  0  0  0
 14 27  1  0  0  0  0
 15 16  1  0  0  0  0
 15 28  1  0  0  0  0
 15 29  1  0  0  0  0
 16 17  1  0  0  0  0
 16 30  1  0  0  0  0
 16 31  1  0  0  0  0
 17 18  1  0  0  0  0
 17 32  1  0  0  0  0
 17 33  1  0  0  0  0
 18 34  1  0  0  0  0
M  CHG  1   3  -1
M  CHG  1  13   1
M  END
> <s_m_source_file>
AV-unprocessed.smi

> <i_m_source_file_index>
1803

> <i_lp_mmshare_version>
43012

> <i_f3d_flags>
0

> <s_epik_input>
czFbY0hdbm5jMVtOSF1DKD1PKVtOSF1bQ0BIXShbQ0gyXVtDSDJdMilbQ0BASF0oTjIzKVtDSDJdW0NIMl1bQ0gyXVtDSDJdMw==

> <s_epik_cmdline>
J2VwaWtfcHl0aG9uJywgJy1waCcsICc3LjAnLCAnLXRuJywgJzgnLCAnLW1hJywgJzIwMCcsICctbWV0YWxfYmluZGluZycsICctaW1hZScsICc8aW5maWxlLm1hZT4nLCAnLW9tYWUnLCAnPG91dGZpbGUubWFlPic=

> <r_lp_tautomer_probability>
1

> <r_epik_Ionization_Penalty>
3.78828

> <r_epik_Ionization_Penalty_Charging>
3.7591

> <r_epik_Ionization_Penalty_Neutral>
0.0291838

> <r_epik_State_Penalty>
3.757

> <r_epik_Charging_Adjusted_Penalty>
7.51609

> <i_epik_Tot_Q>
0

> <i_epik_Tot_abs_Q>
2

> <r_epik_Metal_State_Penalty>
0.558016

> <b_epik_Metal_Only>
1

> <s_lp_Force_Field>
OPLS_2005

> <r_lp_Energy>
31.4386

> <b_lp_Chiralities_Consistent>
1

> <s_lp_Variant>
AV-unprocessed.smi:1803-9

> <Gold.Version>
5.8.1

> <Gold.Id.Protein>
6NUR|6NUR_protein|mol2

> <Gold.PLP.Fitness>
35.6344

> <Gold.PLP.PLP>
-28.2745

> <Gold.PLP.part.hbond>
-2.9951

> <Gold.PLP.part.metal>
0.0000

> <Gold.PLP.part.buried>
-4.7293

> <Gold.PLP.part.nonpolar>
-21.7512

> <Gold.PLP.part.repulsive>
0.3557

> <Gold.PLP.ligand.clash>
0.0000

> <Gold.PLP.ligand.torsion>
0.7782

> <Gold.PLP.Chemscore.Hbond>
2.9673

> <Gold.PLP.Chemscore.CHOScore>
0.0000

> <Gold.PLP.Chemscore.Metal>
0.0000

> <Gold.Chemscore.Hbonds>
donor molecule, donor type, donor heavy atom, donor atom, acceptor molecule, acceptor atom, score
      L1  H     9    20       P1  7948  1.00
      L1  H    13    35       P1 10747  1.00
      P1  H 10752 10764       L1     6  0.95

> <Gold.PLP.Chemscore.Internal.Correction>
0.0145

> <Gold.Rescore>
     Score         DG    S(hbond)    S(metal)    S(lipo)     H(rot)  DE(clash)    DE(int)     intcor
     19.39     -20.21       2.89        0.00      65.22       1.00       0.02       0.81       ----

> <Gold.Chemscore.Fitness>
19.3880

> <Gold.Chemscore.DG>
-20.2141

> <Gold.Chemscore.ZeroCoef>
-5.4800

> <Gold.Chemscore.Hbond>
2.8932

> <Gold.Chemscore.Metal>
0.0000

> <Gold.Chemscore.Lipo>
65.2211

> <Gold.Chemscore.Internal_Hbond>
0.0000

> <Gold.Chemscore.DEClash>
0.0166

> <Gold.Chemscore.DEInternal>
0.8094

> <Gold.Chemscore.Rot>
1.0000

> <Gold.Chemscore.Internal.Correction>
   9.000000E+99

> <Gold.Chemscore.Hbonds>
donor molecule, donor type, donor heavy atom, donor atom, acceptor molecule, acceptor atom, score
      L1  H     9    20       P1  7948  0.99
      L1  H    13    35       P1 10747  0.94
      P1  H 10752 10764       L1     6  0.20

> <Gold.Chemscore.Hbond.Weighted>
-9.6632

> <Gold.Chemscore.Metal.Weighted>
-0.0000

> <Gold.Chemscore.Lipo.Weighted>
-7.6309

> <Gold.Chemscore.Internal_Hbond.Weighted>
0.0000

> <Gold.Chemscore.DEClash.Weighted>
0.0166

> <Gold.Chemscore.DEInternal.Weighted>
0.8094

> <Gold.Chemscore.Rot.Weighted>
2.5600

> <Gold.Chemscore.Internal.Correction.Weighted>
   9.000000E+99

> <Gold.Protein.RotatedTorsions>
[ 6907 6896 6895 6894 ] final  163.56 input  -60.11 | X-H torsion
[ 7974 7965 7964 7962 ] final   27.60 input  175.53 | X-H torsion
[ 8008 7997 7996 7995 ] final  -40.81 input   59.86 | X-H torsion
[ 10167 10162 10161 10158 ] final  -85.49 input  -65.29 | X-H torsion
[ 10718 10713 10712 10709 ] final -104.27 input   66.30 | X-H torsion
[ 10763 10752 10751 10750 ] final  -68.31 input  -60.55 | X-H torsion
[ 11005 11000 10999 10996 ] final   51.90 input  -57.11 | X-H torsion

> <Gold.Protein.ActiveResidues>
 VAL166  LYS551  ARG553  GLY616  TRP617  ASP618  TYR619  PRO620  LYS621  CYS622 
 ASP623  PHE694  ASN695  SER759  ASP760  ASP761  ALA762  ILE779  LEU786  VAL792 
 PHE793  MET794  SER795  GLU796  ALA797  LYS798  CYS799  TRP800  GLU811  SER814 

> <Gold.Protein.RotatedAtoms>
  151.9234  133.3591  159.3904 H   0  0  0  0  0  0  0  0  0  0  0  0  # atno 6907 bound_to 6896
  150.7032  134.4612  159.5391 H   0  0  0  0  0  0  0  0  0  0  0  0  # atno 6908 bound_to 6896
  152.2239  134.8386  160.0533 H   0  0  0  0  0  0  0  0  0  0  0  0  # atno 6909 bound_to 6896
  146.1775  139.7169  142.8924 H   0  0  0  0  0  0  0  0  0  0  0  0  # atno 7974 bound_to 7965
  154.4009  140.1515  156.3088 H   0  0  0  0  0  0  0  0  0  0  0  0  # atno 8008 bound_to 7997
  155.8634  140.3452  155.5750 H   0  0  0  0  0  0  0  0  0  0  0  0  # atno 8009 bound_to 7997
  155.7855  140.0849  157.2027 H   0  0  0  0  0  0  0  0  0  0  0  0  # atno 8010 bound_to 7997
  140.4032  143.2654  151.9115 H   0  0  0  0  0  0  0  0  0  0  0  0  # atno 10167 bound_to 10162
  156.0298  130.5507  150.7372 H   0  0  0  0  0  0  0  0  0  0  0  0  # atno 10718 bound_to 10713
  154.3872  135.6061  153.5823 H   0  0  0  0  0  0  0  0  0  0  0  0  # atno 10763 bound_to 10752
  152.9787  135.5875  154.4341 H   0  0  0  0  0  0  0  0  0  0  0  0  # atno 10764 bound_to 10752
  154.4119  135.2844  155.2009 H   0  0  0  0  0  0  0  0  0  0  0  0  # atno 10765 bound_to 10752
  140.0894  134.5230  155.8867 H   0  0  0  0  0  0  0  0  0  0  0  0  # atno 11005 bound_to 11000
  145.4170  141.0402  143.2985 LP  0  0  0  0  0  0  0  0  0  0  0  0  # atno 17320 bound_to 7965
  144.8260  139.5709  143.6965 LP  0  0  0  0  0  0  0  0  0  0  0  0  # atno 17321 bound_to 7965
  139.4784  144.5612  151.8236 LP  0  0  0  0  0  0  0  0  0  0  0  0  # atno 17342 bound_to 10162
  140.4717  144.1577  150.5919 LP  0  0  0  0  0  0  0  0  0  0  0  0  # atno 17343 bound_to 10162
  157.4950  131.0914  151.0382 LP  0  0  0  0  0  0  0  0  0  0  0  0  # atno 17370 bound_to 10713
  157.0778  130.5890  149.5414 LP  0  0  0  0  0  0  0  0  0  0  0  0  # atno 17371 bound_to 10713
  141.2073  133.6663  156.6297 LP  0  0  0  0  0  0  0  0  0  0  0  0  # atno 17394 bound_to 11000
  140.3374  134.7878  157.4372 LP  0  0  0  0  0  0  0  0  0  0  0  0  # atno 17395 bound_to 11000

$$$$
