AV-unprocessed.smi:2406|AV-procd|sdf|9516|dock2
  -GOLD-   2272013143D 1   1.00000     0.00000
 Structure written by MMmdl.
 36 37  0  0  0  0  0  0  0  0  1 V2000
  146.5588  140.0722  153.1823 C   0  0  0  0  0  0  0  0  0  0  0  0
  147.3186  138.9987  153.7262 O   0  0  0  0  0  0  0  0  0  0  0  0
  148.5269  139.2931  154.3229 C   0  0  0  0  0  0  0  0  0  0  0  0
  148.7024  140.5451  154.9472 C   0  0  0  0  0  0  0  0  0  0  0  0
  149.9531  140.8044  155.5512 C   0  0  0  0  0  0  0  0  0  0  0  0
  150.0845  142.0727  156.1762 N   0  0  0  0  0  0  0  0  0  0  0  0
  150.8594  142.4053  157.2234 C   0  0  0  0  0  0  0  0  0  0  0  0
  151.6249  141.6411  157.8121 O   0  0  0  0  0  0  0  0  0  0  0  0
  150.6992  143.6965  157.5522 N   0  0  0  0  0  0  0  0  0  0  0  0
  151.3723  144.3920  158.6487 C   0  0  2  0  0  0  0  0  0  0  0  0
  152.8313  144.6570  158.2529 C   0  0  0  0  0  0  0  0  0  0  0  0
  151.2809  143.5810  159.9568 C   0  0  0  0  0  0  0  0  0  0  0  0
  152.5592  143.6000  160.7766 C   0  0  0  0  0  0  0  0  0  0  0  0
  153.3047  142.3230  161.0811 C   0  0  0  0  0  0  0  0  0  0  0  0
  152.5836  143.0597  162.1864 C   0  0  0  0  0  0  0  0  0  0  0  0
  150.9309  139.8656  155.5120 N   0  0  0  0  0  0  0  0  0  0  0  0
  150.6661  138.7125  154.8950 C   0  0  0  0  0  0  0  0  0  0  0  0
  149.5217  138.3733  154.3003 N   0  0  0  0  0  0  0  0  0  0  0  0
  145.6399  139.6798  152.7471 H   0  0  0  0  0  0  0  0  0  0  0  0
  147.1064  140.5864  152.3912 H   0  0  0  0  0  0  0  0  0  0  0  0
  146.2787  140.7938  153.9510 H   0  0  0  0  0  0  0  0  0  0  0  0
  147.9039  141.2727  154.9620 H   0  0  0  0  0  0  0  0  0  0  0  0
  149.5126  142.8086  155.7893 H   0  0  0  0  0  0  0  0  0  0  0  0
  150.0511  144.2443  157.0057 H   0  0  0  0  0  0  0  0  0  0  0  0
  150.9036  145.3631  158.8178 H   0  0  0  0  0  0  0  0  0  0  0  0
  153.3587  145.1969  159.0398 H   0  0  0  0  0  0  0  0  0  0  0  0
  152.8889  145.2603  157.3464 H   0  0  0  0  0  0  0  0  0  0  0  0
  153.3696  143.7264  158.0698 H   0  0  0  0  0  0  0  0  0  0  0  0
  150.4671  143.9571  160.5779 H   0  0  0  0  0  0  0  0  0  0  0  0
  151.0340  142.5448  159.7219 H   0  0  0  0  0  0  0  0  0  0  0  0
  153.1788  144.4778  160.6033 H   0  0  0  0  0  0  0  0  0  0  0  0
  152.8702  141.3877  160.7331 H   0  0  0  0  0  0  0  0  0  0  0  0
  154.3919  142.3647  161.0704 H   0  0  0  0  0  0  0  0  0  0  0  0
  153.1912  143.5896  162.9171 H   0  0  0  0  0  0  0  0  0  0  0  0
  151.6721  142.6106  162.5759 H   0  0  0  0  0  0  0  0  0  0  0  0
  151.4581  137.9788  154.8766 H   0  0  0  0  0  0  0  0  0  0  0  0
  1  2  1  0  0  0  0
  1 19  1  0  0  0  0
  1 20  1  0  0  0  0
  1 21  1  0  0  0  0
  2  3  1  0  0  0  0
  3 18  1  0  0  0  0
  3  4  2  0  0  0  0
  4  5  1  0  0  0  0
  4 22  1  0  0  0  0
  5  6  1  0  0  0  0
  5 16  2  0  0  0  0
  6  7  1  0  0  0  0
  6 23  1  0  0  0  0
  7  8  2  0  0  0  0
  7  9  1  0  0  0  0
  9 10  1  0  0  0  0
  9 24  1  0  0  0  0
 10 11  1  0  0  0  0
 10 12  1  0  0  0  0
 10 25  1  0  0  0  0
 11 26  1  0  0  0  0
 11 27  1  0  0  0  0
 11 28  1  0  0  0  0
 12 13  1  0  0  0  0
 12 29  1  0  0  0  0
 12 30  1  0  0  0  0
 13 15  1  0  0  0  0
 13 14  1  0  0  0  0
 13 31  1  0  0  0  0
 14 15  1  0  0  0  0
 14 32  1  0  0  0  0
 14 33  1  0  0  0  0
 15 34  1  0  0  0  0
 15 35  1  0  0  0  0
 16 17  1  0  0  0  0
 17 18  2  0  0  0  0
 17 36  1  0  0  0  0
M  END
> <s_m_source_file>
AV-unprocessed.smi

> <i_m_source_file_index>
2406

> <i_lp_mmshare_version>
43012

> <i_f3d_flags>
0

> <s_epik_input>
W0NIM11PYzFbY0hdYyhuW2NIXW4xKVtOSF1DKD1PKVtOSF1bQ0BIXShbQ0gzXSlbQ0gyXVtDSF0yW0NIMl1bQ0gyXTI=

> <s_epik_cmdline>
J2VwaWtfcHl0aG9uJywgJy1waCcsICc3LjAnLCAnLXRuJywgJzgnLCAnLW1hJywgJzIwMCcsICctbWV0YWxfYmluZGluZycsICctaW1hZScsICc8aW5maWxlLm1hZT4nLCAnLW9tYWUnLCAnPG91dGZpbGUubWFlPic=

> <r_lp_tautomer_probability>
1

> <r_epik_Ionization_Penalty>
2.82876e-05

> <r_epik_Ionization_Penalty_Charging>
0

> <r_epik_Ionization_Penalty_Neutral>
2.82876e-05

> <r_epik_State_Penalty>
-0

> <r_epik_Charging_Adjusted_Penalty>
0

> <i_epik_Tot_Q>
0

> <i_epik_Tot_abs_Q>
0

> <r_epik_Metal_State_Penalty>
-0

> <b_epik_Metal_Only>
0

> <s_lp_Force_Field>
OPLS_2005

> <r_lp_Energy>
11.282

> <b_lp_Chiralities_Consistent>
1

> <s_lp_Variant>
AV-unprocessed.smi:2406-1

> <Gold.Version>
5.8.1

> <Gold.Id.Protein>
6NUR|6NUR_protein|mol2

> <Gold.PLP.Fitness>
44.1951

> <Gold.PLP.PLP>
-40.6268

> <Gold.PLP.part.hbond>
-3.0000

> <Gold.PLP.part.metal>
0.0000

> <Gold.PLP.part.buried>
-3.7581

> <Gold.PLP.part.nonpolar>
-35.6461

> <Gold.PLP.part.repulsive>
0.6801

> <Gold.PLP.ligand.clash>
0.0146

> <Gold.PLP.ligand.torsion>
1.6797

> <Gold.PLP.Chemscore.Hbond>
2.1225

> <Gold.PLP.Chemscore.CHOScore>
0.0000

> <Gold.PLP.Chemscore.Metal>
0.0000

> <Gold.Chemscore.Hbonds>
donor molecule, donor type, donor heavy atom, donor atom, acceptor molecule, acceptor atom, score
      L1  H     6    23       P1  8028  1.00
      L1  H     9    24       P1  8028  1.00
      P1  H  7989  7998       L1    16  0.04

> <Gold.PLP.Chemscore.Internal.Correction>
0.5749

> <Gold.Rescore>
     Score         DG    S(hbond)    S(metal)    S(lipo)     H(rot)  DE(clash)    DE(int)     intcor
     13.92     -17.54       1.89        0.00      89.62       1.85       0.06       3.56       ----

> <Gold.Chemscore.Fitness>
13.9242

> <Gold.Chemscore.DG>
-17.5440

> <Gold.Chemscore.ZeroCoef>
-5.4800

> <Gold.Chemscore.Hbond>
1.8873

> <Gold.Chemscore.Metal>
0.0000

> <Gold.Chemscore.Lipo>
89.6227

> <Gold.Chemscore.Internal_Hbond>
0.0000

> <Gold.Chemscore.DEClash>
0.0621

> <Gold.Chemscore.DEInternal>
3.5578

> <Gold.Chemscore.Rot>
1.8458

> <Gold.Chemscore.Internal.Correction>
   9.000000E+99

> <Gold.Chemscore.Hbonds>
donor molecule, donor type, donor heavy atom, donor atom, acceptor molecule, acceptor atom, score
      L1  H     6    23       P1  8028  0.92
      L1  H     9    24       P1  8028  0.82

> <Gold.Chemscore.Hbond.Weighted>
-6.3036

> <Gold.Chemscore.Metal.Weighted>
-0.0000

> <Gold.Chemscore.Lipo.Weighted>
-10.4859

> <Gold.Chemscore.Internal_Hbond.Weighted>
0.0000

> <Gold.Chemscore.DEClash.Weighted>
0.0621

> <Gold.Chemscore.DEInternal.Weighted>
3.5578

> <Gold.Chemscore.Rot.Weighted>
4.7254

> <Gold.Chemscore.Internal.Correction.Weighted>
   9.000000E+99

> <Gold.Protein.RotatedTorsions>
[ 6907 6896 6895 6894 ] final   -6.08 input  -60.11 | X-H torsion
[ 7974 7965 7964 7962 ] final  -57.22 input  175.53 | X-H torsion
[ 8008 7997 7996 7995 ] final  114.87 input   59.86 | X-H torsion
[ 10167 10162 10161 10158 ] final   39.72 input  -65.29 | X-H torsion
[ 10718 10713 10712 10709 ] final   74.52 input   66.30 | X-H torsion
[ 10763 10752 10751 10750 ] final  178.71 input  -60.55 | X-H torsion
[ 11005 11000 10999 10996 ] final  -30.70 input  -57.11 | X-H torsion

> <Gold.Protein.ActiveResidues>
 VAL166  LYS551  ARG553  GLY616  TRP617  ASP618  TYR619  PRO620  LYS621  CYS622 
 ASP623  PHE694  ASN695  SER759  ASP760  ASP761  ALA762  ILE779  LEU786  VAL792 
 PHE793  MET794  SER795  GLU796  ALA797  LYS798  CYS799  TRP800  GLU811  SER814 

> <Gold.Protein.RotatedAtoms>
  151.4712  135.1046  159.9751 H   0  0  0  0  0  0  0  0  0  0  0  0  # atno 6907 bound_to 6896
  152.4816  133.8263  159.7090 H   0  0  0  0  0  0  0  0  0  0  0  0  # atno 6908 bound_to 6896
  150.8891  133.7206  159.2936 H   0  0  0  0  0  0  0  0  0  0  0  0  # atno 6909 bound_to 6896
  145.8536  140.8335  142.9973 H   0  0  0  0  0  0  0  0  0  0  0  0  # atno 7974 bound_to 7965
  156.2347  140.2950  156.0282 H   0  0  0  0  0  0  0  0  0  0  0  0  # atno 8008 bound_to 7997
  155.2124  140.0413  157.2953 H   0  0  0  0  0  0  0  0  0  0  0  0  # atno 8009 bound_to 7997
  154.6058  140.2439  155.7740 H   0  0  0  0  0  0  0  0  0  0  0  0  # atno 8010 bound_to 7997
  140.3812  144.1977  150.6130 H   0  0  0  0  0  0  0  0  0  0  0  0  # atno 10167 bound_to 10162
  157.6596  130.9682  150.1223 H   0  0  0  0  0  0  0  0  0  0  0  0  # atno 10718 bound_to 10713
  154.5113  135.2788  155.1340 H   0  0  0  0  0  0  0  0  0  0  0  0  # atno 10763 bound_to 10752
  154.2935  135.6262  153.5398 H   0  0  0  0  0  0  0  0  0  0  0  0  # atno 10764 bound_to 10752
  152.9919  135.5679  154.5579 H   0  0  0  0  0  0  0  0  0  0  0  0  # atno 10765 bound_to 10752
  140.9405  133.7282  156.1069 H   0  0  0  0  0  0  0  0  0  0  0  0  # atno 11005 bound_to 11000
  144.6728  140.0990  143.7461 LP  0  0  0  0  0  0  0  0  0  0  0  0  # atno 17320 bound_to 7965
  145.9329  139.2618  143.1314 LP  0  0  0  0  0  0  0  0  0  0  0  0  # atno 17321 bound_to 7965
  140.4936  143.2339  151.8783 LP  0  0  0  0  0  0  0  0  0  0  0  0  # atno 17342 bound_to 10162
  139.4795  144.5139  151.8895 LP  0  0  0  0  0  0  0  0  0  0  0  0  # atno 17343 bound_to 10162
  156.2091  130.3665  149.8692 LP  0  0  0  0  0  0  0  0  0  0  0  0  # atno 17370 bound_to 10713
  156.6576  130.8769  151.3542 LP  0  0  0  0  0  0  0  0  0  0  0  0  # atno 17371 bound_to 10713
  140.7741  134.3800  157.5501 LP  0  0  0  0  0  0  0  0  0  0  0  0  # atno 17394 bound_to 11000
  139.8819  134.9040  156.2868 LP  0  0  0  0  0  0  0  0  0  0  0  0  # atno 17395 bound_to 11000

$$$$
