AV-unprocessed.smi:2726|AV-procd|sdf|10520|dock3
  -GOLD-   2272014563D 1   1.00000     0.00000
 Structure written by MMmdl.
 42 43  0  0  0  0  0  0  0  0  2 V2000
  151.1220  144.4732  159.3324 C   0  0  0  0  0  0  0  0  0  0  0  0
  151.5503  143.4821  158.2357 C   0  0  0  0  0  0  0  0  0  0  0  0
  152.7032  144.1067  157.4216 C   0  0  0  0  0  0  0  0  0  0  0  0
  152.0050  142.1648  158.8996 C   0  0  0  0  0  0  0  0  0  0  0  0
  150.3771  143.2567  157.3821 N   0  0  0  0  0  0  0  0  0  0  0  0
  150.0303  142.1408  156.7181 C   0  0  0  0  0  0  0  0  0  0  0  0
  150.6782  141.0949  156.7415 O   0  0  0  0  0  0  0  0  0  0  0  0
  148.9002  142.3312  156.0153 N   0  0  0  0  0  0  0  0  0  0  0  0
  148.2085  141.4043  155.1895 C   0  0  0  0  0  0  0  0  0  0  0  0
  148.8769  140.2137  154.8323 C   0  0  0  0  0  0  0  0  0  0  0  0
  148.2346  139.2718  154.0028 C   0  0  0  0  0  0  0  0  0  0  0  0
  146.9292  139.5409  153.5296 C   0  0  0  0  0  0  0  0  0  0  0  0
  146.2022  138.6725  152.7036 N   0  0  0  0  0  0  0  0  0  0  0  0
  146.7491  138.4858  151.3699 C   0  0  0  0  0  0  0  0  0  0  0  0
  146.0681  137.2296  150.8210 C   0  0  0  0  0  0  0  0  0  0  0  0
  145.5903  136.4662  152.0620 C   0  0  0  0  0  0  0  0  0  0  0  0
  146.0100  137.3390  153.2481 C   0  0  0  0  0  0  0  0  0  0  0  0
  146.3280  140.6975  153.8833 N   0  3  0  0  0  0  0  0  0  0  0  0
  146.9066  141.6245  154.6771 C   0  0  0  0  0  0  0  0  0  0  0  0
  151.9475  144.6984  160.0086 H   0  0  0  0  0  0  0  0  0  0  0  0
  150.3055  144.0732  159.9352 H   0  0  0  0  0  0  0  0  0  0  0  0
  150.7834  145.4180  158.9052 H   0  0  0  0  0  0  0  0  0  0  0  0
  152.3860  145.0234  156.9233 H   0  0  0  0  0  0  0  0  0  0  0  0
  153.0808  143.4291  156.6559 H   0  0  0  0  0  0  0  0  0  0  0  0
  153.5457  144.3598  158.0660 H   0  0  0  0  0  0  0  0  0  0  0  0
  152.8160  142.3417  159.6070 H   0  0  0  0  0  0  0  0  0  0  0  0
  152.3719  141.4420  158.1710 H   0  0  0  0  0  0  0  0  0  0  0  0
  151.1887  141.6941  159.4486 H   0  0  0  0  0  0  0  0  0  0  0  0
  149.7612  144.0504  157.2826 H   0  0  0  0  0  0  0  0  0  0  0  0
  148.5217  143.2669  156.0296 H   0  0  0  0  0  0  0  0  0  0  0  0
  149.8750  140.0165  155.1960 H   0  0  0  0  0  0  0  0  0  0  0  0
  148.7429  138.3564  153.7377 H   0  0  0  0  0  0  0  0  0  0  0  0
  146.5527  139.3546  150.7408 H   0  0  0  0  0  0  0  0  0  0  0  0
  147.8290  138.3385  151.4115 H   0  0  0  0  0  0  0  0  0  0  0  0
  145.2125  137.5021  150.2020 H   0  0  0  0  0  0  0  0  0  0  0  0
  146.7480  136.6400  150.2053 H   0  0  0  0  0  0  0  0  0  0  0  0
  144.5055  136.3560  152.0360 H   0  0  0  0  0  0  0  0  0  0  0  0
  146.0239  135.4678  152.1272 H   0  0  0  0  0  0  0  0  0  0  0  0
  146.9384  136.9637  153.6807 H   0  0  0  0  0  0  0  0  0  0  0  0
  145.2513  137.3417  154.0314 H   0  0  0  0  0  0  0  0  0  0  0  0
  146.3074  142.5044  154.8564 H   0  0  0  0  0  0  0  0  0  0  0  0
  145.3885  140.8823  153.5307 H   0  0  0  0  0  0  0  0  0  0  0  0
  1  2  1  0  0  0  0
  1 20  1  0  0  0  0
  1 21  1  0  0  0  0
  1 22  1  0  0  0  0
  2  3  1  0  0  0  0
  2  4  1  0  0  0  0
  2  5  1  0  0  0  0
  3 23  1  0  0  0  0
  3 24  1  0  0  0  0
  3 25  1  0  0  0  0
  4 26  1  0  0  0  0
  4 27  1  0  0  0  0
  4 28  1  0  0  0  0
  5  6  1  0  0  0  0
  5 29  1  0  0  0  0
  6  7  2  0  0  0  0
  6  8  1  0  0  0  0
  8  9  1  0  0  0  0
  8 30  1  0  0  0  0
  9 19  1  0  0  0  0
  9 10  2  0  0  0  0
 10 11  1  0  0  0  0
 10 31  1  0  0  0  0
 11 12  2  0  0  0  0
 11 32  1  0  0  0  0
 12 13  1  0  0  0  0
 12 18  1  0  0  0  0
 13 17  1  0  0  0  0
 13 14  1  0  0  0  0
 14 15  1  0  0  0  0
 14 33  1  0  0  0  0
 14 34  1  0  0  0  0
 15 16  1  0  0  0  0
 15 35  1  0  0  0  0
 15 36  1  0  0  0  0
 16 17  1  0  0  0  0
 16 37  1  0  0  0  0
 16 38  1  0  0  0  0
 17 39  1  0  0  0  0
 17 40  1  0  0  0  0
 18 19  2  0  0  0  0
 18 42  1  0  0  0  0
 19 41  1  0  0  0  0
M  CHG  1  18   1
M  END
> <s_m_source_file>
AV-unprocessed.smi

> <i_m_source_file_index>
2726

> <i_lp_mmshare_version>
43012

> <i_f3d_flags>
0

> <s_epik_input>
W0NIM11DKFtDSDNdKShbQ0gzXSlbTkhdQyg9TylbTkhdYzFbY0hdW2NIXWMobltjSF0xKU4yW0NIMl1bQ0gyXVtDSDJdW0NIMl0y

> <s_epik_cmdline>
J2VwaWtfcHl0aG9uJywgJy1waCcsICc3LjAnLCAnLXRuJywgJzgnLCAnLW1hJywgJzIwMCcsICctbWV0YWxfYmluZGluZycsICctaW1hZScsICc8aW5maWxlLm1hZT4nLCAnLW9tYWUnLCAnPG91dGZpbGUubWFlPic=

> <r_lp_tautomer_probability>
0.999994

> <r_epik_Ionization_Penalty>
1.07826

> <r_epik_Ionization_Penalty_Charging>
1.07824

> <r_epik_Ionization_Penalty_Neutral>
2.30307e-05

> <r_epik_State_Penalty>
1.13344

> <r_epik_Charging_Adjusted_Penalty>
2.21168

> <i_epik_Tot_Q>
1

> <i_epik_Tot_abs_Q>
1

> <r_epik_Metal_State_Penalty>
1.22394

> <b_epik_Metal_Only>
0

> <s_lp_Force_Field>
OPLS_2005

> <r_lp_Energy>
40.4449

> <b_lp_Chiralities_Consistent>
1

> <s_lp_Variant>
AV-unprocessed.smi:2726-2

> <Gold.Version>
5.8.1

> <Gold.Id.Protein>
6NUR|6NUR_protein|mol2

> <Gold.PLP.Fitness>
37.9503

> <Gold.PLP.PLP>
-28.9369

> <Gold.PLP.part.hbond>
-2.6341

> <Gold.PLP.part.metal>
0.0000

> <Gold.PLP.part.buried>
2.6736

> <Gold.PLP.part.nonpolar>
-30.6250

> <Gold.PLP.part.repulsive>
0.6179

> <Gold.PLP.ligand.clash>
0.0007

> <Gold.PLP.ligand.torsion>
0.6354

> <Gold.PLP.Chemscore.Hbond>
3.4225

> <Gold.PLP.Chemscore.CHOScore>
0.0000

> <Gold.PLP.Chemscore.Metal>
0.0000

> <Gold.Chemscore.Hbonds>
donor molecule, donor type, donor heavy atom, donor atom, acceptor molecule, acceptor atom, score
      L1  H     5    29       P1  8028  0.59
      L1  H     8    30       P1  8028  0.85
      L1  H    18    42       P1 10175  1.95

> <Gold.PLP.Chemscore.Internal.Correction>
0.0175

> <Gold.Rescore>
     Score         DG    S(hbond)    S(metal)    S(lipo)     H(rot)  DE(clash)    DE(int)     intcor
     16.04     -22.81       2.88        0.00      91.67       1.18       3.29       3.48       ----

> <Gold.Chemscore.Fitness>
16.0383

> <Gold.Chemscore.DG>
-22.8087

> <Gold.Chemscore.ZeroCoef>
-5.4800

> <Gold.Chemscore.Hbond>
2.8836

> <Gold.Chemscore.Metal>
0.0000

> <Gold.Chemscore.Lipo>
91.6749

> <Gold.Chemscore.Internal_Hbond>
0.0000

> <Gold.Chemscore.DEClash>
3.2859

> <Gold.Chemscore.DEInternal>
3.4845

> <Gold.Chemscore.Rot>
1.1830

> <Gold.Chemscore.Internal.Correction>
   9.000000E+99

> <Gold.Chemscore.Hbonds>
donor molecule, donor type, donor heavy atom, donor atom, acceptor molecule, acceptor atom, score
      L1  H     5    29       P1  8028  0.36
      L1  H     8    30       P1  8028  0.75
      L1  H    18    42       P1 10175  0.71

> <Gold.Chemscore.Hbond.Weighted>
-9.6313

> <Gold.Chemscore.Metal.Weighted>
-0.0000

> <Gold.Chemscore.Lipo.Weighted>
-10.7260

> <Gold.Chemscore.Internal_Hbond.Weighted>
0.0000

> <Gold.Chemscore.DEClash.Weighted>
3.2859

> <Gold.Chemscore.DEInternal.Weighted>
3.4845

> <Gold.Chemscore.Rot.Weighted>
3.0285

> <Gold.Chemscore.Internal.Correction.Weighted>
   9.000000E+99

> <Gold.Protein.RotatedTorsions>
[ 6907 6896 6895 6894 ] final   43.72 input  -60.11 | X-H torsion
[ 7974 7965 7964 7962 ] final  -98.58 input  175.53 | X-H torsion
[ 8008 7997 7996 7995 ] final   63.32 input   59.86 | X-H torsion
[ 10167 10162 10161 10158 ] final   35.10 input  -65.29 | X-H torsion
[ 10718 10713 10712 10709 ] final  -52.09 input   66.30 | X-H torsion
[ 10763 10752 10751 10750 ] final  -24.05 input  -60.55 | X-H torsion
[ 11005 11000 10999 10996 ] final   11.12 input  -57.11 | X-H torsion

> <Gold.Protein.ActiveResidues>
 VAL166  LYS551  ARG553  GLY616  TRP617  ASP618  TYR619  PRO620  LYS621  CYS622 
 ASP623  PHE694  ASN695  SER759  ASP760  ASP761  ALA762  ILE779  LEU786  VAL792 
 PHE793  MET794  SER795  GLU796  ALA797  LYS798  CYS799  TRP800  GLU811  SER814 

> <Gold.Protein.RotatedAtoms>
  152.2237  134.8388  160.0482 H   0  0  0  0  0  0  0  0  0  0  0  0  # atno 6907 bound_to 6896
  151.9163  133.3569  159.3889 H   0  0  0  0  0  0  0  0  0  0  0  0  # atno 6908 bound_to 6896
  150.7007  134.4606  159.5423 H   0  0  0  0  0  0  0  0  0  0  0  0  # atno 6909 bound_to 6896
  145.3188  140.9417  143.2727 H   0  0  0  0  0  0  0  0  0  0  0  0  # atno 7974 bound_to 7965
  155.6284  140.3496  155.4675 H   0  0  0  0  0  0  0  0  0  0  0  0  # atno 8008 bound_to 7997
  156.0023  140.1216  157.0559 H   0  0  0  0  0  0  0  0  0  0  0  0  # atno 8009 bound_to 7997
  154.4253  140.1098  156.5700 H   0  0  0  0  0  0  0  0  0  0  0  0  # atno 8010 bound_to 7997
  140.4254  144.1401  150.6152 H   0  0  0  0  0  0  0  0  0  0  0  0  # atno 10167 bound_to 10162
  156.1652  130.4149  149.9731 H   0  0  0  0  0  0  0  0  0  0  0  0  # atno 10718 bound_to 10713
  153.6775  135.6968  153.5128 H   0  0  0  0  0  0  0  0  0  0  0  0  # atno 10763 bound_to 10752
  153.2510  135.4275  155.0797 H   0  0  0  0  0  0  0  0  0  0  0  0  # atno 10764 bound_to 10752
  154.8409  135.3531  154.6319 H   0  0  0  0  0  0  0  0  0  0  0  0  # atno 10765 bound_to 10752
  140.5068  134.0692  155.7807 H   0  0  0  0  0  0  0  0  0  0  0  0  # atno 11005 bound_to 11000
  144.8956  139.4717  143.6657 LP  0  0  0  0  0  0  0  0  0  0  0  0  # atno 17320 bound_to 7965
  146.3090  139.7680  142.9034 LP  0  0  0  0  0  0  0  0  0  0  0  0  # atno 17321 bound_to 7965
  140.4487  143.2495  151.9376 LP  0  0  0  0  0  0  0  0  0  0  0  0  # atno 17342 bound_to 10162
  139.4783  144.5583  151.8279 LP  0  0  0  0  0  0  0  0  0  0  0  0  # atno 17343 bound_to 10162
  156.7549  130.9129  151.3639 LP  0  0  0  0  0  0  0  0  0  0  0  0  # atno 17370 bound_to 10713
  157.6762  130.9097  150.0157 LP  0  0  0  0  0  0  0  0  0  0  0  0  # atno 17371 bound_to 10713
  141.1407  133.9144  157.2333 LP  0  0  0  0  0  0  0  0  0  0  0  0  # atno 17394 bound_to 11000
  139.9682  135.0136  156.9442 LP  0  0  0  0  0  0  0  0  0  0  0  0  # atno 17395 bound_to 11000

$$$$
