AV-unprocessed.smi:107|AV-procd|sdf|1026|dock5
  -GOLD-   2262018 23D 1   1.00000     0.00000
 Structure written by MMmdl.
 30 31  0  0  0  0  0  0  0  0  2 V2000
  151.9934  144.8584  158.0983 C   0  0  0  0  0  0  0  0  0  0  0  0
  151.8004  143.3718  158.3412 C   0  0  0  0  0  0  0  0  0  0  0  0
  151.0041  142.6104  157.5587 C   0  0  0  0  0  0  0  0  0  0  0  0
  150.8286  141.2568  157.7849 N   0  0  0  0  0  0  0  0  0  0  0  0
  149.9222  140.4440  156.8883 C   0  0  1  0  0  0  0  0  0  0  0  0
  149.4030  141.2941  155.7264 C   0  0  0  0  0  0  0  0  0  0  0  0
  149.4349  140.2995  154.5846 C   0  0  1  0  0  0  0  0  0  0  0  0
  149.5494  140.9631  153.3425 O   0  0  0  0  0  0  0  0  0  0  0  0
  150.6768  139.4698  154.9242 C   0  0  2  0  0  0  0  0  0  0  0  0
  150.6888  138.0531  154.3294 C   0  0  0  0  0  0  0  0  0  0  0  0
  149.3947  137.4888  154.3595 O   0  0  0  0  0  0  0  0  0  0  0  0
  150.6513  139.3801  156.3469 O   0  0  0  0  0  0  0  0  0  0  0  0
  151.4799  140.6390  158.8849 C   0  0  0  0  0  0  0  0  0  0  0  0
  151.2766  139.4417  159.0865 O   0  0  0  0  0  0  0  0  0  0  0  0
  152.2928  141.3975  159.6745 N   0  5  0  0  0  0  0  0  0  0  0  0
  152.4945  142.7300  159.4640 C   0  0  0  0  0  0  0  0  0  0  0  0
  153.2335  143.4013  160.1834 O   0  0  0  0  0  0  0  0  0  0  0  0
  151.4220  145.1960  157.2333 H   0  0  0  0  0  0  0  0  0  0  0  0
  153.0451  145.0812  157.9161 H   0  0  0  0  0  0  0  0  0  0  0  0
  151.6648  145.4321  158.9655 H   0  0  0  0  0  0  0  0  0  0  0  0
  150.4859  143.0777  156.7354 H   0  0  0  0  0  0  0  0  0  0  0  0
  149.1309  140.0184  157.5059 H   0  0  0  0  0  0  0  0  0  0  0  0
  148.4117  141.6948  155.9400 H   0  0  0  0  0  0  0  0  0  0  0  0
  150.0894  142.1220  155.5396 H   0  0  0  0  0  0  0  0  0  0  0  0
  148.5373  139.6798  154.6029 H   0  0  0  0  0  0  0  0  0  0  0  0
  149.4620  140.3215  152.6537 H   0  0  0  0  0  0  0  0  0  0  0  0
  151.5824  140.0102  154.6427 H   0  0  0  0  0  0  0  0  0  0  0  0
  151.0206  138.0884  153.2915 H   0  0  0  0  0  0  0  0  0  0  0  0
  151.3839  137.4084  154.8676 H   0  0  0  0  0  0  0  0  0  0  0  0
  149.1875  137.1677  153.4950 H   0  0  0  0  0  0  0  0  0  0  0  0
  1  2  1  0  0  0  0
  1 18  1  0  0  0  0
  1 19  1  0  0  0  0
  1 20  1  0  0  0  0
  2 16  1  0  0  0  0
  2  3  2  0  0  0  0
  3  4  1  0  0  0  0
  3 21  1  0  0  0  0
  4  5  1  0  0  0  0
  4 13  1  0  0  0  0
  5 12  1  0  0  0  0
  5  6  1  0  0  0  0
  5 22  1  0  0  0  0
  6  7  1  0  0  0  0
  6 23  1  0  0  0  0
  6 24  1  0  0  0  0
  7  8  1  0  0  0  0
  7  9  1  0  0  0  0
  7 25  1  0  0  0  0
  8 26  1  0  0  0  0
  9 10  1  0  0  0  0
  9 12  1  0  0  0  0
  9 27  1  0  0  0  0
 10 11  1  0  0  0  0
 10 28  1  0  0  0  0
 10 29  1  0  0  0  0
 11 30  1  0  0  0  0
 13 14  2  0  0  0  0
 13 15  1  0  0  0  0
 15 16  1  0  0  0  0
 16 17  2  0  0  0  0
M  CHG  1  15  -1
M  END
> <s_m_source_file>
AV-unprocessed.smi

> <i_m_source_file_index>
107

> <i_lp_mmshare_version>
43012

> <i_f3d_flags>
0

> <s_epik_input>
Tz1jMVtuSF1jKD1PKW4oW2NIXWMxW0NIM10pW0NAQEhdMltDSDJdW0NAQEhdKFtPSF0pW0NASF0oTzIpW0NIMl1bT0hd

> <s_epik_cmdline>
J2VwaWtfcHl0aG9uJywgJy1waCcsICc3LjAnLCAnLXRuJywgJzgnLCAnLW1hJywgJzIwMCcsICctbWV0YWxfYmluZGluZycsICctaW1hZScsICc8aW5maWxlLm1hZT4nLCAnLW9tYWUnLCAnPG91dGZpbGUubWFlPic=

> <r_lp_tautomer_probability>
0.999537

> <r_epik_Ionization_Penalty>
3.66603

> <r_epik_Ionization_Penalty_Charging>
1.09773e-07

> <r_epik_Ionization_Penalty_Neutral>
3.66603

> <r_epik_State_Penalty>
3.66562

> <r_epik_Charging_Adjusted_Penalty>
3.66562

> <i_epik_Tot_Q>
-1

> <i_epik_Tot_abs_Q>
1

> <r_epik_Metal_State_Penalty>
0.234536

> <b_epik_Metal_Only>
1

> <s_epik_Chemistry_Notes>
This compound contains an acetal/aminal-like group ( X-CH(R)-Y where X, Y are N, S, or O) that may be acid/base labile, releasing an aldehyde.

> <s_lp_Force_Field>
OPLS_2005

> <r_lp_Energy>
34.2111

> <b_lp_Chiralities_Consistent>
1

> <s_lp_Variant>
AV-unprocessed.smi:107-14

> <Gold.Version>
5.8.1

> <Gold.Id.Protein>
6NUR|6NUR_protein|mol2

> <Gold.PLP.Fitness>
44.5265

> <Gold.PLP.PLP>
-33.1088

> <Gold.PLP.part.hbond>
-3.4388

> <Gold.PLP.part.metal>
0.0000

> <Gold.PLP.part.buried>
-4.2773

> <Gold.PLP.part.nonpolar>
-25.9674

> <Gold.PLP.part.repulsive>
0.0000

> <Gold.PLP.ligand.clash>
0.0000

> <Gold.PLP.ligand.torsion>
0.2182

> <Gold.PLP.Chemscore.Hbond>
2.9485

> <Gold.PLP.Chemscore.CHOScore>
1.0000

> <Gold.PLP.Chemscore.Metal>
0.0000

> <Gold.Chemscore.Hbonds>
donor molecule, donor type, donor heavy atom, donor atom, acceptor molecule, acceptor atom, score
      L1  H     8    26       P1  7957  0.90
      L1  H    11    30       P1  7948  1.00
      P1  H  7989  7998       L1     8  0.09
      P1  H  8011  8017       L1     8  0.90
      L1  C     3    21       P1  8028  1.00

> <Gold.PLP.Chemscore.Internal.Correction>
0.0086

> <Gold.Rescore>
     Score         DG    S(hbond)    S(metal)    S(lipo)     H(rot)  DE(clash)    DE(int)     intcor
     11.71     -13.17       2.12        0.00      63.96       2.69       0.01       1.46       ----

> <Gold.Chemscore.Fitness>
11.7113

> <Gold.Chemscore.DG>
-13.1735

> <Gold.Chemscore.ZeroCoef>
-5.4800

> <Gold.Chemscore.Hbond>
2.1226

> <Gold.Chemscore.Metal>
0.0000

> <Gold.Chemscore.Lipo>
63.9568

> <Gold.Chemscore.Internal_Hbond>
0.0000

> <Gold.Chemscore.DEClash>
0.0059

> <Gold.Chemscore.DEInternal>
1.4563

> <Gold.Chemscore.Rot>
2.6871

> <Gold.Chemscore.Internal.Correction>
   9.000000E+99

> <Gold.Chemscore.Hbonds>
donor molecule, donor type, donor heavy atom, donor atom, acceptor molecule, acceptor atom, score
      L1  H     8    26       P1  7957  0.81
      L1  H    11    30       P1  7948  0.99
      P1  H  8011  8017       L1     8  0.18

> <Gold.Chemscore.Hbond.Weighted>
-7.0896

> <Gold.Chemscore.Metal.Weighted>
-0.0000

> <Gold.Chemscore.Lipo.Weighted>
-7.4829

> <Gold.Chemscore.Internal_Hbond.Weighted>
0.0000

> <Gold.Chemscore.DEClash.Weighted>
0.0059

> <Gold.Chemscore.DEInternal.Weighted>
1.4563

> <Gold.Chemscore.Rot.Weighted>
6.8791

> <Gold.Chemscore.Internal.Correction.Weighted>
   9.000000E+99

> <Gold.Protein.RotatedTorsions>
[ 6907 6896 6895 6894 ] final   74.29 input  -60.11 | X-H torsion
[ 7974 7965 7964 7962 ] final  -69.58 input  175.53 | X-H torsion
[ 8008 7997 7996 7995 ] final  -77.75 input   59.86 | X-H torsion
[ 10167 10162 10161 10158 ] final  150.02 input  -65.29 | X-H torsion
[ 10718 10713 10712 10709 ] final  -27.48 input   66.30 | X-H torsion
[ 10763 10752 10751 10750 ] final  179.33 input  -60.55 | X-H torsion
[ 11005 11000 10999 10996 ] final  146.73 input  -57.11 | X-H torsion

> <Gold.Protein.ActiveResidues>
 VAL166  LYS551  ARG553  GLY616  TRP617  ASP618  TYR619  PRO620  LYS621  CYS622 
 ASP623  PHE694  ASN695  SER759  ASP760  ASP761  ALA762  ILE779  LEU786  VAL792 
 PHE793  MET794  SER795  GLU796  ALA797  LYS798  CYS799  TRP800  GLU811  SER814 

> <Gold.Protein.RotatedAtoms>
  152.4968  134.4293  159.9506 H   0  0  0  0  0  0  0  0  0  0  0  0  # atno 6907 bound_to 6896
  151.4271  133.3675  159.2771 H   0  0  0  0  0  0  0  0  0  0  0  0  # atno 6908 bound_to 6896
  150.9181  134.8622  159.7530 H   0  0  0  0  0  0  0  0  0  0  0  0  # atno 6909 bound_to 6896
  145.7020  140.9113  143.0726 H   0  0  0  0  0  0  0  0  0  0  0  0  # atno 7974 bound_to 7965
  154.5625  140.0705  156.8841 H   0  0  0  0  0  0  0  0  0  0  0  0  # atno 8008 bound_to 7997
  155.2785  140.3370  155.4242 H   0  0  0  0  0  0  0  0  0  0  0  0  # atno 8009 bound_to 7997
  156.2054  140.1738  156.7797 H   0  0  0  0  0  0  0  0  0  0  0  0  # atno 8010 bound_to 7997
  139.4855  144.5555  151.7325 H   0  0  0  0  0  0  0  0  0  0  0  0  # atno 10167 bound_to 10162
  156.4376  130.4458  149.7074 H   0  0  0  0  0  0  0  0  0  0  0  0  # atno 10718 bound_to 10713
  154.5193  135.2793  155.1276 H   0  0  0  0  0  0  0  0  0  0  0  0  # atno 10763 bound_to 10752
  154.2840  135.6280  153.5362 H   0  0  0  0  0  0  0  0  0  0  0  0  # atno 10764 bound_to 10752
  152.9933  135.5658  154.5678 H   0  0  0  0  0  0  0  0  0  0  0  0  # atno 10765 bound_to 10752
  140.0817  134.9093  157.1511 H   0  0  0  0  0  0  0  0  0  0  0  0  # atno 11005 bound_to 11000
  144.6966  139.8960  143.7456 LP  0  0  0  0  0  0  0  0  0  0  0  0  # atno 17320 bound_to 7965
  146.0790  139.3777  143.0476 LP  0  0  0  0  0  0  0  0  0  0  0  0  # atno 17321 bound_to 7965
  140.5116  144.1016  150.5997 LP  0  0  0  0  0  0  0  0  0  0  0  0  # atno 17342 bound_to 10162
  140.3944  143.2736  152.0022 LP  0  0  0  0  0  0  0  0  0  0  0  0  # atno 17343 bound_to 10162
  156.3952  130.7647  151.2651 LP  0  0  0  0  0  0  0  0  0  0  0  0  # atno 17370 bound_to 10713
  157.7507  131.0256  150.3927 LP  0  0  0  0  0  0  0  0  0  0  0  0  # atno 17371 bound_to 10713
  140.3478  134.2632  155.7202 LP  0  0  0  0  0  0  0  0  0  0  0  0  # atno 17394 bound_to 11000
  141.2049  133.7875  157.0263 LP  0  0  0  0  0  0  0  0  0  0  0  0  # atno 17395 bound_to 11000

$$$$
