AV-unprocessed.smi:609|AV-procd|sdf|3048|dock6
  -GOLD-   2262023563D 1   1.00000     0.00000
 Structure written by MMmdl.
 42 44  0  0  0  0  0  0  0  0  1 V2000
  153.9233  142.7313  163.6521 C   0  0  0  0  0  0  0  0  0  0  0  0
  153.3008  142.9022  162.2775 C   0  0  0  0  0  0  0  0  0  0  0  0
  152.5048  144.0411  162.0201 C   0  0  0  0  0  0  0  0  0  0  0  0
  151.9083  144.2370  160.7553 C   0  0  0  0  0  0  0  0  0  0  0  0
  151.1051  145.2641  160.2896 N   0  0  0  0  0  0  0  0  0  0  0  0
  150.8725  144.8765  159.0390 C   0  0  0  0  0  0  0  0  0  0  0  0
  151.4309  143.7184  158.6386 N   0  0  0  0  0  0  0  0  0  0  0  0
  151.3168  143.1031  157.3283 C   0  0  0  0  0  0  0  0  0  0  0  0
  150.0388  142.2563  157.1868 C   0  0  1  0  0  0  0  0  0  0  0  0
  149.7704  142.0262  155.8168 O   0  0  0  0  0  0  0  0  0  0  0  0
  150.1647  140.9037  157.9132 C   0  0  0  0  0  0  0  0  0  0  0  0
  151.7139  140.0282  157.5254 S   0  0  0  0  0  0  0  0  0  0  0  0
  151.3067  139.3583  155.9413 C   0  0  0  0  0  0  0  0  0  0  0  0
  150.1791  139.6008  155.2772 N   0  0  0  0  0  0  0  0  0  0  0  0
  150.2891  138.8691  154.1000 C   0  0  0  0  0  0  0  0  0  0  0  0
  151.4879  138.1992  154.0924 C   0  0  0  0  0  0  0  0  0  0  0  0
  152.1282  138.5206  155.2818 N   0  0  0  0  0  0  0  0  0  0  0  0
  153.4278  138.0406  155.7088 C   0  0  0  0  0  0  0  0  0  0  0  0
  152.1308  143.2540  159.7471 C   0  0  0  0  0  0  0  0  0  0  0  0
  152.9212  142.1169  159.9908 C   0  0  0  0  0  0  0  0  0  0  0  0
  153.5104  141.9369  161.2599 C   0  0  0  0  0  0  0  0  0  0  0  0
  154.3633  140.7065  161.5127 C   0  0  0  0  0  0  0  0  0  0  0  0
  153.6608  143.5569  164.3141 H   0  0  0  0  0  0  0  0  0  0  0  0
  155.0103  142.6948  163.5782 H   0  0  0  0  0  0  0  0  0  0  0  0
  153.5764  141.8079  164.1163 H   0  0  0  0  0  0  0  0  0  0  0  0
  152.3455  144.7768  162.7946 H   0  0  0  0  0  0  0  0  0  0  0  0
  150.2618  145.4687  158.3732 H   0  0  0  0  0  0  0  0  0  0  0  0
  151.3470  143.8852  156.5685 H   0  0  0  0  0  0  0  0  0  0  0  0
  152.1984  142.4808  157.1687 H   0  0  0  0  0  0  0  0  0  0  0  0
  149.2019  142.8202  157.5989 H   0  0  0  0  0  0  0  0  0  0  0  0
  149.4325  142.8241  155.4396 H   0  0  0  0  0  0  0  0  0  0  0  0
  150.1223  141.0576  158.9919 H   0  0  0  0  0  0  0  0  0  0  0  0
  149.3232  140.2561  157.6660 H   0  0  0  0  0  0  0  0  0  0  0  0
  149.5049  138.8809  153.3576 H   0  0  0  0  0  0  0  0  0  0  0  0
  151.9258  137.5373  153.3597 H   0  0  0  0  0  0  0  0  0  0  0  0
  153.8499  137.3748  154.9556 H   0  0  0  0  0  0  0  0  0  0  0  0
  153.3292  137.4947  156.6472 H   0  0  0  0  0  0  0  0  0  0  0  0
  154.1030  138.8846  155.8530 H   0  0  0  0  0  0  0  0  0  0  0  0
  153.0745  141.3911  159.2059 H   0  0  0  0  0  0  0  0  0  0  0  0
  154.4207  140.0730  160.6270 H   0  0  0  0  0  0  0  0  0  0  0  0
  153.9440  140.1104  162.3236 H   0  0  0  0  0  0  0  0  0  0  0  0
  155.3790  140.9951  161.7835 H   0  0  0  0  0  0  0  0  0  0  0  0
  1  2  1  0  0  0  0
  1 23  1  0  0  0  0
  1 24  1  0  0  0  0
  1 25  1  0  0  0  0
  2 21  1  0  0  0  0
  2  3  2  0  0  0  0
  3  4  1  0  0  0  0
  3 26  1  0  0  0  0
  4 19  2  0  0  0  0
  4  5  1  0  0  0  0
  5  6  2  0  0  0  0
  6  7  1  0  0  0  0
  6 27  1  0  0  0  0
  7  8  1  0  0  0  0
  7 19  1  0  0  0  0
  8  9  1  0  0  0  0
  8 28  1  0  0  0  0
  8 29  1  0  0  0  0
  9 10  1  0  0  0  0
  9 11  1  0  0  0  0
  9 30  1  0  0  0  0
 10 31  1  0  0  0  0
 11 12  1  0  0  0  0
 11 32  1  0  0  0  0
 11 33  1  0  0  0  0
 12 13  1  0  0  0  0
 13 17  1  0  0  0  0
 13 14  2  0  0  0  0
 14 15  1  0  0  0  0
 15 16  2  0  0  0  0
 15 34  1  0  0  0  0
 16 17  1  0  0  0  0
 16 35  1  0  0  0  0
 17 18  1  0  0  0  0
 18 36  1  0  0  0  0
 18 37  1  0  0  0  0
 18 38  1  0  0  0  0
 19 20  1  0  0  0  0
 20 21  2  0  0  0  0
 20 39  1  0  0  0  0
 21 22  1  0  0  0  0
 22 40  1  0  0  0  0
 22 41  1  0  0  0  0
 22 42  1  0  0  0  0
M  END
> <s_m_source_file>
AV-unprocessed.smi

> <i_m_source_file_index>
609

> <i_lp_mmshare_version>
43012

> <i_f3d_flags>
0

> <s_epik_input>
W0NIM11jKFtjSF0xKWMoW0NIM10pW2NIXWMoYzEyKW4oW2NIXW4yKVtDSDJdW0NASF0oW09IXSlbQ0gyXVNjM25bY0hdW2NIXW4zW0NIM10=

> <s_epik_cmdline>
J2VwaWtfcHl0aG9uJywgJy1waCcsICc3LjAnLCAnLXRuJywgJzgnLCAnLW1hJywgJzIwMCcsICctbWV0YWxfYmluZGluZycsICctaW1hZScsICc8aW5maWxlLm1hZT4nLCAnLW9tYWUnLCAnPG91dGZpbGUubWFlPic=

> <r_lp_tautomer_probability>
1

> <r_epik_Ionization_Penalty>
1.15618

> <r_epik_Ionization_Penalty_Charging>
1.04908

> <r_epik_Ionization_Penalty_Neutral>
0.107097

> <r_epik_State_Penalty>
1.19446

> <r_epik_Charging_Adjusted_Penalty>
2.24354

> <i_epik_Tot_Q>
0

> <i_epik_Tot_abs_Q>
0

> <r_epik_Metal_State_Penalty>
0.487262

> <b_epik_Metal_Only>
0

> <s_lp_Force_Field>
OPLS_2005

> <r_lp_Energy>
7.62781

> <b_lp_Chiralities_Consistent>
1

> <s_lp_Variant>
AV-unprocessed.smi:609-4

> <Gold.Version>
5.8.1

> <Gold.Id.Protein>
6NUR|6NUR_protein|mol2

> <Gold.PLP.Fitness>
64.0276

> <Gold.PLP.PLP>
-54.3967

> <Gold.PLP.part.hbond>
-1.0000

> <Gold.PLP.part.metal>
0.0000

> <Gold.PLP.part.buried>
-4.4205

> <Gold.PLP.part.nonpolar>
-48.0527

> <Gold.PLP.part.repulsive>
0.2459

> <Gold.PLP.ligand.clash>
0.0000

> <Gold.PLP.ligand.torsion>
0.6666

> <Gold.PLP.Chemscore.Hbond>
0.9920

> <Gold.PLP.Chemscore.CHOScore>
2.6398

> <Gold.PLP.Chemscore.Metal>
0.0000

> <Gold.Chemscore.Hbonds>
donor molecule, donor type, donor heavy atom, donor atom, acceptor molecule, acceptor atom, score
      L1  H    10    31       P1  8028  1.00
      L1  C     6    27       P1  8029  0.75
      L1  C    15    34       P1  7957  0.91
      L1  C    16    35       P1  7949  0.98

> <Gold.PLP.Chemscore.Internal.Correction>
0.0686

> <Gold.Rescore>
     Score         DG    S(hbond)    S(metal)    S(lipo)     H(rot)  DE(clash)    DE(int)     intcor
     16.34     -18.71       1.00        0.00     137.26       2.41       0.18       2.18       ----

> <Gold.Chemscore.Fitness>
16.3435

> <Gold.Chemscore.DG>
-18.7075

> <Gold.Chemscore.ZeroCoef>
-5.4800

> <Gold.Chemscore.Hbond>
0.9974

> <Gold.Chemscore.Metal>
0.0000

> <Gold.Chemscore.Lipo>
137.2588

> <Gold.Chemscore.Internal_Hbond>
0.0000

> <Gold.Chemscore.DEClash>
0.1810

> <Gold.Chemscore.DEInternal>
2.1830

> <Gold.Chemscore.Rot>
2.4074

> <Gold.Chemscore.Internal.Correction>
   9.000000E+99

> <Gold.Chemscore.Hbonds>
donor molecule, donor type, donor heavy atom, donor atom, acceptor molecule, acceptor atom, score
      L1  H    10    31       P1  8028  0.92

> <Gold.Chemscore.Hbond.Weighted>
-3.3313

> <Gold.Chemscore.Metal.Weighted>
-0.0000

> <Gold.Chemscore.Lipo.Weighted>
-16.0593

> <Gold.Chemscore.Internal_Hbond.Weighted>
0.0000

> <Gold.Chemscore.DEClash.Weighted>
0.1810

> <Gold.Chemscore.DEInternal.Weighted>
2.1830

> <Gold.Chemscore.Rot.Weighted>
6.1630

> <Gold.Chemscore.Internal.Correction.Weighted>
   9.000000E+99

> <Gold.Protein.RotatedTorsions>
[ 6907 6896 6895 6894 ] final -125.59 input  -60.11 | X-H torsion
[ 7974 7965 7964 7962 ] final  -72.08 input  175.53 | X-H torsion
[ 8008 7997 7996 7995 ] final -122.45 input   59.86 | X-H torsion
[ 10167 10162 10161 10158 ] final  -88.37 input  -65.29 | X-H torsion
[ 10718 10713 10712 10709 ] final   30.63 input   66.30 | X-H torsion
[ 10763 10752 10751 10750 ] final -137.55 input  -60.55 | X-H torsion
[ 11005 11000 10999 10996 ] final  101.43 input  -57.11 | X-H torsion

> <Gold.Protein.ActiveResidues>
 VAL166  LYS551  ARG553  GLY616  TRP617  ASP618  TYR619  PRO620  LYS621  CYS622 
 ASP623  PHE694  ASN695  SER759  ASP760  ASP761  ALA762  ILE779  LEU786  VAL792 
 PHE793  MET794  SER795  GLU796  ALA797  LYS798  CYS799  TRP800  GLU811  SER814 

> <Gold.Protein.RotatedAtoms>
  150.8882  133.7278  159.2911 H   0  0  0  0  0  0  0  0  0  0  0  0  # atno 6907 bound_to 6896
  151.4837  135.1052  159.9794 H   0  0  0  0  0  0  0  0  0  0  0  0  # atno 6908 bound_to 6896
  152.4804  133.8193  159.7100 H   0  0  0  0  0  0  0  0  0  0  0  0  # atno 6909 bound_to 6896
  145.6698  140.9225  143.0889 H   0  0  0  0  0  0  0  0  0  0  0  0  # atno 7974 bound_to 7965
  155.1645  140.0406  157.2849 H   0  0  0  0  0  0  0  0  0  0  0  0  # atno 8008 bound_to 7997
  154.6313  140.2525  155.7403 H   0  0  0  0  0  0  0  0  0  0  0  0  # atno 8009 bound_to 7997
  156.2486  140.2874  156.0666 H   0  0  0  0  0  0  0  0  0  0  0  0  # atno 8010 bound_to 7997
  140.3753  143.2774  151.9450 H   0  0  0  0  0  0  0  0  0  0  0  0  # atno 10167 bound_to 10162
  157.2620  130.7166  149.6459 H   0  0  0  0  0  0  0  0  0  0  0  0  # atno 10718 bound_to 10713
  154.8659  135.3639  154.5240 H   0  0  0  0  0  0  0  0  0  0  0  0  # atno 10763 bound_to 10752
  153.5869  135.7016  153.5444 H   0  0  0  0  0  0  0  0  0  0  0  0  # atno 10764 bound_to 10752
  153.3407  135.4098  155.1532 H   0  0  0  0  0  0  0  0  0  0  0  0  # atno 10765 bound_to 10752
  139.8773  134.9183  156.4906 H   0  0  0  0  0  0  0  0  0  0  0  0  # atno 11005 bound_to 11000
  144.7060  139.8558  143.7429 LP  0  0  0  0  0  0  0  0  0  0  0  0  # atno 17320 bound_to 7965
  146.1055  139.4054  143.0320 LP  0  0  0  0  0  0  0  0  0  0  0  0  # atno 17321 bound_to 7965
  139.4800  144.5869  151.7838 LP  0  0  0  0  0  0  0  0  0  0  0  0  # atno 17342 bound_to 10162
  140.4992  144.1194  150.5967 LP  0  0  0  0  0  0  0  0  0  0  0  0  # atno 17343 bound_to 10162
  155.9664  130.4394  150.5258 LP  0  0  0  0  0  0  0  0  0  0  0  0  # atno 17370 bound_to 10713
  157.3165  131.0673  151.1963 LP  0  0  0  0  0  0  0  0  0  0  0  0  # atno 17371 bound_to 10713
  140.8661  133.8023  155.9315 LP  0  0  0  0  0  0  0  0  0  0  0  0  # atno 17394 bound_to 11000
  140.9000  134.2390  157.5047 LP  0  0  0  0  0  0  0  0  0  0  0  0  # atno 17395 bound_to 11000

$$$$
