AV-unprocessed.smi:49|AV-procd|sdf|468|dock3
  -GOLD-   2262016333D 1   1.00000     0.00000
 Structure written by MMmdl.
 28 29  0  0  0  0  0  0  0  0  2 V2000
  151.6859  137.8032  154.2175 C   0  0  0  0  0  0  0  0  0  0  0  0
  152.2838  138.5488  155.4159 C   0  0  0  0  0  0  0  0  0  0  0  0
  151.5293  139.7960  155.7383 C   0  0  0  0  0  0  0  0  0  0  0  0
  151.7399  140.5126  156.8834 N   0  0  0  0  0  0  0  0  0  0  0  0
  150.8267  141.4704  156.7366 C   0  0  0  0  0  0  0  0  0  0  0  0
  150.5523  142.5836  157.7033 C   0  0  1  0  0  0  0  0  0  0  0  0
  151.3027  142.4819  159.0331 C   0  0  0  0  0  0  0  0  0  0  0  0
  151.5029  143.9486  159.4021 C   0  0  1  0  0  0  0  0  0  0  0  0
  152.5744  144.1285  160.3035 O   0  0  0  0  0  0  0  0  0  0  0  0
  151.7654  144.6192  158.0485 C   0  0  0  0  0  0  0  0  0  0  0  0
  151.0465  143.8106  157.0432 N   0  3  0  0  0  0  0  0  0  0  0  0
  150.1228  141.3292  155.6109 N   0  0  0  0  0  0  0  0  0  0  0  0
  150.5575  140.2402  154.9433 N   0  0  0  0  0  0  0  0  0  0  0  0
  149.4795  142.6865  157.8746 H   0  0  0  0  0  0  0  0  0  0  0  0
  150.5862  144.3462  159.8405 H   0  0  0  0  0  0  0  0  0  0  0  0
  149.3692  141.9136  155.2775 H   0  0  0  0  0  0  0  0  0  0  0  0
  152.2520  136.8968  154.0028 H   0  0  0  0  0  0  0  0  0  0  0  0
  151.6989  138.4244  153.3215 H   0  0  0  0  0  0  0  0  0  0  0  0
  150.6525  137.5133  154.4101 H   0  0  0  0  0  0  0  0  0  0  0  0
  152.2878  137.8982  156.2912 H   0  0  0  0  0  0  0  0  0  0  0  0
  153.3256  138.8007  155.2131 H   0  0  0  0  0  0  0  0  0  0  0  0
  150.7651  141.9068  159.7877 H   0  0  0  0  0  0  0  0  0  0  0  0
  152.2751  142.0095  158.8799 H   0  0  0  0  0  0  0  0  0  0  0  0
  152.5235  145.0000  160.6666 H   0  0  0  0  0  0  0  0  0  0  0  0
  151.4461  145.6614  158.0302 H   0  0  0  0  0  0  0  0  0  0  0  0
  152.8274  144.5883  157.8006 H   0  0  0  0  0  0  0  0  0  0  0  0
  151.6904  143.5556  156.3072 H   0  0  0  0  0  0  0  0  0  0  0  0
  150.2712  144.3281  156.6548 H   0  0  0  0  0  0  0  0  0  0  0  0
  1  2  1  0  0  0  0
  1 17  1  0  0  0  0
  1 18  1  0  0  0  0
  1 19  1  0  0  0  0
  2 20  1  0  0  0  0
  2 21  1  0  0  0  0
  2  3  1  0  0  0  0
  3  4  1  0  0  0  0
  3 13  2  0  0  0  0
  4  5  2  0  0  0  0
  5  6  1  0  0  0  0
  5 12  1  0  0  0  0
  6 14  1  0  0  0  0
  6 11  1  0  0  0  0
  6  7  1  0  0  0  0
  7  8  1  0  0  0  0
  7 22  1  0  0  0  0
  7 23  1  0  0  0  0
  8 15  1  0  0  0  0
  8  9  1  0  0  0  0
  8 10  1  0  0  0  0
  9 24  1  0  0  0  0
 10 11  1  0  0  0  0
 10 25  1  0  0  0  0
 10 26  1  0  0  0  0
 11 27  1  0  0  0  0
 11 28  1  0  0  0  0
 12 13  1  0  0  0  0
 12 16  1  0  0  0  0
M  CHG  1  11   1
M  END
> <s_m_source_file>
AV-unprocessed.smi

> <i_m_source_file_index>
49

> <i_lp_mmshare_version>
43012

> <i_f3d_flags>
0

> <s_epik_input>
W0NIM11bQ0gyXWMxbmMobltuSF0xKVtDQEBIXTJbQ0gyXVtDQEBIXShbT0hdKVtDSDJdW05IXTI=

> <s_epik_cmdline>
J2VwaWtfcHl0aG9uJywgJy1waCcsICc3LjAnLCAnLXRuJywgJzgnLCAnLW1hJywgJzIwMCcsICctbWV0YWxfYmluZGluZycsICctaW1hZScsICc8aW5maWxlLm1hZT4nLCAnLW9tYWUnLCAnPG91dGZpbGUubWFlPic=

> <r_epik_Ionization_Penalty>
0.372103

> <r_epik_Ionization_Penalty_Charging>
0.0688988

> <r_epik_Ionization_Penalty_Neutral>
0.303204

> <r_epik_State_Penalty>
0.737493

> <r_epik_Charging_Adjusted_Penalty>
0.806392

> <i_epik_Tot_Q>
1

> <i_epik_Tot_abs_Q>
1

> <r_epik_Metal_State_Penalty>
1.01235

> <b_epik_Metal_Only>
0

> <s_lp_Force_Field>
OPLS_2005

> <r_lp_Energy>
17.828

> <b_lp_Chiralities_Consistent>
1

> <s_lp_Variant>
AV-unprocessed.smi:49-6

> <Gold.Version>
5.8.1

> <Gold.Id.Protein>
6NUR|6NUR_protein|mol2

> <Gold.PLP.Fitness>
35.8511

> <Gold.PLP.PLP>
-27.3371

> <Gold.PLP.part.hbond>
-2.0000

> <Gold.PLP.part.metal>
0.0000

> <Gold.PLP.part.buried>
-4.6983

> <Gold.PLP.part.nonpolar>
-20.6537

> <Gold.PLP.part.repulsive>
0.2240

> <Gold.PLP.ligand.clash>
0.0000

> <Gold.PLP.ligand.torsion>
0.2527

> <Gold.PLP.Chemscore.Hbond>
3.0000

> <Gold.PLP.Chemscore.CHOScore>
0.0000

> <Gold.PLP.Chemscore.Metal>
0.0000

> <Gold.Chemscore.Hbonds>
donor molecule, donor type, donor heavy atom, donor atom, acceptor molecule, acceptor atom, score
      L1  H    11    28       P1  8028  2.00
      P1  H  7989  7998       L1    13  0.95

> <Gold.PLP.Chemscore.Internal.Correction>
0.0195

> <Gold.Rescore>
     Score         DG    S(hbond)    S(metal)    S(lipo)     H(rot)  DE(clash)    DE(int)     intcor
     12.52     -12.62       1.61        0.00      56.54       1.89       0.08       0.02       ----

> <Gold.Chemscore.Fitness>
12.5181

> <Gold.Chemscore.DG>
-12.6218

> <Gold.Chemscore.ZeroCoef>
-5.4800

> <Gold.Chemscore.Hbond>
1.6050

> <Gold.Chemscore.Metal>
0.0000

> <Gold.Chemscore.Lipo>
56.5390

> <Gold.Chemscore.Internal_Hbond>
0.0000

> <Gold.Chemscore.DEClash>
0.0787

> <Gold.Chemscore.DEInternal>
0.0250

> <Gold.Chemscore.Rot>
1.8883

> <Gold.Chemscore.Internal.Correction>
   9.000000E+99

> <Gold.Chemscore.Hbonds>
donor molecule, donor type, donor heavy atom, donor atom, acceptor molecule, acceptor atom, score
      L1  H    11    28       P1  8028  0.98
      P1  H  7989  7998       L1    13  0.12

> <Gold.Chemscore.Hbond.Weighted>
-5.3607

> <Gold.Chemscore.Metal.Weighted>
-0.0000

> <Gold.Chemscore.Lipo.Weighted>
-6.6151

> <Gold.Chemscore.Internal_Hbond.Weighted>
0.0000

> <Gold.Chemscore.DEClash.Weighted>
0.0787

> <Gold.Chemscore.DEInternal.Weighted>
0.0250

> <Gold.Chemscore.Rot.Weighted>
4.8340

> <Gold.Chemscore.Internal.Correction.Weighted>
   9.000000E+99

> <Gold.Protein.RotatedTorsions>
[ 6907 6896 6895 6894 ] final    3.81 input  -60.11 | X-H torsion
[ 7974 7965 7964 7962 ] final  -46.00 input  175.53 | X-H torsion
[ 8008 7997 7996 7995 ] final  -77.73 input   59.86 | X-H torsion
[ 10167 10162 10161 10158 ] final  -62.37 input  -65.29 | X-H torsion
[ 10718 10713 10712 10709 ] final -178.61 input   66.30 | X-H torsion
[ 10763 10752 10751 10750 ] final  -12.36 input  -60.55 | X-H torsion
[ 11005 11000 10999 10996 ] final  152.44 input  -57.11 | X-H torsion

> <Gold.Protein.ActiveResidues>
 VAL166  LYS551  ARG553  GLY616  TRP617  ASP618  TYR619  PRO620  LYS621  CYS622 
 ASP623  PHE694  ASN695  SER759  ASP760  ASP761  ALA762  ILE779  LEU786  VAL792 
 PHE793  MET794  SER795  GLU796  ALA797  LYS798  CYS799  TRP800  GLU811  SER814 

> <Gold.Protein.RotatedAtoms>
  151.6311  135.1023  160.0121 H   0  0  0  0  0  0  0  0  0  0  0  0  # atno 6907 bound_to 6896
  152.4106  133.6953  159.6403 H   0  0  0  0  0  0  0  0  0  0  0  0  # atno 6908 bound_to 6896
  150.7997  133.8548  159.3256 H   0  0  0  0  0  0  0  0  0  0  0  0  # atno 6909 bound_to 6896
  145.9763  140.7330  142.9385 H   0  0  0  0  0  0  0  0  0  0  0  0  # atno 7974 bound_to 7965
  154.5623  140.0706  156.8838 H   0  0  0  0  0  0  0  0  0  0  0  0  # atno 8008 bound_to 7997
  155.2788  140.3370  155.4241 H   0  0  0  0  0  0  0  0  0  0  0  0  # atno 8009 bound_to 7997
  156.2052  140.1737  156.7800 H   0  0  0  0  0  0  0  0  0  0  0  0  # atno 8010 bound_to 7997
  140.5943  143.2348  151.6070 H   0  0  0  0  0  0  0  0  0  0  0  0  # atno 10167 bound_to 10162
  156.8469  130.9705  151.3095 H   0  0  0  0  0  0  0  0  0  0  0  0  # atno 10718 bound_to 10713
  153.4974  135.7017  153.5851 H   0  0  0  0  0  0  0  0  0  0  0  0  # atno 10763 bound_to 10752
  153.3997  135.3875  155.1979 H   0  0  0  0  0  0  0  0  0  0  0  0  # atno 10764 bound_to 10752
  154.8713  135.3878  154.4441 H   0  0  0  0  0  0  0  0  0  0  0  0  # atno 10765 bound_to 10752
  140.1308  134.8803  157.2201 H   0  0  0  0  0  0  0  0  0  0  0  0  # atno 11005 bound_to 11000
  144.6849  140.2834  143.7289 LP  0  0  0  0  0  0  0  0  0  0  0  0  # atno 17320 bound_to 7965
  145.7833  139.1899  143.2145 LP  0  0  0  0  0  0  0  0  0  0  0  0  # atno 17321 bound_to 7965
  139.5248  144.3093  152.1006 LP  0  0  0  0  0  0  0  0  0  0  0  0  # atno 17342 bound_to 10162
  140.2263  144.4414  150.6319 LP  0  0  0  0  0  0  0  0  0  0  0  0  # atno 17343 bound_to 10162
  157.6325  130.8740  149.9299 LP  0  0  0  0  0  0  0  0  0  0  0  0  # atno 17370 bound_to 10713
  156.0850  130.3669  150.0506 LP  0  0  0  0  0  0  0  0  0  0  0  0  # atno 17371 bound_to 10713
  140.2845  134.3312  155.7333 LP  0  0  0  0  0  0  0  0  0  0  0  0  # atno 17394 bound_to 11000
  141.2170  133.7498  156.9412 LP  0  0  0  0  0  0  0  0  0  0  0  0  # atno 17395 bound_to 11000

$$$$
