AV-unprocessed.smi:2671|AV-procd|sdf|10349|dock2
  -GOLD-   2272014373D 1   1.00000     0.00000
 Structure written by MMmdl.
 29 30  0  0  0  0  0  0  0  0  1 V2000
  151.5024  136.8126  159.8091 O   0  0  0  0  0  0  0  0  0  0  0  0
  152.0628  137.4704  160.6827 C   0  0  0  0  0  0  0  0  0  0  0  0
  152.1719  137.0530  162.0798 C   0  0  0  0  0  0  0  0  0  0  0  0
  152.8064  137.8377  162.9845 C   0  0  0  0  0  0  0  0  0  0  0  0
  152.9301  137.4198  164.4410 C   0  0  0  0  0  0  0  0  0  0  0  0
  151.7283  137.1354  164.9417 F   0  0  0  0  0  0  0  0  0  0  0  0
  153.6911  136.3305  164.5453 F   0  0  0  0  0  0  0  0  0  0  0  0
  153.4755  138.3834  165.1851 F   0  0  0  0  0  0  0  0  0  0  0  0
  153.3714  139.0622  162.5971 N   0  0  0  0  0  0  0  0  0  0  0  0
  153.2870  139.4541  161.3640 C   0  0  0  0  0  0  0  0  0  0  0  0
  153.9175  140.9745  160.5976 S   0  0  0  0  0  0  0  0  0  0  0  0
  152.4072  141.9786  160.5062 C   0  0  0  0  0  0  0  0  0  0  0  0
  152.7111  143.4361  160.1331 C   0  0  1  0  0  0  0  0  0  0  0  0
  152.9058  143.6853  158.6360 C   0  0  0  0  0  0  0  0  0  0  0  0
  152.4616  145.1287  158.4442 C   0  0  0  0  0  0  0  0  0  0  0  0
  151.8134  145.5039  159.7791 C   0  0  0  0  0  0  0  0  0  0  0  0
  151.6024  144.2653  160.4402 O   0  0  0  0  0  0  0  0  0  0  0  0
  152.6367  138.6645  160.4094 N   0  0  0  0  0  0  0  0  0  0  0  0
  152.5899  138.9995  159.4580 H   0  0  0  0  0  0  0  0  0  0  0  0
  151.7419  136.1114  162.3892 H   0  0  0  0  0  0  0  0  0  0  0  0
  151.9112  141.9450  161.4767 H   0  0  0  0  0  0  0  0  0  0  0  0
  151.7218  141.5366  159.7821 H   0  0  0  0  0  0  0  0  0  0  0  0
  153.5776  143.7968  160.6907 H   0  0  0  0  0  0  0  0  0  0  0  0
  153.9342  143.5137  158.3170 H   0  0  0  0  0  0  0  0  0  0  0  0
  152.2608  143.0265  158.0529 H   0  0  0  0  0  0  0  0  0  0  0  0
  153.3010  145.7875  158.2191 H   0  0  0  0  0  0  0  0  0  0  0  0
  151.7479  145.2020  157.6229 H   0  0  0  0  0  0  0  0  0  0  0  0
  152.4907  146.1170  160.3755 H   0  0  0  0  0  0  0  0  0  0  0  0
  150.8790  146.0516  159.6547 H   0  0  0  0  0  0  0  0  0  0  0  0
  1  2  2  0  0  0  0
  2 18  1  0  0  0  0
  2  3  1  0  0  0  0
  3 20  1  0  0  0  0
  3  4  2  0  0  0  0
  4  5  1  0  0  0  0
  4  9  1  0  0  0  0
  5  6  1  0  0  0  0
  5  7  1  0  0  0  0
  5  8  1  0  0  0  0
  9 10  2  0  0  0  0
 10 11  1  0  0  0  0
 10 18  1  0  0  0  0
 11 12  1  0  0  0  0
 12 13  1  0  0  0  0
 12 21  1  0  0  0  0
 12 22  1  0  0  0  0
 13 17  1  0  0  0  0
 13 14  1  0  0  0  0
 13 23  1  0  0  0  0
 14 15  1  0  0  0  0
 14 24  1  0  0  0  0
 14 25  1  0  0  0  0
 15 16  1  0  0  0  0
 15 26  1  0  0  0  0
 15 27  1  0  0  0  0
 16 17  1  0  0  0  0
 16 28  1  0  0  0  0
 16 29  1  0  0  0  0
 18 19  1  0  0  0  0
M  END
> <s_m_source_file>
AV-unprocessed.smi

> <i_m_source_file_index>
2671

> <i_lp_mmshare_version>
43012

> <i_f3d_flags>
0

> <s_epik_input>
W09IXWMxW2NIXWMoQyhGKShGKUYpbmMobjEpU1tDSDJdW0NAQEhdMltDSDJdW0NIMl1bQ0gyXU8y

> <s_epik_cmdline>
J2VwaWtfcHl0aG9uJywgJy1waCcsICc3LjAnLCAnLXRuJywgJzgnLCAnLW1hJywgJzIwMCcsICctbWV0YWxfYmluZGluZycsICctaW1hZScsICc8aW5maWxlLm1hZT4nLCAnLW9tYWUnLCAnPG91dGZpbGUubWFlPic=

> <r_lp_tautomer_probability>
0.660323

> <r_epik_Ionization_Penalty>
0.14469

> <r_epik_Ionization_Penalty_Charging>
0.14469

> <r_epik_Ionization_Penalty_Neutral>
3.1007e-10

> <r_epik_State_Penalty>
0.804349

> <r_epik_Charging_Adjusted_Penalty>
0.949039

> <i_epik_Tot_Q>
0

> <i_epik_Tot_abs_Q>
0

> <r_epik_Metal_State_Penalty>
1.52783

> <b_epik_Metal_Only>
0

> <s_lp_Force_Field>
OPLS_2005

> <r_lp_Energy>
21.2292

> <b_lp_Chiralities_Consistent>
1

> <s_lp_Variant>
AV-unprocessed.smi:2671-4

> <Gold.Version>
5.8.1

> <Gold.Id.Protein>
6NUR|6NUR_protein|mol2

> <Gold.PLP.Fitness>
46.8572

> <Gold.PLP.PLP>
-44.9483

> <Gold.PLP.part.hbond>
-1.0000

> <Gold.PLP.part.metal>
0.0000

> <Gold.PLP.part.buried>
-5.6573

> <Gold.PLP.part.nonpolar>
-38.6272

> <Gold.PLP.part.repulsive>
0.1614

> <Gold.PLP.ligand.clash>
0.0000

> <Gold.PLP.ligand.torsion>
0.5721

> <Gold.PLP.Chemscore.Hbond>
1.0000

> <Gold.PLP.Chemscore.CHOScore>
0.0000

> <Gold.PLP.Chemscore.Metal>
0.0000

> <Gold.Chemscore.Hbonds>
donor molecule, donor type, donor heavy atom, donor atom, acceptor molecule, acceptor atom, score
      P1  H  6896  6908       L1     1  1.00

> <Gold.PLP.Chemscore.Internal.Correction>
0.0531

> <Gold.Rescore>
     Score         DG    S(hbond)    S(metal)    S(lipo)     H(rot)  DE(clash)    DE(int)     intcor
     15.43     -15.56       1.00        0.00      94.70       1.69       0.04       0.09       ----

> <Gold.Chemscore.Fitness>
15.4283

> <Gold.Chemscore.DG>
-15.5563

> <Gold.Chemscore.ZeroCoef>
-5.4800

> <Gold.Chemscore.Hbond>
0.9966

> <Gold.Chemscore.Metal>
0.0000

> <Gold.Chemscore.Lipo>
94.7024

> <Gold.Chemscore.Internal_Hbond>
0.0000

> <Gold.Chemscore.DEClash>
0.0402

> <Gold.Chemscore.DEInternal>
0.0878

> <Gold.Chemscore.Rot>
1.6924

> <Gold.Chemscore.Internal.Correction>
   9.000000E+99

> <Gold.Chemscore.Hbonds>
donor molecule, donor type, donor heavy atom, donor atom, acceptor molecule, acceptor atom, score
      P1  H  6896  6908       L1     1  0.81

> <Gold.Chemscore.Hbond.Weighted>
-3.3286

> <Gold.Chemscore.Metal.Weighted>
-0.0000

> <Gold.Chemscore.Lipo.Weighted>
-11.0802

> <Gold.Chemscore.Internal_Hbond.Weighted>
0.0000

> <Gold.Chemscore.DEClash.Weighted>
0.0402

> <Gold.Chemscore.DEInternal.Weighted>
0.0878

> <Gold.Chemscore.Rot.Weighted>
4.3324

> <Gold.Chemscore.Internal.Correction.Weighted>
   9.000000E+99

> <Gold.Protein.RotatedTorsions>
[ 6907 6896 6895 6894 ] final -109.49 input  -60.11 | X-H torsion
[ 7974 7965 7964 7962 ] final   -3.15 input  175.53 | X-H torsion
[ 8008 7997 7996 7995 ] final  -22.70 input   59.86 | X-H torsion
[ 10167 10162 10161 10158 ] final   10.53 input  -65.29 | X-H torsion
[ 10718 10713 10712 10709 ] final  138.79 input   66.30 | X-H torsion
[ 10763 10752 10751 10750 ] final  -91.98 input  -60.55 | X-H torsion
[ 11005 11000 10999 10996 ] final  140.76 input  -57.11 | X-H torsion

> <Gold.Protein.ActiveResidues>
 VAL166  LYS551  ARG553  GLY616  TRP617  ASP618  TYR619  PRO620  LYS621  CYS622 
 ASP623  PHE694  ASN695  SER759  ASP760  ASP761  ALA762  ILE779  LEU786  VAL792 
 PHE793  MET794  SER795  GLU796  ALA797  LYS798  CYS799  TRP800  GLU811  SER814 

> <Gold.Protein.RotatedAtoms>
  150.7565  133.9521  159.3488 H   0  0  0  0  0  0  0  0  0  0  0  0  # atno 6907 bound_to 6896
  151.7439  135.0846  160.0329 H   0  0  0  0  0  0  0  0  0  0  0  0  # atno 6908 bound_to 6896
  152.3510  133.6143  159.5981 H   0  0  0  0  0  0  0  0  0  0  0  0  # atno 6909 bound_to 6896
  146.2394  140.1678  142.8332 H   0  0  0  0  0  0  0  0  0  0  0  0  # atno 7974 bound_to 7965
  154.4628  140.2000  156.0197 H   0  0  0  0  0  0  0  0  0  0  0  0  # atno 8008 bound_to 7997
  156.0872  140.3263  155.7741 H   0  0  0  0  0  0  0  0  0  0  0  0  # atno 8009 bound_to 7997
  155.5015  140.0554  157.2929 H   0  0  0  0  0  0  0  0  0  0  0  0  # atno 8010 bound_to 7997
  140.6189  143.8248  150.7151 H   0  0  0  0  0  0  0  0  0  0  0  0  # atno 10167 bound_to 10162
  157.4215  131.1039  151.0349 H   0  0  0  0  0  0  0  0  0  0  0  0  # atno 10718 bound_to 10713
  154.6815  135.5248  153.8270 H   0  0  0  0  0  0  0  0  0  0  0  0  # atno 10763 bound_to 10752
  153.0568  135.6553  154.0567 H   0  0  0  0  0  0  0  0  0  0  0  0  # atno 10764 bound_to 10752
  154.0454  135.2974  155.3328 H   0  0  0  0  0  0  0  0  0  0  0  0  # atno 10765 bound_to 10752
  140.0351  134.9333  157.0737 H   0  0  0  0  0  0  0  0  0  0  0  0  # atno 11005 bound_to 11000
  145.0036  140.8653  143.5267 LP  0  0  0  0  0  0  0  0  0  0  0  0  # atno 17320 bound_to 7965
  145.1701  139.2409  143.5346 LP  0  0  0  0  0  0  0  0  0  0  0  0  # atno 17321 bound_to 7965
  140.1834  143.4096  152.1916 LP  0  0  0  0  0  0  0  0  0  0  0  0  # atno 17342 bound_to 10162
  139.5421  144.7266  151.4699 LP  0  0  0  0  0  0  0  0  0  0  0  0  # atno 17343 bound_to 10162
  157.1277  130.6089  149.5521 LP  0  0  0  0  0  0  0  0  0  0  0  0  # atno 17370 bound_to 10713
  155.9882  130.4924  150.7160 LP  0  0  0  0  0  0  0  0  0  0  0  0  # atno 17371 bound_to 10713
  140.4161  134.1930  155.7163 LP  0  0  0  0  0  0  0  0  0  0  0  0  # atno 17394 bound_to 11000
  141.1853  133.8326  157.1110 LP  0  0  0  0  0  0  0  0  0  0  0  0  # atno 17395 bound_to 11000

$$$$
