AV-unprocessed.smi:709|AV-procd|sdf|3460|dock10
  -GOLD-   22720 0453D 1   1.00000     0.00000
 Structure written by MMmdl.
 48 50  0  0  0  0  0  0  0  0  1 V2000
  152.9831  137.4047  158.6753 C   0  0  0  0  0  0  0  0  0  0  0  0
  152.9879  137.4911  157.1477 C   0  0  0  0  0  0  0  0  0  0  0  0
  152.5655  136.2463  156.6178 O   0  0  0  0  0  0  0  0  0  0  0  0
  151.1677  136.0400  156.7468 C   0  0  2  0  0  0  0  0  0  0  0  0
  150.6436  134.7576  156.0917 C   0  0  0  0  0  0  0  0  0  0  0  0
  149.4134  135.5875  155.7182 C   0  0  2  0  0  0  0  0  0  0  0  0
  148.8650  135.2320  154.4138 N   0  0  0  0  0  0  0  0  0  0  0  0
  148.0342  134.2026  154.2007 C   0  0  0  0  0  0  0  0  0  0  0  0
  147.6516  133.4525  155.0981 O   0  0  0  0  0  0  0  0  0  0  0  0
  147.6844  134.1266  152.9030 N   0  0  0  0  0  0  0  0  0  0  0  0
  146.8620  133.1919  152.2477 C   0  0  0  0  0  0  0  0  0  0  0  0
  145.9571  133.4959  151.2827 C   0  0  0  0  0  0  0  0  0  0  0  0
  145.1470  132.4683  150.6739 C   0  0  0  0  0  0  0  0  0  0  0  0
  145.3016  131.2042  151.0905 C   0  0  0  0  0  0  0  0  0  0  0  0
  146.2259  130.8669  152.0935 N   0  0  0  0  0  0  0  0  0  0  0  0
  146.3187  129.4575  152.4828 C   0  0  0  0  0  0  0  0  0  0  0  0
  147.0223  131.7961  152.7013 C   0  0  0  0  0  0  0  0  0  0  0  0
  147.8253  131.4703  153.5793 O   0  0  0  0  0  0  0  0  0  0  0  0
  150.3229  136.8435  155.7264 C   0  0  0  0  0  0  0  0  0  0  0  0
  151.0166  137.2809  154.4292 C   0  0  0  0  0  0  0  0  0  0  0  0
  151.5687  138.6853  154.6803 C   0  0  0  0  0  0  0  0  0  0  0  0
  150.6927  139.2783  155.7888 C   0  0  0  0  0  0  0  0  0  0  0  0
  149.7295  138.1627  156.2093 C   0  0  0  0  0  0  0  0  0  0  0  0
  153.3014  138.3478  159.1199 H   0  0  0  0  0  0  0  0  0  0  0  0
  153.6593  136.6243  159.0249 H   0  0  0  0  0  0  0  0  0  0  0  0
  151.9850  137.1774  159.0506 H   0  0  0  0  0  0  0  0  0  0  0  0
  152.3224  138.2898  156.8174 H   0  0  0  0  0  0  0  0  0  0  0  0
  153.9919  137.7295  156.7934 H   0  0  0  0  0  0  0  0  0  0  0  0
  150.8090  136.1672  157.7712 H   0  0  0  0  0  0  0  0  0  0  0  0
  151.2402  134.4372  155.2353 H   0  0  0  0  0  0  0  0  0  0  0  0
  150.4510  133.9373  156.7835 H   0  0  0  0  0  0  0  0  0  0  0  0
  148.6757  135.5988  156.5247 H   0  0  0  0  0  0  0  0  0  0  0  0
  149.1312  135.8087  153.6289 H   0  0  0  0  0  0  0  0  0  0  0  0
  148.0452  134.8540  152.3027 H   0  0  0  0  0  0  0  0  0  0  0  0
  145.7965  134.5061  150.9446 H   0  0  0  0  0  0  0  0  0  0  0  0
  144.4326  132.7128  149.9017 H   0  0  0  0  0  0  0  0  0  0  0  0
  144.7322  130.3802  150.6858 H   0  0  0  0  0  0  0  0  0  0  0  0
  147.3250  129.0765  152.3039 H   0  0  0  0  0  0  0  0  0  0  0  0
  145.6266  128.8211  151.9305 H   0  0  0  0  0  0  0  0  0  0  0  0
  146.0932  129.3374  153.5435 H   0  0  0  0  0  0  0  0  0  0  0  0
  151.8019  136.5939  154.1120 H   0  0  0  0  0  0  0  0  0  0  0  0
  150.2978  137.3341  153.6111 H   0  0  0  0  0  0  0  0  0  0  0  0
  152.6025  138.6237  155.0223 H   0  0  0  0  0  0  0  0  0  0  0  0
  151.5574  139.2924  153.7746 H   0  0  0  0  0  0  0  0  0  0  0  0
  151.3147  139.5840  156.6309 H   0  0  0  0  0  0  0  0  0  0  0  0
  150.1479  140.1588  155.4469 H   0  0  0  0  0  0  0  0  0  0  0  0
  148.7604  138.3268  155.7371 H   0  0  0  0  0  0  0  0  0  0  0  0
  149.5579  138.1724  157.2860 H   0  0  0  0  0  0  0  0  0  0  0  0
  1  2  1  0  0  0  0
  1 24  1  0  0  0  0
  1 25  1  0  0  0  0
  1 26  1  0  0  0  0
  2  3  1  0  0  0  0
  2 27  1  0  0  0  0
  2 28  1  0  0  0  0
  3  4  1  0  0  0  0
  4 19  1  0  0  0  0
  4  5  1  0  0  0  0
  4 29  1  0  0  0  0
  5  6  1  0  0  0  0
  5 30  1  0  0  0  0
  5 31  1  0  0  0  0
  6  7  1  0  0  0  0
  6 19  1  0  0  0  0
  6 32  1  0  0  0  0
  7  8  1  0  0  0  0
  7 33  1  0  0  0  0
  8  9  2  0  0  0  0
  8 10  1  0  0  0  0
 10 11  1  0  0  0  0
 10 34  1  0  0  0  0
 11 17  1  0  0  0  0
 11 12  2  0  0  0  0
 12 13  1  0  0  0  0
 12 35  1  0  0  0  0
 13 14  2  0  0  0  0
 13 36  1  0  0  0  0
 14 15  1  0  0  0  0
 14 37  1  0  0  0  0
 15 16  1  0  0  0  0
 15 17  1  0  0  0  0
 16 38  1  0  0  0  0
 16 39  1  0  0  0  0
 16 40  1  0  0  0  0
 17 18  2  0  0  0  0
 19 23  1  0  0  0  0
 19 20  1  0  0  0  0
 20 21  1  0  0  0  0
 20 41  1  0  0  0  0
 20 42  1  0  0  0  0
 21 22  1  0  0  0  0
 21 43  1  0  0  0  0
 21 44  1  0  0  0  0
 22 23  1  0  0  0  0
 22 45  1  0  0  0  0
 22 46  1  0  0  0  0
 23 47  1  0  0  0  0
 23 48  1  0  0  0  0
M  END
> <s_m_source_file>
AV-unprocessed.smi

> <i_m_source_file_index>
709

> <i_lp_mmshare_version>
43012

> <i_f3d_flags>
0

> <s_epik_input>
W0NIMl0xW0NIMl1bQ0gyXVtDSDJdQzEyW0NASF0oT1tDSDJdW0NIM10pW0NIMl1bQ0BIXTJbTkhdQyg9TylbTkhdYzNbY0hdW2NIXVtjSF1uKFtDSDNdKWMzPU8=

> <s_epik_cmdline>
J2VwaWtfcHl0aG9uJywgJy1waCcsICc3LjAnLCAnLXRuJywgJzgnLCAnLW1hJywgJzIwMCcsICctbWV0YWxfYmluZGluZycsICctaW1hZScsICc8aW5maWxlLm1hZT4nLCAnLW9tYWUnLCAnPG91dGZpbGUubWFlPic=

> <r_lp_tautomer_probability>
1

> <r_epik_Ionization_Penalty>
2.50859e-05

> <r_epik_Ionization_Penalty_Charging>
5.10493e-06

> <r_epik_Ionization_Penalty_Neutral>
1.9981e-05

> <r_epik_State_Penalty>
-0

> <r_epik_Charging_Adjusted_Penalty>
5.10493e-06

> <i_epik_Tot_Q>
0

> <i_epik_Tot_abs_Q>
0

> <r_epik_Metal_State_Penalty>
-0

> <b_epik_Metal_Only>
0

> <s_lp_Force_Field>
OPLS_2005

> <r_lp_Energy>
49.811

> <b_lp_Chiralities_Consistent>
1

> <s_lp_Variant>
AV-unprocessed.smi:709-3

> <Gold.Version>
5.8.1

> <Gold.Id.Protein>
6NUR|6NUR_protein|mol2

> <Gold.PLP.Fitness>
42.6730

> <Gold.PLP.PLP>
-34.5700

> <Gold.PLP.part.hbond>
-3.0000

> <Gold.PLP.part.metal>
0.0000

> <Gold.PLP.part.buried>
-4.3436

> <Gold.PLP.part.nonpolar>
-27.1854

> <Gold.PLP.part.repulsive>
0.1070

> <Gold.PLP.ligand.clash>
0.0000

> <Gold.PLP.ligand.torsion>
0.5938

> <Gold.PLP.Chemscore.Hbond>
2.9920

> <Gold.PLP.Chemscore.CHOScore>
0.0000

> <Gold.PLP.Chemscore.Metal>
0.0000

> <Gold.Chemscore.Hbonds>
donor molecule, donor type, donor heavy atom, donor atom, acceptor molecule, acceptor atom, score
      L1  H     7    33       P1  7948  0.99
      L1  H    10    34       P1  7948  1.00
      P1  H 10752 10765       L1     3  1.00

> <Gold.PLP.Chemscore.Internal.Correction>
0.3146

> <Gold.Rescore>
     Score         DG    S(hbond)    S(metal)    S(lipo)     H(rot)  DE(clash)    DE(int)     intcor
     17.81     -21.05       2.83        0.00      82.11       1.36       0.03       3.21       ----

> <Gold.Chemscore.Fitness>
17.8074

> <Gold.Chemscore.DG>
-21.0491

> <Gold.Chemscore.ZeroCoef>
-5.4800

> <Gold.Chemscore.Hbond>
2.8275

> <Gold.Chemscore.Metal>
0.0000

> <Gold.Chemscore.Lipo>
82.1055

> <Gold.Chemscore.Internal_Hbond>
0.0000

> <Gold.Chemscore.DEClash>
0.0310

> <Gold.Chemscore.DEInternal>
3.2106

> <Gold.Chemscore.Rot>
1.3599

> <Gold.Chemscore.Internal.Correction>
   9.000000E+99

> <Gold.Chemscore.Hbonds>
donor molecule, donor type, donor heavy atom, donor atom, acceptor molecule, acceptor atom, score
      L1  H     7    33       P1  7948  0.78
      L1  H    10    34       P1  7948  0.60
      P1  H 10752 10765       L1     3  0.92

> <Gold.Chemscore.Hbond.Weighted>
-9.4440

> <Gold.Chemscore.Metal.Weighted>
-0.0000

> <Gold.Chemscore.Lipo.Weighted>
-9.6063

> <Gold.Chemscore.Internal_Hbond.Weighted>
0.0000

> <Gold.Chemscore.DEClash.Weighted>
0.0310

> <Gold.Chemscore.DEInternal.Weighted>
3.2106

> <Gold.Chemscore.Rot.Weighted>
3.4813

> <Gold.Chemscore.Internal.Correction.Weighted>
   9.000000E+99

> <Gold.Protein.RotatedTorsions>
[ 6907 6896 6895 6894 ] final  -18.08 input  -60.11 | X-H torsion
[ 7974 7965 7964 7962 ] final   46.57 input  175.53 | X-H torsion
[ 8008 7997 7996 7995 ] final  -93.29 input   59.86 | X-H torsion
[ 10167 10162 10161 10158 ] final -112.93 input  -65.29 | X-H torsion
[ 10718 10713 10712 10709 ] final  147.89 input   66.30 | X-H torsion
[ 10763 10752 10751 10750 ] final -134.88 input  -60.55 | X-H torsion
[ 11005 11000 10999 10996 ] final -121.59 input  -57.11 | X-H torsion

> <Gold.Protein.ActiveResidues>
 VAL166  LYS551  ARG553  GLY616  TRP617  ASP618  TYR619  PRO620  LYS621  CYS622 
 ASP623  PHE694  ASN695  SER759  ASP760  ASP761  ALA762  ILE779  LEU786  VAL792 
 PHE793  MET794  SER795  GLU796  ALA797  LYS798  CYS799  TRP800  GLU811  SER814 

> <Gold.Protein.RotatedAtoms>
  151.2835  135.0721  159.9177 H   0  0  0  0  0  0  0  0  0  0  0  0  # atno 6907 bound_to 6896
  152.5329  134.0006  159.7903 H   0  0  0  0  0  0  0  0  0  0  0  0  # atno 6908 bound_to 6896
  151.0264  133.5779  159.2696 H   0  0  0  0  0  0  0  0  0  0  0  0  # atno 6909 bound_to 6896
  146.0378  139.4842  142.9797 H   0  0  0  0  0  0  0  0  0  0  0  0  # atno 7974 bound_to 7965
  154.7338  140.0500  157.0750 H   0  0  0  0  0  0  0  0  0  0  0  0  # atno 8008 bound_to 7997
  155.0267  140.3153  155.4754 H   0  0  0  0  0  0  0  0  0  0  0  0  # atno 8009 bound_to 7997
  156.2848  140.2157  156.5387 H   0  0  0  0  0  0  0  0  0  0  0  0  # atno 8010 bound_to 7997
  140.1174  143.4474  152.1713 H   0  0  0  0  0  0  0  0  0  0  0  0  # atno 10167 bound_to 10162
  157.3154  131.0895  151.1283 H   0  0  0  0  0  0  0  0  0  0  0  0  # atno 10718 bound_to 10713
  154.8712  135.3721  154.4807 H   0  0  0  0  0  0  0  0  0  0  0  0  # atno 10763 bound_to 10752
  153.5461  135.7025  153.5618 H   0  0  0  0  0  0  0  0  0  0  0  0  # atno 10764 bound_to 10752
  153.3758  135.4009  155.1786 H   0  0  0  0  0  0  0  0  0  0  0  0  # atno 10765 bound_to 10752
  141.0059  134.0335  157.3478 H   0  0  0  0  0  0  0  0  0  0  0  0  # atno 11005 bound_to 11000
  145.6935  141.0157  143.1542 LP  0  0  0  0  0  0  0  0  0  0  0  0  # atno 17320 bound_to 7965
  144.7060  139.8560  143.7430 LP  0  0  0  0  0  0  0  0  0  0  0  0  # atno 17321 bound_to 7965
  139.5587  144.7391  151.4219 LP  0  0  0  0  0  0  0  0  0  0  0  0  # atno 17342 bound_to 10162
  140.6891  143.7903  150.7230 LP  0  0  0  0  0  0  0  0  0  0  0  0  # atno 17343 bound_to 10162
  157.2588  130.6649  149.5965 LP  0  0  0  0  0  0  0  0  0  0  0  0  # atno 17370 bound_to 10713
  155.9681  130.4515  150.5738 LP  0  0  0  0  0  0  0  0  0  0  0  0  # atno 17371 bound_to 10713
  139.9063  135.0180  156.7499 LP  0  0  0  0  0  0  0  0  0  0  0  0  # atno 17394 bound_to 11000
  140.6814  133.9471  155.7912 LP  0  0  0  0  0  0  0  0  0  0  0  0  # atno 17395 bound_to 11000

$$$$
