AV-unprocessed.smi:2390|AV-procd|sdf|9475|dock7
  -GOLD-   2272013103D 1   1.00000     0.00000
 Structure written by MMmdl.
 45 46  0  0  0  0  0  0  0  0  1 V2000
  153.5098  140.8724  159.9576 C   0  0  0  0  0  0  0  0  0  0  0  0
  152.7994  142.1314  159.5067 C   0  0  0  0  0  0  0  0  0  0  0  0
  153.1793  143.3943  160.0017 C   0  0  0  0  0  0  0  0  0  0  0  0
  152.4819  144.5245  159.5395 C   0  0  0  0  0  0  0  0  0  0  0  0
  151.4421  144.3470  158.6066 C   0  0  0  0  0  0  0  0  0  0  0  0
  151.1243  143.0447  158.1593 C   0  0  0  0  0  0  0  0  0  0  0  0
  150.0678  142.9743  157.2130 N   0  0  0  0  0  0  0  0  0  0  0  0
  149.3590  141.8952  156.8368 C   0  0  0  0  0  0  0  0  0  0  0  0
  149.4807  140.7627  157.3050 O   0  0  0  0  0  0  0  0  0  0  0  0
  148.4787  142.2077  155.8744 N   0  0  0  0  0  0  0  0  0  0  0  0
  147.5480  141.2763  155.2376 C   0  0  2  0  0  0  0  0  0  0  0  0
  147.8609  141.2150  153.7321 C   0  0  0  0  0  0  0  0  0  0  0  0
  146.0581  141.6360  155.5483 C   0  0  1  0  0  0  0  0  0  0  0  0
  145.7340  141.3145  157.0311 C   0  0  0  0  0  0  0  0  0  0  0  0
  145.6804  143.0160  155.1593 N   0  0  0  0  0  0  0  0  0  0  0  0
  145.6127  143.2005  153.7050 C   0  0  0  0  0  0  0  0  0  0  0  0
  145.2000  144.6276  153.3038 C   0  0  0  0  0  0  0  0  0  0  0  0
  143.9520  144.9541  153.8997 O   0  0  0  0  0  0  0  0  0  0  0  0
  143.9966  144.8612  155.3167 C   0  0  0  0  0  0  0  0  0  0  0  0
  144.3940  143.4332  155.7280 C   0  0  0  0  0  0  0  0  0  0  0  0
  151.8024  141.9608  158.6119 N   0  0  0  0  0  0  0  0  0  0  0  0
  154.1415  141.0645  160.8252 H   0  0  0  0  0  0  0  0  0  0  0  0
  154.1391  140.4870  159.1551 H   0  0  0  0  0  0  0  0  0  0  0  0
  152.7877  140.1015  160.2287 H   0  0  0  0  0  0  0  0  0  0  0  0
  153.9834  143.4972  160.7157 H   0  0  0  0  0  0  0  0  0  0  0  0
  152.7402  145.5118  159.8929 H   0  0  0  0  0  0  0  0  0  0  0  0
  150.8975  145.2053  158.2400 H   0  0  0  0  0  0  0  0  0  0  0  0
  149.8359  143.8439  156.7566 H   0  0  0  0  0  0  0  0  0  0  0  0
  148.4471  143.1644  155.5543 H   0  0  0  0  0  0  0  0  0  0  0  0
  147.7863  140.2984  155.6541 H   0  0  0  0  0  0  0  0  0  0  0  0
  147.2203  140.4953  153.2222 H   0  0  0  0  0  0  0  0  0  0  0  0
  148.8926  140.9058  153.5617 H   0  0  0  0  0  0  0  0  0  0  0  0
  147.7253  142.1830  153.2493 H   0  0  0  0  0  0  0  0  0  0  0  0
  145.4472  140.9556  154.9527 H   0  0  0  0  0  0  0  0  0  0  0  0
  146.0982  140.3348  157.3375 H   0  0  0  0  0  0  0  0  0  0  0  0
  144.6605  141.2903  157.2155 H   0  0  0  0  0  0  0  0  0  0  0  0
  146.1709  142.0520  157.7047 H   0  0  0  0  0  0  0  0  0  0  0  0
  146.5808  143.0126  153.2454 H   0  0  0  0  0  0  0  0  0  0  0  0
  144.9113  142.4849  153.2732 H   0  0  0  0  0  0  0  0  0  0  0  0
  145.9588  145.3489  153.6112 H   0  0  0  0  0  0  0  0  0  0  0  0
  145.1067  144.7036  152.2203 H   0  0  0  0  0  0  0  0  0  0  0  0
  144.7040  145.5901  155.7159 H   0  0  0  0  0  0  0  0  0  0  0  0
  143.0160  145.1132  155.7206 H   0  0  0  0  0  0  0  0  0  0  0  0
  143.6113  142.7375  155.4217 H   0  0  0  0  0  0  0  0  0  0  0  0
  144.4301  143.4118  156.8159 H   0  0  0  0  0  0  0  0  0  0  0  0
  1  2  1  0  0  0  0
  1 22  1  0  0  0  0
  1 23  1  0  0  0  0
  1 24  1  0  0  0  0
  2 21  1  0  0  0  0
  2  3  2  0  0  0  0
  3  4  1  0  0  0  0
  3 25  1  0  0  0  0
  4  5  2  0  0  0  0
  4 26  1  0  0  0  0
  5  6  1  0  0  0  0
  5 27  1  0  0  0  0
  6  7  1  0  0  0  0
  6 21  2  0  0  0  0
  7  8  1  0  0  0  0
  7 28  1  0  0  0  0
  8  9  2  0  0  0  0
  8 10  1  0  0  0  0
 10 11  1  0  0  0  0
 10 29  1  0  0  0  0
 11 12  1  0  0  0  0
 11 13  1  0  0  0  0
 11 30  1  0  0  0  0
 12 31  1  0  0  0  0
 12 32  1  0  0  0  0
 12 33  1  0  0  0  0
 13 14  1  0  0  0  0
 13 15  1  0  0  0  0
 13 34  1  0  0  0  0
 14 35  1  0  0  0  0
 14 36  1  0  0  0  0
 14 37  1  0  0  0  0
 15 20  1  0  0  0  0
 15 16  1  0  0  0  0
 16 17  1  0  0  0  0
 16 38  1  0  0  0  0
 16 39  1  0  0  0  0
 17 18  1  0  0  0  0
 17 40  1  0  0  0  0
 17 41  1  0  0  0  0
 18 19  1  0  0  0  0
 19 20  1  0  0  0  0
 19 42  1  0  0  0  0
 19 43  1  0  0  0  0
 20 44  1  0  0  0  0
 20 45  1  0  0  0  0
M  END
> <s_m_source_file>
AV-unprocessed.smi

> <i_m_source_file_index>
2390

> <i_lp_mmshare_version>
43012

> <i_f3d_flags>
0

> <s_epik_input>
W0NIM11jMVtjSF1bY0hdW2NIXWMobjEpW05IXUMoPU8pW05IXVtDQEhdKFtDSDNdKVtDQEhdKFtDSDNdKU4yW0NIMl1bQ0gyXU9bQ0gyXVtDSDJdMg==

> <s_epik_cmdline>
J2VwaWtfcHl0aG9uJywgJy1waCcsICc3LjAnLCAnLXRuJywgJzgnLCAnLW1hJywgJzIwMCcsICctbWV0YWxfYmluZGluZycsICctaW1hZScsICc8aW5maWxlLm1hZT4nLCAnLW9tYWUnLCAnPG91dGZpbGUubWFlPic=

> <r_epik_Ionization_Penalty>
0.266074

> <r_epik_Ionization_Penalty_Charging>
0

> <r_epik_Ionization_Penalty_Neutral>
0.266074

> <r_epik_State_Penalty>
0.257924

> <r_epik_Charging_Adjusted_Penalty>
0.257924

> <i_epik_Tot_Q>
0

> <i_epik_Tot_abs_Q>
0

> <r_epik_Metal_State_Penalty>
0.257919

> <b_epik_Metal_Only>
0

> <s_lp_Force_Field>
OPLS_2005

> <r_lp_Energy>
33.31

> <b_lp_Chiralities_Consistent>
1

> <s_lp_Variant>
AV-unprocessed.smi:2390-3

> <Gold.Version>
5.8.1

> <Gold.Id.Protein>
6NUR|6NUR_protein|mol2

> <Gold.PLP.Fitness>
45.3923

> <Gold.PLP.PLP>
-40.1172

> <Gold.PLP.part.hbond>
-2.0000

> <Gold.PLP.part.metal>
0.0000

> <Gold.PLP.part.buried>
-6.5341

> <Gold.PLP.part.nonpolar>
-32.6037

> <Gold.PLP.part.repulsive>
0.4309

> <Gold.PLP.ligand.clash>
0.0128

> <Gold.PLP.ligand.torsion>
0.4008

> <Gold.PLP.Chemscore.Hbond>
2.0000

> <Gold.PLP.Chemscore.CHOScore>
0.0000

> <Gold.PLP.Chemscore.Metal>
0.0000

> <Gold.Chemscore.Hbonds>
donor molecule, donor type, donor heavy atom, donor atom, acceptor molecule, acceptor atom, score
      L1  H     7    28       P1  8028  1.00
      L1  H    10    29       P1  8028  1.00

> <Gold.PLP.Chemscore.Internal.Correction>
0.0895

> <Gold.Rescore>
     Score         DG    S(hbond)    S(metal)    S(lipo)     H(rot)  DE(clash)    DE(int)     intcor
     18.01     -19.99       1.91        0.00     101.03       1.44       0.11       1.87       ----

> <Gold.Chemscore.Fitness>
18.0126

> <Gold.Chemscore.DG>
-19.9884

> <Gold.Chemscore.ZeroCoef>
-5.4800

> <Gold.Chemscore.Hbond>
1.9082

> <Gold.Chemscore.Metal>
0.0000

> <Gold.Chemscore.Lipo>
101.0300

> <Gold.Chemscore.Internal_Hbond>
0.0000

> <Gold.Chemscore.DEClash>
0.1078

> <Gold.Chemscore.DEInternal>
1.8680

> <Gold.Chemscore.Rot>
1.4396

> <Gold.Chemscore.Internal.Correction>
   9.000000E+99

> <Gold.Chemscore.Hbonds>
donor molecule, donor type, donor heavy atom, donor atom, acceptor molecule, acceptor atom, score
      L1  H     7    28       P1  8028  0.94
      L1  H    10    29       P1  8028  0.95

> <Gold.Chemscore.Hbond.Weighted>
-6.3734

> <Gold.Chemscore.Metal.Weighted>
-0.0000

> <Gold.Chemscore.Lipo.Weighted>
-11.8205

> <Gold.Chemscore.Internal_Hbond.Weighted>
0.0000

> <Gold.Chemscore.DEClash.Weighted>
0.1078

> <Gold.Chemscore.DEInternal.Weighted>
1.8680

> <Gold.Chemscore.Rot.Weighted>
3.6855

> <Gold.Chemscore.Internal.Correction.Weighted>
   9.000000E+99

> <Gold.Protein.RotatedTorsions>
[ 6907 6896 6895 6894 ] final  -54.89 input  -60.11 | X-H torsion
[ 7974 7965 7964 7962 ] final  -47.08 input  175.53 | X-H torsion
[ 8008 7997 7996 7995 ] final  122.52 input   59.86 | X-H torsion
[ 10167 10162 10161 10158 ] final -166.80 input  -65.29 | X-H torsion
[ 10718 10713 10712 10709 ] final  -14.82 input   66.30 | X-H torsion
[ 10763 10752 10751 10750 ] final  126.58 input  -60.55 | X-H torsion
[ 11005 11000 10999 10996 ] final   31.22 input  -57.11 | X-H torsion

> <Gold.Protein.ActiveResidues>
 VAL166  LYS551  ARG553  GLY616  TRP617  ASP618  TYR619  PRO620  LYS621  CYS622 
 ASP623  PHE694  ASN695  SER759  ASP760  ASP761  ALA762  ILE779  LEU786  VAL792 
 PHE793  MET794  SER795  GLU796  ALA797  LYS798  CYS799  TRP800  GLU811  SER814 

> <Gold.Protein.RotatedAtoms>
  150.8299  134.7547  159.6844 H   0  0  0  0  0  0  0  0  0  0  0  0  # atno 6907 bound_to 6896
  152.4405  134.5597  159.9900 H   0  0  0  0  0  0  0  0  0  0  0  0  # atno 6908 bound_to 6896
  151.5761  133.3346  159.3035 H   0  0  0  0  0  0  0  0  0  0  0  0  # atno 6909 bound_to 6896
  145.9653  140.7438  142.9437 H   0  0  0  0  0  0  0  0  0  0  0  0  # atno 7974 bound_to 7965
  156.2730  140.2784  156.1480 H   0  0  0  0  0  0  0  0  0  0  0  0  # atno 8008 bound_to 7997
  155.0883  140.0388  157.2678 H   0  0  0  0  0  0  0  0  0  0  0  0  # atno 8009 bound_to 7997
  154.6909  140.2629  155.6819 H   0  0  0  0  0  0  0  0  0  0  0  0  # atno 8010 bound_to 7997
  139.6091  144.0852  152.1823 H   0  0  0  0  0  0  0  0  0  0  0  0  # atno 10167 bound_to 10162
  156.6105  130.4848  149.6203 H   0  0  0  0  0  0  0  0  0  0  0  0  # atno 10718 bound_to 10713
  153.6956  135.3291  155.3212 H   0  0  0  0  0  0  0  0  0  0  0  0  # atno 10763 bound_to 10752
  154.8427  135.4442  154.1463 H   0  0  0  0  0  0  0  0  0  0  0  0  # atno 10764 bound_to 10752
  153.2517  135.6982  153.7750 H   0  0  0  0  0  0  0  0  0  0  0  0  # atno 10765 bound_to 10752
  140.2861  134.2917  155.7788 H   0  0  0  0  0  0  0  0  0  0  0  0  # atno 11005 bound_to 11000
  144.6824  140.2658  143.7312 LP  0  0  0  0  0  0  0  0  0  0  0  0  # atno 17320 bound_to 7965
  145.7983  139.1954  143.2063 LP  0  0  0  0  0  0  0  0  0  0  0  0  # atno 17321 bound_to 7965
  140.0466  144.5966  150.7369 LP  0  0  0  0  0  0  0  0  0  0  0  0  # atno 17342 bound_to 10162
  140.7306  143.2685  151.3965 LP  0  0  0  0  0  0  0  0  0  0  0  0  # atno 17343 bound_to 10162
  156.2394  130.6842  151.1541 LP  0  0  0  0  0  0  0  0  0  0  0  0  # atno 17370 bound_to 10713
  157.7255  131.0652  150.5948 LP  0  0  0  0  0  0  0  0  0  0  0  0  # atno 17371 bound_to 10713
  141.2154  133.7556  156.9554 LP  0  0  0  0  0  0  0  0  0  0  0  0  # atno 17394 bound_to 11000
  140.1238  134.9400  157.2241 LP  0  0  0  0  0  0  0  0  0  0  0  0  # atno 17395 bound_to 11000

$$$$
