AV-unprocessed.smi:3032|AV-procd|sdf|11559|dock6
  -GOLD-   2272016523D 1   1.00000     0.00000
 Structure written by MMmdl.
 37 38  0  0  0  0  0  0  0  0  1 V2000
  152.0808  145.1053  158.9234 C   0  0  0  0  0  0  0  0  0  0  0  0
  151.6618  143.6306  158.8403 C   0  0  2  0  0  0  0  0  0  0  0  0
  152.7832  142.6977  159.3372 C   0  0  0  0  0  0  0  0  0  0  0  0
  152.3680  141.2207  159.2501 C   0  0  0  0  0  0  0  0  0  0  0  0
  151.9393  140.8457  157.8232 C   0  0  0  0  0  0  0  0  0  0  0  0
  150.8067  141.7649  157.3210 C   0  0  2  0  0  0  0  0  0  0  0  0
  150.3998  141.3914  155.8895 C   0  0  0  0  0  0  0  0  0  0  0  0
  150.9420  140.4473  155.3142 O   0  0  0  0  0  0  0  0  0  0  0  0
  149.4300  142.1316  155.3314 N   0  0  0  0  0  0  0  0  0  0  0  0
  148.8570  141.9076  154.0072 C   0  0  0  0  0  0  0  0  0  0  0  0
  147.3662  141.5147  154.0547 C   0  0  0  0  0  0  0  0  0  0  0  0
  147.1236  140.0452  153.9107 C   0  0  0  0  0  0  0  0  0  0  0  0
  145.9158  139.5448  153.6415 N   0  0  0  0  0  0  0  0  0  0  0  0
  146.0014  138.2016  153.5442 N   0  0  0  0  0  0  0  0  0  0  0  0
  147.2961  137.9881  153.7717 C   0  0  0  0  0  0  0  0  0  0  0  0
  148.0539  139.1015  154.0061 N   0  0  0  0  0  0  0  0  0  0  0  0
  151.2361  143.2453  157.4097 C   0  0  0  0  0  0  0  0  0  0  0  0
  145.0525  140.0544  153.5162 H   0  0  0  0  0  0  0  0  0  0  0  0
  152.9451  145.3086  158.2905 H   0  0  0  0  0  0  0  0  0  0  0  0
  152.3440  145.3816  159.9448 H   0  0  0  0  0  0  0  0  0  0  0  0
  151.2715  145.7621  158.6032 H   0  0  0  0  0  0  0  0  0  0  0  0
  150.7994  143.4981  159.4952 H   0  0  0  0  0  0  0  0  0  0  0  0
  153.6850  142.8566  158.7440 H   0  0  0  0  0  0  0  0  0  0  0  0
  153.0444  142.9429  160.3672 H   0  0  0  0  0  0  0  0  0  0  0  0
  153.1935  140.5838  159.5690 H   0  0  0  0  0  0  0  0  0  0  0  0
  151.5461  141.0304  159.9413 H   0  0  0  0  0  0  0  0  0  0  0  0
  152.8029  140.9135  157.1595 H   0  0  0  0  0  0  0  0  0  0  0  0
  151.6160  139.8038  157.8026 H   0  0  0  0  0  0  0  0  0  0  0  0
  149.9416  141.6231  157.9717 H   0  0  0  0  0  0  0  0  0  0  0  0
  149.0395  142.8888  155.8742 H   0  0  0  0  0  0  0  0  0  0  0  0
  148.9662  142.8373  153.4480 H   0  0  0  0  0  0  0  0  0  0  0  0
  149.4336  141.1544  153.4685 H   0  0  0  0  0  0  0  0  0  0  0  0
  146.9283  141.8499  154.9954 H   0  0  0  0  0  0  0  0  0  0  0  0
  146.8212  142.0361  153.2664 H   0  0  0  0  0  0  0  0  0  0  0  0
  147.7124  136.9914  153.7670 H   0  0  0  0  0  0  0  0  0  0  0  0
  150.4144  143.8872  157.0880 H   0  0  0  0  0  0  0  0  0  0  0  0
  152.0628  143.4379  156.7233 H   0  0  0  0  0  0  0  0  0  0  0  0
  1  2  1  0  0  0  0
  1 19  1  0  0  0  0
  1 20  1  0  0  0  0
  1 21  1  0  0  0  0
  2 17  1  0  0  0  0
  2  3  1  0  0  0  0
  2 22  1  0  0  0  0
  3  4  1  0  0  0  0
  3 23  1  0  0  0  0
  3 24  1  0  0  0  0
  4  5  1  0  0  0  0
  4 25  1  0  0  0  0
  4 26  1  0  0  0  0
  5  6  1  0  0  0  0
  5 27  1  0  0  0  0
  5 28  1  0  0  0  0
  6  7  1  0  0  0  0
  6 17  1  0  0  0  0
  6 29  1  0  0  0  0
  7  8  2  0  0  0  0
  7  9  1  0  0  0  0
  9 10  1  0  0  0  0
  9 30  1  0  0  0  0
 10 11  1  0  0  0  0
 10 31  1  0  0  0  0
 10 32  1  0  0  0  0
 11 33  1  0  0  0  0
 11 34  1  0  0  0  0
 11 12  1  0  0  0  0
 12 16  2  0  0  0  0
 12 13  1  0  0  0  0
 13 18  1  0  0  0  0
 13 14  1  0  0  0  0
 14 15  2  0  0  0  0
 15 16  1  0  0  0  0
 15 35  1  0  0  0  0
 17 36  1  0  0  0  0
 17 37  1  0  0  0  0
M  END
> <s_m_source_file>
AV-unprocessed.smi

> <i_m_source_file_index>
3032

> <i_lp_mmshare_version>
43012

> <i_f3d_flags>
0

> <s_epik_input>
W0NIM11bQ0BASF0xW0NIMl1bQ0gyXVtDSDJdW0NASF0oW0NIMl0xKUMoPU8pW05IXVtDSDJdW0NIMl1jMm5uW2NIXVtuSF0y

> <s_epik_cmdline>
J2VwaWtfcHl0aG9uJywgJy1waCcsICc3LjAnLCAnLXRuJywgJzgnLCAnLW1hJywgJzIwMCcsICctbWV0YWxfYmluZGluZycsICctaW1hZScsICc8aW5maWxlLm1hZT4nLCAnLW9tYWUnLCAnPG91dGZpbGUubWFlPic=

> <r_lp_tautomer_probability>
0.948284

> <r_epik_Ionization_Penalty>
0.000474052

> <r_epik_Ionization_Penalty_Charging>
0

> <r_epik_Ionization_Penalty_Neutral>
0.000474052

> <r_epik_State_Penalty>
0.271807

> <r_epik_Charging_Adjusted_Penalty>
0.271807

> <i_epik_Tot_Q>
0

> <i_epik_Tot_abs_Q>
0

> <r_epik_Metal_State_Penalty>
0.397201

> <b_epik_Metal_Only>
0

> <s_lp_Force_Field>
OPLS_2005

> <r_lp_Energy>
10.6887

> <b_lp_Chiralities_Consistent>
1

> <s_lp_Variant>
AV-unprocessed.smi:3032-3

> <Gold.Version>
5.8.1

> <Gold.Id.Protein>
6NUR|6NUR_protein|mol2

> <Gold.PLP.Fitness>
43.1174

> <Gold.PLP.PLP>
-33.5835

> <Gold.PLP.part.hbond>
-3.0000

> <Gold.PLP.part.metal>
0.0000

> <Gold.PLP.part.buried>
-0.8863

> <Gold.PLP.part.nonpolar>
-29.8090

> <Gold.PLP.part.repulsive>
0.5905

> <Gold.PLP.ligand.clash>
0.0000

> <Gold.PLP.ligand.torsion>
0.4806

> <Gold.PLP.Chemscore.Hbond>
2.6960

> <Gold.PLP.Chemscore.CHOScore>
0.7962

> <Gold.PLP.Chemscore.Metal>
0.0000

> <Gold.Chemscore.Hbonds>
donor molecule, donor type, donor heavy atom, donor atom, acceptor molecule, acceptor atom, score
      L1  H     9    30       P1  8028  0.70
      L1  H    13    18       P1 10175  0.98
      P1  H  7989  7998       L1     8  0.99
      L1  C    15    35       P1  7948  0.79

> <Gold.PLP.Chemscore.Internal.Correction>
0.0186

> <Gold.Rescore>
     Score         DG    S(hbond)    S(metal)    S(lipo)     H(rot)  DE(clash)    DE(int)     intcor
     16.52     -18.48       2.59        0.00      86.29       2.25       1.60       0.36       ----

> <Gold.Chemscore.Fitness>
16.5203

> <Gold.Chemscore.DG>
-18.4832

> <Gold.Chemscore.ZeroCoef>
-5.4800

> <Gold.Chemscore.Hbond>
2.5950

> <Gold.Chemscore.Metal>
0.0000

> <Gold.Chemscore.Lipo>
86.2938

> <Gold.Chemscore.Internal_Hbond>
0.0000

> <Gold.Chemscore.DEClash>
1.5984

> <Gold.Chemscore.DEInternal>
0.3645

> <Gold.Chemscore.Rot>
2.2501

> <Gold.Chemscore.Internal.Correction>
   9.000000E+99

> <Gold.Chemscore.Hbonds>
donor molecule, donor type, donor heavy atom, donor atom, acceptor molecule, acceptor atom, score
      L1  H     9    30       P1  8028  0.70
      L1  H    13    18       P1 10175  0.93
      P1  H  7989  7998       L1     8  0.81

> <Gold.Chemscore.Hbond.Weighted>
-8.6671

> <Gold.Chemscore.Metal.Weighted>
-0.0000

> <Gold.Chemscore.Lipo.Weighted>
-10.0964

> <Gold.Chemscore.Internal_Hbond.Weighted>
0.0000

> <Gold.Chemscore.DEClash.Weighted>
1.5984

> <Gold.Chemscore.DEInternal.Weighted>
0.3645

> <Gold.Chemscore.Rot.Weighted>
5.7603

> <Gold.Chemscore.Internal.Correction.Weighted>
   9.000000E+99

> <Gold.Protein.RotatedTorsions>
[ 6907 6896 6895 6894 ] final -174.21 input  -60.11 | X-H torsion
[ 7974 7965 7964 7962 ] final  164.33 input  175.53 | X-H torsion
[ 8008 7997 7996 7995 ] final   82.29 input   59.86 | X-H torsion
[ 10167 10162 10161 10158 ] final  -45.03 input  -65.29 | X-H torsion
[ 10718 10713 10712 10709 ] final  131.10 input   66.30 | X-H torsion
[ 10763 10752 10751 10750 ] final  157.47 input  -60.55 | X-H torsion
[ 11005 11000 10999 10996 ] final -100.82 input  -57.11 | X-H torsion

> <Gold.Protein.ActiveResidues>
 VAL166  LYS551  ARG553  GLY616  TRP617  ASP618  TYR619  PRO620  LYS621  CYS622 
 ASP623  PHE694  ASN695  SER759  ASP760  ASP761  ALA762  ILE779  LEU786  VAL792 
 PHE793  MET794  SER795  GLU796  ALA797  LYS798  CYS799  TRP800  GLU811  SER814 

> <Gold.Protein.RotatedAtoms>
  151.5687  133.3393  159.2985 H   0  0  0  0  0  0  0  0  0  0  0  0  # atno 6907 bound_to 6896
  150.8380  134.7664  159.6920 H   0  0  0  0  0  0  0  0  0  0  0  0  # atno 6908 bound_to 6896
  152.4453  134.5514  159.9919 H   0  0  0  0  0  0  0  0  0  0  0  0  # atno 6909 bound_to 6896
  144.7550  139.8310  143.6353 H   0  0  0  0  0  0  0  0  0  0  0  0  # atno 7974 bound_to 7965
  155.9086  140.3429  155.6081 H   0  0  0  0  0  0  0  0  0  0  0  0  # atno 8008 bound_to 7997
  155.7414  140.0808  157.2262 H   0  0  0  0  0  0  0  0  0  0  0  0  # atno 8009 bound_to 7997
  154.4053  140.1570  156.2608 H   0  0  0  0  0  0  0  0  0  0  0  0  # atno 8010 bound_to 7997
  140.6874  143.2900  151.3580 H   0  0  0  0  0  0  0  0  0  0  0  0  # atno 10167 bound_to 10162
  157.5000  131.1094  150.9440 H   0  0  0  0  0  0  0  0  0  0  0  0  # atno 10718 bound_to 10713
  154.2007  135.2790  155.2992 H   0  0  0  0  0  0  0  0  0  0  0  0  # atno 10763 bound_to 10752
  154.5856  135.5575  153.7231 H   0  0  0  0  0  0  0  0  0  0  0  0  # atno 10764 bound_to 10752
  153.0088  135.6355  154.2145 H   0  0  0  0  0  0  0  0  0  0  0  0  # atno 10765 bound_to 10752
  141.1255  133.8429  157.1153 H   0  0  0  0  0  0  0  0  0  0  0  0  # atno 11005 bound_to 11000
  146.1549  139.4643  143.0025 LP  0  0  0  0  0  0  0  0  0  0  0  0  # atno 17320 bound_to 7965
  145.6811  141.0191  143.1606 LP  0  0  0  0  0  0  0  0  0  0  0  0  # atno 17321 bound_to 7965
  139.6244  144.0842  152.2421 LP  0  0  0  0  0  0  0  0  0  0  0  0  # atno 17342 bound_to 10162
  140.0297  144.6090  150.7498 LP  0  0  0  0  0  0  0  0  0  0  0  0  # atno 17343 bound_to 10162
  157.0114  130.5638  149.5321 LP  0  0  0  0  0  0  0  0  0  0  0  0  # atno 17370 bound_to 10713
  156.0223  130.5318  150.8311 LP  0  0  0  0  0  0  0  0  0  0  0  0  # atno 17371 bound_to 10713
  140.0250  134.9928  157.0668 LP  0  0  0  0  0  0  0  0  0  0  0  0  # atno 17394 bound_to 11000
  140.4377  134.1714  155.7172 LP  0  0  0  0  0  0  0  0  0  0  0  0  # atno 17395 bound_to 11000

$$$$
