AV-unprocessed.smi:703|AV-procd|sdf|3437|dock4
  -GOLD-   22720 0423D 1   1.00000     0.00000
 Structure written by MMmdl.
 37 38  0  0  0  0  0  0  0  0  3 V2000
  146.4301  131.9775  152.4199 C   0  0  0  0  0  0  0  0  0  0  0  0
  146.8584  133.3957  152.0195 C   0  0  0  0  0  0  0  0  0  0  0  0
  147.7609  134.0121  153.0213 N   0  3  2  0  0  0  0  0  0  0  0  0
  148.9865  133.2410  153.3237 C   0  0  0  0  0  0  0  0  0  0  0  0
  149.3978  133.6796  154.7317 C   0  0  2  0  0  0  0  0  0  0  0  0
  150.3711  132.6995  155.4154 C   0  0  0  0  0  0  0  0  0  0  0  0
  148.0422  133.8652  155.4323 C   0  0  1  0  0  0  0  0  0  0  0  0
  148.1331  134.8266  156.5198 N   0  5  0  0  0  0  0  0  0  0  0  0
  148.7346  134.3596  157.9530 S   0  0  0  0  0  0  0  0  0  0  0  0
  149.2499  132.9805  157.9279 O   0  0  0  0  0  0  0  0  0  0  0  0
  149.6024  135.3894  158.5460 O   0  0  0  0  0  0  0  0  0  0  0  0
  147.2018  134.3329  158.9827 C   0  0  0  0  0  0  0  0  0  0  0  0
  147.3504  135.2409  160.1731 C   0  0  0  0  0  0  0  0  0  0  0  0
  147.3192  134.9002  161.5543 C   0  0  0  0  0  0  0  0  0  0  0  0
  147.5044  136.0973  162.1832 C   0  0  0  0  0  0  0  0  0  0  0  0
  147.6311  137.0967  161.2746 O   0  0  0  0  0  0  0  0  0  0  0  0
  147.5274  136.5412  159.9944 N   0  0  0  0  0  0  0  0  0  0  0  0
  147.1079  134.3509  154.3086 C   0  0  0  0  0  0  0  0  0  0  0  0
  145.8152  131.5268  151.6407 H   0  0  0  0  0  0  0  0  0  0  0  0
  145.8434  131.9788  153.3388 H   0  0  0  0  0  0  0  0  0  0  0  0
  147.2957  131.3321  152.5734 H   0  0  0  0  0  0  0  0  0  0  0  0
  147.3821  133.3465  151.0640 H   0  0  0  0  0  0  0  0  0  0  0  0
  145.9836  134.0298  151.8665 H   0  0  0  0  0  0  0  0  0  0  0  0
  148.7775  132.1680  153.2907 H   0  0  0  0  0  0  0  0  0  0  0  0
  149.7678  133.4433  152.5902 H   0  0  0  0  0  0  0  0  0  0  0  0
  149.8885  134.6515  154.6443 H   0  0  0  0  0  0  0  0  0  0  0  0
  149.9507  131.6966  155.5121 H   0  0  0  0  0  0  0  0  0  0  0  0
  150.6545  133.0402  156.4130 H   0  0  0  0  0  0  0  0  0  0  0  0
  151.2898  132.6091  154.8353 H   0  0  0  0  0  0  0  0  0  0  0  0
  147.6965  132.8872  155.7706 H   0  0  0  0  0  0  0  0  0  0  0  0
  146.3757  134.6588  158.3502 H   0  0  0  0  0  0  0  0  0  0  0  0
  146.9964  133.3053  159.2815 H   0  0  0  0  0  0  0  0  0  0  0  0
  147.1885  133.9293  162.0081 H   0  0  0  0  0  0  0  0  0  0  0  0
  147.5656  136.3888  163.2211 H   0  0  0  0  0  0  0  0  0  0  0  0
  146.9610  135.4322  154.3321 H   0  0  0  0  0  0  0  0  0  0  0  0
  146.1247  133.8876  154.4063 H   0  0  0  0  0  0  0  0  0  0  0  0
  148.0698  134.8949  152.6404 H   0  0  0  0  0  0  0  0  0  0  0  0
  1  2  1  0  0  0  0
  1 19  1  0  0  0  0
  1 20  1  0  0  0  0
  1 21  1  0  0  0  0
  2  3  1  0  0  0  0
  2 22  1  0  0  0  0
  2 23  1  0  0  0  0
  3 18  1  0  0  0  0
  3  4  1  0  0  0  0
  3 37  1  0  0  0  0
  4  5  1  0  0  0  0
  4 24  1  0  0  0  0
  4 25  1  0  0  0  0
  5  6  1  0  0  0  0
  5  7  1  0  0  0  0
  5 26  1  0  0  0  0
  6 27  1  0  0  0  0
  6 28  1  0  0  0  0
  6 29  1  0  0  0  0
  7  8  1  0  0  0  0
  7 18  1  0  0  0  0
  7 30  1  0  0  0  0
  8  9  1  0  0  0  0
  9 10  2  0  0  0  0
  9 11  2  0  0  0  0
  9 12  1  0  0  0  0
 12 13  1  0  0  0  0
 12 31  1  0  0  0  0
 12 32  1  0  0  0  0
 13 17  2  0  0  0  0
 13 14  1  0  0  0  0
 14 15  2  0  0  0  0
 14 33  1  0  0  0  0
 15 16  1  0  0  0  0
 15 34  1  0  0  0  0
 16 17  1  0  0  0  0
 18 35  1  0  0  0  0
 18 36  1  0  0  0  0
M  CHG  1   3   1
M  CHG  1   8  -1
M  END
> <s_m_source_file>
AV-unprocessed.smi

> <i_m_source_file_index>
703

> <i_lp_mmshare_version>
43012

> <i_f3d_flags>
0

> <s_epik_input>
W0NIM11bQ0gyXU4xW0NIMl1bQ0BASF0oW0NIM10pW0NASF0oW0NIMl0xKVtOSF1TKD1PKSg9TylbQ0gyXWMyW2NIXVtjSF1vbjI=

> <s_epik_cmdline>
J2VwaWtfcHl0aG9uJywgJy1waCcsICc3LjAnLCAnLXRuJywgJzgnLCAnLW1hJywgJzIwMCcsICctbWV0YWxfYmluZGluZycsICctaW1hZScsICc8aW5maWxlLm1hZT4nLCAnLW9tYWUnLCAnPG91dGZpbGUubWFlPic=

> <r_epik_Ionization_Penalty>
3.62494

> <r_epik_Ionization_Penalty_Charging>
3.62494

> <r_epik_Ionization_Penalty_Neutral>
2.0321e-10

> <r_epik_State_Penalty>
3.62558

> <r_epik_Charging_Adjusted_Penalty>
7.25052

> <i_epik_Tot_Q>
0

> <i_epik_Tot_abs_Q>
2

> <r_epik_Metal_State_Penalty>
0.530836

> <b_epik_Metal_Only>
1

> <s_lp_Force_Field>
OPLS_2005

> <r_lp_Energy>
15.6249

> <b_lp_Chiralities_Consistent>
1

> <s_lp_Variant>
AV-unprocessed.smi:703-12

> <Gold.Version>
5.8.1

> <Gold.Id.Protein>
6NUR|6NUR_protein|mol2

> <Gold.PLP.Fitness>
40.5949

> <Gold.PLP.PLP>
-26.5127

> <Gold.PLP.part.hbond>
-4.4449

> <Gold.PLP.part.metal>
0.0000

> <Gold.PLP.part.buried>
-3.7109

> <Gold.PLP.part.nonpolar>
-18.7935

> <Gold.PLP.part.repulsive>
0.0011

> <Gold.PLP.ligand.clash>
0.0000

> <Gold.PLP.ligand.torsion>
0.7964

> <Gold.PLP.Chemscore.Hbond>
4.8800

> <Gold.PLP.Chemscore.CHOScore>
0.0000

> <Gold.PLP.Chemscore.Metal>
0.0000

> <Gold.Chemscore.Hbonds>
donor molecule, donor type, donor heavy atom, donor atom, acceptor molecule, acceptor atom, score
      L1  H     3    37       P1  7948  2.00
      P1  H  6896  6909       L1    11  0.95
      P1  H  6931  6943       L1    16  0.99
      P1  H  6934  6947       L1    16  0.88

> <Gold.PLP.Chemscore.Internal.Correction>
1.0351

> <Gold.Rescore>
     Score         DG    S(hbond)    S(metal)    S(lipo)     H(rot)  DE(clash)    DE(int)     intcor
     14.03     -17.61       2.92        0.00      56.06       1.63       0.00       3.58       ----

> <Gold.Chemscore.Fitness>
14.0285

> <Gold.Chemscore.DG>
-17.6105

> <Gold.Chemscore.ZeroCoef>
-5.4800

> <Gold.Chemscore.Hbond>
2.9203

> <Gold.Chemscore.Metal>
0.0000

> <Gold.Chemscore.Lipo>
56.0607

> <Gold.Chemscore.Internal_Hbond>
0.0000

> <Gold.Chemscore.DEClash>
0.0004

> <Gold.Chemscore.DEInternal>
3.5815

> <Gold.Chemscore.Rot>
1.6338

> <Gold.Chemscore.Internal.Correction>
   9.000000E+99

> <Gold.Chemscore.Hbonds>
donor molecule, donor type, donor heavy atom, donor atom, acceptor molecule, acceptor atom, score
      L1  H     3    37       P1  7948  0.82
      P1  H  6896  6909       L1    11  0.21
      P1  H  6931  6943       L1    16  0.56
      P1  H  6934  6947       L1    16  0.29

> <Gold.Chemscore.Hbond.Weighted>
-9.7539

> <Gold.Chemscore.Metal.Weighted>
-0.0000

> <Gold.Chemscore.Lipo.Weighted>
-6.5591

> <Gold.Chemscore.Internal_Hbond.Weighted>
0.0000

> <Gold.Chemscore.DEClash.Weighted>
0.0004

> <Gold.Chemscore.DEInternal.Weighted>
3.5815

> <Gold.Chemscore.Rot.Weighted>
4.1825

> <Gold.Chemscore.Internal.Correction.Weighted>
   9.000000E+99

> <Gold.Protein.RotatedTorsions>
[ 6907 6896 6895 6894 ] final   35.94 input  -60.11 | X-H torsion
[ 7974 7965 7964 7962 ] final  164.12 input  175.53 | X-H torsion
[ 8008 7997 7996 7995 ] final  151.46 input   59.86 | X-H torsion
[ 10167 10162 10161 10158 ] final  105.65 input  -65.29 | X-H torsion
[ 10718 10713 10712 10709 ] final -149.00 input   66.30 | X-H torsion
[ 10763 10752 10751 10750 ] final -159.31 input  -60.55 | X-H torsion
[ 11005 11000 10999 10996 ] final   -6.63 input  -57.11 | X-H torsion

> <Gold.Protein.ActiveResidues>
 VAL166  LYS551  ARG553  GLY616  TRP617  ASP618  TYR619  PRO620  LYS621  CYS622 
 ASP623  PHE694  ASN695  SER759  ASP760  ASP761  ALA762  ILE779  LEU786  VAL792 
 PHE793  MET794  SER795  GLU796  ALA797  LYS798  CYS799  TRP800  GLU811  SER814 

> <Gold.Protein.RotatedAtoms>
  152.1230  134.9191  160.0561 H   0  0  0  0  0  0  0  0  0  0  0  0  # atno 6907 bound_to 6896
  152.0325  133.3938  159.4311 H   0  0  0  0  0  0  0  0  0  0  0  0  # atno 6908 bound_to 6896
  150.6850  134.3426  159.4918 H   0  0  0  0  0  0  0  0  0  0  0  0  # atno 6909 bound_to 6896
  144.7559  139.8280  143.6350 H   0  0  0  0  0  0  0  0  0  0  0  0  # atno 7974 bound_to 7965
  156.2673  140.2047  156.6179 H   0  0  0  0  0  0  0  0  0  0  0  0  # atno 8008 bound_to 7997
  154.6780  140.0543  157.0260 H   0  0  0  0  0  0  0  0  0  0  0  0  # atno 8009 bound_to 7997
  155.1041  140.3209  155.4542 H   0  0  0  0  0  0  0  0  0  0  0  0  # atno 8010 bound_to 7997
  139.7075  144.7083  151.1082 H   0  0  0  0  0  0  0  0  0  0  0  0  # atno 10167 bound_to 10162
  156.4275  130.8059  151.2285 H   0  0  0  0  0  0  0  0  0  0  0  0  # atno 10718 bound_to 10713
  154.7485  135.3086  154.8600 H   0  0  0  0  0  0  0  0  0  0  0  0  # atno 10763 bound_to 10752
  153.9394  135.6776  153.4748 H   0  0  0  0  0  0  0  0  0  0  0  0  # atno 10764 bound_to 10752
  153.1082  135.4879  154.8915 H   0  0  0  0  0  0  0  0  0  0  0  0  # atno 10765 bound_to 10752
  140.7040  133.8965  155.8703 H   0  0  0  0  0  0  0  0  0  0  0  0  # atno 11005 bound_to 11000
  146.1569  139.4669  143.0013 LP  0  0  0  0  0  0  0  0  0  0  0  0  # atno 17320 bound_to 7965
  145.6781  141.0198  143.1621 LP  0  0  0  0  0  0  0  0  0  0  0  0  # atno 17321 bound_to 7965
  140.7725  143.5338  150.9392 LP  0  0  0  0  0  0  0  0  0  0  0  0  # atno 17342 bound_to 10162
  139.9022  143.6822  152.3129 LP  0  0  0  0  0  0  0  0  0  0  0  0  # atno 17343 bound_to 10162
  157.7508  131.0209  150.3727 LP  0  0  0  0  0  0  0  0  0  0  0  0  # atno 17370 bound_to 10713
  156.4057  130.3924  149.6927 LP  0  0  0  0  0  0  0  0  0  0  0  0  # atno 17371 bound_to 10713
  141.0140  134.0981  157.4192 LP  0  0  0  0  0  0  0  0  0  0  0  0  # atno 17394 bound_to 11000
  139.8889  135.0101  156.6648 LP  0  0  0  0  0  0  0  0  0  0  0  0  # atno 17395 bound_to 11000

$$$$
