AV-unprocessed.smi:2775|AV-procd|sdf|10701|dock4
  -GOLD-   2272015143D 1   1.00000     0.00000
 Structure written by MMmdl.
 43 46  0  0  0  0  0  0  0  0  2 V2000
  146.9548  139.4383  152.3124 C   0  0  0  0  0  0  0  0  0  0  0  0
  147.1765  140.5211  153.3509 C   0  0  0  0  0  0  0  0  0  0  0  0
  146.2069  141.4488  153.5084 N   0  3  0  0  0  0  0  0  0  0  0  0
  146.2897  142.4538  154.4045 C   0  0  0  0  0  0  0  0  0  0  0  0
  147.4284  142.5730  155.2246 C   0  0  0  0  0  0  0  0  0  0  0  0
  148.4843  141.6358  155.0905 C   0  0  0  0  0  0  0  0  0  0  0  0
  149.6672  141.6650  155.8798 N   0  0  0  0  0  0  0  0  0  0  0  0
  149.8196  141.9315  157.1912 C   0  0  0  0  0  0  0  0  0  0  0  0
  148.9058  142.2097  157.9641 O   0  0  0  0  0  0  0  0  0  0  0  0
  151.0957  141.8780  157.6103 N   0  0  0  0  0  0  0  0  0  0  0  0
  151.5958  142.1148  158.9655 C   0  0  1  0  0  0  0  0  0  0  0  0
  153.0241  141.5733  159.1640 C   0  0  2  0  0  0  0  0  0  0  0  0
  153.2733  140.4631  160.1487 C   0  0  0  0  0  0  0  0  0  0  0  0
  153.7421  141.2134  161.3985 C   0  0  0  0  0  0  0  0  0  0  0  0
  153.2305  142.5349  161.2394 O   0  0  0  0  0  0  0  0  0  0  0  0
  153.3639  142.8837  159.8648 C   0  0  2  0  0  0  0  0  0  0  0  0
  152.1344  143.5384  159.2234 C   0  0  0  0  0  0  0  0  0  0  0  0
  152.3156  144.5818  158.1044 C   0  0  0  0  0  0  0  0  0  0  0  0
  151.1110  145.3403  158.6683 C   0  0  0  0  0  0  0  0  0  0  0  0
  151.3056  144.5826  159.9850 C   0  0  0  0  0  0  0  0  0  0  0  0
  148.3448  140.5887  154.1459 C   0  0  0  0  0  0  0  0  0  0  0  0
  149.5924  139.4016  153.9585 Cl  0  0  0  0  0  0  0  0  0  0  0  0
  147.7306  139.4827  151.5475 H   0  0  0  0  0  0  0  0  0  0  0  0
  145.9876  139.5496  151.8207 H   0  0  0  0  0  0  0  0  0  0  0  0
  146.9857  138.4530  152.7780 H   0  0  0  0  0  0  0  0  0  0  0  0
  145.4448  143.1260  154.4427 H   0  0  0  0  0  0  0  0  0  0  0  0
  147.4600  143.3748  155.9454 H   0  0  0  0  0  0  0  0  0  0  0  0
  150.5249  141.5152  155.3679 H   0  0  0  0  0  0  0  0  0  0  0  0
  151.7911  141.6327  156.9199 H   0  0  0  0  0  0  0  0  0  0  0  0
  150.9291  141.7766  159.7617 H   0  0  0  0  0  0  0  0  0  0  0  0
  153.5696  141.4767  158.2232 H   0  0  0  0  0  0  0  0  0  0  0  0
  152.3566  139.9079  160.3505 H   0  0  0  0  0  0  0  0  0  0  0  0
  154.0244  139.7535  159.8010 H   0  0  0  0  0  0  0  0  0  0  0  0
  153.3891  140.7544  162.3222 H   0  0  0  0  0  0  0  0  0  0  0  0
  154.8318  141.2563  161.4330 H   0  0  0  0  0  0  0  0  0  0  0  0
  154.3361  143.2990  159.5961 H   0  0  0  0  0  0  0  0  0  0  0  0
  153.2430  145.1472  158.2074 H   0  0  0  0  0  0  0  0  0  0  0  0
  152.1880  144.2207  157.0839 H   0  0  0  0  0  0  0  0  0  0  0  0
  151.2482  146.4195  158.7408 H   0  0  0  0  0  0  0  0  0  0  0  0
  150.1771  145.0861  158.1662 H   0  0  0  0  0  0  0  0  0  0  0  0
  150.3857  144.2019  160.4292 H   0  0  0  0  0  0  0  0  0  0  0  0
  151.8997  145.1432  160.7083 H   0  0  0  0  0  0  0  0  0  0  0  0
  145.3713  141.3832  152.9265 H   0  0  0  0  0  0  0  0  0  0  0  0
  1  2  1  0  0  0  0
  1 23  1  0  0  0  0
  1 24  1  0  0  0  0
  1 25  1  0  0  0  0
  2 21  1  0  0  0  0
  2  3  2  0  0  0  0
  3  4  1  0  0  0  0
  3 43  1  0  0  0  0
  4  5  2  0  0  0  0
  4 26  1  0  0  0  0
  5  6  1  0  0  0  0
  5 27  1  0  0  0  0
  6  7  1  0  0  0  0
  6 21  2  0  0  0  0
  7  8  1  0  0  0  0
  7 28  1  0  0  0  0
  8  9  2  0  0  0  0
  8 10  1  0  0  0  0
 10 11  1  0  0  0  0
 10 29  1  0  0  0  0
 11 17  1  0  0  0  0
 11 12  1  0  0  0  0
 11 30  1  0  0  0  0
 12 16  1  0  0  0  0
 12 13  1  0  0  0  0
 12 31  1  0  0  0  0
 13 14  1  0  0  0  0
 13 32  1  0  0  0  0
 13 33  1  0  0  0  0
 14 15  1  0  0  0  0
 14 34  1  0  0  0  0
 14 35  1  0  0  0  0
 15 16  1  0  0  0  0
 16 17  1  0  0  0  0
 16 36  1  0  0  0  0
 17 20  1  0  0  0  0
 17 18  1  0  0  0  0
 18 19  1  0  0  0  0
 18 37  1  0  0  0  0
 18 38  1  0  0  0  0
 19 20  1  0  0  0  0
 19 39  1  0  0  0  0
 19 40  1  0  0  0  0
 20 41  1  0  0  0  0
 20 42  1  0  0  0  0
 21 22  1  0  0  0  0
M  CHG  1   3   1
M  END
> <s_m_source_file>
AV-unprocessed.smi

> <i_m_source_file_index>
2775

> <i_lp_mmshare_version>
43012

> <i_f3d_flags>
0

> <s_epik_input>
W0NIM11jMW5bY0hdW2NIXWMoYzFDbClbTkhdQyg9TylbTkhdW0NAQEhdMltDQEhdKFtDSDJdW0NIMl1PMylbQ0BASF0zQzI0W0NIMl1bQ0gyXVtDSDJdNA==

> <s_epik_cmdline>
J2VwaWtfcHl0aG9uJywgJy1waCcsICc3LjAnLCAnLXRuJywgJzgnLCAnLW1hJywgJzIwMCcsICctbWV0YWxfYmluZGluZycsICctaW1hZScsICc8aW5maWxlLm1hZT4nLCAnLW9tYWUnLCAnPG91dGZpbGUubWFlPic=

> <r_epik_Ionization_Penalty>
2.4104

> <r_epik_Ionization_Penalty_Charging>
2.41038

> <r_epik_Ionization_Penalty_Neutral>
1.9872e-05

> <r_epik_State_Penalty>
2.56896

> <r_epik_Charging_Adjusted_Penalty>
4.97934

> <i_epik_Tot_Q>
1

> <i_epik_Tot_abs_Q>
1

> <r_epik_Metal_State_Penalty>
2.57906

> <b_epik_Metal_Only>
0

> <s_lp_Force_Field>
OPLS_2005

> <r_lp_Energy>
60.4294

> <b_lp_Chiralities_Consistent>
1

> <s_lp_Variant>
AV-unprocessed.smi:2775-14

> <Gold.Version>
5.8.1

> <Gold.Id.Protein>
6NUR|6NUR_protein|mol2

> <Gold.PLP.Fitness>
53.1315

> <Gold.PLP.PLP>
-48.1233

> <Gold.PLP.part.hbond>
-1.0000

> <Gold.PLP.part.metal>
0.0000

> <Gold.PLP.part.buried>
-2.1339

> <Gold.PLP.part.nonpolar>
-44.6650

> <Gold.PLP.part.repulsive>
0.2969

> <Gold.PLP.ligand.clash>
0.0000

> <Gold.PLP.ligand.torsion>
0.5935

> <Gold.PLP.Chemscore.Hbond>
2.0000

> <Gold.PLP.Chemscore.CHOScore>
0.0000

> <Gold.PLP.Chemscore.Metal>
0.0000

> <Gold.Chemscore.Hbonds>
donor molecule, donor type, donor heavy atom, donor atom, acceptor molecule, acceptor atom, score
      L1  H     3    43       P1 10175  1.00

> <Gold.PLP.Chemscore.Internal.Correction>
0.1950

> <Gold.Rescore>
     Score         DG    S(hbond)    S(metal)    S(lipo)     H(rot)  DE(clash)    DE(int)     intcor
     20.83     -21.45       0.98        0.00     130.46       1.00       0.10       0.52       ----

> <Gold.Chemscore.Fitness>
20.8349

> <Gold.Chemscore.DG>
-21.4487

> <Gold.Chemscore.ZeroCoef>
-5.4800

> <Gold.Chemscore.Hbond>
0.9774

> <Gold.Chemscore.Metal>
0.0000

> <Gold.Chemscore.Lipo>
130.4623

> <Gold.Chemscore.Internal_Hbond>
0.0000

> <Gold.Chemscore.DEClash>
0.0982

> <Gold.Chemscore.DEInternal>
0.5156

> <Gold.Chemscore.Rot>
1.0000

> <Gold.Chemscore.Internal.Correction>
   9.000000E+99

> <Gold.Chemscore.Hbonds>
donor molecule, donor type, donor heavy atom, donor atom, acceptor molecule, acceptor atom, score
      L1  H     3    43       P1 10175  0.02

> <Gold.Chemscore.Hbond.Weighted>
-3.2646

> <Gold.Chemscore.Metal.Weighted>
-0.0000

> <Gold.Chemscore.Lipo.Weighted>
-15.2641

> <Gold.Chemscore.Internal_Hbond.Weighted>
0.0000

> <Gold.Chemscore.DEClash.Weighted>
0.0982

> <Gold.Chemscore.DEInternal.Weighted>
0.5156

> <Gold.Chemscore.Rot.Weighted>
2.5600

> <Gold.Chemscore.Internal.Correction.Weighted>
   9.000000E+99

> <Gold.Protein.RotatedTorsions>
[ 6907 6896 6895 6894 ] final  -27.57 input  -60.11 | X-H torsion
[ 7974 7965 7964 7962 ] final  -40.45 input  175.53 | X-H torsion
[ 8008 7997 7996 7995 ] final   -0.62 input   59.86 | X-H torsion
[ 10167 10162 10161 10158 ] final  160.96 input  -65.29 | X-H torsion
[ 10718 10713 10712 10709 ] final -147.22 input   66.30 | X-H torsion
[ 10763 10752 10751 10750 ] final   43.91 input  -60.55 | X-H torsion
[ 11005 11000 10999 10996 ] final   71.10 input  -57.11 | X-H torsion

> <Gold.Protein.ActiveResidues>
 VAL166  LYS551  ARG553  GLY616  TRP617  ASP618  TYR619  PRO620  LYS621  CYS622 
 ASP623  PHE694  ASN695  SER759  ASP760  ASP761  ALA762  ILE779  LEU786  VAL792 
 PHE793  MET794  SER795  GLU796  ALA797  LYS798  CYS799  TRP800  GLU811  SER814 

> <Gold.Protein.RotatedAtoms>
  151.1450  135.0199  159.8642 H   0  0  0  0  0  0  0  0  0  0  0  0  # atno 6907 bound_to 6896
  152.5453  134.1454  159.8506 H   0  0  0  0  0  0  0  0  0  0  0  0  # atno 6908 bound_to 6896
  151.1534  133.4847  159.2628 H   0  0  0  0  0  0  0  0  0  0  0  0  # atno 6909 bound_to 6896
  146.0303  140.6740  142.9136 H   0  0  0  0  0  0  0  0  0  0  0  0  # atno 7974 bound_to 7965
  154.6560  140.2579  155.7161 H   0  0  0  0  0  0  0  0  0  0  0  0  # atno 8008 bound_to 7997
  156.2597  140.2858  156.0934 H   0  0  0  0  0  0  0  0  0  0  0  0  # atno 8009 bound_to 7997
  155.1380  140.0380  157.2781 H   0  0  0  0  0  0  0  0  0  0  0  0  # atno 8010 bound_to 7997
  139.4844  144.4583  151.8739 H   0  0  0  0  0  0  0  0  0  0  0  0  # atno 10167 bound_to 10162
  156.4047  130.7951  151.2165 H   0  0  0  0  0  0  0  0  0  0  0  0  # atno 10718 bound_to 10713
  152.9851  135.6087  154.3189 H   0  0  0  0  0  0  0  0  0  0  0  0  # atno 10763 bound_to 10752
  154.2900  135.2775  155.2661 H   0  0  0  0  0  0  0  0  0  0  0  0  # atno 10764 bound_to 10752
  154.4961  135.5879  153.6552 H   0  0  0  0  0  0  0  0  0  0  0  0  # atno 10765 bound_to 10752
  139.9562  134.7141  156.0749 H   0  0  0  0  0  0  0  0  0  0  0  0  # atno 11005 bound_to 11000
  144.7027  140.3724  143.7143 LP  0  0  0  0  0  0  0  0  0  0  0  0  # atno 17320 bound_to 7965
  145.7051  139.1671  143.2570 LP  0  0  0  0  0  0  0  0  0  0  0  0  # atno 17321 bound_to 7965
  140.4044  144.2451  150.5891 LP  0  0  0  0  0  0  0  0  0  0  0  0  # atno 17342 bound_to 10162
  140.5027  143.2313  151.8655 LP  0  0  0  0  0  0  0  0  0  0  0  0  # atno 17343 bound_to 10162
  157.7505  131.0276  150.4012 LP  0  0  0  0  0  0  0  0  0  0  0  0  # atno 17370 bound_to 10713
  156.4298  130.3970  149.6768 LP  0  0  0  0  0  0  0  0  0  0  0  0  # atno 17371 bound_to 10713
  141.1233  133.6606  156.3271 LP  0  0  0  0  0  0  0  0  0  0  0  0  # atno 17394 bound_to 11000
  140.5605  134.5939  157.5432 LP  0  0  0  0  0  0  0  0  0  0  0  0  # atno 17395 bound_to 11000

$$$$
