AV-unprocessed.smi:3039|AV-procd|sdf|11594|dock5
  -GOLD-   2272016573D 1   1.00000     0.00000
 Structure written by MMmdl.
 38 39  0  0  0  0  0  0  0  0  1 V2000
  147.0589  132.3114  153.9117 O   0  0  0  0  0  0  0  0  0  0  0  0
  147.8323  133.2082  153.5763 C   0  0  0  0  0  0  0  0  0  0  0  0
  149.0290  133.5556  154.4620 C   0  0  0  0  0  0  0  0  0  0  0  0
  149.8340  132.3175  154.7505 C   0  0  0  0  0  0  0  0  0  0  0  0
  149.6500  131.0046  154.2338 C   0  0  0  0  0  0  0  0  0  0  0  0
  150.6470  130.2853  154.8268 C   0  0  0  0  0  0  0  0  0  0  0  0
  151.3897  131.0809  155.6369 O   0  0  0  0  0  0  0  0  0  0  0  0
  150.8646  132.3770  155.5805 N   0  0  0  0  0  0  0  0  0  0  0  0
  147.6918  133.9279  152.4513 N   0  0  0  0  0  0  0  0  0  0  0  0
  146.6333  133.7593  151.4550 C   0  0  1  0  0  0  0  0  0  0  0  0
  146.3610  132.2494  151.2524 C   0  0  0  0  0  0  0  0  0  0  0  0
  145.8480  131.9070  149.8414 C   0  0  0  0  0  0  0  0  0  0  0  0
  144.3843  132.2790  149.5706 C   0  0  0  0  0  0  0  0  0  0  0  0
  144.0504  133.7594  149.8064 C   0  0  0  0  0  0  0  0  0  0  0  0
  144.0482  134.1292  151.2985 C   0  0  0  0  0  0  0  0  0  0  0  0
  145.3993  134.6139  151.8746 C   0  0  2  0  0  0  0  0  0  0  0  0
  145.5990  136.1177  151.5597 C   0  0  0  0  0  0  0  0  0  0  0  0
  145.6298  136.3744  150.1709 O   0  0  0  0  0  0  0  0  0  0  0  0
  149.6467  134.2985  153.9560 H   0  0  0  0  0  0  0  0  0  0  0  0
  148.6790  134.0218  155.3843 H   0  0  0  0  0  0  0  0  0  0  0  0
  148.9013  130.6483  153.5420 H   0  0  0  0  0  0  0  0  0  0  0  0
  150.9454  129.2485  154.7759 H   0  0  0  0  0  0  0  0  0  0  0  0
  148.3786  134.6440  152.2627 H   0  0  0  0  0  0  0  0  0  0  0  0
  147.0012  134.1565  150.5072 H   0  0  0  0  0  0  0  0  0  0  0  0
  147.2945  131.6996  151.3817 H   0  0  0  0  0  0  0  0  0  0  0  0
  145.6906  131.8633  152.0211 H   0  0  0  0  0  0  0  0  0  0  0  0
  146.4899  132.3750  149.0941 H   0  0  0  0  0  0  0  0  0  0  0  0
  145.9556  130.8331  149.6856 H   0  0  0  0  0  0  0  0  0  0  0  0
  144.1536  132.0288  148.5344 H   0  0  0  0  0  0  0  0  0  0  0  0
  143.7286  131.6527  150.1768 H   0  0  0  0  0  0  0  0  0  0  0  0
  144.7161  134.4090  149.2372 H   0  0  0  0  0  0  0  0  0  0  0  0
  143.0498  133.9386  149.4114 H   0  0  0  0  0  0  0  0  0  0  0  0
  143.2946  134.8993  151.4667 H   0  0  0  0  0  0  0  0  0  0  0  0
  143.6921  133.2773  151.8792 H   0  0  0  0  0  0  0  0  0  0  0  0
  145.2848  134.5293  152.9570 H   0  0  0  0  0  0  0  0  0  0  0  0
  144.8140  136.7185  152.0194 H   0  0  0  0  0  0  0  0  0  0  0  0
  146.5457  136.4739  151.9665 H   0  0  0  0  0  0  0  0  0  0  0  0
  145.0734  137.1169  149.9905 H   0  0  0  0  0  0  0  0  0  0  0  0
  1  2  2  0  0  0  0
  2  3  1  0  0  0  0
  2  9  1  0  0  0  0
  3  4  1  0  0  0  0
  3 19  1  0  0  0  0
  3 20  1  0  0  0  0
  4  8  2  0  0  0  0
  4  5  1  0  0  0  0
  5  6  2  0  0  0  0
  5 21  1  0  0  0  0
  6  7  1  0  0  0  0
  6 22  1  0  0  0  0
  7  8  1  0  0  0  0
  9 10  1  0  0  0  0
  9 23  1  0  0  0  0
 10 16  1  0  0  0  0
 10 11  1  0  0  0  0
 10 24  1  0  0  0  0
 11 12  1  0  0  0  0
 11 25  1  0  0  0  0
 11 26  1  0  0  0  0
 12 13  1  0  0  0  0
 12 27  1  0  0  0  0
 12 28  1  0  0  0  0
 13 14  1  0  0  0  0
 13 29  1  0  0  0  0
 13 30  1  0  0  0  0
 14 15  1  0  0  0  0
 14 31  1  0  0  0  0
 14 32  1  0  0  0  0
 15 16  1  0  0  0  0
 15 33  1  0  0  0  0
 15 34  1  0  0  0  0
 16 17  1  0  0  0  0
 16 35  1  0  0  0  0
 17 18  1  0  0  0  0
 17 36  1  0  0  0  0
 17 37  1  0  0  0  0
 18 38  1  0  0  0  0
M  END
> <s_m_source_file>
AV-unprocessed.smi

> <i_m_source_file_index>
3039

> <i_lp_mmshare_version>
43012

> <i_f3d_flags>
0

> <s_epik_input>
bjFvW2NIXVtjSF1jMVtDSDJdQyg9TylbTkhdW0NAQEhdMltDSDJdW0NIMl1bQ0gyXVtDSDJdW0NIMl1bQ0BIXTJbQ0gyXVtPSF0=

> <s_epik_cmdline>
J2VwaWtfcHl0aG9uJywgJy1waCcsICc3LjAnLCAnLXRuJywgJzgnLCAnLW1hJywgJzIwMCcsICctbWV0YWxfYmluZGluZycsICctaW1hZScsICc8aW5maWxlLm1hZT4nLCAnLW9tYWUnLCAnPG91dGZpbGUubWFlPic=

> <r_lp_tautomer_probability>
1

> <r_epik_Ionization_Penalty>
3.05817e-07

> <r_epik_Ionization_Penalty_Charging>
0

> <r_epik_Ionization_Penalty_Neutral>
3.05817e-07

> <r_epik_State_Penalty>
-0

> <r_epik_Charging_Adjusted_Penalty>
0

> <i_epik_Tot_Q>
0

> <i_epik_Tot_abs_Q>
0

> <r_epik_Metal_State_Penalty>
-0

> <b_epik_Metal_Only>
0

> <s_lp_Force_Field>
OPLS_2005

> <r_lp_Energy>
18.8226

> <b_lp_Chiralities_Consistent>
1

> <s_lp_Variant>
AV-unprocessed.smi:3039-4

> <Gold.Version>
5.8.1

> <Gold.Id.Protein>
6NUR|6NUR_protein|mol2

> <Gold.PLP.Fitness>
39.2200

> <Gold.PLP.PLP>
-34.4404

> <Gold.PLP.part.hbond>
-2.9467

> <Gold.PLP.part.metal>
0.0000

> <Gold.PLP.part.buried>
-2.0561

> <Gold.PLP.part.nonpolar>
-29.4944

> <Gold.PLP.part.repulsive>
0.0938

> <Gold.PLP.ligand.clash>
0.0000

> <Gold.PLP.ligand.torsion>
0.4096

> <Gold.PLP.Chemscore.Hbond>
1.8500

> <Gold.PLP.Chemscore.CHOScore>
0.0000

> <Gold.PLP.Chemscore.Metal>
0.0000

> <Gold.Chemscore.Hbonds>
donor molecule, donor type, donor heavy atom, donor atom, acceptor molecule, acceptor atom, score
      L1  H     9    23       P1  7948  0.75
      L1  H    18    38       P1 10171  1.00

> <Gold.PLP.Chemscore.Internal.Correction>
0.0488

> <Gold.Rescore>
     Score         DG    S(hbond)    S(metal)    S(lipo)     H(rot)  DE(clash)    DE(int)     intcor
     12.42     -15.51       1.90        0.00      81.12       2.26       0.18       2.92       ----

> <Gold.Chemscore.Fitness>
12.4153

> <Gold.Chemscore.DG>
-15.5121

> <Gold.Chemscore.ZeroCoef>
-5.4800

> <Gold.Chemscore.Hbond>
1.8953

> <Gold.Chemscore.Metal>
0.0000

> <Gold.Chemscore.Lipo>
81.1220

> <Gold.Chemscore.Internal_Hbond>
0.0000

> <Gold.Chemscore.DEClash>
0.1759

> <Gold.Chemscore.DEInternal>
2.9210

> <Gold.Chemscore.Rot>
2.2616

> <Gold.Chemscore.Internal.Correction>
   9.000000E+99

> <Gold.Chemscore.Hbonds>
donor molecule, donor type, donor heavy atom, donor atom, acceptor molecule, acceptor atom, score
      L1  H     9    23       P1  7948  0.09
      L1  H    18    38       P1 10171  1.00

> <Gold.Chemscore.Hbond.Weighted>
-6.3305

> <Gold.Chemscore.Metal.Weighted>
-0.0000

> <Gold.Chemscore.Lipo.Weighted>
-9.4913

> <Gold.Chemscore.Internal_Hbond.Weighted>
0.0000

> <Gold.Chemscore.DEClash.Weighted>
0.1759

> <Gold.Chemscore.DEInternal.Weighted>
2.9210

> <Gold.Chemscore.Rot.Weighted>
5.7896

> <Gold.Chemscore.Internal.Correction.Weighted>
   9.000000E+99

> <Gold.Protein.RotatedTorsions>
[ 6907 6896 6895 6894 ] final   87.87 input  -60.11 | X-H torsion
[ 7974 7965 7964 7962 ] final   24.63 input  175.53 | X-H torsion
[ 8008 7997 7996 7995 ] final  157.53 input   59.86 | X-H torsion
[ 10167 10162 10161 10158 ] final   53.42 input  -65.29 | X-H torsion
[ 10718 10713 10712 10709 ] final -166.13 input   66.30 | X-H torsion
[ 10763 10752 10751 10750 ] final   74.50 input  -60.55 | X-H torsion
[ 11005 11000 10999 10996 ] final  160.11 input  -57.11 | X-H torsion

> <Gold.Protein.ActiveResidues>
 VAL166  LYS551  ARG553  GLY616  TRP617  ASP618  TYR619  PRO620  LYS621  CYS622 
 ASP623  PHE694  ASN695  SER759  ASP760  ASP761  ALA762  ILE779  LEU786  VAL792 
 PHE793  MET794  SER795  GLU796  ALA797  LYS798  CYS799  TRP800  GLU811  SER814 

> <Gold.Protein.RotatedAtoms>
  152.5417  134.2209  159.8786 H   0  0  0  0  0  0  0  0  0  0  0  0  # atno 6907 bound_to 6896
  151.2186  133.4508  159.2607 H   0  0  0  0  0  0  0  0  0  0  0  0  # atno 6908 bound_to 6896
  151.0827  134.9881  159.8420 H   0  0  0  0  0  0  0  0  0  0  0  0  # atno 6909 bound_to 6896
  146.1928  139.7578  142.8819 H   0  0  0  0  0  0  0  0  0  0  0  0  # atno 7974 bound_to 7965
  156.2358  140.1883  156.7123 H   0  0  0  0  0  0  0  0  0  0  0  0  # atno 8008 bound_to 7997
  154.6104  140.0623  156.9513 H   0  0  0  0  0  0  0  0  0  0  0  0  # atno 8009 bound_to 7997
  155.2026  140.3293  155.4343 H   0  0  0  0  0  0  0  0  0  0  0  0  # atno 8010 bound_to 7997
  140.2409  144.3585  150.6380 H   0  0  0  0  0  0  0  0  0  0  0  0  # atno 10167 bound_to 10162
  156.6634  130.9055  151.3033 H   0  0  0  0  0  0  0  0  0  0  0  0  # atno 10718 bound_to 10713
  153.0591  135.5023  154.8051 H   0  0  0  0  0  0  0  0  0  0  0  0  # atno 10763 bound_to 10752
  154.6854  135.2975  154.9557 H   0  0  0  0  0  0  0  0  0  0  0  0  # atno 10764 bound_to 10752
  154.0329  135.6727  153.4835 H   0  0  0  0  0  0  0  0  0  0  0  0  # atno 10765 bound_to 10752
  140.2027  134.8326  157.3036 H   0  0  0  0  0  0  0  0  0  0  0  0  # atno 11005 bound_to 11000
  145.3738  141.0347  143.3216 LP  0  0  0  0  0  0  0  0  0  0  0  0  # atno 17320 bound_to 7965
  144.8521  139.5306  143.6852 LP  0  0  0  0  0  0  0  0  0  0  0  0  # atno 17321 bound_to 7965
  140.6114  143.2170  151.6878 LP  0  0  0  0  0  0  0  0  0  0  0  0  # atno 17342 bound_to 10162
  139.5078  144.3635  152.0539 LP  0  0  0  0  0  0  0  0  0  0  0  0  # atno 17343 bound_to 10162
  157.7102  130.9431  150.1063 LP  0  0  0  0  0  0  0  0  0  0  0  0  # atno 17370 bound_to 10713
  156.1993  130.3659  149.8808 LP  0  0  0  0  0  0  0  0  0  0  0  0  # atno 17371 bound_to 10713
  140.2036  134.4224  155.7649 LP  0  0  0  0  0  0  0  0  0  0  0  0  # atno 17394 bound_to 11000
  141.2227  133.7084  156.8224 LP  0  0  0  0  0  0  0  0  0  0  0  0  # atno 17395 bound_to 11000

$$$$
