#       Name:                AV-unprocessed.smi:104
#       Creating user name   scv26
#       Creation time:       Thu Mar 26 17:58:43 2020


#       File generated by GOLD software.
#

@<TRIPOS>MOLECULE
AV-unprocessed.smi:104
    58    60     1
SMALL
NO_CHARGES


@<TRIPOS>ATOM
      1 ****        -4.1852   4.0351  -1.4131 C.3            1 S1                 0.0000
      2 ****        -4.0464   2.7191  -0.6586 C.2            1 S1                 0.0000
      3 ****        -4.9846   1.9268  -0.5732 O.2            1 S1                 0.0000
      4 ****        -2.8233   2.5534  -0.1338 O.3            1 S1                 0.0000
      5 ****        -2.5137   1.3629   0.5731 C.3            1 S1                 0.0000
      6 ****        -0.9871   1.2301   0.7362 C.3            1 S1                 0.0000
      7 ****        -0.7365   0.2502   1.7333 O.3            1 S1                 0.0000
      8 ****        -0.6887  -1.0141   1.1459 C.3            1 S1                 0.0000
      9 ****         0.3961  -1.7927   1.8260 N.pl3          1 S1                 0.0000
     10 ****         0.3888  -3.1012   2.2518 C.2            1 S1                 0.0000
     11 ****        -1.1213  -4.2389   2.0237 Br             1 S1                 0.0000
     12 ****         1.4771  -3.5521   2.8104 N.2            1 S1                 0.0000
     13 ****         2.3246  -2.4522   2.7600 C.ar           1 S1                 0.0000
     14 ****         3.6606  -2.2188   3.1721 C.ar           1 S1                 0.0000
     15 ****         4.4178  -3.1542   3.7615 N.pl3          1 S1                 0.0000
     16 ****         4.2000  -0.9961   2.9578 N.ar           1 S1                 0.0000
     17 ****         3.4671  -0.0463   2.3679 C.ar           1 S1                 0.0000
     18 ****         2.2074  -0.1144   1.9291 N.ar           1 S1                 0.0000
     19 ****         1.6630  -1.3476   2.1483 C.ar           1 S1                 0.0000
     20 ****        -0.4316  -0.8273  -0.3661 C.3            1 S1                 0.0000
     21 ****         0.7250  -1.5304  -0.8111 O.3            1 S1                 0.0000
     22 ****         0.8423  -1.9068  -2.0934 C.2            1 S1                 0.0000
     23 ****         2.1473  -2.6445  -2.3602 C.3            1 S1                 0.0000
     24 ****         0.0226  -1.7022  -2.9885 O.2            1 S1                 0.0000
     25 ****        -0.2398   0.6779  -0.4857 C.3            1 S1                 0.0000
     26 ****        -0.7540   1.1469  -1.7261 O.3            1 S1                 0.0000
     27 ****        -0.2714   2.2745  -2.2745 C.2            1 S1                 0.0000
     28 ****        -0.9453   2.6092  -3.5981 C.3            1 S1                 0.0000
     29 ****         0.6051   2.9955  -1.7982 O.2            1 S1                 0.0000
     30 ****        -3.2106   4.4983  -1.5707 H              1 S1                 0.0000
     31 ****        -4.8111   4.7277  -0.8506 H              1 S1                 0.0000
     32 ****        -4.6455   3.8644  -2.3863 H              1 S1                 0.0000
     33 ****        -2.9864   1.4197   1.5544 H              1 S1                 0.0000
     34 ****        -2.9215   0.4859   0.0681 H              1 S1                 0.0000
     35 ****        -0.5674   2.1835   1.0589 H              1 S1                 0.0000
     36 ****        -1.6101  -1.5575   1.3526 H              1 S1                 0.0000
     37 ****         4.0392  -4.0751   3.9297 H              1 S1                 0.0000
     38 ****         5.3645  -2.9367   4.0370 H              1 S1                 0.0000
     39 ****         3.9604   0.9040   2.2266 H              1 S1                 0.0000
     40 ****        -1.3330  -1.1506  -0.8897 H              1 S1                 0.0000
     41 ****         2.2679  -3.4685  -1.6568 H              1 S1                 0.0000
     42 ****         2.9937  -1.9667  -2.2482 H              1 S1                 0.0000
     43 ****         2.1595  -3.0494  -3.3723 H              1 S1                 0.0000
     44 ****         0.8238   0.9023  -0.3860 H              1 S1                 0.0000
     45 ****        -0.7147   1.8471  -4.3426 H              1 S1                 0.0000
     46 ****        -0.5994   3.5735  -3.9709 H              1 S1                 0.0000
     47 ****        -2.0270   2.6564  -3.4719 H              1 S1                 0.0000
     48 ****        -5.8610   2.1413  -1.0043 LP             1 S1                 0.0000
     49 ****        -4.8703   1.0687  -0.0726 LP             1 S1                 0.0000
     50 ****        -1.4686   0.2734   2.4141 LP             1 S1                 0.0000
     51 ****         0.1381   0.4439   2.1778 LP             1 S1                 0.0000
     52 ****         1.6571  -4.4627   3.1825 LP             1 S1                 0.0000
     53 ****         5.1404  -0.8045   3.2389 LP             1 S1                 0.0000
     54 ****         1.7226   0.6442   1.4937 LP             1 S1                 0.0000
     55 ****        -0.8259  -1.2128  -2.7871 LP             1 S1                 0.0000
     56 ****         0.2052  -2.0254  -3.9170 LP             1 S1                 0.0000
     57 ****         1.0261   2.7588  -0.9225 LP             1 S1                 0.0000
     58 ****         0.8963   3.8180  -2.2868 LP             1 S1                 0.0000
@<TRIPOS>BOND
    1    1    2 1     
    2    1   30 1     
    3    1   31 1     
    4    1   32 1     
    5    2    3 2     
    6    2    4 1     
    7    4    5 1     
    8    5    6 1     
    9    5   33 1     
   10    5   34 1     
   11    6   25 1     
   12    6    7 1     
   13    6   35 1     
   14    7    8 1     
   15    8    9 1     
   16    8   20 1     
   17    8   36 1     
   18    9   19 1     
   19    9   10 1     
   20   10   11 1     
   21   10   12 2     
   22   12   13 1     
   23   13   19 ar    
   24   13   14 ar    
   25   14   15 1     
   26   14   16 ar    
   27   15   37 1     
   28   15   38 1     
   29   16   17 ar    
   30   17   18 ar    
   31   17   39 1     
   32   18   19 ar    
   33   20   21 1     
   34   20   25 1     
   35   20   40 1     
   36   21   22 1     
   37   22   23 1     
   38   22   24 2     
   39   23   41 1     
   40   23   42 1     
   41   23   43 1     
   42   25   26 1     
   43   25   44 1     
   44   26   27 1     
   45   27   28 1     
   46   27   29 2     
   47   28   45 1     
   48   28   46 1     
   49   28   47 1     
   50    3   48 1     
   51    3   49 1     
   52    7   50 1     
   53    7   51 1     
   54   12   52 1     
   55   16   53 1     
   56   18   54 1     
   57   24   55 1     
   58   24   56 1     
   59   29   57 1     
   60   29   58 1     
@<TRIPOS>SUBSTRUCTURE
      1 S1             1
@<TRIPOS>SET
LONE_PAIRS      STATIC     ATOMS    <user>   **** ""
11 48 49 50 51 52 53 54 55 56 57 58
DONOR_HYDROGENS      STATIC     ATOMS    <user>   **** ""
2 37 38
ATOM$BLUE        STATIC     ATOMS    COLORGROUP SYSTEM
11 48 49 50 51 52 53 54 55 56 57 58
ATOM$RED        STATIC     ATOMS    COLORGROUP SYSTEM
2 37 38
