AV-unprocessed.smi:2591|AV-procd|sdf|10153|dock6
  -GOLD-   2272014163D 1   1.00000     0.00000
 Structure written by MMmdl.
 35 36  0  0  0  0  0  0  0  0  2 V2000
  146.8683  138.1591  153.1190 C   0  0  0  0  0  0  0  0  0  0  0  0
  147.6024  139.4314  153.2867 N   0  3  1  0  0  0  0  0  0  0  0  0
  146.7063  140.5722  153.5796 C   0  0  0  0  0  0  0  0  0  0  0  0
  147.5204  141.8694  153.7006 C   0  0  0  0  0  0  0  0  0  0  0  0
  148.5098  141.7151  154.7105 O   0  0  0  0  0  0  0  0  0  0  0  0
  149.4446  140.6791  154.4089 C   0  0  1  0  0  0  0  0  0  0  0  0
  150.5266  140.6515  155.5001 C   0  0  0  0  0  0  0  0  0  0  0  0
  151.5685  140.0229  155.3105 O   0  0  0  0  0  0  0  0  0  0  0  0
  150.2599  141.3577  156.6163 N   0  0  0  0  0  0  0  0  0  0  0  0
  151.0625  141.5079  157.7781 C   0  0  0  0  0  0  0  0  0  0  0  0
  150.9485  142.7577  158.4262 C   0  0  0  0  0  0  0  0  0  0  0  0
  151.6999  143.0129  159.5929 C   0  0  0  0  0  0  0  0  0  0  0  0
  151.5851  144.3563  160.2962 C   0  0  0  0  0  0  0  0  0  0  0  0
  152.2043  144.3501  161.4771 F   0  0  0  0  0  0  0  0  0  0  0  0
  152.1310  145.3022  159.5329 F   0  0  0  0  0  0  0  0  0  0  0  0
  150.3008  144.6525  160.4948 F   0  0  0  0  0  0  0  0  0  0  0  0
  152.5543  141.9988  160.0726 C   0  0  0  0  0  0  0  0  0  0  0  0
  152.6084  140.7830  159.3672 C   0  0  0  0  0  0  0  0  0  0  0  0
  151.8856  140.5415  158.2540 N   0  0  0  0  0  0  0  0  0  0  0  0
  148.6855  139.3359  154.2923 C   0  0  0  0  0  0  0  0  0  0  0  0
  146.3585  137.8759  154.0407 H   0  0  0  0  0  0  0  0  0  0  0  0
  147.5515  137.3549  152.8445 H   0  0  0  0  0  0  0  0  0  0  0  0
  146.1225  138.2473  152.3284 H   0  0  0  0  0  0  0  0  0  0  0  0
  145.9641  140.6720  152.7867 H   0  0  0  0  0  0  0  0  0  0  0  0
  146.1632  140.3843  154.5073 H   0  0  0  0  0  0  0  0  0  0  0  0
  147.9892  142.1283  152.7500 H   0  0  0  0  0  0  0  0  0  0  0  0
  146.8671  142.6992  153.9704 H   0  0  0  0  0  0  0  0  0  0  0  0
  149.9398  140.9076  153.4635 H   0  0  0  0  0  0  0  0  0  0  0  0
  149.3696  141.8329  156.6394 H   0  0  0  0  0  0  0  0  0  0  0  0
  150.2900  143.5201  158.0351 H   0  0  0  0  0  0  0  0  0  0  0  0
  153.1564  142.1400  160.9578 H   0  0  0  0  0  0  0  0  0  0  0  0
  153.2504  139.9829  159.7048 H   0  0  0  0  0  0  0  0  0  0  0  0
  148.2596  139.0555  155.2575 H   0  0  0  0  0  0  0  0  0  0  0  0
  149.3701  138.5382  153.9993 H   0  0  0  0  0  0  0  0  0  0  0  0
  148.0455  139.6290  152.4006 H   0  0  0  0  0  0  0  0  0  0  0  0
  1  2  1  0  0  0  0
  1 21  1  0  0  0  0
  1 22  1  0  0  0  0
  1 23  1  0  0  0  0
  2 20  1  0  0  0  0
  2  3  1  0  0  0  0
  2 35  1  0  0  0  0
  3  4  1  0  0  0  0
  3 24  1  0  0  0  0
  3 25  1  0  0  0  0
  4  5  1  0  0  0  0
  4 26  1  0  0  0  0
  4 27  1  0  0  0  0
  5  6  1  0  0  0  0
  6  7  1  0  0  0  0
  6 20  1  0  0  0  0
  6 28  1  0  0  0  0
  7  8  2  0  0  0  0
  7  9  1  0  0  0  0
  9 10  1  0  0  0  0
  9 29  1  0  0  0  0
 10 19  1  0  0  0  0
 10 11  2  0  0  0  0
 11 12  1  0  0  0  0
 11 30  1  0  0  0  0
 12 13  1  0  0  0  0
 12 17  2  0  0  0  0
 13 14  1  0  0  0  0
 13 15  1  0  0  0  0
 13 16  1  0  0  0  0
 17 18  1  0  0  0  0
 17 31  1  0  0  0  0
 18 19  2  0  0  0  0
 18 32  1  0  0  0  0
 20 33  1  0  0  0  0
 20 34  1  0  0  0  0
M  CHG  1   2   1
M  END
> <s_m_source_file>
AV-unprocessed.smi

> <i_m_source_file_index>
2591

> <i_lp_mmshare_version>
43012

> <i_f3d_flags>
0

> <s_epik_input>
W0NIM11OMVtDSDJdW0NIMl1PW0NASF0oW0NIMl0xKUMoPU8pW05IXWMyW2NIXWMoQyhGKShGKUYpW2NIXVtjSF1uMg==

> <s_epik_cmdline>
J2VwaWtfcHl0aG9uJywgJy1waCcsICc3LjAnLCAnLXRuJywgJzgnLCAnLW1hJywgJzIwMCcsICctbWV0YWxfYmluZGluZycsICctaW1hZScsICc8aW5maWxlLm1hZT4nLCAnLW9tYWUnLCAnPG91dGZpbGUubWFlPic=

> <r_epik_Ionization_Penalty>
0.314028

> <r_epik_Ionization_Penalty_Charging>
0.314023

> <r_epik_Ionization_Penalty_Neutral>
5.2303e-06

> <r_epik_State_Penalty>
0.308208

> <r_epik_Charging_Adjusted_Penalty>
0.62223

> <i_epik_Tot_Q>
1

> <i_epik_Tot_abs_Q>
1

> <r_epik_Metal_State_Penalty>
0.308209

> <b_epik_Metal_Only>
0

> <s_lp_Force_Field>
OPLS_2005

> <r_lp_Energy>
17.8582

> <b_lp_Chiralities_Consistent>
1

> <s_lp_Variant>
AV-unprocessed.smi:2591-1

> <Gold.Version>
5.8.1

> <Gold.Id.Protein>
6NUR|6NUR_protein|mol2

> <Gold.PLP.Fitness>
42.9679

> <Gold.PLP.PLP>
-40.3315

> <Gold.PLP.part.hbond>
-2.0000

> <Gold.PLP.part.metal>
0.0000

> <Gold.PLP.part.buried>
-4.4507

> <Gold.PLP.part.nonpolar>
-34.4001

> <Gold.PLP.part.repulsive>
0.2403

> <Gold.PLP.ligand.clash>
0.0000

> <Gold.PLP.ligand.torsion>
0.7835

> <Gold.PLP.Chemscore.Hbond>
1.4000

> <Gold.PLP.Chemscore.CHOScore>
0.0000

> <Gold.PLP.Chemscore.Metal>
0.0000

> <Gold.Chemscore.Hbonds>
donor molecule, donor type, donor heavy atom, donor atom, acceptor molecule, acceptor atom, score
      L1  H     2    35       P1  7957  1.00
      P1  H  7989  7998       L1     8  0.40

> <Gold.PLP.Chemscore.Internal.Correction>
0.0034

> <Gold.Rescore>
     Score         DG    S(hbond)    S(metal)    S(lipo)     H(rot)  DE(clash)    DE(int)     intcor
     13.74     -15.48       0.93        0.00      80.80       1.00       0.20       1.54       ----

> <Gold.Chemscore.Fitness>
13.7358

> <Gold.Chemscore.DG>
-15.4816

> <Gold.Chemscore.ZeroCoef>
-5.4800

> <Gold.Chemscore.Hbond>
0.9307

> <Gold.Chemscore.Metal>
0.0000

> <Gold.Chemscore.Lipo>
80.7960

> <Gold.Chemscore.Internal_Hbond>
0.0000

> <Gold.Chemscore.DEClash>
0.2038

> <Gold.Chemscore.DEInternal>
1.5420

> <Gold.Chemscore.Rot>
1.0000

> <Gold.Chemscore.Internal.Correction>
   9.000000E+99

> <Gold.Chemscore.Hbonds>
donor molecule, donor type, donor heavy atom, donor atom, acceptor molecule, acceptor atom, score
      L1  H     2    35       P1  7957  0.93
      P1  H  7989  7998       L1     8  0.01

> <Gold.Chemscore.Hbond.Weighted>
-3.1084

> <Gold.Chemscore.Metal.Weighted>
-0.0000

> <Gold.Chemscore.Lipo.Weighted>
-9.4531

> <Gold.Chemscore.Internal_Hbond.Weighted>
0.0000

> <Gold.Chemscore.DEClash.Weighted>
0.2038

> <Gold.Chemscore.DEInternal.Weighted>
1.5420

> <Gold.Chemscore.Rot.Weighted>
2.5600

> <Gold.Chemscore.Internal.Correction.Weighted>
   9.000000E+99

> <Gold.Protein.RotatedTorsions>
[ 6907 6896 6895 6894 ] final  -27.45 input  -60.11 | X-H torsion
[ 7974 7965 7964 7962 ] final  -47.85 input  175.53 | X-H torsion
[ 8008 7997 7996 7995 ] final   50.59 input   59.86 | X-H torsion
[ 10167 10162 10161 10158 ] final   -0.83 input  -65.29 | X-H torsion
[ 10718 10713 10712 10709 ] final  176.47 input   66.30 | X-H torsion
[ 10763 10752 10751 10750 ] final  120.33 input  -60.55 | X-H torsion
[ 11005 11000 10999 10996 ] final   79.00 input  -57.11 | X-H torsion

> <Gold.Protein.ActiveResidues>
 VAL166  LYS551  ARG553  GLY616  TRP617  ASP618  TYR619  PRO620  LYS621  CYS622 
 ASP623  PHE694  ASN695  SER759  ASP760  ASP761  ALA762  ILE779  LEU786  VAL792 
 PHE793  MET794  SER795  GLU796  ALA797  LYS798  CYS799  TRP800  GLU811  SER814 

> <Gold.Protein.RotatedAtoms>
  151.1467  135.0207  159.8649 H   0  0  0  0  0  0  0  0  0  0  0  0  # atno 6907 bound_to 6896
  152.5453  134.1436  159.8499 H   0  0  0  0  0  0  0  0  0  0  0  0  # atno 6908 bound_to 6896
  151.1517  133.4857  159.2628 H   0  0  0  0  0  0  0  0  0  0  0  0  # atno 6909 bound_to 6896
  145.9573  140.7514  142.9475 H   0  0  0  0  0  0  0  0  0  0  0  0  # atno 7974 bound_to 7965
  155.4213  140.3446  155.4271 H   0  0  0  0  0  0  0  0  0  0  0  0  # atno 8008 bound_to 7997
  156.1391  140.1536  156.8980 H   0  0  0  0  0  0  0  0  0  0  0  0  # atno 8009 bound_to 7997
  154.4956  140.0829  156.7669 H   0  0  0  0  0  0  0  0  0  0  0  0  # atno 8010 bound_to 7997
  140.6784  143.6847  150.8076 H   0  0  0  0  0  0  0  0  0  0  0  0  # atno 10167 bound_to 10162
  156.9197  130.9936  151.3007 H   0  0  0  0  0  0  0  0  0  0  0  0  # atno 10718 bound_to 10713
  153.5968  135.3455  155.2931 H   0  0  0  0  0  0  0  0  0  0  0  0  # atno 10763 bound_to 10752
  154.8643  135.4218  154.2456 H   0  0  0  0  0  0  0  0  0  0  0  0  # atno 10764 bound_to 10752
  153.3276  135.7042  153.7047 H   0  0  0  0  0  0  0  0  0  0  0  0  # atno 10765 bound_to 10752
  139.9190  134.7808  156.1722 H   0  0  0  0  0  0  0  0  0  0  0  0  # atno 11005 bound_to 11000
  144.6807  140.2533  143.7329 LP  0  0  0  0  0  0  0  0  0  0  0  0  # atno 17320 bound_to 7965
  145.8088  139.1995  143.2005 LP  0  0  0  0  0  0  0  0  0  0  0  0  # atno 17321 bound_to 7965
  140.0544  143.5217  152.2658 LP  0  0  0  0  0  0  0  0  0  0  0  0  # atno 17342 bound_to 10162
  139.6091  144.7604  151.2993 LP  0  0  0  0  0  0  0  0  0  0  0  0  # atno 17343 bound_to 10162
  157.5916  130.8447  149.8667 LP  0  0  0  0  0  0  0  0  0  0  0  0  # atno 17370 bound_to 10713
  156.0497  130.3720  150.1231 LP  0  0  0  0  0  0  0  0  0  0  0  0  # atno 17371 bound_to 10713
  141.0693  133.6804  156.2109 LP  0  0  0  0  0  0  0  0  0  0  0  0  # atno 17394 bound_to 11000
  140.6533  134.5045  157.5579 LP  0  0  0  0  0  0  0  0  0  0  0  0  # atno 17395 bound_to 11000

$$$$
