AV-unprocessed.smi:1672|AV-procd|sdf|6703|dock2
  -GOLD-   22720 7443D 1   1.00000     0.00000
 Structure written by MMmdl.
 48 50  0  0  0  0  0  0  0  0  2 V2000
  143.9830  133.5089  151.0930 C   0  0  0  0  0  0  0  0  0  0  0  0
  145.2471  134.2848  150.6832 C   0  0  2  0  0  0  0  0  0  0  0  0
  146.5094  133.4033  150.6725 C   0  0  0  0  0  0  0  0  0  0  0  0
  147.0074  133.0812  152.0928 C   0  0  0  0  0  0  0  0  0  0  0  0
  147.2450  134.3222  152.8735 N   0  3  2  0  0  0  0  0  0  0  0  0
  147.8658  134.0459  154.1949 C   0  0  0  0  0  0  0  0  0  0  0  0
  149.3262  133.5683  154.0763 C   0  0  2  0  0  0  0  0  0  0  0  0
  149.3244  132.1863  153.7766 O   0  0  0  0  0  0  0  0  0  0  0  0
  150.1135  133.8156  155.3791 C   0  0  0  0  0  0  0  0  0  0  0  0
  149.8006  135.1000  155.9941 N   0  0  0  0  0  0  0  0  0  0  0  0
  149.0203  135.3477  157.0779 C   0  0  0  0  0  0  0  0  0  0  0  0
  148.3441  134.2577  157.8542 C   0  0  0  0  0  0  0  0  0  0  0  0
  149.2393  133.2730  158.3245 O   0  0  0  0  0  0  0  0  0  0  0  0
  148.8974  136.6299  157.4221 N   0  0  0  0  0  0  0  0  0  0  0  0
  149.6784  137.2750  156.4838 C   0  0  0  0  0  0  0  0  0  0  0  0
  149.9606  138.6491  156.3120 C   0  0  0  0  0  0  0  0  0  0  0  0
  150.8028  139.0794  155.2659 C   0  0  0  0  0  0  0  0  0  0  0  0
  151.3746  138.1439  154.3796 C   0  0  0  0  0  0  0  0  0  0  0  0
  151.1066  136.7702  154.5333 C   0  0  0  0  0  0  0  0  0  0  0  0
  150.2630  136.3457  155.5777 C   0  0  0  0  0  0  0  0  0  0  0  0
  146.0168  135.1565  152.9606 C   0  0  0  0  0  0  0  0  0  0  0  0
  145.4962  135.5258  151.5599 C   0  0  0  0  0  0  0  0  0  0  0  0
  144.0515  133.1132  152.1057 H   0  0  0  0  0  0  0  0  0  0  0  0
  143.8082  132.6674  150.4220 H   0  0  0  0  0  0  0  0  0  0  0  0
  143.1014  134.1491  151.0483 H   0  0  0  0  0  0  0  0  0  0  0  0
  145.0783  134.6313  149.6626 H   0  0  0  0  0  0  0  0  0  0  0  0
  146.3225  132.4800  150.1226 H   0  0  0  0  0  0  0  0  0  0  0  0
  147.3017  133.9216  150.1305 H   0  0  0  0  0  0  0  0  0  0  0  0
  146.2913  132.4481  152.6184 H   0  0  0  0  0  0  0  0  0  0  0  0
  147.9346  132.5113  152.0191 H   0  0  0  0  0  0  0  0  0  0  0  0
  147.8025  134.9415  154.8146 H   0  0  0  0  0  0  0  0  0  0  0  0
  147.2954  133.2759  154.7174 H   0  0  0  0  0  0  0  0  0  0  0  0
  149.8279  134.0847  153.2605 H   0  0  0  0  0  0  0  0  0  0  0  0
  149.5852  131.7115  154.5519 H   0  0  0  0  0  0  0  0  0  0  0  0
  149.9128  133.0203  156.0965 H   0  0  0  0  0  0  0  0  0  0  0  0
  151.1866  133.7774  155.1860 H   0  0  0  0  0  0  0  0  0  0  0  0
  147.7967  134.6873  158.6930 H   0  0  0  0  0  0  0  0  0  0  0  0
  147.6032  133.7712  157.2185 H   0  0  0  0  0  0  0  0  0  0  0  0
  149.2856  132.5813  157.6819 H   0  0  0  0  0  0  0  0  0  0  0  0
  149.5291  139.3736  156.9866 H   0  0  0  0  0  0  0  0  0  0  0  0
  151.0124  140.1320  155.1440 H   0  0  0  0  0  0  0  0  0  0  0  0
  152.0195  138.4820  153.5815 H   0  0  0  0  0  0  0  0  0  0  0  0
  151.5436  136.0528  153.8547 H   0  0  0  0  0  0  0  0  0  0  0  0
  145.2499  134.6230  153.5236 H   0  0  0  0  0  0  0  0  0  0  0  0
  146.2190  136.0756  153.5088 H   0  0  0  0  0  0  0  0  0  0  0  0
  146.2294  136.1677  151.0696 H   0  0  0  0  0  0  0  0  0  0  0  0
  144.5848  136.1190  151.6434 H   0  0  0  0  0  0  0  0  0  0  0  0
  147.9273  134.8543  152.3515 H   0  0  0  0  0  0  0  0  0  0  0  0
  1  2  1  0  0  0  0
  1 23  1  0  0  0  0
  1 24  1  0  0  0  0
  1 25  1  0  0  0  0
  2 22  1  0  0  0  0
  2  3  1  0  0  0  0
  2 26  1  0  0  0  0
  3  4  1  0  0  0  0
  3 27  1  0  0  0  0
  3 28  1  0  0  0  0
  4  5  1  0  0  0  0
  4 29  1  0  0  0  0
  4 30  1  0  0  0  0
  5  6  1  0  0  0  0
  5 21  1  0  0  0  0
  5 48  1  0  0  0  0
  6  7  1  0  0  0  0
  6 31  1  0  0  0  0
  6 32  1  0  0  0  0
  7  8  1  0  0  0  0
  7  9  1  0  0  0  0
  7 33  1  0  0  0  0
  8 34  1  0  0  0  0
  9 10  1  0  0  0  0
  9 35  1  0  0  0  0
  9 36  1  0  0  0  0
 10 20  1  0  0  0  0
 10 11  1  0  0  0  0
 11 12  1  0  0  0  0
 11 14  2  0  0  0  0
 12 13  1  0  0  0  0
 12 37  1  0  0  0  0
 12 38  1  0  0  0  0
 13 39  1  0  0  0  0
 14 15  1  0  0  0  0
 15 20  2  0  0  0  0
 15 16  1  0  0  0  0
 16 17  2  0  0  0  0
 16 40  1  0  0  0  0
 17 18  1  0  0  0  0
 17 41  1  0  0  0  0
 18 19  2  0  0  0  0
 18 42  1  0  0  0  0
 19 20  1  0  0  0  0
 19 43  1  0  0  0  0
 21 22  1  0  0  0  0
 21 44  1  0  0  0  0
 21 45  1  0  0  0  0
 22 46  1  0  0  0  0
 22 47  1  0  0  0  0
M  CHG  1   5   1
M  END
> <s_m_source_file>
AV-unprocessed.smi

> <i_m_source_file_index>
1672

> <i_lp_mmshare_version>
43012

> <i_f3d_flags>
0

> <s_epik_input>
W0NIM11bQ0hdMVtDSDJdW0NIMl1OKFtDSDJdW0NIMl0xKVtDSDJdW0NASF0oW09IXSlbQ0gyXW4oYyhuMilbQ0gyXVtPSF0pYyhjMjMpW2NIXVtjSF1bY0hdW2NIXTM=

> <s_epik_cmdline>
J2VwaWtfcHl0aG9uJywgJy1waCcsICc3LjAnLCAnLXRuJywgJzgnLCAnLW1hJywgJzIwMCcsICctbWV0YWxfYmluZGluZycsICctaW1hZScsICc8aW5maWxlLm1hZT4nLCAnLW9tYWUnLCAnPG91dGZpbGUubWFlPic=

> <r_epik_Ionization_Penalty>
0.0498263

> <r_epik_Ionization_Penalty_Charging>
0.00181365

> <r_epik_Ionization_Penalty_Neutral>
0.0480127

> <r_epik_State_Penalty>
0.0408546

> <r_epik_Charging_Adjusted_Penalty>
0.0426682

> <i_epik_Tot_Q>
1

> <i_epik_Tot_abs_Q>
1

> <r_epik_Metal_State_Penalty>
4.22946e-05

> <b_epik_Metal_Only>
0

> <s_lp_Force_Field>
OPLS_2005

> <r_lp_Energy>
23.4925

> <b_lp_Chiralities_Consistent>
1

> <s_lp_Variant>
AV-unprocessed.smi:1672-3

> <Gold.Version>
5.8.1

> <Gold.Id.Protein>
6NUR|6NUR_protein|mol2

> <Gold.PLP.Fitness>
39.9945

> <Gold.PLP.PLP>
-32.3567

> <Gold.PLP.part.hbond>
-2.0000

> <Gold.PLP.part.metal>
0.0000

> <Gold.PLP.part.buried>
-3.9539

> <Gold.PLP.part.nonpolar>
-27.2494

> <Gold.PLP.part.repulsive>
0.0000

> <Gold.PLP.ligand.clash>
0.0000

> <Gold.PLP.ligand.torsion>
0.7345

> <Gold.PLP.Chemscore.Hbond>
3.0000

> <Gold.PLP.Chemscore.CHOScore>
0.0000

> <Gold.PLP.Chemscore.Metal>
0.0000

> <Gold.Chemscore.Hbonds>
donor molecule, donor type, donor heavy atom, donor atom, acceptor molecule, acceptor atom, score
      L1  H     5    48       P1  7948  2.00
      P1  H  6896  6909       L1    13  1.00

> <Gold.PLP.Chemscore.Internal.Correction>
0.1067

> <Gold.Rescore>
     Score         DG    S(hbond)    S(metal)    S(lipo)     H(rot)  DE(clash)    DE(int)     intcor
     12.76     -13.63       1.83        0.00      80.31       2.88       0.05       0.82       ----

> <Gold.Chemscore.Fitness>
12.7586

> <Gold.Chemscore.DG>
-13.6263

> <Gold.Chemscore.ZeroCoef>
-5.4800

> <Gold.Chemscore.Hbond>
1.8315

> <Gold.Chemscore.Metal>
0.0000

> <Gold.Chemscore.Lipo>
80.3093

> <Gold.Chemscore.Internal_Hbond>
0.0000

> <Gold.Chemscore.DEClash>
0.0491

> <Gold.Chemscore.DEInternal>
0.8187

> <Gold.Chemscore.Rot>
2.8778

> <Gold.Chemscore.Internal.Correction>
   9.000000E+99

> <Gold.Chemscore.Hbonds>
donor molecule, donor type, donor heavy atom, donor atom, acceptor molecule, acceptor atom, score
      L1  H     5    48       P1  7948  0.74
      P1  H  6896  6909       L1    13  0.88

> <Gold.Chemscore.Hbond.Weighted>
-6.1172

> <Gold.Chemscore.Metal.Weighted>
-0.0000

> <Gold.Chemscore.Lipo.Weighted>
-9.3962

> <Gold.Chemscore.Internal_Hbond.Weighted>
0.0000

> <Gold.Chemscore.DEClash.Weighted>
0.0491

> <Gold.Chemscore.DEInternal.Weighted>
0.8187

> <Gold.Chemscore.Rot.Weighted>
7.3671

> <Gold.Chemscore.Internal.Correction.Weighted>
   9.000000E+99

> <Gold.Protein.RotatedTorsions>
[ 6907 6896 6895 6894 ] final  -12.03 input  -60.11 | X-H torsion
[ 7974 7965 7964 7962 ] final -117.79 input  175.53 | X-H torsion
[ 8008 7997 7996 7995 ] final   62.79 input   59.86 | X-H torsion
[ 10167 10162 10161 10158 ] final   63.15 input  -65.29 | X-H torsion
[ 10718 10713 10712 10709 ] final  -13.14 input   66.30 | X-H torsion
[ 10763 10752 10751 10750 ] final   -1.78 input  -60.55 | X-H torsion
[ 11005 11000 10999 10996 ] final   51.98 input  -57.11 | X-H torsion

> <Gold.Protein.ActiveResidues>
 VAL166  LYS551  ARG553  GLY616  TRP617  ASP618  TYR619  PRO620  LYS621  CYS622 
 ASP623  PHE694  ASN695  SER759  ASP760  ASP761  ALA762  ILE779  LEU786  VAL792 
 PHE793  MET794  SER795  GLU796  ALA797  LYS798  CYS799  TRP800  GLU811  SER814 

> <Gold.Protein.RotatedAtoms>
  151.3769  135.0933  159.9483 H   0  0  0  0  0  0  0  0  0  0  0  0  # atno 6907 bound_to 6896
  152.5119  133.9110  159.7498 H   0  0  0  0  0  0  0  0  0  0  0  0  # atno 6908 bound_to 6896
  150.9535  133.6468  159.2796 H   0  0  0  0  0  0  0  0  0  0  0  0  # atno 6909 bound_to 6896
  145.0812  140.8426  143.4038 H   0  0  0  0  0  0  0  0  0  0  0  0  # atno 7974 bound_to 7965
  155.6199  140.3495  155.4648 H   0  0  0  0  0  0  0  0  0  0  0  0  # atno 8008 bound_to 7997
  156.0088  140.1228  157.0499 H   0  0  0  0  0  0  0  0  0  0  0  0  # atno 8009 bound_to 7997
  154.4273  140.1086  156.5786 H   0  0  0  0  0  0  0  0  0  0  0  0  # atno 8010 bound_to 7997
  140.1361  144.4597  150.6837 H   0  0  0  0  0  0  0  0  0  0  0  0  # atno 10167 bound_to 10162
  156.6345  130.4911  149.6117 H   0  0  0  0  0  0  0  0  0  0  0  0  # atno 10718 bound_to 10713
  153.3494  135.6985  153.6801 H   0  0  0  0  0  0  0  0  0  0  0  0  # atno 10763 bound_to 10752
  153.5534  135.3549  155.2769 H   0  0  0  0  0  0  0  0  0  0  0  0  # atno 10764 bound_to 10752
  154.8650  135.4232  154.2726 H   0  0  0  0  0  0  0  0  0  0  0  0  # atno 10765 bound_to 10752
  140.0887  134.5238  155.8873 H   0  0  0  0  0  0  0  0  0  0  0  0  # atno 11005 bound_to 11000
  145.1176  139.2715  143.5605 LP  0  0  0  0  0  0  0  0  0  0  0  0  # atno 17320 bound_to 7965
  146.3531  140.0791  142.8618 LP  0  0  0  0  0  0  0  0  0  0  0  0  # atno 17321 bound_to 7965
  140.6788  143.2317  151.5438 LP  0  0  0  0  0  0  0  0  0  0  0  0  # atno 17342 bound_to 10162
  139.5495  144.2433  152.1504 LP  0  0  0  0  0  0  0  0  0  0  0  0  # atno 17343 bound_to 10162
  156.2208  130.6736  151.1366 LP  0  0  0  0  0  0  0  0  0  0  0  0  # atno 17370 bound_to 10713
  157.7190  131.0693  150.6214 LP  0  0  0  0  0  0  0  0  0  0  0  0  # atno 17371 bound_to 10713
  141.2071  133.6661  156.6284 LP  0  0  0  0  0  0  0  0  0  0  0  0  # atno 17394 bound_to 11000
  140.3383  134.7871  157.4378 LP  0  0  0  0  0  0  0  0  0  0  0  0  # atno 17395 bound_to 11000

$$$$
