AV-unprocessed.smi:2706|AV-procd|sdf|10454|dock5
  -GOLD-   2272014493D 1   1.00000     0.00000
 Structure written by MMmdl.
 43 46  0  0  0  0  0  0  0  0  1 V2000
  150.9192  144.9571  158.3763 C   0  0  0  0  0  0  0  0  0  0  0  0
  151.6400  144.3996  159.5157 N   0  0  0  0  0  0  0  0  0  0  0  0
  151.8430  145.3490  160.6052 C   0  0  0  0  0  0  0  0  0  0  0  0
  152.1538  143.1005  159.5132 C   0  0  0  0  0  0  0  0  0  0  0  0
  152.8218  142.6137  160.5836 C   0  0  0  0  0  0  0  0  0  0  0  0
  153.3629  141.2702  160.5553 C   0  0  0  0  0  0  0  0  0  0  0  0
  153.2007  140.4745  159.4801 C   0  0  0  0  0  0  0  0  0  0  0  0
  152.4612  140.9364  158.3208 C   0  0  0  0  0  0  0  0  0  0  0  0
  152.2966  140.1545  157.2907 N   0  0  0  0  0  0  0  0  0  0  0  0
  151.4774  140.4772  156.2082 C   0  0  0  0  0  0  0  0  0  0  0  0
  151.5541  139.9029  155.1227 O   0  0  0  0  0  0  0  0  0  0  0  0
  150.5038  141.3774  156.4558 N   0  0  0  0  0  0  0  0  0  0  0  0
  149.4935  141.8085  155.5447 C   0  0  2  0  0  0  0  0  0  0  0  0
  148.0536  141.3179  155.6760 C   0  0  2  0  0  0  0  0  0  0  0  0
  147.5285  140.0232  156.3025 C   0  0  1  0  0  0  0  0  0  0  0  0
  146.4920  139.4257  155.3257 C   0  0  0  0  0  0  0  0  0  0  0  0
  147.3827  138.9161  154.1642 C   0  0  0  0  0  0  0  0  0  0  0  0
  148.7982  139.3061  154.6402 C   0  0  2  0  0  0  0  0  0  0  0  0
  148.6487  138.9987  156.1313 C   0  0  0  0  0  0  0  0  0  0  0  0
  148.9040  140.8301  154.5388 C   0  0  2  0  0  0  0  0  0  0  0  0
  151.9992  142.2637  158.4049 N   0  0  0  0  0  0  0  0  0  0  0  0
  151.6033  145.5226  157.7433 H   0  0  0  0  0  0  0  0  0  0  0  0
  150.1243  145.6277  158.7045 H   0  0  0  0  0  0  0  0  0  0  0  0
  150.4555  144.1842  157.7646 H   0  0  0  0  0  0  0  0  0  0  0  0
  151.4216  144.9588  161.5320 H   0  0  0  0  0  0  0  0  0  0  0  0
  151.3710  146.3112  160.4040 H   0  0  0  0  0  0  0  0  0  0  0  0
  152.9073  145.5297  160.7581 H   0  0  0  0  0  0  0  0  0  0  0  0
  152.9776  143.2064  161.4725 H   0  0  0  0  0  0  0  0  0  0  0  0
  153.9125  140.9029  161.4093 H   0  0  0  0  0  0  0  0  0  0  0  0
  153.6292  139.4834  159.5165 H   0  0  0  0  0  0  0  0  0  0  0  0
  150.4644  141.7730  157.3842 H   0  0  0  0  0  0  0  0  0  0  0  0
  149.5885  142.8325  155.1867 H   0  0  0  0  0  0  0  0  0  0  0  0
  147.2858  142.0566  155.4532 H   0  0  0  0  0  0  0  0  0  0  0  0
  147.1631  140.1589  157.3196 H   0  0  0  0  0  0  0  0  0  0  0  0
  145.9490  138.5994  155.7865 H   0  0  0  0  0  0  0  0  0  0  0  0
  145.7603  140.1640  154.9954 H   0  0  0  0  0  0  0  0  0  0  0  0
  147.2902  137.8348  154.0525 H   0  0  0  0  0  0  0  0  0  0  0  0
  147.1247  139.3739  153.2085 H   0  0  0  0  0  0  0  0  0  0  0  0
  149.6117  138.7883  154.1318 H   0  0  0  0  0  0  0  0  0  0  0  0
  149.5333  139.1733  156.7369 H   0  0  0  0  0  0  0  0  0  0  0  0
  148.3289  137.9737  156.3307 H   0  0  0  0  0  0  0  0  0  0  0  0
  148.7075  141.2354  153.5479 H   0  0  0  0  0  0  0  0  0  0  0  0
  151.5012  142.6715  157.6269 H   0  0  0  0  0  0  0  0  0  0  0  0
  1  2  1  0  0  0  0
  1 22  1  0  0  0  0
  1 23  1  0  0  0  0
  1 24  1  0  0  0  0
  2  3  1  0  0  0  0
  2  4  1  0  0  0  0
  3 25  1  0  0  0  0
  3 26  1  0  0  0  0
  3 27  1  0  0  0  0
  4 21  1  0  0  0  0
  4  5  2  0  0  0  0
  5  6  1  0  0  0  0
  5 28  1  0  0  0  0
  6  7  2  0  0  0  0
  6 29  1  0  0  0  0
  7  8  1  0  0  0  0
  7 30  1  0  0  0  0
  8  9  2  0  0  0  0
  8 21  1  0  0  0  0
  9 10  1  0  0  0  0
 10 11  2  0  0  0  0
 10 12  1  0  0  0  0
 12 13  1  0  0  0  0
 12 31  1  0  0  0  0
 13 20  1  0  0  0  0
 13 14  1  0  0  0  0
 13 32  1  0  0  0  0
 14 20  1  0  0  0  0
 14 15  1  0  0  0  0
 14 33  1  0  0  0  0
 15 19  1  0  0  0  0
 15 16  1  0  0  0  0
 15 34  1  0  0  0  0
 16 17  1  0  0  0  0
 16 35  1  0  0  0  0
 16 36  1  0  0  0  0
 17 18  1  0  0  0  0
 17 37  1  0  0  0  0
 17 38  1  0  0  0  0
 18 19  1  0  0  0  0
 18 20  1  0  0  0  0
 18 39  1  0  0  0  0
 19 40  1  0  0  0  0
 19 41  1  0  0  0  0
 20 42  1  0  0  0  0
 21 43  1  0  0  0  0
M  END
> <s_m_source_file>
AV-unprocessed.smi

> <i_m_source_file_index>
2706

> <i_lp_mmshare_version>
43012

> <i_f3d_flags>
0

> <s_epik_input>
W0NIM11OKFtDSDNdKWMxW2NIXVtjSF1bY0hdYyhuMSlbTkhdQyg9TylbTkhdW0NASF0yW0NAQEhdM1tDQEBIXShbQ0gyXTQpW0NIMl1bQ0gyXVtDQEBIXTRbQ0BIXTIz

> <s_epik_cmdline>
J2VwaWtfcHl0aG9uJywgJy1waCcsICc3LjAnLCAnLXRuJywgJzgnLCAnLW1hJywgJzIwMCcsICctbWV0YWxfYmluZGluZycsICctaW1hZScsICc8aW5maWxlLm1hZT4nLCAnLW9tYWUnLCAnPG91dGZpbGUubWFlPic=

> <r_lp_tautomer_probability>
0.999994

> <r_epik_Ionization_Penalty>
2.07242

> <r_epik_Ionization_Penalty_Charging>
2.07242

> <r_epik_Ionization_Penalty_Neutral>
9.73808e-07

> <r_epik_State_Penalty>
3.96009

> <r_epik_Charging_Adjusted_Penalty>
6.03251

> <i_epik_Tot_Q>
0

> <i_epik_Tot_abs_Q>
0

> <r_epik_Metal_State_Penalty>
3.98849

> <b_epik_Metal_Only>
1

> <s_lp_Force_Field>
OPLS_2005

> <r_lp_Energy>
93.8849

> <b_lp_Chiralities_Consistent>
1

> <s_lp_Variant>
AV-unprocessed.smi:2706-11

> <Gold.Version>
5.8.1

> <Gold.Id.Protein>
6NUR|6NUR_protein|mol2

> <Gold.PLP.Fitness>
46.4242

> <Gold.PLP.PLP>
-41.5526

> <Gold.PLP.part.hbond>
-2.0000

> <Gold.PLP.part.metal>
0.0000

> <Gold.PLP.part.buried>
-3.7734

> <Gold.PLP.part.nonpolar>
-35.0470

> <Gold.PLP.part.repulsive>
0.2043

> <Gold.PLP.ligand.clash>
0.3868

> <Gold.PLP.ligand.torsion>
0.3646

> <Gold.PLP.Chemscore.Hbond>
1.9760

> <Gold.PLP.Chemscore.CHOScore>
0.0000

> <Gold.PLP.Chemscore.Metal>
0.0000

> <Gold.Chemscore.Hbonds>
donor molecule, donor type, donor heavy atom, donor atom, acceptor molecule, acceptor atom, score
      P1  H  7989  7998       L1    11  1.00
      P1  H  7997  8009       L1     9  0.57

> <Gold.PLP.Chemscore.Internal.Correction>
0.0596

> <Gold.Rescore>
     Score         DG    S(hbond)    S(metal)    S(lipo)     H(rot)  DE(clash)    DE(int)     intcor
     13.48     -16.39       1.04        0.00      85.32       1.00       0.33       2.58       ----

> <Gold.Chemscore.Fitness>
13.4827

> <Gold.Chemscore.DG>
-16.3924

> <Gold.Chemscore.ZeroCoef>
-5.4800

> <Gold.Chemscore.Hbond>
1.0450

> <Gold.Chemscore.Metal>
0.0000

> <Gold.Chemscore.Lipo>
85.3173

> <Gold.Chemscore.Internal_Hbond>
0.0000

> <Gold.Chemscore.DEClash>
0.3310

> <Gold.Chemscore.DEInternal>
2.5787

> <Gold.Chemscore.Rot>
1.0000

> <Gold.Chemscore.Internal.Correction>
   9.000000E+99

> <Gold.Chemscore.Hbonds>
donor molecule, donor type, donor heavy atom, donor atom, acceptor molecule, acceptor atom, score
      P1  H  7989  7998       L1    11  0.96
      P1  H  7997  8009       L1     9  0.07

> <Gold.Chemscore.Hbond.Weighted>
-3.4903

> <Gold.Chemscore.Metal.Weighted>
-0.0000

> <Gold.Chemscore.Lipo.Weighted>
-9.9821

> <Gold.Chemscore.Internal_Hbond.Weighted>
0.0000

> <Gold.Chemscore.DEClash.Weighted>
0.3310

> <Gold.Chemscore.DEInternal.Weighted>
2.5787

> <Gold.Chemscore.Rot.Weighted>
2.5600

> <Gold.Chemscore.Internal.Correction.Weighted>
   9.000000E+99

> <Gold.Protein.RotatedTorsions>
[ 6907 6896 6895 6894 ] final  -33.48 input  -60.11 | X-H torsion
[ 7974 7965 7964 7962 ] final  107.52 input  175.53 | X-H torsion
[ 8008 7997 7996 7995 ] final -176.36 input   59.86 | X-H torsion
[ 10167 10162 10161 10158 ] final -135.66 input  -65.29 | X-H torsion
[ 10718 10713 10712 10709 ] final  -59.60 input   66.30 | X-H torsion
[ 10763 10752 10751 10750 ] final   99.32 input  -60.55 | X-H torsion
[ 11005 11000 10999 10996 ] final  -68.38 input  -57.11 | X-H torsion

> <Gold.Protein.ActiveResidues>
 VAL166  LYS551  ARG553  GLY616  TRP617  ASP618  TYR619  PRO620  LYS621  CYS622 
 ASP623  PHE694  ASN695  SER759  ASP760  ASP761  ALA762  ILE779  LEU786  VAL792 
 PHE793  MET794  SER795  GLU796  ALA797  LYS798  CYS799  TRP800  GLU811  SER814 

> <Gold.Protein.RotatedAtoms>
  151.0651  134.9762  159.8279 H   0  0  0  0  0  0  0  0  0  0  0  0  # atno 6907 bound_to 6896
  152.5401  134.2369  159.8857 H   0  0  0  0  0  0  0  0  0  0  0  0  # atno 6908 bound_to 6896
  151.2391  133.4366  159.2640 H   0  0  0  0  0  0  0  0  0  0  0  0  # atno 6909 bound_to 6896
  145.2925  139.2595  143.3857 H   0  0  0  0  0  0  0  0  0  0  0  0  # atno 7974 bound_to 7965
  155.9940  140.1207  157.0611 H   0  0  0  0  0  0  0  0  0  0  0  0  # atno 8008 bound_to 7997
  154.4220  140.1120  156.5673 H   0  0  0  0  0  0  0  0  0  0  0  0  # atno 8009 bound_to 7997
  155.6304  140.3473  155.4683 H   0  0  0  0  0  0  0  0  0  0  0  0  # atno 8010 bound_to 7997
  139.8756  143.6903  152.2634 H   0  0  0  0  0  0  0  0  0  0  0  0  # atno 10167 bound_to 10162
  156.1050  130.4181  150.0738 H   0  0  0  0  0  0  0  0  0  0  0  0  # atno 10718 bound_to 10713
  153.3000  135.4117  155.1244 H   0  0  0  0  0  0  0  0  0  0  0  0  # atno 10763 bound_to 10752
  154.8546  135.3539  154.5865 H   0  0  0  0  0  0  0  0  0  0  0  0  # atno 10764 bound_to 10752
  153.6290  135.7061  153.5340 H   0  0  0  0  0  0  0  0  0  0  0  0  # atno 10765 bound_to 10752
  141.1530  133.6739  156.6437 H   0  0  0  0  0  0  0  0  0  0  0  0  # atno 11005 bound_to 11000
  146.3180  140.3419  142.8649 LP  0  0  0  0  0  0  0  0  0  0  0  0  # atno 17320 bound_to 7965
  144.9161  140.7814  143.5777 LP  0  0  0  0  0  0  0  0  0  0  0  0  # atno 17321 bound_to 7965
  139.7243  144.7596  151.0904 LP  0  0  0  0  0  0  0  0  0  0  0  0  # atno 17342 bound_to 10162
  140.7753  143.5168  150.9585 LP  0  0  0  0  0  0  0  0  0  0  0  0  # atno 17343 bound_to 10162
  156.8716  130.9526  151.3608 LP  0  0  0  0  0  0  0  0  0  0  0  0  # atno 17370 bound_to 10713
  157.6225  130.8666  149.9133 LP  0  0  0  0  0  0  0  0  0  0  0  0  # atno 17371 bound_to 10713
  140.3373  134.7878  157.4371 LP  0  0  0  0  0  0  0  0  0  0  0  0  # atno 17394 bound_to 11000
  140.0967  134.5528  155.8392 LP  0  0  0  0  0  0  0  0  0  0  0  0  # atno 17395 bound_to 11000

$$$$
