#       Name:                AV-unprocessed.smi:1839
#       Creating user name   scv26
#       Creation time:       Fri Mar 27 09:18:40 2020


#       File generated by GOLD software.
#

@<TRIPOS>MOLECULE
AV-unprocessed.smi:1839
    51    52     1
SMALL
NO_CHARGES


@<TRIPOS>ATOM
      1 ****        -4.3101  -4.5720   0.4191 C.3            1 S1                 0.0000
      2 ****        -2.9509  -4.0394   0.5162 N.am           1 S1                 0.0000
      3 ****        -1.9403  -4.8425  -0.1829 C.3            1 S1                 0.0000
      4 ****        -2.7419  -2.7719   0.9520 C.2            1 S1                 0.0000
      5 ****        -3.6466  -1.9354   0.9853 O.2            1 S1                 0.0000
      6 ****        -1.4727  -2.4671   1.3129 N.am           1 S1                 0.0000
      7 ****        -0.7048  -3.2680   2.2774 C.3            1 S1                 0.0000
      8 ****         0.7501  -3.4004   1.7951 C.3            1 S1                 0.0000
      9 ****         1.3782  -2.0153   1.5636 C.3            1 S1                 0.0000
     10 ****         0.4874  -1.1378   0.6563 C.3            1 S1                 0.0000
     11 ****         1.0562   0.2802   0.5192 C.2            1 S1                 0.0000
     12 ****         1.2350   0.9784   1.5177 O.2            1 S1                 0.0000
     13 ****         1.3293   0.6985  -0.7265 N.am           1 S1                 0.0000
     14 ****         1.8557   2.0141  -1.0689 C.3            1 S1                 0.0000
     15 ****         0.7582   3.0916  -1.0325 C.3            1 S1                 0.0000
     16 ****         1.2913   4.4641  -1.3927 C.ar           1 S1                 0.0000
     17 ****         1.6550   5.4087  -0.4088 C.ar           1 S1                 0.0000
     18 ****         2.1549   6.6649  -0.8113 C.ar           1 S1                 0.0000
     19 ****         2.2809   6.9491  -2.1871 C.ar           1 S1                 0.0000
     20 ****         1.9041   5.9679  -3.1269 C.ar           1 S1                 0.0000
     21 ****         1.4301   4.7760  -2.7016 N.pl3          1 S1                 1.0000
     22 ****        -0.9569  -1.0978   1.2033 C.3            1 S1                 0.0000
     23 ****        -4.9234  -4.2636   1.2677 H              1 S1                 0.0000
     24 ****        -4.3060  -5.6627   0.4068 H              1 S1                 0.0000
     25 ****        -4.7910  -4.2230  -0.4956 H              1 S1                 0.0000
     26 ****        -1.1738  -4.2246  -0.6532 H              1 S1                 0.0000
     27 ****        -2.3909  -5.4367  -0.9790 H              1 S1                 0.0000
     28 ****        -1.4532  -5.5317   0.5066 H              1 S1                 0.0000
     29 ****        -0.7299  -2.7717   3.2487 H              1 S1                 0.0000
     30 ****        -1.1367  -4.2556   2.4415 H              1 S1                 0.0000
     31 ****         1.3374  -3.9586   2.5246 H              1 S1                 0.0000
     32 ****         0.7809  -3.9751   0.8690 H              1 S1                 0.0000
     33 ****         1.5202  -1.5293   2.5303 H              1 S1                 0.0000
     34 ****         2.3709  -2.1287   1.1264 H              1 S1                 0.0000
     35 ****         0.4608  -1.5961  -0.3344 H              1 S1                 0.0000
     36 ****         1.1558   0.0606  -1.4900 H              1 S1                 0.0000
     37 ****         2.6709   2.2749  -0.3916 H              1 S1                 0.0000
     38 ****         2.2889   1.9550  -2.0678 H              1 S1                 0.0000
     39 ****        -0.0457   2.8306  -1.7224 H              1 S1                 0.0000
     40 ****         0.3060   3.1406  -0.0410 H              1 S1                 0.0000
     41 ****         1.5554   5.1739   0.6412 H              1 S1                 0.0000
     42 ****         2.4391   7.4009  -0.0734 H              1 S1                 0.0000
     43 ****         2.6618   7.9050  -2.5163 H              1 S1                 0.0000
     44 ****         1.9674   6.0992  -4.1972 H              1 S1                 0.0000
     45 ****        -1.5752  -0.4931   0.5363 H              1 S1                 0.0000
     46 ****        -0.9948  -0.6175   2.1828 H              1 S1                 0.0000
     47 ****         1.1639   4.0800  -3.3987 H              1 S1                 0.0000
     48 ****        -4.5679  -2.1830   0.6854 LP             1 S1                 0.0000
     49 ****        -3.4593  -1.0091   1.3122 LP             1 S1                 0.0000
     50 ****         1.0091   0.6218   2.4242 LP             1 S1                 0.0000
     51 ****         1.6061   1.9021   1.4220 LP             1 S1                 0.0000
@<TRIPOS>BOND
    1    1    2 1     
    2    1   23 1     
    3    1   24 1     
    4    1   25 1     
    5    2    3 1     
    6    2    4 am    
    7    3   26 1     
    8    3   27 1     
    9    3   28 1     
   10    4    5 2     
   11    4    6 am    
   12    6   22 1     
   13    6    7 1     
   14    7    8 1     
   15    7   29 1     
   16    7   30 1     
   17    8    9 1     
   18    8   31 1     
   19    8   32 1     
   20    9   10 1     
   21    9   33 1     
   22    9   34 1     
   23   10   11 1     
   24   10   22 1     
   25   10   35 1     
   26   11   12 2     
   27   11   13 am    
   28   13   14 1     
   29   13   36 1     
   30   14   15 1     
   31   14   37 1     
   32   14   38 1     
   33   15   16 1     
   34   15   39 1     
   35   15   40 1     
   36   16   21 ar    
   37   16   17 ar    
   38   17   18 ar    
   39   17   41 1     
   40   18   19 ar    
   41   18   42 1     
   42   19   20 ar    
   43   19   43 1     
   44   20   21 ar    
   45   20   44 1     
   46   21   47 1     
   47   22   45 1     
   48   22   46 1     
   49    5   48 1     
   50    5   49 1     
   51   12   50 1     
   52   12   51 1     
@<TRIPOS>SUBSTRUCTURE
      1 S1             1
@<TRIPOS>SET
LONE_PAIRS      STATIC     ATOMS    <user>   **** ""
4 48 49 50 51
DONOR_HYDROGENS      STATIC     ATOMS    <user>   **** ""
2 36 47
ATOM$BLUE        STATIC     ATOMS    COLORGROUP SYSTEM
4 48 49 50 51
ATOM$RED        STATIC     ATOMS    COLORGROUP SYSTEM
2 36 47
