#       Name:                AV-unprocessed.smi:1997
#       Creating user name   scv26
#       Creation time:       Fri Mar 27 10:30:32 2020


#       File generated by GOLD software.
#

@<TRIPOS>MOLECULE
AV-unprocessed.smi:1997
    43    45     1
SMALL
NO_CHARGES


@<TRIPOS>ATOM
      1 ****         0.6684   0.4765   0.1360 O.2            1 S1                 0.0000
      2 ****         0.0599  -0.4560   0.6663 C.2            1 S1                 0.0000
      3 ****         0.6014  -1.6052   1.1307 N.pl3          1 S1                -1.0000
      4 ****         1.9216  -1.8221   1.0118 C.2            1 S1                 0.0000
      5 ****         2.7749  -1.6397   2.0293 N.2            1 S1                 0.0000
      6 ****         4.0904  -1.9274   1.6949 N.2            1 S1                 0.0000
      7 ****         4.2114  -2.3304   0.4279 C.2            1 S1                 0.0000
      8 ****         5.5269  -2.6975  -0.1731 C.3            1 S1                 0.0000
      9 ****         6.5416  -1.6328  -0.5215 C.3            1 S1                 0.0000
     10 ****         5.8469  -2.3950  -1.6209 C.3            1 S1                 0.0000
     11 ****         2.6991  -2.3960  -0.4630 S.3            1 S1                 0.0000
     12 ****        -1.2706  -0.3838   0.8250 N.am           1 S1                 0.0000
     13 ****        -2.1365   0.7210   0.4064 C.3            1 S1                 0.0000
     14 ****        -3.4647   0.6148   1.1976 C.3            1 S1                 0.0000
     15 ****        -4.6631   1.4173   0.6427 C.3            1 S1                 0.0000
     16 ****        -4.3408   2.8602   0.2029 C.3            1 S1                 0.0000
     17 ****        -3.2967   3.0257  -0.9321 C.3            1 S1                 0.0000
     18 ****        -2.9744   1.7952  -1.6545 N.am           1 S1                 0.0000
     19 ****        -2.4240   0.6956  -1.1121 C.2            1 S1                 0.0000
     20 ****        -2.1871  -0.3026  -1.7915 O.2            1 S1                 0.0000
     21 ****         5.8922  -3.6336   0.2443 H              1 S1                 0.0000
     22 ****         6.2545  -0.5938  -0.3720 H              1 S1                 0.0000
     23 ****         7.5892  -1.8591  -0.3353 H              1 S1                 0.0000
     24 ****         6.4310  -3.1307  -2.1697 H              1 S1                 0.0000
     25 ****         5.1081  -1.8548  -2.2096 H              1 S1                 0.0000
     26 ****        -1.7242  -1.1736   1.2597 H              1 S1                 0.0000
     27 ****        -1.6383   1.6563   0.6646 H              1 S1                 0.0000
     28 ****        -3.7697  -0.4305   1.2710 H              1 S1                 0.0000
     29 ****        -3.2735   0.9349   2.2226 H              1 S1                 0.0000
     30 ****        -5.1067   0.8783  -0.1958 H              1 S1                 0.0000
     31 ****        -5.4444   1.4439   1.4027 H              1 S1                 0.0000
     32 ****        -5.2733   3.3217  -0.1235 H              1 S1                 0.0000
     33 ****        -4.0203   3.4397   1.0692 H              1 S1                 0.0000
     34 ****        -3.6581   3.7576  -1.6547 H              1 S1                 0.0000
     35 ****        -2.3741   3.4481  -0.5316 H              1 S1                 0.0000
     36 ****        -3.1757   1.7796  -2.6437 H              1 S1                 0.0000
     37 ****         1.6597   0.4227   0.0160 LP             1 S1                 0.0000
     38 ****         0.1704   1.2863  -0.1742 LP             1 S1                 0.0000
     39 ****         0.0186  -2.2936   1.5626 LP             1 S1                 0.0000
     40 ****         2.4923  -1.3282   2.9366 LP             1 S1                 0.0000
     41 ****         4.8587  -1.8428   2.3294 LP             1 S1                 0.0000
     42 ****        -1.8008  -1.1192  -1.3627 LP             1 S1                 0.0000
     43 ****        -2.3809  -0.2973  -2.7726 LP             1 S1                 0.0000
@<TRIPOS>BOND
    1    1    2 2     
    2    2    3 1     
    3    2   12 am    
    4    3    4 1     
    5    4   11 1     
    6    4    5 2     
    7    5    6 1     
    8    6    7 2     
    9    7    8 1     
   10    7   11 1     
   11    8   10 1     
   12    8    9 1     
   13    8   21 1     
   14    9   10 1     
   15    9   22 1     
   16    9   23 1     
   17   10   24 1     
   18   10   25 1     
   19   12   13 1     
   20   12   26 1     
   21   13   19 1     
   22   13   14 1     
   23   13   27 1     
   24   14   15 1     
   25   14   28 1     
   26   14   29 1     
   27   15   16 1     
   28   15   30 1     
   29   15   31 1     
   30   16   17 1     
   31   16   32 1     
   32   16   33 1     
   33   17   18 1     
   34   17   34 1     
   35   17   35 1     
   36   18   19 am    
   37   18   36 1     
   38   19   20 2     
   39    1   37 1     
   40    1   38 1     
   41    3   39 1     
   42    5   40 1     
   43    6   41 1     
   44   20   42 1     
   45   20   43 1     
@<TRIPOS>SUBSTRUCTURE
      1 S1             1
@<TRIPOS>SET
LONE_PAIRS      STATIC     ATOMS    <user>   **** ""
7 37 38 39 40 41 42 43
DONOR_HYDROGENS      STATIC     ATOMS    <user>   **** ""
2 26 36
ATOM$BLUE        STATIC     ATOMS    COLORGROUP SYSTEM
7 37 38 39 40 41 42 43
ATOM$RED        STATIC     ATOMS    COLORGROUP SYSTEM
2 26 36
