AV-unprocessed.smi:2399|AV-procd|sdf|9500|dock5
  -GOLD-   2272013133D 1   1.00000     0.00000
 Structure written by MMmdl.
 53 55  0  0  0  0  0  0  0  0  2 V2000
  147.1413  141.3312  153.2169 C   0  0  0  0  0  0  0  0  0  0  0  0
  147.8063  140.1457  153.6273 O   0  0  0  0  0  0  0  0  0  0  0  0
  148.8729  140.2622  154.4973 C   0  0  0  0  0  0  0  0  0  0  0  0
  149.3638  141.5039  154.9754 C   0  0  0  0  0  0  0  0  0  0  0  0
  150.4556  141.5206  155.8605 C   0  0  0  0  0  0  0  0  0  0  0  0
  151.0231  140.2910  156.2391 C   0  0  0  0  0  0  0  0  0  0  0  0
  152.1997  140.2341  157.1903 C   0  0  0  0  0  0  0  0  0  0  0  0
  150.5641  139.1045  155.7929 N   0  0  0  0  0  0  0  0  0  0  0  0
  149.5110  139.0745  154.9394 C   0  0  0  0  0  0  0  0  0  0  0  0
  148.9706  137.8640  154.4242 N   0  0  0  0  0  0  0  0  0  0  0  0
  147.9343  137.1455  154.8900 C   0  0  0  0  0  0  0  0  0  0  0  0
  147.2516  137.4304  155.8744 O   0  0  0  0  0  0  0  0  0  0  0  0
  147.7181  136.0608  154.1317 N   0  0  0  0  0  0  0  0  0  0  0  0
  146.6533  135.0850  154.3448 C   0  0  2  0  0  0  0  0  0  0  0  0
  147.0690  133.7247  153.7578 C   0  0  0  0  0  0  0  0  0  0  0  0
  145.9179  132.7039  153.8414 C   0  0  0  0  0  0  0  0  0  0  0  0
  144.6816  133.2005  153.1755 N   0  3  2  0  0  0  0  0  0  0  0  0
  144.7441  133.2095  151.6827 C   0  0  0  0  0  0  0  0  0  0  0  0
  143.4246  132.8137  151.0065 C   0  0  0  0  0  0  0  0  0  0  0  0
  143.8174  132.4187  149.5808 C   0  0  0  0  0  0  0  0  0  0  0  0
  145.2732  131.9399  149.6600 C   0  0  0  0  0  0  0  0  0  0  0  0
  145.7264  132.1799  151.1047 C   0  0  0  0  0  0  0  0  0  0  0  0
  144.2446  134.4866  153.7854 C   0  0  0  0  0  0  0  0  0  0  0  0
  145.3389  135.5668  153.7002 C   0  0  0  0  0  0  0  0  0  0  0  0
  146.3275  141.0705  152.5405 H   0  0  0  0  0  0  0  0  0  0  0  0
  147.8145  142.0007  152.6800 H   0  0  0  0  0  0  0  0  0  0  0  0
  146.7065  141.8594  154.0665 H   0  0  0  0  0  0  0  0  0  0  0  0
  148.9249  142.4451  154.6818 H   0  0  0  0  0  0  0  0  0  0  0  0
  150.8438  142.4556  156.2371 H   0  0  0  0  0  0  0  0  0  0  0  0
  152.6366  141.2222  157.3366 H   0  0  0  0  0  0  0  0  0  0  0  0
  152.9761  139.5751  156.8006 H   0  0  0  0  0  0  0  0  0  0  0  0
  151.8813  139.8536  158.1609 H   0  0  0  0  0  0  0  0  0  0  0  0
  149.4247  137.5133  153.5938 H   0  0  0  0  0  0  0  0  0  0  0  0
  148.3293  135.9046  153.3433 H   0  0  0  0  0  0  0  0  0  0  0  0
  146.4937  134.9553  155.4171 H   0  0  0  0  0  0  0  0  0  0  0  0
  147.3849  133.8422  152.7205 H   0  0  0  0  0  0  0  0  0  0  0  0
  147.9367  133.3407  154.2958 H   0  0  0  0  0  0  0  0  0  0  0  0
  146.2290  131.7433  153.4331 H   0  0  0  0  0  0  0  0  0  0  0  0
  145.6855  132.5121  154.8899 H   0  0  0  0  0  0  0  0  0  0  0  0
  145.0295  134.1996  151.3255 H   0  0  0  0  0  0  0  0  0  0  0  0
  142.9865  131.9528  151.5141 H   0  0  0  0  0  0  0  0  0  0  0  0
  142.6864  133.6162  151.0111 H   0  0  0  0  0  0  0  0  0  0  0  0
  143.1536  131.6551  149.1742 H   0  0  0  0  0  0  0  0  0  0  0  0
  143.7546  133.2885  148.9255 H   0  0  0  0  0  0  0  0  0  0  0  0
  145.3674  130.8871  149.3913 H   0  0  0  0  0  0  0  0  0  0  0  0
  145.8910  132.5094  148.9644 H   0  0  0  0  0  0  0  0  0  0  0  0
  146.7633  132.5148  151.1506 H   0  0  0  0  0  0  0  0  0  0  0  0
  145.6557  131.2445  151.6620 H   0  0  0  0  0  0  0  0  0  0  0  0
  143.3181  134.8435  153.3379 H   0  0  0  0  0  0  0  0  0  0  0  0
  144.0075  134.3019  154.8341 H   0  0  0  0  0  0  0  0  0  0  0  0
  144.9911  136.4727  154.1979 H   0  0  0  0  0  0  0  0  0  0  0  0
  145.5097  135.8414  152.6586 H   0  0  0  0  0  0  0  0  0  0  0  0
  143.9597  132.5309  153.4015 H   0  0  0  0  0  0  0  0  0  0  0  0
  1  2  1  0  0  0  0
  1 25  1  0  0  0  0
  1 26  1  0  0  0  0
  1 27  1  0  0  0  0
  2  3  1  0  0  0  0
  3  9  1  0  0  0  0
  3  4  2  0  0  0  0
  4  5  1  0  0  0  0
  4 28  1  0  0  0  0
  5  6  2  0  0  0  0
  5 29  1  0  0  0  0
  6  7  1  0  0  0  0
  6  8  1  0  0  0  0
  7 30  1  0  0  0  0
  7 31  1  0  0  0  0
  7 32  1  0  0  0  0
  8  9  2  0  0  0  0
  9 10  1  0  0  0  0
 10 11  1  0  0  0  0
 10 33  1  0  0  0  0
 11 12  2  0  0  0  0
 11 13  1  0  0  0  0
 13 14  1  0  0  0  0
 13 34  1  0  0  0  0
 14 24  1  0  0  0  0
 14 15  1  0  0  0  0
 14 35  1  0  0  0  0
 15 16  1  0  0  0  0
 15 36  1  0  0  0  0
 15 37  1  0  0  0  0
 16 17  1  0  0  0  0
 16 38  1  0  0  0  0
 16 39  1  0  0  0  0
 17 18  1  0  0  0  0
 17 23  1  0  0  0  0
 17 53  1  0  0  0  0
 18 22  1  0  0  0  0
 18 19  1  0  0  0  0
 18 40  1  0  0  0  0
 19 20  1  0  0  0  0
 19 41  1  0  0  0  0
 19 42  1  0  0  0  0
 20 21  1  0  0  0  0
 20 43  1  0  0  0  0
 20 44  1  0  0  0  0
 21 22  1  0  0  0  0
 21 45  1  0  0  0  0
 21 46  1  0  0  0  0
 22 47  1  0  0  0  0
 22 48  1  0  0  0  0
 23 24  1  0  0  0  0
 23 49  1  0  0  0  0
 23 50  1  0  0  0  0
 24 51  1  0  0  0  0
 24 52  1  0  0  0  0
M  CHG  1  17   1
M  END
> <s_m_source_file>
AV-unprocessed.smi

> <i_m_source_file_index>
2399

> <i_lp_mmshare_version>
43012

> <i_f3d_flags>
0

> <s_epik_input>
W0NIM11PYzFbY0hdW2NIXWMoW0NIM10pbmMxW05IXUMoPU8pW05IXVtDSF0yW0NIMl1bQ0gyXU4oW0NIMl1bQ0gyXTIpW0NIXTNbQ0gyXVtDSDJdW0NIMl1bQ0gyXTM=

> <s_epik_cmdline>
J2VwaWtfcHl0aG9uJywgJy1waCcsICc3LjAnLCAnLXRuJywgJzgnLCAnLW1hJywgJzIwMCcsICctbWV0YWxfYmluZGluZycsICctaW1hZScsICc8aW5maWxlLm1hZT4nLCAnLW9tYWUnLCAnPG91dGZpbGUubWFlPic=

> <r_lp_tautomer_probability>
1

> <r_epik_Ionization_Penalty>
0.00183805

> <r_epik_Ionization_Penalty_Charging>
0.00179121

> <r_epik_Ionization_Penalty_Neutral>
4.68398e-05

> <r_epik_State_Penalty>
0.00121448

> <r_epik_Charging_Adjusted_Penalty>
0.0030057

> <i_epik_Tot_Q>
1

> <i_epik_Tot_abs_Q>
1

> <r_epik_Metal_State_Penalty>
-0

> <b_epik_Metal_Only>
0

> <s_lp_Force_Field>
OPLS_2005

> <r_lp_Energy>
44.4335

> <b_lp_Chiralities_Consistent>
1

> <s_lp_Variant>
AV-unprocessed.smi:2399-2

> <Gold.Version>
5.8.1

> <Gold.Id.Protein>
6NUR|6NUR_protein|mol2

> <Gold.PLP.Fitness>
41.7431

> <Gold.PLP.PLP>
-35.0635

> <Gold.PLP.part.hbond>
-3.0000

> <Gold.PLP.part.metal>
0.0000

> <Gold.PLP.part.buried>
-6.1359

> <Gold.PLP.part.nonpolar>
-29.5624

> <Gold.PLP.part.repulsive>
0.7480

> <Gold.PLP.ligand.clash>
0.0000

> <Gold.PLP.ligand.torsion>
1.9047

> <Gold.PLP.Chemscore.Hbond>
3.4780

> <Gold.PLP.Chemscore.CHOScore>
0.0000

> <Gold.PLP.Chemscore.Metal>
0.0000

> <Gold.Chemscore.Hbonds>
donor molecule, donor type, donor heavy atom, donor atom, acceptor molecule, acceptor atom, score
      L1  H    10    33       P1  7948  0.51
      L1  H    13    34       P1  7948  1.00
      L1  H    17    53       P1 10957  1.98

> <Gold.PLP.Chemscore.Internal.Correction>
0.0549

> <Gold.Rescore>
     Score         DG    S(hbond)    S(metal)    S(lipo)     H(rot)  DE(clash)    DE(int)     intcor
     18.38     -20.39       2.18        0.00      95.51       1.38       0.26       1.75       ----

> <Gold.Chemscore.Fitness>
18.3841

> <Gold.Chemscore.DG>
-20.3923

> <Gold.Chemscore.ZeroCoef>
-5.4800

> <Gold.Chemscore.Hbond>
2.1789

> <Gold.Chemscore.Metal>
0.0000

> <Gold.Chemscore.Lipo>
95.5095

> <Gold.Chemscore.Internal_Hbond>
0.0000

> <Gold.Chemscore.DEClash>
0.2579

> <Gold.Chemscore.DEInternal>
1.7503

> <Gold.Chemscore.Rot>
1.3828

> <Gold.Chemscore.Internal.Correction>
   9.000000E+99

> <Gold.Chemscore.Hbonds>
donor molecule, donor type, donor heavy atom, donor atom, acceptor molecule, acceptor atom, score
      L1  H    10    33       P1  7948  0.48
      L1  H    13    34       P1  7948  0.98
      L1  H    17    53       P1 10957  0.23

> <Gold.Chemscore.Hbond.Weighted>
-7.2776

> <Gold.Chemscore.Metal.Weighted>
-0.0000

> <Gold.Chemscore.Lipo.Weighted>
-11.1746

> <Gold.Chemscore.Internal_Hbond.Weighted>
0.0000

> <Gold.Chemscore.DEClash.Weighted>
0.2579

> <Gold.Chemscore.DEInternal.Weighted>
1.7503

> <Gold.Chemscore.Rot.Weighted>
3.5399

> <Gold.Chemscore.Internal.Correction.Weighted>
   9.000000E+99

> <Gold.Protein.RotatedTorsions>
[ 6907 6896 6895 6894 ] final  -58.47 input  -60.11 | X-H torsion
[ 7974 7965 7964 7962 ] final -177.06 input  175.53 | X-H torsion
[ 8008 7997 7996 7995 ] final   37.89 input   59.86 | X-H torsion
[ 10167 10162 10161 10158 ] final   61.93 input  -65.29 | X-H torsion
[ 10718 10713 10712 10709 ] final -150.32 input   66.30 | X-H torsion
[ 10763 10752 10751 10750 ] final   -2.57 input  -60.55 | X-H torsion
[ 11005 11000 10999 10996 ] final   -4.07 input  -57.11 | X-H torsion

> <Gold.Protein.ActiveResidues>
 VAL166  LYS551  ARG553  GLY616  TRP617  ASP618  TYR619  PRO620  LYS621  CYS622 
 ASP623  PHE694  ASN695  SER759  ASP760  ASP761  ALA762  ILE779  LEU786  VAL792 
 PHE793  MET794  SER795  GLU796  ALA797  LYS798  CYS799  TRP800  GLU811  SER814 

> <Gold.Protein.RotatedAtoms>
  150.8004  134.7094  159.6594 H   0  0  0  0  0  0  0  0  0  0  0  0  # atno 6907 bound_to 6896
  152.4120  134.6104  160.0034 H   0  0  0  0  0  0  0  0  0  0  0  0  # atno 6908 bound_to 6896
  151.6344  133.3293  159.3152 H   0  0  0  0  0  0  0  0  0  0  0  0  # atno 6909 bound_to 6896
  144.7127  140.1077  143.6413 H   0  0  0  0  0  0  0  0  0  0  0  0  # atno 7974 bound_to 7965
  155.2113  140.3323  155.4328 H   0  0  0  0  0  0  0  0  0  0  0  0  # atno 8008 bound_to 7997
  156.2369  140.1876  156.7142 H   0  0  0  0  0  0  0  0  0  0  0  0  # atno 8009 bound_to 7997
  154.6076  140.0613  156.9437 H   0  0  0  0  0  0  0  0  0  0  0  0  # atno 8010 bound_to 7997
  140.1494  144.4477  150.6767 H   0  0  0  0  0  0  0  0  0  0  0  0  # atno 10167 bound_to 10162
  156.4446  130.8138  151.2368 H   0  0  0  0  0  0  0  0  0  0  0  0  # atno 10718 bound_to 10713
  153.3598  135.6990  153.6721 H   0  0  0  0  0  0  0  0  0  0  0  0  # atno 10763 bound_to 10752
  153.5414  135.3572  155.2720 H   0  0  0  0  0  0  0  0  0  0  0  0  # atno 10764 bound_to 10752
  154.8666  135.4204  154.2853 H   0  0  0  0  0  0  0  0  0  0  0  0  # atno 10765 bound_to 10752
  140.6763  133.9192  155.8526 H   0  0  0  0  0  0  0  0  0  0  0  0  # atno 11005 bound_to 11000
  145.9482  139.2716  143.1228 LP  0  0  0  0  0  0  0  0  0  0  0  0  # atno 17320 bound_to 7965
  145.9351  140.9020  143.0336 LP  0  0  0  0  0  0  0  0  0  0  0  0  # atno 17321 bound_to 7965
  140.6712  143.2286  151.5621 LP  0  0  0  0  0  0  0  0  0  0  0  0  # atno 17342 bound_to 10162
  139.5433  144.2588  152.1394 LP  0  0  0  0  0  0  0  0  0  0  0  0  # atno 17343 bound_to 10162
  157.7505  131.0157  150.3516 LP  0  0  0  0  0  0  0  0  0  0  0  0  # atno 17370 bound_to 10713
  156.3881  130.3893  149.7051 LP  0  0  0  0  0  0  0  0  0  0  0  0  # atno 17371 bound_to 10713
  141.0353  134.0699  157.3967 LP  0  0  0  0  0  0  0  0  0  0  0  0  # atno 17394 bound_to 11000
  139.8965  135.0146  156.7057 LP  0  0  0  0  0  0  0  0  0  0  0  0  # atno 17395 bound_to 11000

$$$$
