#       Name:                AV-unprocessed.smi:62
#       Creating user name   scv26
#       Creation time:       Thu Mar 26 16:50:01 2020


#       File generated by GOLD software.
#

@<TRIPOS>MOLECULE
AV-unprocessed.smi:62
    38    39     1
SMALL
NO_CHARGES


@<TRIPOS>ATOM
      1 ****        -4.2249   1.5834   1.0572 C.3            1 S1                 0.0000
      2 ****        -3.0093   0.8021   1.1309 N.pl3          1 S1                 0.0000
      3 ****        -1.7054   1.2249   1.0121 C.2            1 S1                 0.0000
      4 ****        -0.8932   0.1329   1.1446 C.2            1 S1                 0.0000
      5 ****         0.6152   0.1380   1.0676 C.3            1 S1                 0.0000
      6 ****         1.1137  -0.3763  -0.2042 N.3            1 S1                 0.0000
      7 ****         0.7932   0.4585  -1.3504 C.3            1 S1                 0.0000
      8 ****         1.7835   0.0769  -2.4600 C.3            1 S1                 0.0000
      9 ****         2.8813  -0.7106  -1.7262 C.3            1 S1                 0.0000
     10 ****         4.1835  -0.2720  -2.0524 O.3            1 S1                 0.0000
     11 ****         2.5557  -0.4886  -0.2489 C.3            1 S1                 0.0000
     12 ****        -1.8249  -0.9414   1.3509 C.2            1 S1                 0.0000
     13 ****        -1.3871  -2.3680   1.5570 C.2            1 S1                 0.0000
     14 ****        -0.1704  -2.6545   1.5949 O.co2          1 S1                 0.0000
     15 ****        -2.2772  -3.2369   1.6926 O.co2          1 S1                -1.0000
     16 ****        -3.0850  -0.5254   1.3378 N.2            1 S1                 0.0000
     17 ****        -3.9844   2.6451   0.9959 H              1 S1                 0.0000
     18 ****        -4.8321   1.4083   1.9459 H              1 S1                 0.0000
     19 ****        -4.7932   1.2959   0.1722 H              1 S1                 0.0000
     20 ****        -1.4601   2.2622   0.8389 H              1 S1                 0.0000
     21 ****         1.0009   1.1462   1.2249 H              1 S1                 0.0000
     22 ****         1.0360  -0.4516   1.8822 H              1 S1                 0.0000
     23 ****        -0.2442   0.3289  -1.6603 H              1 S1                 0.0000
     24 ****         0.9332   1.5104  -1.0962 H              1 S1                 0.0000
     25 ****         1.3084  -0.5452  -3.2193 H              1 S1                 0.0000
     26 ****         2.1673   0.9711  -2.9533 H              1 S1                 0.0000
     27 ****         2.7904  -1.7715  -1.9636 H              1 S1                 0.0000
     28 ****         4.8034  -0.7832  -1.5549 H              1 S1                 0.0000
     29 ****         3.0107   0.4402   0.1001 H              1 S1                 0.0000
     30 ****         2.9163  -1.2994   0.3850 H              1 S1                 0.0000
     31 ****         0.6587  -1.2652  -0.2587 LP             1 S1                 0.0000
     32 ****         4.2816   0.6961  -1.8218 LP             1 S1                 0.0000
     33 ****         4.3479  -0.4000  -3.0305 LP             1 S1                 0.0000
     34 ****         0.1159  -3.6020   1.7371 LP             1 S1                 0.0000
     35 ****         0.5161  -1.9361   1.4829 LP             1 S1                 0.0000
     36 ****        -2.0243  -4.1936   1.8365 LP             1 S1                 0.0000
     37 ****        -3.2416  -2.9746   1.6573 LP             1 S1                 0.0000
     38 ****        -3.9103  -1.0777   1.4558 LP             1 S1                 0.0000
@<TRIPOS>BOND
    1    1    2 1     
    2    1   17 1     
    3    1   18 1     
    4    1   19 1     
    5    2   16 1     
    6    2    3 1     
    7    3    4 2     
    8    3   20 1     
    9    4    5 1     
   10    4   12 1     
   11    5    6 1     
   12    5   21 1     
   13    5   22 1     
   14    6   11 1     
   15    6    7 1     
   16    7    8 1     
   17    7   23 1     
   18    7   24 1     
   19    8    9 1     
   20    8   25 1     
   21    8   26 1     
   22    9   10 1     
   23    9   11 1     
   24    9   27 1     
   25   10   28 1     
   26   11   29 1     
   27   11   30 1     
   28   12   13 1     
   29   12   16 2     
   30   13   14 ar    
   31   13   15 ar    
   32    6   31 1     
   33   10   32 1     
   34   10   33 1     
   35   14   34 1     
   36   14   35 1     
   37   15   36 1     
   38   15   37 1     
   39   16   38 1     
@<TRIPOS>SUBSTRUCTURE
      1 S1             1
@<TRIPOS>SET
LONE_PAIRS      STATIC     ATOMS    <user>   **** ""
8 31 32 33 34 35 36 37 38
DONOR_HYDROGENS      STATIC     ATOMS    <user>   **** ""
1 28
ATOM$BLUE        STATIC     ATOMS    COLORGROUP SYSTEM
8 31 32 33 34 35 36 37 38
ATOM$RED        STATIC     ATOMS    COLORGROUP SYSTEM
1 28
