AV-unprocessed.smi:1466|AV-procd|sdf|5954|dock7
  -GOLD-   22720 6 43D 1   1.00000     0.00000
 Structure written by MMmdl.
 48 49  0  0  0  0  0  0  0  0  1 V2000
  151.8628  144.4111  158.3257 C   0  0  0  0  0  0  0  0  0  0  0  0
  152.2443  143.2322  159.0934 N   0  0  0  0  0  0  0  0  0  0  0  0
  153.0519  143.3794  160.3000 C   0  0  0  0  0  0  0  0  0  0  0  0
  151.8056  141.9492  158.6927 C   0  0  0  0  0  0  0  0  0  0  0  0
  152.0600  140.8000  159.4815 C   0  0  0  0  0  0  0  0  0  0  0  0
  151.6025  139.5431  159.0404 C   0  0  0  0  0  0  0  0  0  0  0  0
  150.9043  139.4587  157.8139 C   0  0  0  0  0  0  0  0  0  0  0  0
  150.3738  138.2581  157.2687 N   0  0  0  0  0  0  0  0  0  0  0  0
  150.2778  137.0449  157.8392 C   0  0  0  0  0  0  0  0  0  0  0  0
  150.6777  136.7520  158.9656 O   0  0  0  0  0  0  0  0  0  0  0  0
  149.6994  136.1659  157.0084 N   0  0  0  0  0  0  0  0  0  0  0  0
  149.4568  134.7610  157.3133 C   0  0  0  0  0  0  0  0  0  0  0  0
  149.5017  133.8918  156.0430 C   0  0  0  0  0  0  0  0  0  0  0  0
  149.2807  132.4747  156.3538 N   0  0  0  0  0  0  0  0  0  0  0  0
  148.1270  131.8406  155.6962 C   0  0  0  0  0  0  0  0  0  0  0  0
  148.5169  130.8192  154.6030 C   0  0  0  0  0  0  0  0  0  0  0  0
  149.8499  130.0736  154.8122 C   0  0  0  0  0  0  0  0  0  0  0  0
  150.0127  129.3988  156.1904 C   0  0  0  0  0  0  0  0  0  0  0  0
  149.8150  130.3015  157.4320 C   0  0  0  0  0  0  0  0  0  0  0  0
  150.1027  131.7921  157.1882 C   0  0  0  0  0  0  0  0  0  0  0  0
  151.0645  132.3109  157.7554 O   0  0  0  0  0  0  0  0  0  0  0  0
  150.6878  140.6562  157.1053 C   0  0  0  0  0  0  0  0  0  0  0  0
  151.1251  141.8617  157.5238 N   0  0  0  0  0  0  0  0  0  0  0  0
  150.7776  144.5109  158.2901 H   0  0  0  0  0  0  0  0  0  0  0  0
  152.2418  144.3441  157.3054 H   0  0  0  0  0  0  0  0  0  0  0  0
  152.2654  145.3217  158.7698 H   0  0  0  0  0  0  0  0  0  0  0  0
  152.5088  143.0138  161.1720 H   0  0  0  0  0  0  0  0  0  0  0  0
  153.3107  144.4224  160.4814 H   0  0  0  0  0  0  0  0  0  0  0  0
  153.9816  142.8166  160.2090 H   0  0  0  0  0  0  0  0  0  0  0  0
  152.5924  140.8558  160.4187 H   0  0  0  0  0  0  0  0  0  0  0  0
  151.7845  138.6786  159.6589 H   0  0  0  0  0  0  0  0  0  0  0  0
  150.0716  138.3193  156.3074 H   0  0  0  0  0  0  0  0  0  0  0  0
  149.4049  136.4921  156.0995 H   0  0  0  0  0  0  0  0  0  0  0  0
  150.1777  134.4091  158.0532 H   0  0  0  0  0  0  0  0  0  0  0  0
  148.4738  134.6854  157.7789 H   0  0  0  0  0  0  0  0  0  0  0  0
  148.7553  134.2403  155.3278 H   0  0  0  0  0  0  0  0  0  0  0  0
  150.4603  134.0144  155.5353 H   0  0  0  0  0  0  0  0  0  0  0  0
  147.5099  131.3533  156.4512 H   0  0  0  0  0  0  0  0  0  0  0  0
  147.4640  132.5912  155.2643 H   0  0  0  0  0  0  0  0  0  0  0  0
  147.7072  130.0972  154.4920 H   0  0  0  0  0  0  0  0  0  0  0  0
  148.5768  131.3412  153.6474 H   0  0  0  0  0  0  0  0  0  0  0  0
  149.9530  129.3154  154.0354 H   0  0  0  0  0  0  0  0  0  0  0  0
  150.6793  130.7624  154.6449 H   0  0  0  0  0  0  0  0  0  0  0  0
  149.3179  128.5611  156.2579 H   0  0  0  0  0  0  0  0  0  0  0  0
  151.0081  128.9556  156.2356 H   0  0  0  0  0  0  0  0  0  0  0  0
  148.7993  130.1962  157.8130 H   0  0  0  0  0  0  0  0  0  0  0  0
  150.4527  129.9417  158.2405 H   0  0  0  0  0  0  0  0  0  0  0  0
  150.1486  140.6496  156.1693 H   0  0  0  0  0  0  0  0  0  0  0  0
  1  2  1  0  0  0  0
  1 24  1  0  0  0  0
  1 25  1  0  0  0  0
  1 26  1  0  0  0  0
  2  3  1  0  0  0  0
  2  4  1  0  0  0  0
  3 27  1  0  0  0  0
  3 28  1  0  0  0  0
  3 29  1  0  0  0  0
  4 23  1  0  0  0  0
  4  5  2  0  0  0  0
  5  6  1  0  0  0  0
  5 30  1  0  0  0  0
  6  7  2  0  0  0  0
  6 31  1  0  0  0  0
  7  8  1  0  0  0  0
  7 22  1  0  0  0  0
  8  9  1  0  0  0  0
  8 32  1  0  0  0  0
  9 10  2  0  0  0  0
  9 11  1  0  0  0  0
 11 12  1  0  0  0  0
 11 33  1  0  0  0  0
 12 13  1  0  0  0  0
 12 34  1  0  0  0  0
 12 35  1  0  0  0  0
 13 14  1  0  0  0  0
 13 36  1  0  0  0  0
 13 37  1  0  0  0  0
 14 20  1  0  0  0  0
 14 15  1  0  0  0  0
 15 16  1  0  0  0  0
 15 38  1  0  0  0  0
 15 39  1  0  0  0  0
 16 17  1  0  0  0  0
 16 40  1  0  0  0  0
 16 41  1  0  0  0  0
 17 18  1  0  0  0  0
 17 42  1  0  0  0  0
 17 43  1  0  0  0  0
 18 19  1  0  0  0  0
 18 44  1  0  0  0  0
 18 45  1  0  0  0  0
 19 20  1  0  0  0  0
 19 46  1  0  0  0  0
 19 47  1  0  0  0  0
 20 21  2  0  0  0  0
 22 23  2  0  0  0  0
 22 48  1  0  0  0  0
M  END
> <s_m_source_file>
AV-unprocessed.smi

> <i_m_source_file_index>
1466

> <i_lp_mmshare_version>
43012

> <i_f3d_flags>
0

> <s_epik_input>
W0NIM11OKFtDSDNdKWMxW2NIXVtjSF1jKFtjSF1uMSlbTkhdQyg9TylbTkhdW0NIMl1bQ0gyXU4yW0NIMl1bQ0gyXVtDSDJdW0NIMl1bQ0gyXUMyPU8=

> <s_epik_cmdline>
J2VwaWtfcHl0aG9uJywgJy1waCcsICc3LjAnLCAnLXRuJywgJzgnLCAnLW1hJywgJzIwMCcsICctbWV0YWxfYmluZGluZycsICctaW1hZScsICc8aW5maWxlLm1hZT4nLCAnLW9tYWUnLCAnPG91dGZpbGUubWFlPic=

> <r_lp_tautomer_probability>
1

> <r_epik_Ionization_Penalty>
0.597116

> <r_epik_Ionization_Penalty_Charging>
0

> <r_epik_Ionization_Penalty_Neutral>
0.597116

> <r_epik_State_Penalty>
0.610079

> <r_epik_Charging_Adjusted_Penalty>
0.610079

> <i_epik_Tot_Q>
0

> <i_epik_Tot_abs_Q>
0

> <r_epik_Metal_State_Penalty>
0.299962

> <b_epik_Metal_Only>
0

> <s_lp_Force_Field>
OPLS_2005

> <r_lp_Energy>
26.5805

> <b_lp_Chiralities_Consistent>
1

> <s_lp_Variant>
AV-unprocessed.smi:1466-2

> <Gold.Version>
5.8.1

> <Gold.Id.Protein>
6NUR|6NUR_protein|mol2

> <Gold.PLP.Fitness>
41.4799

> <Gold.PLP.PLP>
-35.9237

> <Gold.PLP.part.hbond>
-2.0000

> <Gold.PLP.part.metal>
0.0000

> <Gold.PLP.part.buried>
-3.6652

> <Gold.PLP.part.nonpolar>
-30.0665

> <Gold.PLP.part.repulsive>
0.1271

> <Gold.PLP.ligand.clash>
0.0000

> <Gold.PLP.ligand.torsion>
0.2206

> <Gold.PLP.Chemscore.Hbond>
1.9920

> <Gold.PLP.Chemscore.CHOScore>
0.0000

> <Gold.PLP.Chemscore.Metal>
0.0000

> <Gold.Chemscore.Hbonds>
donor molecule, donor type, donor heavy atom, donor atom, acceptor molecule, acceptor atom, score
      P1  H  6896  6907       L1    21  1.00
      P1  H  6896  6908       L1    10  1.00

> <Gold.PLP.Chemscore.Internal.Correction>
0.0214

> <Gold.Rescore>
     Score         DG    S(hbond)    S(metal)    S(lipo)     H(rot)  DE(clash)    DE(int)     intcor
     14.67     -17.28       1.91        0.00      78.81       1.48       0.10       2.50       ----

> <Gold.Chemscore.Fitness>
14.6749

> <Gold.Chemscore.DG>
-17.2751

> <Gold.Chemscore.ZeroCoef>
-5.4800

> <Gold.Chemscore.Hbond>
1.9057

> <Gold.Chemscore.Metal>
0.0000

> <Gold.Chemscore.Lipo>
78.8136

> <Gold.Chemscore.Internal_Hbond>
0.0000

> <Gold.Chemscore.DEClash>
0.0998

> <Gold.Chemscore.DEInternal>
2.5004

> <Gold.Chemscore.Rot>
1.4810

> <Gold.Chemscore.Internal.Correction>
   9.000000E+99

> <Gold.Chemscore.Hbonds>
donor molecule, donor type, donor heavy atom, donor atom, acceptor molecule, acceptor atom, score
      P1  H  6896  6907       L1    21  1.00
      P1  H  6896  6908       L1    10  0.98

> <Gold.Chemscore.Hbond.Weighted>
-6.3652

> <Gold.Chemscore.Metal.Weighted>
-0.0000

> <Gold.Chemscore.Lipo.Weighted>
-9.2212

> <Gold.Chemscore.Internal_Hbond.Weighted>
0.0000

> <Gold.Chemscore.DEClash.Weighted>
0.0998

> <Gold.Chemscore.DEInternal.Weighted>
2.5004

> <Gold.Chemscore.Rot.Weighted>
3.7912

> <Gold.Chemscore.Internal.Correction.Weighted>
   9.000000E+99

> <Gold.Protein.RotatedTorsions>
[ 6907 6896 6895 6894 ] final -150.03 input  -60.11 | X-H torsion
[ 7974 7965 7964 7962 ] final -174.34 input  175.53 | X-H torsion
[ 8008 7997 7996 7995 ] final   30.89 input   59.86 | X-H torsion
[ 10167 10162 10161 10158 ] final -115.94 input  -65.29 | X-H torsion
[ 10718 10713 10712 10709 ] final  -80.03 input   66.30 | X-H torsion
[ 10763 10752 10751 10750 ] final   86.98 input  -60.55 | X-H torsion
[ 11005 11000 10999 10996 ] final   87.41 input  -57.11 | X-H torsion

> <Gold.Protein.ActiveResidues>
 VAL166  LYS551  ARG553  GLY616  TRP617  ASP618  TYR619  PRO620  LYS621  CYS622 
 ASP623  PHE694  ASN695  SER759  ASP760  ASP761  ALA762  ILE779  LEU786  VAL792 
 PHE793  MET794  SER795  GLU796  ALA797  LYS798  CYS799  TRP800  GLU811  SER814 

> <Gold.Protein.RotatedAtoms>
  151.1926  133.4658  159.2594 H   0  0  0  0  0  0  0  0  0  0  0  0  # atno 6907 bound_to 6896
  151.1148  135.0047  159.8521 H   0  0  0  0  0  0  0  0  0  0  0  0  # atno 6908 bound_to 6896
  152.5452  134.1843  159.8701 H   0  0  0  0  0  0  0  0  0  0  0  0  # atno 6909 bound_to 6896
  144.7132  140.1486  143.6386 H   0  0  0  0  0  0  0  0  0  0  0  0  # atno 7974 bound_to 7965
  155.0977  140.3226  155.4556 H   0  0  0  0  0  0  0  0  0  0  0  0  # atno 8008 bound_to 7997
  156.2725  140.2066  156.6050 H   0  0  0  0  0  0  0  0  0  0  0  0  # atno 8009 bound_to 7997
  154.6854  140.0522  157.0296 H   0  0  0  0  0  0  0  0  0  0  0  0  # atno 8010 bound_to 7997
  140.0847  143.4755  152.1905 H   0  0  0  0  0  0  0  0  0  0  0  0  # atno 10167 bound_to 10162
  156.0079  130.4562  150.3738 H   0  0  0  0  0  0  0  0  0  0  0  0  # atno 10718 bound_to 10713
  153.1623  135.4560  154.9789 H   0  0  0  0  0  0  0  0  0  0  0  0  # atno 10763 bound_to 10752
  154.7907  135.3219  154.7787 H   0  0  0  0  0  0  0  0  0  0  0  0  # atno 10764 bound_to 10752
  153.8275  135.6941  153.4873 H   0  0  0  0  0  0  0  0  0  0  0  0  # atno 10765 bound_to 10752
  139.8920  134.8420  156.2856 H   0  0  0  0  0  0  0  0  0  0  0  0  # atno 11005 bound_to 11000
  145.9137  139.2502  143.1422 LP  0  0  0  0  0  0  0  0  0  0  0  0  # atno 17320 bound_to 7965
  145.9691  140.8775  143.0172 LP  0  0  0  0  0  0  0  0  0  0  0  0  # atno 17321 bound_to 7965
  139.5759  144.7487  151.3766 LP  0  0  0  0  0  0  0  0  0  0  0  0  # atno 17342 bound_to 10162
  140.7060  143.7513  150.7482 LP  0  0  0  0  0  0  0  0  0  0  0  0  # atno 17343 bound_to 10162
  157.1821  131.0394  151.2743 LP  0  0  0  0  0  0  0  0  0  0  0  0  # atno 17370 bound_to 10713
  157.4136  130.7399  149.6858 LP  0  0  0  0  0  0  0  0  0  0  0  0  # atno 17371 bound_to 10713
  141.0010  133.7151  156.0960 LP  0  0  0  0  0  0  0  0  0  0  0  0  # atno 17394 bound_to 11000
  140.7498  134.4058  157.5543 LP  0  0  0  0  0  0  0  0  0  0  0  0  # atno 17395 bound_to 11000

$$$$
