AV-unprocessed.smi:803|AV-procd|sdf|3793|dock8
  -GOLD-   22720 1233D 1   1.00000     0.00000
 Structure written by MMmdl.
 37 38  0  0  0  0  0  0  0  0  1 V2000
  146.2623  137.9586  152.2048 C   0  0  0  0  0  0  0  0  0  0  0  0
  146.7181  139.4031  151.9642 C   0  0  0  0  0  0  0  0  0  0  0  0
  147.6284  139.8612  152.9957 N   0  0  0  0  0  0  0  0  0  0  0  0
  147.7855  141.1416  153.4884 C   0  0  0  0  0  0  0  0  0  0  0  0
  148.7622  141.0538  154.4397 C   0  0  0  0  0  0  0  0  0  0  0  0
  149.3112  142.0698  155.2619 N   0  0  0  0  0  0  0  0  0  0  0  0
  150.2849  141.9400  156.1777 C   0  0  0  0  0  0  0  0  0  0  0  0
  150.8545  140.8857  156.4607 O   0  0  0  0  0  0  0  0  0  0  0  0
  150.5620  143.1149  156.7611 N   0  0  0  0  0  0  0  0  0  0  0  0
  151.5583  143.3236  157.8075 C   0  0  0  0  0  0  0  0  0  0  0  0
  151.5277  142.1606  158.8205 C   0  0  0  0  0  0  0  0  0  0  0  0
  152.5106  142.3974  159.9783 C   0  0  0  0  0  0  0  0  0  0  0  0
  152.2430  143.7422  160.6723 C   0  0  0  0  0  0  0  0  0  0  0  0
  152.2809  144.9029  159.6660 C   0  0  0  0  0  0  0  0  0  0  0  0
  151.2959  144.6697  158.5091 C   0  0  0  0  0  0  0  0  0  0  0  0
  149.1516  139.6897  154.4705 C   0  0  0  0  0  0  0  0  0  0  0  0
  148.4648  138.9755  153.5919 N   0  0  0  0  0  0  0  0  0  0  0  0
  145.5661  137.6381  151.4296 H   0  0  0  0  0  0  0  0  0  0  0  0
  145.7584  137.8605  153.1668 H   0  0  0  0  0  0  0  0  0  0  0  0
  147.1074  137.2696  152.1967 H   0  0  0  0  0  0  0  0  0  0  0  0
  147.2141  139.4901  150.9967 H   0  0  0  0  0  0  0  0  0  0  0  0
  145.8549  140.0691  151.9393 H   0  0  0  0  0  0  0  0  0  0  0  0
  147.1988  141.9725  153.1252 H   0  0  0  0  0  0  0  0  0  0  0  0
  148.9178  142.9918  155.1428 H   0  0  0  0  0  0  0  0  0  0  0  0
  150.0417  143.9271  156.4631 H   0  0  0  0  0  0  0  0  0  0  0  0
  152.5511  143.3688  157.3554 H   0  0  0  0  0  0  0  0  0  0  0  0
  150.5193  142.0463  159.2214 H   0  0  0  0  0  0  0  0  0  0  0  0
  151.7698  141.2209  158.3223 H   0  0  0  0  0  0  0  0  0  0  0  0
  152.4356  141.5849  160.7016 H   0  0  0  0  0  0  0  0  0  0  0  0
  153.5327  142.3794  159.5979 H   0  0  0  0  0  0  0  0  0  0  0  0
  151.2682  143.7137  161.1605 H   0  0  0  0  0  0  0  0  0  0  0  0
  152.9790  143.9080  161.4595 H   0  0  0  0  0  0  0  0  0  0  0  0
  152.0460  145.8401  160.1710 H   0  0  0  0  0  0  0  0  0  0  0  0
  153.2916  145.0106  159.2697 H   0  0  0  0  0  0  0  0  0  0  0  0
  151.3749  145.4869  157.7912 H   0  0  0  0  0  0  0  0  0  0  0  0
  150.2755  144.6945  158.8946 H   0  0  0  0  0  0  0  0  0  0  0  0
  149.8944  139.2042  155.0859 H   0  0  0  0  0  0  0  0  0  0  0  0
  1  2  1  0  0  0  0
  1 18  1  0  0  0  0
  1 19  1  0  0  0  0
  1 20  1  0  0  0  0
  2  3  1  0  0  0  0
  2 21  1  0  0  0  0
  2 22  1  0  0  0  0
  3 17  1  0  0  0  0
  3  4  1  0  0  0  0
  4  5  2  0  0  0  0
  4 23  1  0  0  0  0
  5  6  1  0  0  0  0
  5 16  1  0  0  0  0
  6  7  1  0  0  0  0
  6 24  1  0  0  0  0
  7  8  2  0  0  0  0
  7  9  1  0  0  0  0
  9 10  1  0  0  0  0
  9 25  1  0  0  0  0
 10 15  1  0  0  0  0
 10 11  1  0  0  0  0
 10 26  1  0  0  0  0
 11 12  1  0  0  0  0
 11 27  1  0  0  0  0
 11 28  1  0  0  0  0
 12 13  1  0  0  0  0
 12 29  1  0  0  0  0
 12 30  1  0  0  0  0
 13 14  1  0  0  0  0
 13 31  1  0  0  0  0
 13 32  1  0  0  0  0
 14 15  1  0  0  0  0
 14 33  1  0  0  0  0
 14 34  1  0  0  0  0
 15 35  1  0  0  0  0
 15 36  1  0  0  0  0
 16 17  2  0  0  0  0
 16 37  1  0  0  0  0
M  END
> <s_m_source_file>
AV-unprocessed.smi

> <i_m_source_file_index>
803

> <i_lp_mmshare_version>
43012

> <i_f3d_flags>
0

> <s_epik_input>
W0NIM11bQ0gyXW4xW2NIXWMoW2NIXW4xKVtOSF1DKD1PKVtOSF1bQ0hdMltDSDJdW0NIMl1bQ0gyXVtDSDJdW0NIMl0y

> <s_epik_cmdline>
J2VwaWtfcHl0aG9uJywgJy1waCcsICc3LjAnLCAnLXRuJywgJzgnLCAnLW1hJywgJzIwMCcsICctbWV0YWxfYmluZGluZycsICctaW1hZScsICc8aW5maWxlLm1hZT4nLCAnLW9tYWUnLCAnPG91dGZpbGUubWFlPic=

> <r_lp_tautomer_probability>
1

> <r_epik_Ionization_Penalty>
0.000191435

> <r_epik_Ionization_Penalty_Charging>
0

> <r_epik_Ionization_Penalty_Neutral>
0.000191435

> <r_epik_State_Penalty>
-0

> <r_epik_Charging_Adjusted_Penalty>
0

> <i_epik_Tot_Q>
0

> <i_epik_Tot_abs_Q>
0

> <r_epik_Metal_State_Penalty>
-0

> <b_epik_Metal_Only>
0

> <s_lp_Force_Field>
OPLS_2005

> <r_lp_Energy>
12.5011

> <b_lp_Chiralities_Consistent>
1

> <s_lp_Variant>
AV-unprocessed.smi:803-1

> <Gold.Version>
5.8.1

> <Gold.Id.Protein>
6NUR|6NUR_protein|mol2

> <Gold.PLP.Fitness>
43.3019

> <Gold.PLP.PLP>
-38.5620

> <Gold.PLP.part.hbond>
-2.0000

> <Gold.PLP.part.metal>
0.0000

> <Gold.PLP.part.buried>
-0.0126

> <Gold.PLP.part.nonpolar>
-38.0119

> <Gold.PLP.part.repulsive>
1.6426

> <Gold.PLP.ligand.clash>
0.0000

> <Gold.PLP.ligand.torsion>
0.6196

> <Gold.PLP.Chemscore.Hbond>
1.9920

> <Gold.PLP.Chemscore.CHOScore>
0.0000

> <Gold.PLP.Chemscore.Metal>
0.0000

> <Gold.Chemscore.Hbonds>
donor molecule, donor type, donor heavy atom, donor atom, acceptor molecule, acceptor atom, score
      L1  H     6    24       P1  8028  0.99
      L1  H     9    25       P1  8028  1.00

> <Gold.PLP.Chemscore.Internal.Correction>
0.0032

> <Gold.Rescore>
     Score         DG    S(hbond)    S(metal)    S(lipo)     H(rot)  DE(clash)    DE(int)     intcor
     17.52     -21.33       1.91        0.00     106.55       1.17       0.56       3.25       ----

> <Gold.Chemscore.Fitness>
17.5220

> <Gold.Chemscore.DG>
-21.3339

> <Gold.Chemscore.ZeroCoef>
-5.4800

> <Gold.Chemscore.Hbond>
1.9085

> <Gold.Chemscore.Metal>
0.0000

> <Gold.Chemscore.Lipo>
106.5490

> <Gold.Chemscore.Internal_Hbond>
0.0000

> <Gold.Chemscore.DEClash>
0.5635

> <Gold.Chemscore.DEInternal>
3.2484

> <Gold.Chemscore.Rot>
1.1667

> <Gold.Chemscore.Internal.Correction>
   9.000000E+99

> <Gold.Chemscore.Hbonds>
donor molecule, donor type, donor heavy atom, donor atom, acceptor molecule, acceptor atom, score
      L1  H     6    24       P1  8028  0.93
      L1  H     9    25       P1  8028  0.98

> <Gold.Chemscore.Hbond.Weighted>
-6.3743

> <Gold.Chemscore.Metal.Weighted>
-0.0000

> <Gold.Chemscore.Lipo.Weighted>
-12.4662

> <Gold.Chemscore.Internal_Hbond.Weighted>
0.0000

> <Gold.Chemscore.DEClash.Weighted>
0.5635

> <Gold.Chemscore.DEInternal.Weighted>
3.2484

> <Gold.Chemscore.Rot.Weighted>
2.9867

> <Gold.Chemscore.Internal.Correction.Weighted>
   9.000000E+99

> <Gold.Protein.RotatedTorsions>
[ 6907 6896 6895 6894 ] final   15.17 input  -60.11 | X-H torsion
[ 7974 7965 7964 7962 ] final    2.69 input  175.53 | X-H torsion
[ 8008 7997 7996 7995 ] final  -93.58 input   59.86 | X-H torsion
[ 10167 10162 10161 10158 ] final  127.83 input  -65.29 | X-H torsion
[ 10718 10713 10712 10709 ] final  148.91 input   66.30 | X-H torsion
[ 10763 10752 10751 10750 ] final  -27.12 input  -60.55 | X-H torsion
[ 11005 11000 10999 10996 ] final -150.92 input  -57.11 | X-H torsion

> <Gold.Protein.ActiveResidues>
 VAL166  LYS551  ARG553  GLY616  TRP617  ASP618  TYR619  PRO620  LYS621  CYS622 
 ASP623  PHE694  ASN695  SER759  ASP760  ASP761  ALA762  ILE779  LEU786  VAL792 
 PHE793  MET794  SER795  GLU796  ALA797  LYS798  CYS799  TRP800  GLU811  SER814 

> <Gold.Protein.RotatedAtoms>
  151.8139  135.0672  160.0416 H   0  0  0  0  0  0  0  0  0  0  0  0  # atno 6907 bound_to 6896
  152.3000  133.5642  159.5621 H   0  0  0  0  0  0  0  0  0  0  0  0  # atno 6908 bound_to 6896
  150.7269  134.0221  159.3747 H   0  0  0  0  0  0  0  0  0  0  0  0  # atno 6909 bound_to 6896
  146.2444  140.0799  142.8357 H   0  0  0  0  0  0  0  0  0  0  0  0  # atno 7974 bound_to 7965
  154.7375  140.0497  157.0781 H   0  0  0  0  0  0  0  0  0  0  0  0  # atno 8008 bound_to 7997
  155.0221  140.3148  155.4770 H   0  0  0  0  0  0  0  0  0  0  0  0  # atno 8009 bound_to 7997
  156.2856  140.2165  156.5340 H   0  0  0  0  0  0  0  0  0  0  0  0  # atno 8010 bound_to 7997
  139.5558  144.6847  151.4187 H   0  0  0  0  0  0  0  0  0  0  0  0  # atno 10167 bound_to 10162
  157.3028  131.0874  151.1377 H   0  0  0  0  0  0  0  0  0  0  0  0  # atno 10718 bound_to 10713
  153.7270  135.6941  153.4998 H   0  0  0  0  0  0  0  0  0  0  0  0  # atno 10763 bound_to 10752
  153.2163  135.4385  155.0437 H   0  0  0  0  0  0  0  0  0  0  0  0  # atno 10764 bound_to 10752
  154.8265  135.3449  154.6801 H   0  0  0  0  0  0  0  0  0  0  0  0  # atno 10765 bound_to 10752
  140.7350  134.3578  157.5159 H   0  0  0  0  0  0  0  0  0  0  0  0  # atno 11005 bound_to 11000
  145.0742  140.9177  143.4864 LP  0  0  0  0  0  0  0  0  0  0  0  0  # atno 17320 bound_to 7965
  145.0939  139.2871  143.5721 LP  0  0  0  0  0  0  0  0  0  0  0  0  # atno 17321 bound_to 7965
  140.6830  143.8038  150.7147 LP  0  0  0  0  0  0  0  0  0  0  0  0  # atno 17342 bound_to 10162
  140.1497  143.4368  152.2139 LP  0  0  0  0  0  0  0  0  0  0  0  0  # atno 17343 bound_to 10162
  157.2730  130.6713  149.6028 LP  0  0  0  0  0  0  0  0  0  0  0  0  # atno 17370 bound_to 10713
  155.9672  130.4473  150.5576 LP  0  0  0  0  0  0  0  0  0  0  0  0  # atno 17371 bound_to 10713
  139.8818  134.9043  156.2875 LP  0  0  0  0  0  0  0  0  0  0  0  0  # atno 17394 bound_to 11000
  140.9887  133.7222  156.0781 LP  0  0  0  0  0  0  0  0  0  0  0  0  # atno 17395 bound_to 11000

$$$$
