AV-unprocessed.smi:2526|AV-procd|sdf|9937|dock6
  -GOLD-   2272013583D 1   1.00000     0.00000
 Structure written by MMmdl.
 29 30  0  0  0  0  0  0  0  0  2 V2000
  145.4489  142.7671  154.5102 C   0  0  0  0  0  0  0  0  0  0  0  0
  146.6296  142.0591  154.9562 N   0  0  0  0  0  0  0  0  0  0  0  0
  147.6700  141.5623  154.2018 C   0  0  0  0  0  0  0  0  0  0  0  0
  148.5555  140.9685  155.0595 C   0  0  0  0  0  0  0  0  0  0  0  0
  149.8644  140.2787  154.7571 C   0  0  1  0  0  0  0  0  0  0  0  0
  150.8147  140.4688  155.8563 N   0  0  0  0  0  0  0  0  0  0  0  0
  151.7426  139.5928  156.2818 C   0  0  0  0  0  0  0  0  0  0  0  0
  152.5348  139.8826  157.1744 O   0  0  0  0  0  0  0  0  0  0  0  0
  151.7858  138.1872  155.6626 C   0  0  0  0  0  0  0  0  0  0  0  0
  151.0014  138.0662  154.3454 C   0  0  0  0  0  0  0  0  0  0  0  0
  149.6480  138.7793  154.4458 C   0  0  2  0  0  0  0  0  0  0  0  0
  148.8516  138.5850  153.2203 N   0  3  0  0  0  0  0  0  0  0  0  0
  147.9488  141.1580  156.3349 C   0  0  0  0  0  0  0  0  0  0  0  0
  146.8016  141.8118  156.2704 N   0  0  0  0  0  0  0  0  0  0  0  0
  145.6013  143.1471  153.4995 H   0  0  0  0  0  0  0  0  0  0  0  0
  145.2423  143.6065  155.1753 H   0  0  0  0  0  0  0  0  0  0  0  0
  144.5939  142.0904  154.5111 H   0  0  0  0  0  0  0  0  0  0  0  0
  147.6951  141.6726  153.1273 H   0  0  0  0  0  0  0  0  0  0  0  0
  150.3291  140.7439  153.8862 H   0  0  0  0  0  0  0  0  0  0  0  0
  150.8005  141.3735  156.3055 H   0  0  0  0  0  0  0  0  0  0  0  0
  152.8235  137.8890  155.5087 H   0  0  0  0  0  0  0  0  0  0  0  0
  151.3697  137.4955  156.3957 H   0  0  0  0  0  0  0  0  0  0  0  0
  151.5878  138.4896  153.5283 H   0  0  0  0  0  0  0  0  0  0  0  0
  150.8563  137.0119  154.1070 H   0  0  0  0  0  0  0  0  0  0  0  0
  149.0841  138.3251  155.2625 H   0  0  0  0  0  0  0  0  0  0  0  0
  149.1119  139.2787  152.5338 H   0  0  0  0  0  0  0  0  0  0  0  0
  147.8703  138.6796  153.4402 H   0  0  0  0  0  0  0  0  0  0  0  0
  148.3098  140.8432  157.3029 H   0  0  0  0  0  0  0  0  0  0  0  0
  149.0249  137.6620  152.8486 H   0  0  0  0  0  0  0  0  0  0  0  0
  1  2  1  0  0  0  0
  1 15  1  0  0  0  0
  1 16  1  0  0  0  0
  1 17  1  0  0  0  0
  2 14  1  0  0  0  0
  2  3  1  0  0  0  0
  3  4  2  0  0  0  0
  3 18  1  0  0  0  0
  4  5  1  0  0  0  0
  4 13  1  0  0  0  0
  5 11  1  0  0  0  0
  5  6  1  0  0  0  0
  5 19  1  0  0  0  0
  6  7  1  0  0  0  0
  6 20  1  0  0  0  0
  7  8  2  0  0  0  0
  7  9  1  0  0  0  0
  9 10  1  0  0  0  0
  9 21  1  0  0  0  0
  9 22  1  0  0  0  0
 10 11  1  0  0  0  0
 10 23  1  0  0  0  0
 10 24  1  0  0  0  0
 11 12  1  0  0  0  0
 11 25  1  0  0  0  0
 12 26  1  0  0  0  0
 12 27  1  0  0  0  0
 12 29  1  0  0  0  0
 13 14  2  0  0  0  0
 13 28  1  0  0  0  0
M  CHG  1  12   1
M  END
> <s_m_source_file>
AV-unprocessed.smi

> <i_m_source_file_index>
2526

> <i_lp_mmshare_version>
43012

> <i_f3d_flags>
0

> <s_epik_input>
W0NIM11uMVtjSF1jKFtjSF1uMSlbQ0BASF0yW05IXUMoPU8pW0NIMl1bQ0gyXVtDQEhdMltOSDJd

> <s_epik_cmdline>
J2VwaWtfcHl0aG9uJywgJy1waCcsICc3LjAnLCAnLXRuJywgJzgnLCAnLW1hJywgJzIwMCcsICctbWV0YWxfYmluZGluZycsICctaW1hZScsICc8aW5maWxlLm1hZT4nLCAnLW9tYWUnLCAnPG91dGZpbGUubWFlPic=

> <r_lp_tautomer_probability>
1

> <r_epik_Ionization_Penalty>
0.00878543

> <r_epik_Ionization_Penalty_Charging>
0.00874185

> <r_epik_Ionization_Penalty_Neutral>
4.35793e-05

> <r_epik_State_Penalty>
0.00660351

> <r_epik_Charging_Adjusted_Penalty>
0.0153454

> <i_epik_Tot_Q>
1

> <i_epik_Tot_abs_Q>
1

> <r_epik_Metal_State_Penalty>
0.00660727

> <b_epik_Metal_Only>
0

> <s_lp_Force_Field>
OPLS_2005

> <r_lp_Energy>
10.7235

> <b_lp_Chiralities_Consistent>
1

> <s_lp_Variant>
AV-unprocessed.smi:2526-4

> <Gold.Version>
5.8.1

> <Gold.Id.Protein>
6NUR|6NUR_protein|mol2

> <Gold.PLP.Fitness>
39.0313

> <Gold.PLP.PLP>
-28.4881

> <Gold.PLP.part.hbond>
-2.9759

> <Gold.PLP.part.metal>
0.0000

> <Gold.PLP.part.buried>
-3.5166

> <Gold.PLP.part.nonpolar>
-23.3902

> <Gold.PLP.part.repulsive>
0.3562

> <Gold.PLP.ligand.clash>
0.0000

> <Gold.PLP.ligand.torsion>
0.7392

> <Gold.PLP.Chemscore.Hbond>
4.0000

> <Gold.PLP.Chemscore.CHOScore>
0.0000

> <Gold.PLP.Chemscore.Metal>
0.0000

> <Gold.Chemscore.Hbonds>
donor molecule, donor type, donor heavy atom, donor atom, acceptor molecule, acceptor atom, score
      L1  H    12    26       P1  7957  1.00
      L1  H    12    29       P1  7948  2.00
      P1  H  7997  8009       L1     8  1.00

> <Gold.PLP.Chemscore.Internal.Correction>
0.0215

> <Gold.Rescore>
     Score         DG    S(hbond)    S(metal)    S(lipo)     H(rot)  DE(clash)    DE(int)     intcor
     18.46     -18.79       2.98        0.00      50.52       1.00       0.16       0.17       ----

> <Gold.Chemscore.Fitness>
18.4567

> <Gold.Chemscore.DG>
-18.7853

> <Gold.Chemscore.ZeroCoef>
-5.4800

> <Gold.Chemscore.Hbond>
2.9802

> <Gold.Chemscore.Metal>
0.0000

> <Gold.Chemscore.Lipo>
50.5240

> <Gold.Chemscore.Internal_Hbond>
0.0000

> <Gold.Chemscore.DEClash>
0.1568

> <Gold.Chemscore.DEInternal>
0.1718

> <Gold.Chemscore.Rot>
1.0000

> <Gold.Chemscore.Internal.Correction>
   9.000000E+99

> <Gold.Chemscore.Hbonds>
donor molecule, donor type, donor heavy atom, donor atom, acceptor molecule, acceptor atom, score
      L1  H    12    26       P1  7957  0.99
      L1  H    12    29       P1  7948  1.00
      P1  H  7997  8009       L1     8  0.84

> <Gold.Chemscore.Hbond.Weighted>
-9.9540

> <Gold.Chemscore.Metal.Weighted>
-0.0000

> <Gold.Chemscore.Lipo.Weighted>
-5.9113

> <Gold.Chemscore.Internal_Hbond.Weighted>
0.0000

> <Gold.Chemscore.DEClash.Weighted>
0.1568

> <Gold.Chemscore.DEInternal.Weighted>
0.1718

> <Gold.Chemscore.Rot.Weighted>
2.5600

> <Gold.Chemscore.Internal.Correction.Weighted>
   9.000000E+99

> <Gold.Protein.RotatedTorsions>
[ 6907 6896 6895 6894 ] final  -33.43 input  -60.11 | X-H torsion
[ 7974 7965 7964 7962 ] final  159.05 input  175.53 | X-H torsion
[ 8008 7997 7996 7995 ] final -172.57 input   59.86 | X-H torsion
[ 10167 10162 10161 10158 ] final  -53.38 input  -65.29 | X-H torsion
[ 10718 10713 10712 10709 ] final  108.60 input   66.30 | X-H torsion
[ 10763 10752 10751 10750 ] final -136.07 input  -60.55 | X-H torsion
[ 11005 11000 10999 10996 ] final   60.44 input  -57.11 | X-H torsion

> <Gold.Protein.ActiveResidues>
 VAL166  LYS551  ARG553  GLY616  TRP617  ASP618  TYR619  PRO620  LYS621  CYS622 
 ASP623  PHE694  ASN695  SER759  ASP760  ASP761  ALA762  ILE779  LEU786  VAL792 
 PHE793  MET794  SER795  GLU796  ALA797  LYS798  CYS799  TRP800  GLU811  SER814 

> <Gold.Protein.RotatedAtoms>
  151.0656  134.9765  159.8282 H   0  0  0  0  0  0  0  0  0  0  0  0  # atno 6907 bound_to 6896
  152.5401  134.2362  159.8854 H   0  0  0  0  0  0  0  0  0  0  0  0  # atno 6908 bound_to 6896
  151.2384  133.4369  159.2640 H   0  0  0  0  0  0  0  0  0  0  0  0  # atno 6909 bound_to 6896
  144.7812  139.7563  143.6259 H   0  0  0  0  0  0  0  0  0  0  0  0  # atno 7974 bound_to 7965
  155.9463  140.1118  157.1014 H   0  0  0  0  0  0  0  0  0  0  0  0  # atno 8008 bound_to 7997
  154.4100  140.1209  156.5060 H   0  0  0  0  0  0  0  0  0  0  0  0  # atno 8009 bound_to 7997
  155.6898  140.3472  155.4891 H   0  0  0  0  0  0  0  0  0  0  0  0  # atno 8010 bound_to 7997
  140.6488  143.2552  151.4784 H   0  0  0  0  0  0  0  0  0  0  0  0  # atno 10167 bound_to 10162
  157.6579  131.0897  150.6329 H   0  0  0  0  0  0  0  0  0  0  0  0  # atno 10718 bound_to 10713
  154.8691  135.3684  154.5001 H   0  0  0  0  0  0  0  0  0  0  0  0  # atno 10763 bound_to 10752
  153.5642  135.7022  153.5538 H   0  0  0  0  0  0  0  0  0  0  0  0  # atno 10764 bound_to 10752
  153.3600  135.4049  155.1674 H   0  0  0  0  0  0  0  0  0  0  0  0  # atno 10765 bound_to 10752
  140.0231  134.6123  155.9611 H   0  0  0  0  0  0  0  0  0  0  0  0  # atno 11005 bound_to 11000
  146.2020  139.5321  142.9737 LP  0  0  0  0  0  0  0  0  0  0  0  0  # atno 17320 bound_to 7965
  145.6046  141.0350  143.1999 LP  0  0  0  0  0  0  0  0  0  0  0  0  # atno 17321 bound_to 7965
  139.5700  144.1950  152.1823 LP  0  0  0  0  0  0  0  0  0  0  0  0  # atno 17342 bound_to 10162
  140.1243  144.5345  150.6842 LP  0  0  0  0  0  0  0  0  0  0  0  0  # atno 17343 bound_to 10162
  156.6634  130.4519  149.5680 LP  0  0  0  0  0  0  0  0  0  0  0  0  # atno 17370 bound_to 10713
  156.2050  130.6643  151.1209 LP  0  0  0  0  0  0  0  0  0  0  0  0  # atno 17371 bound_to 10713
  141.1786  133.6543  156.4929 LP  0  0  0  0  0  0  0  0  0  0  0  0  # atno 17394 bound_to 11000
  140.4352  134.7065  157.4963 LP  0  0  0  0  0  0  0  0  0  0  0  0  # atno 17395 bound_to 11000

$$$$
