#       Name:                AV-unprocessed.smi:2165
#       Creating user name   scv26
#       Creation time:       Fri Mar 27 12:00:22 2020


#       File generated by GOLD software.
#

@<TRIPOS>MOLECULE
AV-unprocessed.smi:2165
    44    45     1
SMALL
NO_CHARGES


@<TRIPOS>ATOM
      1 ****        -2.5752   3.7205  -0.9492 C.3            1 S1                 0.0000
      2 ****        -2.6064   2.9267   0.2614 N.am           1 S1                 0.0000
      3 ****        -2.9952   3.5377   1.4782 C.2            1 S1                 0.0000
      4 ****        -3.3151   4.7243   1.5541 O.2            1 S1                 0.0000
      5 ****        -2.9794   2.6463   2.6320 C.2            1 S1                 0.0000
      6 ****        -2.6113   1.3526   2.5054 C.2            1 S1                 0.0000
      7 ****        -2.2294   0.7825   1.3047 N.am           1 S1                 0.0000
      8 ****        -1.8290  -0.6297   1.2629 C.3            1 S1                 0.0000
      9 ****        -0.3064  -0.8211   1.2601 C.2            1 S1                 0.0000
     10 ****         0.4351   0.0214   1.7683 O.2            1 S1                 0.0000
     11 ****         0.1440  -1.9504   0.6937 N.am           1 S1                 0.0000
     12 ****         1.5485  -2.3199   0.5633 C.3            1 S1                 0.0000
     13 ****         2.2102  -1.6086  -0.6288 C.3            1 S1                 0.0000
     14 ****         3.7005  -1.9101  -0.7740 C.3            1 S1                 0.0000
     15 ****         3.9219  -1.6427  -2.2447 C.3            1 S1                 0.0000
     16 ****         2.6356  -2.1897  -2.8566 C.3            1 S1                 0.0000
     17 ****         1.6295  -2.0405  -1.8575 O.3            1 S1                 0.0000
     18 ****        -2.2167   1.5751   0.1371 C.2            1 S1                 0.0000
     19 ****        -1.8724   1.0957  -0.9464 O.2            1 S1                 0.0000
     20 ****        -3.0023   4.7095  -0.7861 H              1 S1                 0.0000
     21 ****        -3.1656   3.1955  -1.7023 H              1 S1                 0.0000
     22 ****        -1.5293   3.8028  -1.2492 H              1 S1                 0.0000
     23 ****        -3.2635   3.0284   3.6016 H              1 S1                 0.0000
     24 ****        -2.6118   0.7348   3.3917 H              1 S1                 0.0000
     25 ****        -2.2360  -1.1586   2.1256 H              1 S1                 0.0000
     26 ****        -2.2648  -1.1141   0.3869 H              1 S1                 0.0000
     27 ****        -0.5332  -2.5881   0.3010 H              1 S1                 0.0000
     28 ****         2.0803  -2.0860   1.4870 H              1 S1                 0.0000
     29 ****         1.6103  -3.4010   0.4356 H              1 S1                 0.0000
     30 ****         2.0763  -0.5280  -0.5550 H              1 S1                 0.0000
     31 ****         4.3242  -1.2923  -0.1275 H              1 S1                 0.0000
     32 ****         3.9069  -2.9580  -0.5511 H              1 S1                 0.0000
     33 ****         3.9969  -0.5689  -2.4225 H              1 S1                 0.0000
     34 ****         4.8196  -2.1194  -2.6393 H              1 S1                 0.0000
     35 ****         2.3625  -1.6741  -3.7773 H              1 S1                 0.0000
     36 ****         2.7422  -3.2514  -3.0819 H              1 S1                 0.0000
     37 ****        -3.3069   5.2977   0.7349 LP             1 S1                 0.0000
     38 ****        -3.5832   5.1145   2.4349 LP             1 S1                 0.0000
     39 ****         0.0462   0.8411   2.1888 LP             1 S1                 0.0000
     40 ****         1.4257  -0.1145   1.7602 LP             1 S1                 0.0000
     41 ****         0.9604  -1.3626  -2.1622 LP             1 S1                 0.0000
     42 ****         1.1730  -2.9189  -1.7156 LP             1 S1                 0.0000
     43 ****        -1.8644   1.6679  -1.7665 LP             1 S1                 0.0000
     44 ****        -1.6014   0.1349  -1.0046 LP             1 S1                 0.0000
@<TRIPOS>BOND
    1    1    2 1     
    2    1   20 1     
    3    1   21 1     
    4    1   22 1     
    5    2   18 am    
    6    2    3 am    
    7    3    4 2     
    8    3    5 1     
    9    5    6 2     
   10    5   23 1     
   11    6    7 1     
   12    6   24 1     
   13    7    8 1     
   14    7   18 am    
   15    8    9 1     
   16    8   25 1     
   17    8   26 1     
   18    9   10 2     
   19    9   11 am    
   20   11   12 1     
   21   11   27 1     
   22   12   13 1     
   23   12   28 1     
   24   12   29 1     
   25   13   17 1     
   26   13   14 1     
   27   13   30 1     
   28   14   15 1     
   29   14   31 1     
   30   14   32 1     
   31   15   16 1     
   32   15   33 1     
   33   15   34 1     
   34   16   17 1     
   35   16   35 1     
   36   16   36 1     
   37   18   19 2     
   38    4   37 1     
   39    4   38 1     
   40   10   39 1     
   41   10   40 1     
   42   17   41 1     
   43   17   42 1     
   44   19   43 1     
   45   19   44 1     
@<TRIPOS>SUBSTRUCTURE
      1 S1             1
@<TRIPOS>SET
LONE_PAIRS      STATIC     ATOMS    <user>   **** ""
8 37 38 39 40 41 42 43 44
DONOR_HYDROGENS      STATIC     ATOMS    <user>   **** ""
1 27
ATOM$BLUE        STATIC     ATOMS    COLORGROUP SYSTEM
8 37 38 39 40 41 42 43 44
ATOM$RED        STATIC     ATOMS    COLORGROUP SYSTEM
1 27
