#       Name:                AV-unprocessed.smi:1701
#       Creating user name   scv26
#       Creation time:       Fri Mar 27 08:00:02 2020


#       File generated by GOLD software.
#

@<TRIPOS>MOLECULE
AV-unprocessed.smi:1701
    57    59     1
SMALL
NO_CHARGES


@<TRIPOS>ATOM
      1 ****        -6.2343  -1.4468  -1.1460 C.3            1 S1                 0.0000
      2 ****        -6.2176  -1.0464   0.3375 C.3            1 S1                 0.0000
      3 ****        -5.6085   0.2636   0.5664 N.pl3          1 S1                 0.0000
      4 ****        -6.3919   1.4381   0.1761 C.3            1 S1                 0.0000
      5 ****        -6.1438   2.6556   1.0812 C.3            1 S1                 0.0000
      6 ****        -4.2041   0.3024   0.4120 C.ar           1 S1                 0.0000
      7 ****        -3.3494  -0.6180   1.0627 C.ar           1 S1                 0.0000
      8 ****        -1.9566  -0.5475   0.8582 C.ar           1 S1                 0.0000
      9 ****        -1.4195   0.4360   0.0013 C.ar           1 S1                 0.0000
     10 ****        -0.0069   0.4586  -0.1639 N.am           1 S1                 0.0000
     11 ****         0.7422   1.1741  -1.0271 C.2            1 S1                 0.0000
     12 ****         0.2997   1.9722  -1.8490 O.2            1 S1                 0.0000
     13 ****         2.0639   0.9447  -0.9293 N.am           1 S1                 0.0000
     14 ****         3.1458   1.5478  -1.7086 C.3            1 S1                 0.0000
     15 ****         3.2978   0.9678  -3.1291 C.3            1 S1                 0.0000
     16 ****         4.8173   0.8836  -3.3777 C.3            1 S1                 0.0000
     17 ****         5.4405   1.5036  -2.1931 N.4            1 S1                 1.0000
     18 ****         6.8300   1.1083  -1.8756 C.3            1 S1                 0.0000
     19 ****         7.3225   1.9171  -0.6583 C.3            1 S1                 0.0000
     20 ****         6.3582   1.7942   0.5395 C.3            1 S1                 0.0000
     21 ****         4.9118   2.1281   0.1261 C.3            1 S1                 0.0000
     22 ****         4.5099   1.2634  -1.0798 C.3            1 S1                 0.0000
     23 ****        -2.3155   1.3389  -0.6210 C.ar           1 S1                 0.0000
     24 ****        -3.6429   1.2355  -0.3955 N.pl3          1 S1                 1.0000
     25 ****        -6.7148  -2.4166  -1.2763 H              1 S1                 0.0000
     26 ****        -5.2244  -1.5234  -1.5503 H              1 S1                 0.0000
     27 ****        -6.7832  -0.7230  -1.7491 H              1 S1                 0.0000
     28 ****        -7.2411  -1.0205   0.7126 H              1 S1                 0.0000
     29 ****        -5.7154  -1.8156   0.9227 H              1 S1                 0.0000
     30 ****        -6.1853   1.6929  -0.8641 H              1 S1                 0.0000
     31 ****        -7.4522   1.1861   0.2173 H              1 S1                 0.0000
     32 ****        -6.7710   3.4934   0.7759 H              1 S1                 0.0000
     33 ****        -5.1088   2.9946   1.0464 H              1 S1                 0.0000
     34 ****        -6.3849   2.4255   2.1194 H              1 S1                 0.0000
     35 ****        -3.7455  -1.3719   1.7269 H              1 S1                 0.0000
     36 ****        -1.3070  -1.2505   1.3593 H              1 S1                 0.0000
     37 ****         0.5034  -0.1765   0.4317 H              1 S1                 0.0000
     38 ****         2.3489   0.2801  -0.2239 H              1 S1                 0.0000
     39 ****         3.0099   2.6296  -1.7706 H              1 S1                 0.0000
     40 ****         2.8569  -0.0273  -3.2030 H              1 S1                 0.0000
     41 ****         2.8019   1.6008  -3.8658 H              1 S1                 0.0000
     42 ****         5.1244  -0.1602  -3.4593 H              1 S1                 0.0000
     43 ****         5.1205   1.3983  -4.2899 H              1 S1                 0.0000
     44 ****         6.8748   0.0383  -1.6671 H              1 S1                 0.0000
     45 ****         7.4710   1.2970  -2.7374 H              1 S1                 0.0000
     46 ****         8.3213   1.5881  -0.3703 H              1 S1                 0.0000
     47 ****         7.4145   2.9676  -0.9376 H              1 S1                 0.0000
     48 ****         6.3975   0.7775   0.9324 H              1 S1                 0.0000
     49 ****         6.6792   2.4506   1.3490 H              1 S1                 0.0000
     50 ****         4.2331   1.9524   0.9615 H              1 S1                 0.0000
     51 ****         4.8335   3.1866  -0.1258 H              1 S1                 0.0000
     52 ****         4.5654   0.2073  -0.8040 H              1 S1                 0.0000
     53 ****        -2.0384   2.1425  -1.2855 H              1 S1                 0.0000
     54 ****         5.4413   2.5004  -2.3558 H              1 S1                 0.0000
     55 ****        -4.2600   1.8995  -0.8638 H              1 S1                 0.0000
     56 ****        -0.6858   2.1299  -1.9125 LP             1 S1                 0.0000
     57 ****         0.9248   2.4643  -2.4549 LP             1 S1                 0.0000
@<TRIPOS>BOND
    1    1    2 1     
    2    1   25 1     
    3    1   26 1     
    4    1   27 1     
    5    2    3 1     
    6    2   28 1     
    7    2   29 1     
    8    3    4 1     
    9    3    6 1     
   10    4    5 1     
   11    4   30 1     
   12    4   31 1     
   13    5   32 1     
   14    5   33 1     
   15    5   34 1     
   16    6   24 ar    
   17    6    7 ar    
   18    7    8 ar    
   19    7   35 1     
   20    8    9 ar    
   21    8   36 1     
   22    9   10 1     
   23    9   23 ar    
   24   10   11 am    
   25   10   37 1     
   26   11   12 2     
   27   11   13 am    
   28   13   14 1     
   29   13   38 1     
   30   14   22 1     
   31   14   15 1     
   32   14   39 1     
   33   15   16 1     
   34   15   40 1     
   35   15   41 1     
   36   16   17 1     
   37   16   42 1     
   38   16   43 1     
   39   17   22 1     
   40   17   18 1     
   41   17   54 1     
   42   18   19 1     
   43   18   44 1     
   44   18   45 1     
   45   19   20 1     
   46   19   46 1     
   47   19   47 1     
   48   20   21 1     
   49   20   48 1     
   50   20   49 1     
   51   21   22 1     
   52   21   50 1     
   53   21   51 1     
   54   22   52 1     
   55   23   24 ar    
   56   23   53 1     
   57   24   55 1     
   58   12   56 1     
   59   12   57 1     
@<TRIPOS>SUBSTRUCTURE
      1 S1             1
@<TRIPOS>SET
LONE_PAIRS      STATIC     ATOMS    <user>   **** ""
2 56 57
DONOR_HYDROGENS      STATIC     ATOMS    <user>   **** ""
4 37 38 54 55
ATOM$BLUE        STATIC     ATOMS    COLORGROUP SYSTEM
2 56 57
ATOM$RED        STATIC     ATOMS    COLORGROUP SYSTEM
4 37 38 54 55
