AV-unprocessed.smi:1047|AV-procd|sdf|4594|dock8
  -GOLD-   22720 3 73D 1   1.00000     0.00000
 Structure written by MMmdl.
 55 57  0  0  0  0  0  0  0  0  1 V2000
  141.1539  145.6858  154.0581 C   0  0  0  0  0  0  0  0  0  0  0  0
  142.3076  146.5311  154.6170 C   0  0  0  0  0  0  0  0  0  0  0  0
  143.4220  145.7635  155.1692 N   0  0  0  0  0  0  0  0  0  0  0  0
  142.9944  144.8055  156.1864 C   0  0  0  0  0  0  0  0  0  0  0  0
  144.1736  143.9798  156.7293 C   0  0  0  0  0  0  0  0  0  0  0  0
  144.8328  143.3291  155.6486 O   0  0  0  0  0  0  0  0  0  0  0  0
  145.3277  144.2438  154.6733 C   0  0  1  0  0  0  0  0  0  0  0  0
  146.0493  143.4464  153.5786 C   0  0  0  0  0  0  0  0  0  0  0  0
  147.2978  142.9060  154.0968 N   0  0  0  0  0  0  0  0  0  0  0  0
  147.5361  141.4996  153.7913 C   0  0  0  0  0  0  0  0  0  0  0  0
  148.8665  141.0084  154.4016 C   0  0  1  0  0  0  0  0  0  0  0  0
  149.7707  140.7809  153.3413 O   0  0  0  0  0  0  0  0  0  0  0  0
  149.5523  141.9936  155.3802 C   0  0  0  0  0  0  0  0  0  0  0  0
  150.4107  141.3450  156.3573 N   0  0  0  0  0  0  0  0  0  0  0  0
  150.8113  140.0586  156.3561 C   0  0  0  0  0  0  0  0  0  0  0  0
  151.6296  139.6733  157.3309 N   0  0  0  0  0  0  0  0  0  0  0  0
  151.7732  140.8454  158.0530 C   0  0  0  0  0  0  0  0  0  0  0  0
  152.5340  141.1202  159.2101 C   0  0  0  0  0  0  0  0  0  0  0  0
  152.5384  142.4111  159.7847 C   0  0  0  0  0  0  0  0  0  0  0  0
  153.3761  142.6643  161.0258 C   0  0  0  0  0  0  0  0  0  0  0  0
  151.7672  143.4499  159.2042 C   0  0  0  0  0  0  0  0  0  0  0  0
  151.7549  144.8442  159.8051 C   0  0  0  0  0  0  0  0  0  0  0  0
  151.0006  143.1919  158.0485 C   0  0  0  0  0  0  0  0  0  0  0  0
  151.0112  141.9058  157.4804 C   0  0  0  0  0  0  0  0  0  0  0  0
  144.1387  145.0503  154.1168 C   0  0  0  0  0  0  0  0  0  0  0  0
  140.3201  146.3239  153.7651 H   0  0  0  0  0  0  0  0  0  0  0  0
  140.7853  144.9812  154.8042 H   0  0  0  0  0  0  0  0  0  0  0  0
  141.4528  145.1197  153.1761 H   0  0  0  0  0  0  0  0  0  0  0  0
  142.6708  147.2096  153.8435 H   0  0  0  0  0  0  0  0  0  0  0  0
  141.8950  147.1659  155.4026 H   0  0  0  0  0  0  0  0  0  0  0  0
  142.5189  145.3232  157.0189 H   0  0  0  0  0  0  0  0  0  0  0  0
  142.2461  144.1308  155.7674 H   0  0  0  0  0  0  0  0  0  0  0  0
  144.8793  144.6165  157.2657 H   0  0  0  0  0  0  0  0  0  0  0  0
  143.8189  143.2292  157.4355 H   0  0  0  0  0  0  0  0  0  0  0  0
  146.0353  144.9304  155.1439 H   0  0  0  0  0  0  0  0  0  0  0  0
  145.4088  142.6470  153.2043 H   0  0  0  0  0  0  0  0  0  0  0  0
  146.2617  144.1041  152.7349 H   0  0  0  0  0  0  0  0  0  0  0  0
  147.3479  143.0585  155.0995 H   0  0  0  0  0  0  0  0  0  0  0  0
  146.7133  140.9080  154.1956 H   0  0  0  0  0  0  0  0  0  0  0  0
  147.5362  141.3362  152.7129 H   0  0  0  0  0  0  0  0  0  0  0  0
  148.7051  140.0495  154.8951 H   0  0  0  0  0  0  0  0  0  0  0  0
  149.3607  140.2023  152.7169 H   0  0  0  0  0  0  0  0  0  0  0  0
  150.1536  142.7163  154.8270 H   0  0  0  0  0  0  0  0  0  0  0  0
  148.7977  142.5671  155.9210 H   0  0  0  0  0  0  0  0  0  0  0  0
  150.4977  139.3689  155.5861 H   0  0  0  0  0  0  0  0  0  0  0  0
  153.1203  140.3284  159.6524 H   0  0  0  0  0  0  0  0  0  0  0  0
  152.7372  142.9360  161.8664 H   0  0  0  0  0  0  0  0  0  0  0  0
  154.0842  143.4751  160.8517 H   0  0  0  0  0  0  0  0  0  0  0  0
  153.9465  141.7792  161.3095 H   0  0  0  0  0  0  0  0  0  0  0  0
  151.0928  145.5102  159.2510 H   0  0  0  0  0  0  0  0  0  0  0  0
  152.7556  145.2766  159.7876 H   0  0  0  0  0  0  0  0  0  0  0  0
  151.4085  144.8121  160.8383 H   0  0  0  0  0  0  0  0  0  0  0  0
  150.4139  143.9757  157.5931 H   0  0  0  0  0  0  0  0  0  0  0  0
  143.4560  144.3778  153.5943 H   0  0  0  0  0  0  0  0  0  0  0  0
  144.5037  145.7617  153.3749 H   0  0  0  0  0  0  0  0  0  0  0  0
  1  2  1  0  0  0  0
  1 26  1  0  0  0  0
  1 27  1  0  0  0  0
  1 28  1  0  0  0  0
  2  3  1  0  0  0  0
  2 29  1  0  0  0  0
  2 30  1  0  0  0  0
  3 25  1  0  0  0  0
  3  4  1  0  0  0  0
  4  5  1  0  0  0  0
  4 31  1  0  0  0  0
  4 32  1  0  0  0  0
  5  6  1  0  0  0  0
  5 33  1  0  0  0  0
  5 34  1  0  0  0  0
  6  7  1  0  0  0  0
  7  8  1  0  0  0  0
  7 25  1  0  0  0  0
  7 35  1  0  0  0  0
  8  9  1  0  0  0  0
  8 36  1  0  0  0  0
  8 37  1  0  0  0  0
  9 10  1  0  0  0  0
  9 38  1  0  0  0  0
 10 11  1  0  0  0  0
 10 39  1  0  0  0  0
 10 40  1  0  0  0  0
 11 12  1  0  0  0  0
 11 13  1  0  0  0  0
 11 41  1  0  0  0  0
 12 42  1  0  0  0  0
 13 14  1  0  0  0  0
 13 43  1  0  0  0  0
 13 44  1  0  0  0  0
 14 24  1  0  0  0  0
 14 15  1  0  0  0  0
 15 16  2  0  0  0  0
 15 45  1  0  0  0  0
 16 17  1  0  0  0  0
 17 24  2  0  0  0  0
 17 18  1  0  0  0  0
 18 19  2  0  0  0  0
 18 46  1  0  0  0  0
 19 20  1  0  0  0  0
 19 21  1  0  0  0  0
 20 47  1  0  0  0  0
 20 48  1  0  0  0  0
 20 49  1  0  0  0  0
 21 22  1  0  0  0  0
 21 23  2  0  0  0  0
 22 50  1  0  0  0  0
 22 51  1  0  0  0  0
 22 52  1  0  0  0  0
 23 24  1  0  0  0  0
 23 53  1  0  0  0  0
 25 54  1  0  0  0  0
 25 55  1  0  0  0  0
M  END
> <s_m_source_file>
AV-unprocessed.smi

> <i_m_source_file_index>
1047

> <i_lp_mmshare_version>
43012

> <i_f3d_flags>
0

> <s_epik_input>
W0NIM11bQ0gyXU4xW0NIMl1bQ0gyXU9bQ0BIXShbQ0gyXTEpW0NIMl1bTkhdW0NIMl1bQ0BIXShbT0hdKVtDSDJdbihbY0hdbjIpYyhjMjMpW2NIXWMoW0NIM10pYyhbY0hdMylbQ0gzXQ==

> <s_epik_cmdline>
J2VwaWtfcHl0aG9uJywgJy1waCcsICc3LjAnLCAnLXRuJywgJzgnLCAnLW1hJywgJzIwMCcsICctbWV0YWxfYmluZGluZycsICctaW1hZScsICc8aW5maWxlLm1hZT4nLCAnLW9tYWUnLCAnPG91dGZpbGUubWFlPic=

> <r_epik_Ionization_Penalty>
2.74124

> <r_epik_Ionization_Penalty_Charging>
0

> <r_epik_Ionization_Penalty_Neutral>
2.74124

> <r_epik_State_Penalty>
2.37482

> <r_epik_Charging_Adjusted_Penalty>
2.37482

> <i_epik_Tot_Q>
0

> <i_epik_Tot_abs_Q>
0

> <r_epik_Metal_State_Penalty>
2.25944

> <b_epik_Metal_Only>
0

> <s_lp_Force_Field>
OPLS_2005

> <r_lp_Energy>
29.9902

> <b_lp_Chiralities_Consistent>
1

> <s_lp_Variant>
AV-unprocessed.smi:1047-35

> <Gold.Version>
5.8.1

> <Gold.Id.Protein>
6NUR|6NUR_protein|mol2

> <Gold.PLP.Fitness>
53.9029

> <Gold.PLP.PLP>
-50.5483

> <Gold.PLP.part.hbond>
-3.6820

> <Gold.PLP.part.metal>
0.0000

> <Gold.PLP.part.buried>
-3.9317

> <Gold.PLP.part.nonpolar>
-40.8554

> <Gold.PLP.part.repulsive>
0.1729

> <Gold.PLP.ligand.clash>
0.0010

> <Gold.PLP.ligand.torsion>
1.5156

> <Gold.PLP.Chemscore.Hbond>
2.0789

> <Gold.PLP.Chemscore.CHOScore>
0.0000

> <Gold.PLP.Chemscore.Metal>
0.0000

> <Gold.Chemscore.Hbonds>
donor molecule, donor type, donor heavy atom, donor atom, acceptor molecule, acceptor atom, score
      L1  H     9    38       P1  8028  0.09
      L1  H    12    42       P1  7957  0.59
      P1  H  7989  7998       L1    12  0.29
      P1  H  8011  8017       L1    12  1.00
      P1  H  8022  8030       L1     9  0.11

> <Gold.PLP.Chemscore.Internal.Correction>
0.1500

> <Gold.Rescore>
     Score         DG    S(hbond)    S(metal)    S(lipo)     H(rot)  DE(clash)    DE(int)     intcor
     15.67     -19.03       1.08        0.00     140.20       2.52       1.89       1.47       ----

> <Gold.Chemscore.Fitness>
15.6707

> <Gold.Chemscore.DG>
-19.0277

> <Gold.Chemscore.ZeroCoef>
-5.4800

> <Gold.Chemscore.Hbond>
1.0795

> <Gold.Chemscore.Metal>
0.0000

> <Gold.Chemscore.Lipo>
140.1959

> <Gold.Chemscore.Internal_Hbond>
0.0000

> <Gold.Chemscore.DEClash>
1.8861

> <Gold.Chemscore.DEInternal>
1.4709

> <Gold.Chemscore.Rot>
2.5237

> <Gold.Chemscore.Internal.Correction>
   9.000000E+99

> <Gold.Chemscore.Hbonds>
donor molecule, donor type, donor heavy atom, donor atom, acceptor molecule, acceptor atom, score
      L1  H     9    38       P1  8028  0.02
      L1  H    12    42       P1  7957  0.59
      P1  H  7989  7998       L1    12  0.28
      P1  H  8011  8017       L1    12  0.14

> <Gold.Chemscore.Hbond.Weighted>
-3.6054

> <Gold.Chemscore.Metal.Weighted>
-0.0000

> <Gold.Chemscore.Lipo.Weighted>
-16.4029

> <Gold.Chemscore.Internal_Hbond.Weighted>
0.0000

> <Gold.Chemscore.DEClash.Weighted>
1.8861

> <Gold.Chemscore.DEInternal.Weighted>
1.4709

> <Gold.Chemscore.Rot.Weighted>
6.4607

> <Gold.Chemscore.Internal.Correction.Weighted>
   9.000000E+99

> <Gold.Protein.RotatedTorsions>
[ 6907 6896 6895 6894 ] final -126.89 input  -60.11 | X-H torsion
[ 7974 7965 7964 7962 ] final    9.10 input  175.53 | X-H torsion
[ 8008 7997 7996 7995 ] final -172.14 input   59.86 | X-H torsion
[ 10167 10162 10161 10158 ] final  154.79 input  -65.29 | X-H torsion
[ 10718 10713 10712 10709 ] final  -34.23 input   66.30 | X-H torsion
[ 10763 10752 10751 10750 ] final  163.71 input  -60.55 | X-H torsion
[ 11005 11000 10999 10996 ] final   72.58 input  -57.11 | X-H torsion

> <Gold.Protein.ActiveResidues>
 VAL166  LYS551  ARG553  GLY616  TRP617  ASP618  TYR619  PRO620  LYS621  CYS622 
 ASP623  PHE694  ASN695  SER759  ASP760  ASP761  ALA762  ILE779  LEU786  VAL792 
 PHE793  MET794  SER795  GLU796  ALA797  LYS798  CYS799  TRP800  GLU811  SER814 

> <Gold.Protein.RotatedAtoms>
  150.9016  133.7111  159.2877 H   0  0  0  0  0  0  0  0  0  0  0  0  # atno 6907 bound_to 6896
  151.4627  135.1038  159.9739 H   0  0  0  0  0  0  0  0  0  0  0  0  # atno 6908 bound_to 6896
  152.4880  133.8375  159.7191 H   0  0  0  0  0  0  0  0  0  0  0  0  # atno 6909 bound_to 6896
  146.2408  139.9834  142.8433 H   0  0  0  0  0  0  0  0  0  0  0  0  # atno 7974 bound_to 7965
  155.9407  140.1108  157.1058 H   0  0  0  0  0  0  0  0  0  0  0  0  # atno 8008 bound_to 7997
  154.4089  140.1219  156.4989 H   0  0  0  0  0  0  0  0  0  0  0  0  # atno 8009 bound_to 7997
  155.6965  140.3472  155.4917 H   0  0  0  0  0  0  0  0  0  0  0  0  # atno 8010 bound_to 7997
  139.4822  144.5155  151.7957 H   0  0  0  0  0  0  0  0  0  0  0  0  # atno 10167 bound_to 10162
  156.3530  130.4311  149.7688 H   0  0  0  0  0  0  0  0  0  0  0  0  # atno 10718 bound_to 10713
  154.2979  135.2759  155.2624 H   0  0  0  0  0  0  0  0  0  0  0  0  # atno 10763 bound_to 10752
  154.5074  135.5791  153.6582 H   0  0  0  0  0  0  0  0  0  0  0  0  # atno 10764 bound_to 10752
  152.9904  135.6173  154.3148 H   0  0  0  0  0  0  0  0  0  0  0  0  # atno 10765 bound_to 10752
  139.9483  134.7272  156.0924 H   0  0  0  0  0  0  0  0  0  0  0  0  # atno 11005 bound_to 11000
  145.1570  140.9653  143.4399 LP  0  0  0  0  0  0  0  0  0  0  0  0  # atno 17320 bound_to 7965
  145.0151  139.3474  143.6100 LP  0  0  0  0  0  0  0  0  0  0  0  0  # atno 17321 bound_to 7965
  140.4663  144.1650  150.5912 LP  0  0  0  0  0  0  0  0  0  0  0  0  # atno 17342 bound_to 10162
  140.4430  143.2518  151.9448 LP  0  0  0  0  0  0  0  0  0  0  0  0  # atno 17343 bound_to 10162
  156.4881  130.8072  151.3083 LP  0  0  0  0  0  0  0  0  0  0  0  0  # atno 17370 bound_to 10713
  157.7464  130.9984  150.2852 LP  0  0  0  0  0  0  0  0  0  0  0  0  # atno 17371 bound_to 10713
  141.1140  133.6634  156.3047 LP  0  0  0  0  0  0  0  0  0  0  0  0  # atno 17394 bound_to 11000
  140.5780  134.5774  157.5473 LP  0  0  0  0  0  0  0  0  0  0  0  0  # atno 17395 bound_to 11000

$$$$
