AV-unprocessed.smi:1890|AV-procd|sdf|7664|dock1
  -GOLD-   22720 9403D 1   1.00000     0.00000
 Structure written by MMmdl.
 51 52  0  0  0  0  0  0  0  0  1 V2000
  152.5130  140.2068  159.1213 C   0  0  0  0  0  0  0  0  0  0  0  0
  151.4535  141.2942  158.8833 C   0  0  0  0  0  0  0  0  0  0  0  0
  151.2309  141.5792  157.4650 N   0  0  0  0  0  0  0  0  0  0  0  0
  151.0961  142.9854  157.0816 C   0  0  0  0  0  0  0  0  0  0  0  0
  151.9691  143.9169  157.9356 C   0  0  0  0  0  0  0  0  0  0  0  0
  150.5209  140.6521  156.6654 C   0  0  0  0  0  0  0  0  0  0  0  0
  149.4748  139.8494  157.1844 C   0  0  0  0  0  0  0  0  0  0  0  0
  148.8037  138.9570  156.3272 C   0  0  0  0  0  0  0  0  0  0  0  0
  149.1894  138.8743  154.9759 C   0  0  0  0  0  0  0  0  0  0  0  0
  148.4739  137.9830  154.1310 N   0  0  0  0  0  0  0  0  0  0  0  0
  147.2108  137.5405  154.2542 C   0  0  0  0  0  0  0  0  0  0  0  0
  146.4090  137.9022  155.1151 O   0  0  0  0  0  0  0  0  0  0  0  0
  146.9138  136.6547  153.2928 N   0  0  0  0  0  0  0  0  0  0  0  0
  145.6281  135.9818  153.1342 C   0  0  0  0  0  0  0  0  0  0  0  0
  145.7860  134.4803  153.4573 C   0  0  0  0  0  0  0  0  0  0  0  0
  144.5061  133.6959  153.1161 C   0  0  0  0  0  0  0  0  0  0  0  0
  144.1759  133.9243  151.7050 N   0  0  0  0  0  0  0  0  0  0  0  0
  144.3216  132.9694  150.7550 C   0  0  0  0  0  0  0  0  0  0  0  0
  144.7577  131.5623  151.1690 C   0  0  0  0  0  0  0  0  0  0  0  0
  144.1119  133.1816  149.5606 O   0  0  0  0  0  0  0  0  0  0  0  0
  143.8293  135.3284  151.4530 C   0  0  0  0  0  0  0  0  0  0  0  0
  145.0729  136.1988  151.7073 C   0  0  0  0  0  0  0  0  0  0  0  0
  150.2377  139.7198  154.5432 C   0  0  0  0  0  0  0  0  0  0  0  0
  150.8815  140.5782  155.3615 N   0  0  0  0  0  0  0  0  0  0  0  0
  152.6772  140.0607  160.1889 H   0  0  0  0  0  0  0  0  0  0  0  0
  153.4676  140.4892  158.6767 H   0  0  0  0  0  0  0  0  0  0  0  0
  152.2225  139.2443  158.7017 H   0  0  0  0  0  0  0  0  0  0  0  0
  150.5123  141.0261  159.3631 H   0  0  0  0  0  0  0  0  0  0  0  0
  151.7842  142.2083  159.3777 H   0  0  0  0  0  0  0  0  0  0  0  0
  151.3806  143.0873  156.0339 H   0  0  0  0  0  0  0  0  0  0  0  0
  150.0546  143.3041  157.1288 H   0  0  0  0  0  0  0  0  0  0  0  0
  151.8533  144.9525  157.6162 H   0  0  0  0  0  0  0  0  0  0  0  0
  153.0253  143.6607  157.8515 H   0  0  0  0  0  0  0  0  0  0  0  0
  151.6931  143.8643  158.9893 H   0  0  0  0  0  0  0  0  0  0  0  0
  149.1658  139.9074  158.2165 H   0  0  0  0  0  0  0  0  0  0  0  0
  147.9996  138.3442  156.7078 H   0  0  0  0  0  0  0  0  0  0  0  0
  148.9787  137.6611  153.3183 H   0  0  0  0  0  0  0  0  0  0  0  0
  147.6321  136.4235  152.6223 H   0  0  0  0  0  0  0  0  0  0  0  0
  144.9140  136.3972  153.8481 H   0  0  0  0  0  0  0  0  0  0  0  0
  146.6190  134.0640  152.8886 H   0  0  0  0  0  0  0  0  0  0  0  0
  146.0344  134.3475  154.5108 H   0  0  0  0  0  0  0  0  0  0  0  0
  144.6433  132.6401  153.3528 H   0  0  0  0  0  0  0  0  0  0  0  0
  143.6791  134.0347  153.7417 H   0  0  0  0  0  0  0  0  0  0  0  0
  144.0576  131.1355  151.8874 H   0  0  0  0  0  0  0  0  0  0  0  0
  145.7543  131.5811  151.6107 H   0  0  0  0  0  0  0  0  0  0  0  0
  144.7896  130.9001  150.3029 H   0  0  0  0  0  0  0  0  0  0  0  0
  143.4459  135.5106  150.4502 H   0  0  0  0  0  0  0  0  0  0  0  0
  143.0251  135.6254  152.1280 H   0  0  0  0  0  0  0  0  0  0  0  0
  144.8261  137.2502  151.5554 H   0  0  0  0  0  0  0  0  0  0  0  0
  145.8382  135.9517  150.9699 H   0  0  0  0  0  0  0  0  0  0  0  0
  150.5696  139.7446  153.5174 H   0  0  0  0  0  0  0  0  0  0  0  0
  1  2  1  0  0  0  0
  1 25  1  0  0  0  0
  1 26  1  0  0  0  0
  1 27  1  0  0  0  0
  2  3  1  0  0  0  0
  2 28  1  0  0  0  0
  2 29  1  0  0  0  0
  3  4  1  0  0  0  0
  3  6  1  0  0  0  0
  4  5  1  0  0  0  0
  4 30  1  0  0  0  0
  4 31  1  0  0  0  0
  5 32  1  0  0  0  0
  5 33  1  0  0  0  0
  5 34  1  0  0  0  0
  6 24  1  0  0  0  0
  6  7  2  0  0  0  0
  7  8  1  0  0  0  0
  7 35  1  0  0  0  0
  8  9  2  0  0  0  0
  8 36  1  0  0  0  0
  9 10  1  0  0  0  0
  9 23  1  0  0  0  0
 10 11  1  0  0  0  0
 10 37  1  0  0  0  0
 11 12  2  0  0  0  0
 11 13  1  0  0  0  0
 13 14  1  0  0  0  0
 13 38  1  0  0  0  0
 14 22  1  0  0  0  0
 14 15  1  0  0  0  0
 14 39  1  0  0  0  0
 15 16  1  0  0  0  0
 15 40  1  0  0  0  0
 15 41  1  0  0  0  0
 16 17  1  0  0  0  0
 16 42  1  0  0  0  0
 16 43  1  0  0  0  0
 17 18  1  0  0  0  0
 17 21  1  0  0  0  0
 18 19  1  0  0  0  0
 18 20  2  0  0  0  0
 19 44  1  0  0  0  0
 19 45  1  0  0  0  0
 19 46  1  0  0  0  0
 21 22  1  0  0  0  0
 21 47  1  0  0  0  0
 21 48  1  0  0  0  0
 22 49  1  0  0  0  0
 22 50  1  0  0  0  0
 23 24  2  0  0  0  0
 23 51  1  0  0  0  0
M  END
> <s_m_source_file>
AV-unprocessed.smi

> <i_m_source_file_index>
1890

> <i_lp_mmshare_version>
43012

> <i_f3d_flags>
0

> <s_epik_input>
W0NIM11bQ0gyXU4oW0NIMl1bQ0gzXSljMVtjSF1bY0hdYyhbY0hdbjEpW05IXUMoPU8pW05IXVtDSF0yW0NIMl1bQ0gyXU4oQyg9TylbQ0gzXSlbQ0gyXVtDSDJdMg==

> <s_epik_cmdline>
J2VwaWtfcHl0aG9uJywgJy1waCcsICc3LjAnLCAnLXRuJywgJzgnLCAnLW1hJywgJzIwMCcsICctbWV0YWxfYmluZGluZycsICctaW1hZScsICc8aW5maWxlLm1hZT4nLCAnLW9tYWUnLCAnPG91dGZpbGUubWFlPic=

> <r_lp_tautomer_probability>
1

> <r_epik_Ionization_Penalty>
0.700493

> <r_epik_Ionization_Penalty_Charging>
0

> <r_epik_Ionization_Penalty_Neutral>
0.700493

> <r_epik_State_Penalty>
2.19132

> <r_epik_Charging_Adjusted_Penalty>
2.19132

> <i_epik_Tot_Q>
0

> <i_epik_Tot_abs_Q>
0

> <r_epik_Metal_State_Penalty>
1.54624

> <b_epik_Metal_Only>
0

> <s_lp_Force_Field>
OPLS_2005

> <r_lp_Energy>
30.5228

> <b_lp_Chiralities_Consistent>
1

> <s_lp_Variant>
AV-unprocessed.smi:1890-2

> <Gold.Version>
5.8.1

> <Gold.Id.Protein>
6NUR|6NUR_protein|mol2

> <Gold.PLP.Fitness>
41.4552

> <Gold.PLP.PLP>
-34.7166

> <Gold.PLP.part.hbond>
-2.9430

> <Gold.PLP.part.metal>
0.0000

> <Gold.PLP.part.buried>
-3.3367

> <Gold.PLP.part.nonpolar>
-29.9154

> <Gold.PLP.part.repulsive>
0.3707

> <Gold.PLP.ligand.clash>
0.0000

> <Gold.PLP.ligand.torsion>
1.4123

> <Gold.PLP.Chemscore.Hbond>
1.8553

> <Gold.PLP.Chemscore.CHOScore>
1.0000

> <Gold.PLP.Chemscore.Metal>
0.0000

> <Gold.Chemscore.Hbonds>
donor molecule, donor type, donor heavy atom, donor atom, acceptor molecule, acceptor atom, score
      L1  H    10    37       P1  7948  0.88
      L1  H    13    38       P1  7948  1.00
      L1  C    23    51       P1  7957  0.95

> <Gold.PLP.Chemscore.Internal.Correction>
0.9975

> <Gold.Rescore>
     Score         DG    S(hbond)    S(metal)    S(lipo)     H(rot)  DE(clash)    DE(int)     intcor
     14.36     -17.71       1.85        0.00      80.87       1.33       0.41       2.95       ----

> <Gold.Chemscore.Fitness>
14.3573

> <Gold.Chemscore.DG>
-17.7133

> <Gold.Chemscore.ZeroCoef>
-5.4800

> <Gold.Chemscore.Hbond>
1.8489

> <Gold.Chemscore.Metal>
0.0000

> <Gold.Chemscore.Lipo>
80.8667

> <Gold.Chemscore.Internal_Hbond>
0.0000

> <Gold.Chemscore.DEClash>
0.4064

> <Gold.Chemscore.DEInternal>
2.9496

> <Gold.Chemscore.Rot>
1.3294

> <Gold.Chemscore.Internal.Correction>
   9.000000E+99

> <Gold.Chemscore.Hbonds>
donor molecule, donor type, donor heavy atom, donor atom, acceptor molecule, acceptor atom, score
      L1  H    10    37       P1  7948  0.82
      L1  H    13    38       P1  7948  0.93

> <Gold.Chemscore.Hbond.Weighted>
-6.1752

> <Gold.Chemscore.Metal.Weighted>
-0.0000

> <Gold.Chemscore.Lipo.Weighted>
-9.4614

> <Gold.Chemscore.Internal_Hbond.Weighted>
0.0000

> <Gold.Chemscore.DEClash.Weighted>
0.4064

> <Gold.Chemscore.DEInternal.Weighted>
2.9496

> <Gold.Chemscore.Rot.Weighted>
3.4034

> <Gold.Chemscore.Internal.Correction.Weighted>
   9.000000E+99

> <Gold.Protein.RotatedTorsions>
[ 6907 6896 6895 6894 ] final   82.41 input  -60.11 | X-H torsion
[ 7974 7965 7964 7962 ] final   26.27 input  175.53 | X-H torsion
[ 8008 7997 7996 7995 ] final  149.23 input   59.86 | X-H torsion
[ 10167 10162 10161 10158 ] final  -65.32 input  -65.29 | X-H torsion
[ 10718 10713 10712 10709 ] final   91.43 input   66.30 | X-H torsion
[ 10763 10752 10751 10750 ] final    2.30 input  -60.55 | X-H torsion
[ 11005 11000 10999 10996 ] final    2.10 input  -57.11 | X-H torsion

> <Gold.Protein.ActiveResidues>
 VAL166  LYS551  ARG553  GLY616  TRP617  ASP618  TYR619  PRO620  LYS621  CYS622 
 ASP623  PHE694  ASN695  SER759  ASP760  ASP761  ALA762  ILE779  LEU786  VAL792 
 PHE793  MET794  SER795  GLU796  ALA797  LYS798  CYS799  TRP800  GLU811  SER814 

> <Gold.Protein.RotatedAtoms>
  152.5298  134.3054  159.9093 H   0  0  0  0  0  0  0  0  0  0  0  0  # atno 6907 bound_to 6896
  151.3005  133.4118  159.2647 H   0  0  0  0  0  0  0  0  0  0  0  0  # atno 6908 bound_to 6896
  151.0123  134.9423  159.8071 H   0  0  0  0  0  0  0  0  0  0  0  0  # atno 6909 bound_to 6896
  146.1846  139.7351  142.8876 H   0  0  0  0  0  0  0  0  0  0  0  0  # atno 7974 bound_to 7965
  156.2762  140.2107  156.5825 H   0  0  0  0  0  0  0  0  0  0  0  0  # atno 8008 bound_to 7997
  154.7047  140.0517  157.0515 H   0  0  0  0  0  0  0  0  0  0  0  0  # atno 8009 bound_to 7997
  155.0687  140.3174  155.4640 H   0  0  0  0  0  0  0  0  0  0  0  0  # atno 8010 bound_to 7997
  140.5738  143.2320  151.6484 H   0  0  0  0  0  0  0  0  0  0  0  0  # atno 10167 bound_to 10162
  157.6960  131.0407  150.3728 H   0  0  0  0  0  0  0  0  0  0  0  0  # atno 10718 bound_to 10713
  153.2972  135.6953  153.7237 H   0  0  0  0  0  0  0  0  0  0  0  0  # atno 10763 bound_to 10752
  153.6165  135.3435  155.2997 H   0  0  0  0  0  0  0  0  0  0  0  0  # atno 10764 bound_to 10752
  154.8541  135.4376  154.2073 H   0  0  0  0  0  0  0  0  0  0  0  0  # atno 10765 bound_to 10752
  140.6081  133.9774  155.8164 H   0  0  0  0  0  0  0  0  0  0  0  0  # atno 11005 bound_to 11000
  145.3977  141.0381  143.3088 LP  0  0  0  0  0  0  0  0  0  0  0  0  # atno 17320 bound_to 7965
  144.8374  139.5527  143.6916 LP  0  0  0  0  0  0  0  0  0  0  0  0  # atno 17321 bound_to 7965
  139.5131  144.3452  152.0703 LP  0  0  0  0  0  0  0  0  0  0  0  0  # atno 17342 bound_to 10162
  140.2593  144.4084  150.6191 LP  0  0  0  0  0  0  0  0  0  0  0  0  # atno 17343 bound_to 10162
  156.4151  130.3941  149.6864 LP  0  0  0  0  0  0  0  0  0  0  0  0  # atno 17370 bound_to 10713
  156.4135  130.7733  151.2748 LP  0  0  0  0  0  0  0  0  0  0  0  0  # atno 17371 bound_to 10713
  141.0827  134.0038  157.3361 LP  0  0  0  0  0  0  0  0  0  0  0  0  # atno 17394 bound_to 11000
  139.9204  135.0200  156.8041 LP  0  0  0  0  0  0  0  0  0  0  0  0  # atno 17395 bound_to 11000

$$$$
