#       Name:                AV-unprocessed.smi:1085
#       Creating user name   scv26
#       Creation time:       Fri Mar 27 03:24:51 2020


#       File generated by GOLD software.
#

@<TRIPOS>MOLECULE
AV-unprocessed.smi:1085
    38    39     1
SMALL
NO_CHARGES


@<TRIPOS>ATOM
      1 ****        -0.2127   3.2257   0.7351 O.2            1 S1                 0.0000
      2 ****         0.5117   2.3868   0.2007 C.2            1 S1                 0.0000
      3 ****         2.0273   2.5848   0.1773 C.3            1 S1                 0.0000
      4 ****         2.6899   1.5713   0.9780 N.pl3          1 S1                 0.0000
      5 ****         2.8879   1.4854   2.2951 C.2            1 S1                 0.0000
      6 ****         3.5187   0.3679   2.6225 N.2            1 S1                 0.0000
      7 ****         3.7087  -0.2563   1.4007 N.2            1 S1                 0.0000
      8 ****         3.2191   0.4528   0.4213 N.2            1 S1                 0.0000
      9 ****         0.0515   1.2614  -0.3673 N.am           1 S1                 0.0000
     10 ****        -1.3372   0.8087  -0.3676 C.3            1 S1                 0.0000
     11 ****        -1.7250   0.1983   0.9958 C.3            1 S1                 0.0000
     12 ****        -0.9970  -1.1307   1.2574 C.3            1 S1                 0.0000
     13 ****        -1.2445  -2.1328   0.1189 C.3            1 S1                 0.0000
     14 ****        -0.8366  -1.5542  -1.2529 C.3            1 S1                 0.0000
     15 ****        -1.0765  -2.5592  -2.3983 C.3            1 S1                 0.0000
     16 ****        -2.3715  -2.8590  -2.5039 F              1 S1                 0.0000
     17 ****        -0.6584  -2.0417  -3.5535 F              1 S1                 0.0000
     18 ****        -0.3914  -3.6804  -2.1735 F              1 S1                 0.0000
     19 ****        -1.5603  -0.2099  -1.5031 C.3            1 S1                 0.0000
     20 ****         2.3948   2.5385  -0.8490 H              1 S1                 0.0000
     21 ****         2.2856   3.5683   0.5723 H              1 S1                 0.0000
     22 ****         2.5648   2.2302   3.0076 H              1 S1                 0.0000
     23 ****         0.7278   0.6391  -0.7864 H              1 S1                 0.0000
     24 ****        -1.9750   1.6734  -0.5598 H              1 S1                 0.0000
     25 ****        -1.5207   0.9009   1.8045 H              1 S1                 0.0000
     26 ****        -2.8016   0.0239   1.0153 H              1 S1                 0.0000
     27 ****         0.0740  -0.9524   1.3652 H              1 S1                 0.0000
     28 ****        -1.3328  -1.5556   2.2037 H              1 S1                 0.0000
     29 ****        -0.6897  -3.0497   0.3194 H              1 S1                 0.0000
     30 ****        -2.2996  -2.4093   0.1040 H              1 S1                 0.0000
     31 ****         0.2362  -1.3572  -1.2205 H              1 S1                 0.0000
     32 ****        -2.6307  -0.3920  -1.6071 H              1 S1                 0.0000
     33 ****        -1.2365   0.2217  -2.4510 H              1 S1                 0.0000
     34 ****         0.1898   4.0390   1.1552 LP             1 S1                 0.0000
     35 ****        -1.2039   3.0942   0.7492 LP             1 S1                 0.0000
     36 ****         3.7915   0.0516   3.5310 LP             1 S1                 0.0000
     37 ****         4.1637  -1.1391   1.2841 LP             1 S1                 0.0000
     38 ****         3.2314   0.2178  -0.5506 LP             1 S1                 0.0000
@<TRIPOS>BOND
    1    1    2 2     
    2    2    3 1     
    3    2    9 am    
    4    3    4 1     
    5    3   20 1     
    6    3   21 1     
    7    4    8 1     
    8    4    5 1     
    9    5    6 2     
   10    5   22 1     
   11    6    7 1     
   12    7    8 2     
   13    9   10 1     
   14    9   23 1     
   15   10   19 1     
   16   10   11 1     
   17   10   24 1     
   18   11   12 1     
   19   11   25 1     
   20   11   26 1     
   21   12   13 1     
   22   12   27 1     
   23   12   28 1     
   24   13   14 1     
   25   13   29 1     
   26   13   30 1     
   27   14   15 1     
   28   14   19 1     
   29   14   31 1     
   30   15   16 1     
   31   15   17 1     
   32   15   18 1     
   33   19   32 1     
   34   19   33 1     
   35    1   34 1     
   36    1   35 1     
   37    6   36 1     
   38    7   37 1     
   39    8   38 1     
@<TRIPOS>SUBSTRUCTURE
      1 S1             1
@<TRIPOS>SET
LONE_PAIRS      STATIC     ATOMS    <user>   **** ""
5 34 35 36 37 38
DONOR_HYDROGENS      STATIC     ATOMS    <user>   **** ""
1 23
ATOM$BLUE        STATIC     ATOMS    COLORGROUP SYSTEM
5 34 35 36 37 38
ATOM$RED        STATIC     ATOMS    COLORGROUP SYSTEM
1 23
