AV-unprocessed.smi:140|AV-procd|sdf|1185|dock7
  -GOLD-   2262018333D 1   1.00000     0.00000
 Structure written by MMmdl.
 52 55  0  0  0  0  0  0  0  0  1 V2000
  147.6435  141.7779  154.2358 C   0  0  0  0  0  0  0  0  0  0  0  0
  148.2290  141.1728  155.4711 C   0  0  0  0  0  0  0  0  0  0  0  0
  149.4205  141.4256  156.0836 C   0  0  0  0  0  0  0  0  0  0  0  0
  149.5296  140.5868  157.2278 C   0  0  0  0  0  0  0  0  0  0  0  0
  150.6358  140.5194  158.2160 C   0  0  0  0  0  0  0  0  0  0  0  0
  150.7594  139.6030  159.0301 O   0  0  0  0  0  0  0  0  0  0  0  0
  151.6380  141.6884  158.1775 C   0  0  0  0  0  0  0  0  0  0  0  0
  152.3731  141.8520  159.4255 N   0  0  0  0  0  0  0  0  0  0  0  0
  152.0645  142.9721  160.2375 C   0  0  0  0  0  0  0  0  0  0  0  0
  151.2055  143.7960  159.9189 O   0  0  0  0  0  0  0  0  0  0  0  0
  152.8356  143.0547  161.4732 C   0  0  0  0  0  0  0  0  0  0  0  0
  152.6310  144.0810  162.3162 F   0  0  0  0  0  0  0  0  0  0  0  0
  153.7531  142.1150  161.7887 C   0  0  0  0  0  0  0  0  0  0  0  0
  154.0246  141.0230  160.9807 N   0  0  0  0  0  0  0  0  0  0  0  0
  155.0454  139.9745  161.3643 C   0  0  2  0  0  0  0  0  0  0  0  0
  154.3466  138.6691  161.7833 C   0  0  0  0  0  0  0  0  0  0  0  0
  155.0333  138.3326  163.0910 C   0  0  0  0  0  0  0  0  0  0  0  0
  155.3781  139.7142  163.6273 C   0  0  0  0  0  0  0  0  0  0  0  0
  155.7921  140.4167  162.4623 O   0  0  0  0  0  0  0  0  0  0  0  0
  153.3268  140.8624  159.7644 C   0  0  0  0  0  0  0  0  0  0  0  0
  153.5394  139.8872  159.0396 O   0  0  0  0  0  0  0  0  0  0  0  0
  148.3910  139.8150  157.2802 C   0  0  0  0  0  0  0  0  0  0  0  0
  147.9691  138.7401  158.2432 C   0  0  0  0  0  0  0  0  0  0  0  0
  147.5766  140.1945  156.2117 N   0  0  0  0  0  0  0  0  0  0  0  0
  146.2548  139.6533  155.9028 C   0  0  0  0  0  0  0  0  0  0  0  0
  146.1886  138.8565  154.6326 C   0  0  0  0  0  0  0  0  0  0  0  0
  145.1540  138.0472  154.2368 C   0  0  0  0  0  0  0  0  0  0  0  0
  145.3730  137.4240  152.9733 C   0  0  0  0  0  0  0  0  0  0  0  0
  146.5759  137.7639  152.4148 C   0  0  0  0  0  0  0  0  0  0  0  0
  147.4645  138.8625  153.4328 S   0  0  0  0  0  0  0  0  0  0  0  0
  148.3698  142.4189  153.7358 H   0  0  0  0  0  0  0  0  0  0  0  0
  146.7714  142.3863  154.4757 H   0  0  0  0  0  0  0  0  0  0  0  0
  147.3393  141.0065  153.5279 H   0  0  0  0  0  0  0  0  0  0  0  0
  150.1436  142.1508  155.7401 H   0  0  0  0  0  0  0  0  0  0  0  0
  152.3651  141.5552  157.3749 H   0  0  0  0  0  0  0  0  0  0  0  0
  151.1312  142.6285  157.9549 H   0  0  0  0  0  0  0  0  0  0  0  0
  154.2867  142.2387  162.7183 H   0  0  0  0  0  0  0  0  0  0  0  0
  155.7081  139.8699  160.5033 H   0  0  0  0  0  0  0  0  0  0  0  0
  153.2826  138.8474  161.9484 H   0  0  0  0  0  0  0  0  0  0  0  0
  154.4634  137.8989  161.0209 H   0  0  0  0  0  0  0  0  0  0  0  0
  154.4038  137.7557  163.7691 H   0  0  0  0  0  0  0  0  0  0  0  0
  155.9458  137.7656  162.9019 H   0  0  0  0  0  0  0  0  0  0  0  0
  154.4986  140.1912  164.0616 H   0  0  0  0  0  0  0  0  0  0  0  0
  156.1649  139.6902  164.3813 H   0  0  0  0  0  0  0  0  0  0  0  0
  148.8143  138.1145  158.5279 H   0  0  0  0  0  0  0  0  0  0  0  0
  147.2265  138.0665  157.8179 H   0  0  0  0  0  0  0  0  0  0  0  0
  147.5510  139.1768  159.1502 H   0  0  0  0  0  0  0  0  0  0  0  0
  145.9221  139.0426  156.7422 H   0  0  0  0  0  0  0  0  0  0  0  0
  145.5376  140.4720  155.8529 H   0  0  0  0  0  0  0  0  0  0  0  0
  144.2517  137.8827  154.8071 H   0  0  0  0  0  0  0  0  0  0  0  0
  144.6509  136.7577  152.5247 H   0  0  0  0  0  0  0  0  0  0  0  0
  146.9921  137.4392  151.4727 H   0  0  0  0  0  0  0  0  0  0  0  0
  1  2  1  0  0  0  0
  1 31  1  0  0  0  0
  1 32  1  0  0  0  0
  1 33  1  0  0  0  0
  2 24  1  0  0  0  0
  2  3  2  0  0  0  0
  3  4  1  0  0  0  0
  3 34  1  0  0  0  0
  4  5  1  0  0  0  0
  4 22  2  0  0  0  0
  5  6  2  0  0  0  0
  5  7  1  0  0  0  0
  7  8  1  0  0  0  0
  7 35  1  0  0  0  0
  7 36  1  0  0  0  0
  8 20  1  0  0  0  0
  8  9  1  0  0  0  0
  9 10  2  0  0  0  0
  9 11  1  0  0  0  0
 11 12  1  0  0  0  0
 11 13  2  0  0  0  0
 13 14  1  0  0  0  0
 13 37  1  0  0  0  0
 14 15  1  0  0  0  0
 14 20  1  0  0  0  0
 15 19  1  0  0  0  0
 15 16  1  0  0  0  0
 15 38  1  0  0  0  0
 16 17  1  0  0  0  0
 16 39  1  0  0  0  0
 16 40  1  0  0  0  0
 17 18  1  0  0  0  0
 17 41  1  0  0  0  0
 17 42  1  0  0  0  0
 18 19  1  0  0  0  0
 18 43  1  0  0  0  0
 18 44  1  0  0  0  0
 20 21  2  0  0  0  0
 22 23  1  0  0  0  0
 22 24  1  0  0  0  0
 23 45  1  0  0  0  0
 23 46  1  0  0  0  0
 23 47  1  0  0  0  0
 24 25  1  0  0  0  0
 25 26  1  0  0  0  0
 25 48  1  0  0  0  0
 25 49  1  0  0  0  0
 26 30  1  0  0  0  0
 26 27  2  0  0  0  0
 27 28  1  0  0  0  0
 27 50  1  0  0  0  0
 28 29  2  0  0  0  0
 28 51  1  0  0  0  0
 29 30  1  0  0  0  0
 29 52  1  0  0  0  0
M  END
> <s_m_source_file>
AV-unprocessed.smi

> <i_m_source_file_index>
140

> <i_lp_mmshare_version>
43012

> <i_f3d_flags>
0

> <s_epik_input>
czFbY0hdW2NIXVtjSF1jMVtDSDJdbjJjKFtDSDNdKWMoW2NIXWMyW0NIM10pQyg9TylbQ0gyXW4zYyg9TyljKEYpW2NIXW4oYzM9TylbQ0BASF00W0NIMl1bQ0gyXVtDSDJdTzQ=

> <s_epik_cmdline>
J2VwaWtfcHl0aG9uJywgJy1waCcsICc3LjAnLCAnLXRuJywgJzgnLCAnLW1hJywgJzIwMCcsICctbWV0YWxfYmluZGluZycsICctaW1hZScsICc8aW5maWxlLm1hZT4nLCAnLW9tYWUnLCAnPG91dGZpbGUubWFlPic=

> <r_lp_tautomer_probability>
1

> <r_epik_Ionization_Penalty>
5.024e-09

> <r_epik_Ionization_Penalty_Charging>
5.01743e-09

> <r_epik_Ionization_Penalty_Neutral>
6.5712e-12

> <r_epik_State_Penalty>
-0

> <r_epik_Charging_Adjusted_Penalty>
5.01743e-09

> <i_epik_Tot_Q>
0

> <i_epik_Tot_abs_Q>
0

> <r_epik_Metal_State_Penalty>
-0

> <b_epik_Metal_Only>
0

> <s_epik_Chemistry_Notes>
This compound contains an acetal/aminal-like group ( X-CH(R)-Y where X, Y are N, S, or O) that may be acid/base labile, releasing an aldehyde.

> <s_lp_Force_Field>
OPLS_2005

> <r_lp_Energy>
39.7817

> <b_lp_Chiralities_Consistent>
1

> <s_lp_Variant>
AV-unprocessed.smi:140-1

> <Gold.Version>
5.8.1

> <Gold.Id.Protein>
6NUR|6NUR_protein|mol2

> <Gold.PLP.Fitness>
51.5854

> <Gold.PLP.PLP>
-49.3627

> <Gold.PLP.part.hbond>
-2.0000

> <Gold.PLP.part.metal>
0.0000

> <Gold.PLP.part.buried>
-2.9494

> <Gold.PLP.part.nonpolar>
-44.6918

> <Gold.PLP.part.repulsive>
0.0659

> <Gold.PLP.ligand.clash>
0.0000

> <Gold.PLP.ligand.torsion>
0.9359

> <Gold.PLP.Chemscore.Hbond>
1.0000

> <Gold.PLP.Chemscore.CHOScore>
0.3243

> <Gold.PLP.Chemscore.Metal>
0.0000

> <Gold.Chemscore.Hbonds>
donor molecule, donor type, donor heavy atom, donor atom, acceptor molecule, acceptor atom, score
      P1  H  7997  8009       L1    21  0.42
      L1  C    29    52       P1  7948  0.62

> <Gold.PLP.Chemscore.Internal.Correction>
0.1215

> <Gold.Rescore>
     Score         DG    S(hbond)    S(metal)    S(lipo)     H(rot)  DE(clash)    DE(int)     intcor
      9.61     -14.69       0.98        0.00      91.83       1.87       0.07       5.02       ----

> <Gold.Chemscore.Fitness>
9.6106

> <Gold.Chemscore.DG>
-14.6944

> <Gold.Chemscore.ZeroCoef>
-5.4800

> <Gold.Chemscore.Hbond>
0.9762

> <Gold.Chemscore.Metal>
0.0000

> <Gold.Chemscore.Lipo>
91.8321

> <Gold.Chemscore.Internal_Hbond>
0.0000

> <Gold.Chemscore.DEClash>
0.0663

> <Gold.Chemscore.DEInternal>
5.0175

> <Gold.Chemscore.Rot>
1.8713

> <Gold.Chemscore.Internal.Correction>
   9.000000E+99

> <Gold.Chemscore.Hbonds>
donor molecule, donor type, donor heavy atom, donor atom, acceptor molecule, acceptor atom, score
      P1  H  7997  8009       L1    21  0.40

> <Gold.Chemscore.Hbond.Weighted>
-3.2605

> <Gold.Chemscore.Metal.Weighted>
-0.0000

> <Gold.Chemscore.Lipo.Weighted>
-10.7444

> <Gold.Chemscore.Internal_Hbond.Weighted>
0.0000

> <Gold.Chemscore.DEClash.Weighted>
0.0663

> <Gold.Chemscore.DEInternal.Weighted>
5.0175

> <Gold.Chemscore.Rot.Weighted>
4.7905

> <Gold.Chemscore.Internal.Correction.Weighted>
   9.000000E+99

> <Gold.Protein.RotatedTorsions>
[ 6907 6896 6895 6894 ] final  -88.43 input  -60.11 | X-H torsion
[ 7974 7965 7964 7962 ] final   33.78 input  175.53 | X-H torsion
[ 8008 7997 7996 7995 ] final  153.63 input   59.86 | X-H torsion
[ 10167 10162 10161 10158 ] final  170.16 input  -65.29 | X-H torsion
[ 10718 10713 10712 10709 ] final  122.71 input   66.30 | X-H torsion
[ 10763 10752 10751 10750 ] final   32.39 input  -60.55 | X-H torsion
[ 11005 11000 10999 10996 ] final  -89.71 input  -57.11 | X-H torsion

> <Gold.Protein.ActiveResidues>
 VAL166  LYS551  ARG553  GLY616  TRP617  ASP618  TYR619  PRO620  LYS621  CYS622 
 ASP623  PHE694  ASN695  SER759  ASP760  ASP761  ALA762  ILE779  LEU786  VAL792 
 PHE793  MET794  SER795  GLU796  ALA797  LYS798  CYS799  TRP800  GLU811  SER814 

> <Gold.Protein.RotatedAtoms>
  150.6869  134.2743  159.4600 H   0  0  0  0  0  0  0  0  0  0  0  0  # atno 6907 bound_to 6896
  152.0662  134.9560  160.0584 H   0  0  0  0  0  0  0  0  0  0  0  0  # atno 6908 bound_to 6896
  152.0968  133.4194  159.4605 H   0  0  0  0  0  0  0  0  0  0  0  0  # atno 6909 bound_to 6896
  146.1398  139.6353  142.9171 H   0  0  0  0  0  0  0  0  0  0  0  0  # atno 7974 bound_to 7965
  156.2572  140.1988  156.6521 H   0  0  0  0  0  0  0  0  0  0  0  0  # atno 8008 bound_to 7997
  154.6529  140.0570  157.0001 H   0  0  0  0  0  0  0  0  0  0  0  0  # atno 8009 bound_to 7997
  155.1391  140.3241  155.4459 H   0  0  0  0  0  0  0  0  0  0  0  0  # atno 8010 bound_to 7997
  139.5011  144.3627  151.9808 H   0  0  0  0  0  0  0  0  0  0  0  0  # atno 10167 bound_to 10162
  157.5722  131.1082  150.8346 H   0  0  0  0  0  0  0  0  0  0  0  0  # atno 10718 bound_to 10713
  153.0265  135.6414  154.1348 H   0  0  0  0  0  0  0  0  0  0  0  0  # atno 10763 bound_to 10752
  154.1076  135.2855  155.3239 H   0  0  0  0  0  0  0  0  0  0  0  0  # atno 10764 bound_to 10752
  154.6354  135.5478  153.7791 H   0  0  0  0  0  0  0  0  0  0  0  0  # atno 10765 bound_to 10752
  141.1580  133.7647  156.9633 H   0  0  0  0  0  0  0  0  0  0  0  0  # atno 11005 bound_to 11000
  145.5073  141.0436  143.2507 LP  0  0  0  0  0  0  0  0  0  0  0  0  # atno 17320 bound_to 7965
  144.7779  139.6589  143.7167 LP  0  0  0  0  0  0  0  0  0  0  0  0  # atno 17321 bound_to 7965
  140.3063  144.3589  150.6046 LP  0  0  0  0  0  0  0  0  0  0  0  0  # atno 17342 bound_to 10162
  140.5834  143.2171  151.7387 LP  0  0  0  0  0  0  0  0  0  0  0  0  # atno 17343 bound_to 10162
  156.8815  130.5181  149.5290 LP  0  0  0  0  0  0  0  0  0  0  0  0  # atno 17370 bound_to 10713
  156.0767  130.5787  150.9486 LP  0  0  0  0  0  0  0  0  0  0  0  0  # atno 17371 bound_to 10713
  140.1178  134.9436  157.2160 LP  0  0  0  0  0  0  0  0  0  0  0  0  # atno 17394 bound_to 11000
  140.3111  134.3023  155.7267 LP  0  0  0  0  0  0  0  0  0  0  0  0  # atno 17395 bound_to 11000

$$$$
