AV-unprocessed.smi:173|AV-procd|sdf|1424|dock8
  -GOLD-   2262019193D 1   1.00000     0.00000
 Structure written by MMmdl.
 60 64  0  0  0  0  0  0  0  0  1 V2000
  147.7815  132.9676  152.1173 O   0  0  0  0  0  0  0  0  0  0  0  0
  146.4706  132.6223  152.5277 C   0  0  0  0  0  0  0  0  0  0  0  0
  146.5428  132.5032  154.0715 C   0  0  0  0  0  0  0  0  0  0  0  0
  146.9868  133.7118  154.7479 N   0  0  0  0  0  0  0  0  0  0  0  0
  146.4535  134.9739  154.6142 C   0  0  0  0  0  0  0  0  0  0  0  0
  147.0266  135.8995  155.3330 N   0  0  0  0  0  0  0  0  0  0  0  0
  148.0414  135.2283  156.0051 C   0  0  0  0  0  0  0  0  0  0  0  0
  149.0366  135.6124  156.9484 C   0  0  0  0  0  0  0  0  0  0  0  0
  149.2025  136.8676  157.4284 N   0  0  0  0  0  0  0  0  0  0  0  0
  149.3235  136.9310  158.8856 C   0  0  0  0  0  0  0  0  0  0  0  0
  148.0127  136.5948  159.6152 C   0  0  1  0  0  0  0  0  0  0  0  0
  147.9619  135.1607  160.1327 C   0  0  0  0  0  0  0  0  0  0  0  0
  146.8833  135.2340  161.1958 C   0  0  0  0  0  0  0  0  0  0  0  0
  146.9482  136.6885  161.6698 C   0  0  0  0  0  0  0  0  0  0  0  0
  147.8900  137.3361  160.8207 O   0  0  0  0  0  0  0  0  0  0  0  0
  149.9953  137.8025  156.6152 C   0  0  0  0  0  0  0  0  0  0  0  0
  149.5582  137.9958  155.1567 C   0  0  0  0  0  0  0  0  0  0  0  0
  150.7362  138.7428  154.5258 C   0  0  0  0  0  0  0  0  0  0  0  0
  151.9836  138.3148  155.3181 C   0  0  0  0  0  0  0  0  0  0  0  0
  151.4835  137.4578  156.4890 C   0  0  0  0  0  0  0  0  0  0  0  0
  149.8952  134.6582  157.3880 N   0  0  0  0  0  0  0  0  0  0  0  0
  149.7815  133.4012  156.9492 C   0  0  0  0  0  0  0  0  0  0  0  0
  148.8991  132.8951  156.0852 N   0  0  0  0  0  0  0  0  0  0  0  0
  148.0388  133.8538  155.6360 C   0  0  0  0  0  0  0  0  0  0  0  0
  145.5064  133.7322  152.0546 C   0  0  0  0  0  0  0  0  0  0  0  0
  145.3798  133.7677  150.5206 C   0  0  0  0  0  0  0  0  0  0  0  0
  144.9732  132.4934  150.0358 O   0  0  0  0  0  0  0  0  0  0  0  0
  145.9212  131.4696  150.3151 C   0  0  0  0  0  0  0  0  0  0  0  0
  146.0769  131.2986  151.8367 C   0  0  0  0  0  0  0  0  0  0  0  0
  148.1696  132.2187  151.6909 H   0  0  0  0  0  0  0  0  0  0  0  0
  145.5660  132.2310  154.4747 H   0  0  0  0  0  0  0  0  0  0  0  0
  147.2209  131.6956  154.3526 H   0  0  0  0  0  0  0  0  0  0  0  0
  145.6135  135.1857  153.9685 H   0  0  0  0  0  0  0  0  0  0  0  0
  150.0807  136.2111  159.2017 H   0  0  0  0  0  0  0  0  0  0  0  0
  149.6845  137.9126  159.1939 H   0  0  0  0  0  0  0  0  0  0  0  0
  147.1491  136.7840  158.9743 H   0  0  0  0  0  0  0  0  0  0  0  0
  147.7416  134.4327  159.3516 H   0  0  0  0  0  0  0  0  0  0  0  0
  148.9146  134.8907  160.5907 H   0  0  0  0  0  0  0  0  0  0  0  0
  145.9064  135.0282  160.7567 H   0  0  0  0  0  0  0  0  0  0  0  0
  147.0475  134.5195  162.0028 H   0  0  0  0  0  0  0  0  0  0  0  0
  145.9736  137.1696  161.5814 H   0  0  0  0  0  0  0  0  0  0  0  0
  147.2732  136.7662  162.7074 H   0  0  0  0  0  0  0  0  0  0  0  0
  149.9185  138.7819  157.0867 H   0  0  0  0  0  0  0  0  0  0  0  0
  149.4459  137.0405  154.6427 H   0  0  0  0  0  0  0  0  0  0  0  0
  148.6178  138.5400  155.0659 H   0  0  0  0  0  0  0  0  0  0  0  0
  150.8292  138.5288  153.4607 H   0  0  0  0  0  0  0  0  0  0  0  0
  150.5880  139.8184  154.6309 H   0  0  0  0  0  0  0  0  0  0  0  0
  152.6814  137.7527  154.6964 H   0  0  0  0  0  0  0  0  0  0  0  0
  152.5120  139.1955  155.6853 H   0  0  0  0  0  0  0  0  0  0  0  0
  152.0373  137.6472  157.4091 H   0  0  0  0  0  0  0  0  0  0  0  0
  151.6123  136.4062  156.2350 H   0  0  0  0  0  0  0  0  0  0  0  0
  150.4994  132.7005  157.3494 H   0  0  0  0  0  0  0  0  0  0  0  0
  144.5116  133.5594  152.4642 H   0  0  0  0  0  0  0  0  0  0  0  0
  145.8282  134.7053  152.4278 H   0  0  0  0  0  0  0  0  0  0  0  0
  144.6347  134.5071  150.2266 H   0  0  0  0  0  0  0  0  0  0  0  0
  146.3194  134.0648  150.0525 H   0  0  0  0  0  0  0  0  0  0  0  0
  145.5707  130.5381  149.8705 H   0  0  0  0  0  0  0  0  0  0  0  0
  146.8767  131.7034  149.8434 H   0  0  0  0  0  0  0  0  0  0  0  0
  146.8071  130.5185  152.0555 H   0  0  0  0  0  0  0  0  0  0  0  0
  145.1231  130.9455  152.2280 H   0  0  0  0  0  0  0  0  0  0  0  0
  1  2  1  0  0  0  0
  1 30  1  0  0  0  0
  2 29  1  0  0  0  0
  2  3  1  0  0  0  0
  2 25  1  0  0  0  0
  3  4  1  0  0  0  0
  3 31  1  0  0  0  0
  3 32  1  0  0  0  0
  4 24  1  0  0  0  0
  4  5  1  0  0  0  0
  5  6  2  0  0  0  0
  5 33  1  0  0  0  0
  6  7  1  0  0  0  0
  7 24  2  0  0  0  0
  7  8  1  0  0  0  0
  8  9  1  0  0  0  0
  8 21  2  0  0  0  0
  9 10  1  0  0  0  0
  9 16  1  0  0  0  0
 10 11  1  0  0  0  0
 10 34  1  0  0  0  0
 10 35  1  0  0  0  0
 11 15  1  0  0  0  0
 11 12  1  0  0  0  0
 11 36  1  0  0  0  0
 12 13  1  0  0  0  0
 12 37  1  0  0  0  0
 12 38  1  0  0  0  0
 13 14  1  0  0  0  0
 13 39  1  0  0  0  0
 13 40  1  0  0  0  0
 14 15  1  0  0  0  0
 14 41  1  0  0  0  0
 14 42  1  0  0  0  0
 16 20  1  0  0  0  0
 16 17  1  0  0  0  0
 16 43  1  0  0  0  0
 17 18  1  0  0  0  0
 17 44  1  0  0  0  0
 17 45  1  0  0  0  0
 18 19  1  0  0  0  0
 18 46  1  0  0  0  0
 18 47  1  0  0  0  0
 19 20  1  0  0  0  0
 19 48  1  0  0  0  0
 19 49  1  0  0  0  0
 20 50  1  0  0  0  0
 20 51  1  0  0  0  0
 21 22  1  0  0  0  0
 22 23  2  0  0  0  0
 22 52  1  0  0  0  0
 23 24  1  0  0  0  0
 25 26  1  0  0  0  0
 25 53  1  0  0  0  0
 25 54  1  0  0  0  0
 26 27  1  0  0  0  0
 26 55  1  0  0  0  0
 26 56  1  0  0  0  0
 27 28  1  0  0  0  0
 28 29  1  0  0  0  0
 28 57  1  0  0  0  0
 28 58  1  0  0  0  0
 29 59  1  0  0  0  0
 29 60  1  0  0  0  0
M  END
> <s_m_source_file>
AV-unprocessed.smi

> <i_m_source_file_index>
173

> <i_lp_mmshare_version>
43012

> <i_f3d_flags>
0

> <s_epik_input>
W0NIMl0xW0NIMl1PW0NIMl1bQ0gyXUMxKFtPSF0pW0NIMl1uKFtjSF1uMiljKGMyMyluW2NIXW5jM04oW0NIMl1bQ0BASF00W0NIMl1bQ0gyXVtDSDJdTzQpW0NIXTVbQ0gyXVtDSDJdW0NIMl1bQ0gyXTU=

> <s_epik_cmdline>
J2VwaWtfcHl0aG9uJywgJy1waCcsICc3LjAnLCAnLXRuJywgJzgnLCAnLW1hJywgJzIwMCcsICctbWV0YWxfYmluZGluZycsICctaW1hZScsICc8aW5maWxlLm1hZT4nLCAnLW9tYWUnLCAnPG91dGZpbGUubWFlPic=

> <r_lp_tautomer_probability>
1

> <r_epik_Ionization_Penalty>
0.0053129

> <r_epik_Ionization_Penalty_Charging>
0

> <r_epik_Ionization_Penalty_Neutral>
0.0053129

> <r_epik_State_Penalty>
0.00367355

> <r_epik_Charging_Adjusted_Penalty>
0.00367355

> <i_epik_Tot_Q>
0

> <i_epik_Tot_abs_Q>
0

> <r_epik_Metal_State_Penalty>
-0

> <b_epik_Metal_Only>
0

> <s_lp_Force_Field>
OPLS_2005

> <r_lp_Energy>
59.0129

> <b_lp_Chiralities_Consistent>
1

> <s_lp_Variant>
AV-unprocessed.smi:173-2

> <Gold.Version>
5.8.1

> <Gold.Id.Protein>
6NUR|6NUR_protein|mol2

> <Gold.PLP.Fitness>
41.2390

> <Gold.PLP.PLP>
-33.2342

> <Gold.PLP.part.hbond>
-4.0000

> <Gold.PLP.part.metal>
0.0000

> <Gold.PLP.part.buried>
-5.2240

> <Gold.PLP.part.nonpolar>
-25.1321

> <Gold.PLP.part.repulsive>
0.2068

> <Gold.PLP.ligand.clash>
0.0563

> <Gold.PLP.ligand.torsion>
1.3840

> <Gold.PLP.Chemscore.Hbond>
3.2283

> <Gold.PLP.Chemscore.CHOScore>
0.0000

> <Gold.PLP.Chemscore.Metal>
0.0000

> <Gold.Chemscore.Hbonds>
donor molecule, donor type, donor heavy atom, donor atom, acceptor molecule, acceptor atom, score
      L1  H     1    30       P1 10747  0.78
      P1  H  6896  6907       L1    21  0.43
      P1  H  6931  6943       L1    15  0.80
      P1  H  6934  6947       L1    15  0.71

> <Gold.PLP.Chemscore.Internal.Correction>
1.1443

> <Gold.Rescore>
     Score         DG    S(hbond)    S(metal)    S(lipo)     H(rot)  DE(clash)    DE(int)     intcor
     15.68     -18.52       2.71        0.00      90.69       2.59       0.21       2.63       ----

> <Gold.Chemscore.Fitness>
15.6793

> <Gold.Chemscore.DG>
-18.5152

> <Gold.Chemscore.ZeroCoef>
-5.4800

> <Gold.Chemscore.Hbond>
2.7124

> <Gold.Chemscore.Metal>
0.0000

> <Gold.Chemscore.Lipo>
90.6856

> <Gold.Chemscore.Internal_Hbond>
0.0000

> <Gold.Chemscore.DEClash>
0.2101

> <Gold.Chemscore.DEInternal>
2.6258

> <Gold.Chemscore.Rot>
2.5916

> <Gold.Chemscore.Internal.Correction>
   9.000000E+99

> <Gold.Chemscore.Hbonds>
donor molecule, donor type, donor heavy atom, donor atom, acceptor molecule, acceptor atom, score
      L1  H     1    30       P1 10747  0.79
      P1  H  6896  6907       L1    21  0.05
      P1  H  6931  6943       L1    15  0.48
      P1  H  6934  6947       L1    15  0.14

> <Gold.Chemscore.Hbond.Weighted>
-9.0596

> <Gold.Chemscore.Metal.Weighted>
-0.0000

> <Gold.Chemscore.Lipo.Weighted>
-10.6102

> <Gold.Chemscore.Internal_Hbond.Weighted>
0.0000

> <Gold.Chemscore.DEClash.Weighted>
0.2101

> <Gold.Chemscore.DEInternal.Weighted>
2.6258

> <Gold.Chemscore.Rot.Weighted>
6.6346

> <Gold.Chemscore.Internal.Correction.Weighted>
   9.000000E+99

> <Gold.Protein.RotatedTorsions>
[ 6907 6896 6895 6894 ] final -101.23 input  -60.11 | X-H torsion
[ 7974 7965 7964 7962 ] final   61.22 input  175.53 | X-H torsion
[ 8008 7997 7996 7995 ] final  -36.94 input   59.86 | X-H torsion
[ 10167 10162 10161 10158 ] final -167.77 input  -65.29 | X-H torsion
[ 10718 10713 10712 10709 ] final    3.98 input   66.30 | X-H torsion
[ 10763 10752 10751 10750 ] final   39.04 input  -60.55 | X-H torsion
[ 11005 11000 10999 10996 ] final   72.40 input  -57.11 | X-H torsion

> <Gold.Protein.ActiveResidues>
 VAL166  LYS551  ARG553  GLY616  TRP617  ASP618  TYR619  PRO620  LYS621  CYS622 
 ASP623  PHE694  ASN695  SER759  ASP760  ASP761  ALA762  ILE779  LEU786  VAL792 
 PHE793  MET794  SER795  GLU796  ALA797  LYS798  CYS799  TRP800  GLU811  SER814 

> <Gold.Protein.RotatedAtoms>
  150.7146  134.0765  159.3882 H   0  0  0  0  0  0  0  0  0  0  0  0  # atno 6907 bound_to 6896
  151.8749  135.0473  160.0492 H   0  0  0  0  0  0  0  0  0  0  0  0  # atno 6908 bound_to 6896
  152.2614  133.5265  159.5420 H   0  0  0  0  0  0  0  0  0  0  0  0  # atno 6909 bound_to 6896
  145.8872  139.3485  143.0671 H   0  0  0  0  0  0  0  0  0  0  0  0  # atno 7974 bound_to 7965
  154.4063  140.1617  156.2456 H   0  0  0  0  0  0  0  0  0  0  0  0  # atno 8008 bound_to 7997
  155.9163  140.3424  155.6115 H   0  0  0  0  0  0  0  0  0  0  0  0  # atno 8009 bound_to 7997
  155.7276  140.0776  157.2294 H   0  0  0  0  0  0  0  0  0  0  0  0  # atno 8010 bound_to 7997
  139.6028  144.0976  152.1761 H   0  0  0  0  0  0  0  0  0  0  0  0  # atno 10167 bound_to 10162
  156.8859  130.5670  149.5651 H   0  0  0  0  0  0  0  0  0  0  0  0  # atno 10718 bound_to 10713
  152.9980  135.6232  154.2402 H   0  0  0  0  0  0  0  0  0  0  0  0  # atno 10763 bound_to 10752
  154.2142  135.2798  155.2949 H   0  0  0  0  0  0  0  0  0  0  0  0  # atno 10764 bound_to 10752
  154.5581  135.5713  153.7041 H   0  0  0  0  0  0  0  0  0  0  0  0  # atno 10765 bound_to 10752
  139.9493  134.7256  156.0903 H   0  0  0  0  0  0  0  0  0  0  0  0  # atno 11005 bound_to 11000
  145.8952  140.9278  143.0531 LP  0  0  0  0  0  0  0  0  0  0  0  0  # atno 17320 bound_to 7965
  144.6729  140.0959  143.7463 LP  0  0  0  0  0  0  0  0  0  0  0  0  # atno 17321 bound_to 7965
  140.0576  144.5883  150.7288 LP  0  0  0  0  0  0  0  0  0  0  0  0  # atno 17342 bound_to 10162
  140.7262  143.2639  151.4111 LP  0  0  0  0  0  0  0  0  0  0  0  0  # atno 17343 bound_to 10162
  156.0654  130.5698  150.9277 LP  0  0  0  0  0  0  0  0  0  0  0  0  # atno 17370 bound_to 10713
  157.6113  131.0936  150.8790 LP  0  0  0  0  0  0  0  0  0  0  0  0  # atno 17371 bound_to 10713
  141.1151  133.6630  156.3075 LP  0  0  0  0  0  0  0  0  0  0  0  0  # atno 17394 bound_to 11000
  140.5759  134.5794  157.5468 LP  0  0  0  0  0  0  0  0  0  0  0  0  # atno 17395 bound_to 11000

$$$$
