#       Name:                AV-unprocessed.smi:1872
#       Creating user name   scv26
#       Creation time:       Fri Mar 27 09:32:35 2020


#       File generated by GOLD software.
#

@<TRIPOS>MOLECULE
AV-unprocessed.smi:1872
    44    46     1
SMALL
NO_CHARGES


@<TRIPOS>ATOM
      1 ****        -1.4826   1.7635  -3.0062 C.3            1 S1                 0.0000
      2 ****        -1.6442   2.2412  -1.6021 C.2            1 S1                 0.0000
      3 ****        -2.1564   3.4438  -1.2168 N.pl3          1 S1                 1.0000
      4 ****        -2.1496   3.5355   0.1758 C.ar           1 S1                 0.0000
      5 ****        -2.5668   4.5576   1.0230 C.ar           1 S1                 0.0000
      6 ****        -2.4186   4.3321   2.4073 C.ar           1 S1                 0.0000
      7 ****        -1.8730   3.1293   2.9007 C.ar           1 S1                 0.0000
      8 ****        -1.4543   2.1001   2.0320 C.ar           1 S1                 0.0000
      9 ****        -1.6064   2.3293   0.6645 C.ar           1 S1                 0.0000
     10 ****        -1.3118   1.5607  -0.4685 N.pl3          1 S1                 0.0000
     11 ****        -0.7278   0.2191  -0.3118 C.3            1 S1                 0.0000
     12 ****         0.8090   0.2126  -0.4325 C.3            1 S1                 0.0000
     13 ****         1.3801   1.0613   0.5446 O.3            1 S1                 0.0000
     14 ****         1.3552  -1.2048  -0.3626 C.ar           1 S1                 0.0000
     15 ****         1.6204  -1.9135  -1.5527 C.ar           1 S1                 0.0000
     16 ****         2.1103  -3.2324  -1.4999 C.ar           1 S1                 0.0000
     17 ****         2.3341  -3.8666  -0.2614 C.ar           1 S1                 0.0000
     18 ****         2.8246  -5.1529  -0.2777 O.3            1 S1                 0.0000
     19 ****         2.5240  -5.9951   0.7467 C.3            1 S1                 0.0000
     20 ****         2.4873  -7.2716   0.2943 F              1 S1                 0.0000
     21 ****         3.4767  -5.9294   1.7091 F              1 S1                 0.0000
     22 ****         2.0766  -3.1511   0.9325 C.ar           1 S1                 0.0000
     23 ****         1.5853  -1.8323   0.8807 C.ar           1 S1                 0.0000
     24 ****        -1.7951   2.5332  -3.7122 H              1 S1                 0.0000
     25 ****        -2.0891   0.8730  -3.1723 H              1 S1                 0.0000
     26 ****        -0.4392   1.5168  -3.2027 H              1 S1                 0.0000
     27 ****        -2.9836   5.4807   0.6471 H              1 S1                 0.0000
     28 ****        -2.7279   5.0975   3.1044 H              1 S1                 0.0000
     29 ****        -1.7719   2.9931   3.9677 H              1 S1                 0.0000
     30 ****        -1.0319   1.1861   2.4220 H              1 S1                 0.0000
     31 ****        -1.0529  -0.2088   0.6365 H              1 S1                 0.0000
     32 ****        -1.1615  -0.4108  -1.0896 H              1 S1                 0.0000
     33 ****         1.0862   0.6315  -1.4008 H              1 S1                 0.0000
     34 ****         2.3116   1.1086   0.3913 H              1 S1                 0.0000
     35 ****         1.4467  -1.4491  -2.5125 H              1 S1                 0.0000
     36 ****         2.3111  -3.7642  -2.4184 H              1 S1                 0.0000
     37 ****         1.5507  -5.7691   1.1830 H              1 S1                 0.0000
     38 ****         2.2545  -3.6010   1.8979 H              1 S1                 0.0000
     39 ****         1.3857  -1.3053   1.8022 H              1 S1                 0.0000
     40 ****        -2.4865   4.1499  -1.8622 H              1 S1                 0.0000
     41 ****         1.2064   0.6907   1.4570 LP             1 S1                 0.0000
     42 ****         0.9795   1.9749   0.4742 LP             1 S1                 0.0000
     43 ****         3.8215  -5.0840  -0.3152 LP             1 S1                 0.0000
     44 ****         2.4884  -5.5822  -1.1160 LP             1 S1                 0.0000
@<TRIPOS>BOND
    1    1    2 1     
    2    1   24 1     
    3    1   25 1     
    4    1   26 1     
    5    2   10 1     
    6    2    3 2     
    7    3    4 1     
    8    3   40 1     
    9    4    9 ar    
   10    4    5 ar    
   11    5    6 ar    
   12    5   27 1     
   13    6    7 ar    
   14    6   28 1     
   15    7    8 ar    
   16    7   29 1     
   17    8    9 ar    
   18    8   30 1     
   19    9   10 1     
   20   10   11 1     
   21   11   12 1     
   22   11   31 1     
   23   11   32 1     
   24   12   13 1     
   25   12   14 1     
   26   12   33 1     
   27   13   34 1     
   28   14   23 ar    
   29   14   15 ar    
   30   15   16 ar    
   31   15   35 1     
   32   16   17 ar    
   33   16   36 1     
   34   17   18 1     
   35   17   22 ar    
   36   18   19 1     
   37   19   20 1     
   38   19   21 1     
   39   19   37 1     
   40   22   23 ar    
   41   22   38 1     
   42   23   39 1     
   43   13   41 1     
   44   13   42 1     
   45   18   43 1     
   46   18   44 1     
@<TRIPOS>SUBSTRUCTURE
      1 S1             1
@<TRIPOS>SET
LONE_PAIRS      STATIC     ATOMS    <user>   **** ""
4 41 42 43 44
DONOR_HYDROGENS      STATIC     ATOMS    <user>   **** ""
2 40 34
ATOM$BLUE        STATIC     ATOMS    COLORGROUP SYSTEM
4 41 42 43 44
ATOM$RED        STATIC     ATOMS    COLORGROUP SYSTEM
2 40 34
