AV-unprocessed.smi:946|AV-procd|sdf|4236|dock3
  -GOLD-   22720 2143D 1   1.00000     0.00000
 Structure written by MMmdl.
 42 43  0  0  0  0  0  0  0  0  1 V2000
  149.6435  137.5005  156.0740 C   0  0  0  0  0  0  0  0  0  0  0  0
  150.1152  137.5700  157.5335 C   0  0  2  0  0  0  0  0  0  0  0  0
  149.0409  137.1114  158.3487 O   0  0  0  0  0  0  0  0  0  0  0  0
  149.2492  137.2176  159.7520 C   0  0  0  0  0  0  0  0  0  0  0  0
  148.0843  136.5248  160.4710 C   0  0  1  0  0  0  0  0  0  0  0  0
  148.0774  135.0028  160.2290 C   0  0  0  0  0  0  0  0  0  0  0  0
  146.9536  134.3361  161.0311 C   0  0  0  0  0  0  0  0  0  0  0  0
  147.0646  134.7342  162.5065 C   0  0  0  0  0  0  0  0  0  0  0  0
  147.1399  136.2633  162.6431 C   0  0  0  0  0  0  0  0  0  0  0  0
  148.2246  136.7665  161.8696 O   0  0  0  0  0  0  0  0  0  0  0  0
  150.5031  139.0053  157.9227 C   0  0  0  0  0  0  0  0  0  0  0  0
  149.7505  139.9374  157.6375 O   0  0  0  0  0  0  0  0  0  0  0  0
  151.6709  139.1379  158.5797 N   0  0  0  0  0  0  0  0  0  0  0  0
  152.2854  140.3284  159.0500 C   0  0  0  0  0  0  0  0  0  0  0  0
  153.4222  140.1346  159.8652 C   0  0  0  0  0  0  0  0  0  0  0  0
  154.1052  141.2540  160.3774 C   0  0  0  0  0  0  0  0  0  0  0  0
  153.6337  142.5406  160.0623 C   0  0  0  0  0  0  0  0  0  0  0  0
  152.4898  142.6517  159.2433 C   0  0  0  0  0  0  0  0  0  0  0  0
  151.9125  144.0061  158.8565 C   0  0  0  0  0  0  0  0  0  0  0  0
  151.6314  144.7474  159.9290 F   0  0  0  0  0  0  0  0  0  0  0  0
  152.7893  144.6701  158.1032 F   0  0  0  0  0  0  0  0  0  0  0  0
  150.7900  143.8328  158.1582 F   0  0  0  0  0  0  0  0  0  0  0  0
  151.8377  141.5731  158.7536 N   0  0  0  0  0  0  0  0  0  0  0  0
  150.4220  137.8395  155.3895 H   0  0  0  0  0  0  0  0  0  0  0  0
  148.7584  138.1159  155.9076 H   0  0  0  0  0  0  0  0  0  0  0  0
  149.3871  136.4770  155.7996 H   0  0  0  0  0  0  0  0  0  0  0  0
  150.9720  136.9036  157.6508 H   0  0  0  0  0  0  0  0  0  0  0  0
  150.1873  136.7217  160.0055 H   0  0  0  0  0  0  0  0  0  0  0  0
  149.3291  138.2555  160.0776 H   0  0  0  0  0  0  0  0  0  0  0  0
  147.1442  136.9509  160.1154 H   0  0  0  0  0  0  0  0  0  0  0  0
  147.9533  134.7880  159.1670 H   0  0  0  0  0  0  0  0  0  0  0  0
  149.0380  134.5784  160.5241 H   0  0  0  0  0  0  0  0  0  0  0  0
  145.9858  134.6502  160.6380 H   0  0  0  0  0  0  0  0  0  0  0  0
  146.9990  133.2520  160.9244 H   0  0  0  0  0  0  0  0  0  0  0  0
  146.2144  134.3458  163.0678 H   0  0  0  0  0  0  0  0  0  0  0  0
  147.9586  134.2856  162.9415 H   0  0  0  0  0  0  0  0  0  0  0  0
  146.2061  136.7299  162.3259 H   0  0  0  0  0  0  0  0  0  0  0  0
  147.2946  136.5387  163.6864 H   0  0  0  0  0  0  0  0  0  0  0  0
  152.1852  138.2864  158.7505 H   0  0  0  0  0  0  0  0  0  0  0  0
  153.7734  139.1394  160.0962 H   0  0  0  0  0  0  0  0  0  0  0  0
  154.9779  141.1268  161.0010 H   0  0  0  0  0  0  0  0  0  0  0  0
  154.1429  143.4135  160.4430 H   0  0  0  0  0  0  0  0  0  0  0  0
  1  2  1  0  0  0  0
  1 24  1  0  0  0  0
  1 25  1  0  0  0  0
  1 26  1  0  0  0  0
  2  3  1  0  0  0  0
  2 11  1  0  0  0  0
  2 27  1  0  0  0  0
  3  4  1  0  0  0  0
  4  5  1  0  0  0  0
  4 28  1  0  0  0  0
  4 29  1  0  0  0  0
  5 10  1  0  0  0  0
  5  6  1  0  0  0  0
  5 30  1  0  0  0  0
  6  7  1  0  0  0  0
  6 31  1  0  0  0  0
  6 32  1  0  0  0  0
  7  8  1  0  0  0  0
  7 33  1  0  0  0  0
  7 34  1  0  0  0  0
  8  9  1  0  0  0  0
  8 35  1  0  0  0  0
  8 36  1  0  0  0  0
  9 10  1  0  0  0  0
  9 37  1  0  0  0  0
  9 38  1  0  0  0  0
 11 12  2  0  0  0  0
 11 13  1  0  0  0  0
 13 14  1  0  0  0  0
 13 39  1  0  0  0  0
 14 23  1  0  0  0  0
 14 15  2  0  0  0  0
 15 16  1  0  0  0  0
 15 40  1  0  0  0  0
 16 17  2  0  0  0  0
 16 41  1  0  0  0  0
 17 18  1  0  0  0  0
 17 42  1  0  0  0  0
 18 19  1  0  0  0  0
 18 23  2  0  0  0  0
 19 20  1  0  0  0  0
 19 21  1  0  0  0  0
 19 22  1  0  0  0  0
M  END
> <s_m_source_file>
AV-unprocessed.smi

> <i_m_source_file_index>
946

> <i_lp_mmshare_version>
43012

> <i_f3d_flags>
0

> <s_epik_input>
TzFbQ0gyXVtDSDJdW0NIMl1bQ0gyXVtDQEhdMVtDSDJdT1tDQEBIXShbQ0gzXSlDKD1PKVtOSF1jMltjSF1bY0hdW2NIXWMobjIpQyhGKShGKUY=

> <s_epik_cmdline>
J2VwaWtfcHl0aG9uJywgJy1waCcsICc3LjAnLCAnLXRuJywgJzgnLCAnLW1hJywgJzIwMCcsICctbWV0YWxfYmluZGluZycsICctaW1hZScsICc8aW5maWxlLm1hZT4nLCAnLW9tYWUnLCAnPG91dGZpbGUubWFlPic=

> <r_lp_tautomer_probability>
1

> <r_epik_Ionization_Penalty>
1.32683e-06

> <r_epik_Ionization_Penalty_Charging>
0

> <r_epik_Ionization_Penalty_Neutral>
1.32683e-06

> <r_epik_State_Penalty>
-0

> <r_epik_Charging_Adjusted_Penalty>
0

> <i_epik_Tot_Q>
0

> <i_epik_Tot_abs_Q>
0

> <r_epik_Metal_State_Penalty>
-0

> <b_epik_Metal_Only>
0

> <s_lp_Force_Field>
OPLS_2005

> <r_lp_Energy>
15.6569

> <b_lp_Chiralities_Consistent>
1

> <s_lp_Variant>
AV-unprocessed.smi:946-3

> <Gold.Version>
5.8.1

> <Gold.Id.Protein>
6NUR|6NUR_protein|mol2

> <Gold.PLP.Fitness>
50.7355

> <Gold.PLP.PLP>
-48.4516

> <Gold.PLP.part.hbond>
-1.0000

> <Gold.PLP.part.metal>
0.0000

> <Gold.PLP.part.buried>
-5.1235

> <Gold.PLP.part.nonpolar>
-42.9363

> <Gold.PLP.part.repulsive>
0.1005

> <Gold.PLP.ligand.clash>
0.0000

> <Gold.PLP.ligand.torsion>
0.4088

> <Gold.PLP.Chemscore.Hbond>
1.0000

> <Gold.PLP.Chemscore.CHOScore>
0.0000

> <Gold.PLP.Chemscore.Metal>
0.0000

> <Gold.Chemscore.Hbonds>
donor molecule, donor type, donor heavy atom, donor atom, acceptor molecule, acceptor atom, score
      P1  H  6931  6943       L1    10  1.00

> <Gold.PLP.Chemscore.Internal.Correction>
0.1015

> <Gold.Rescore>
     Score         DG    S(hbond)    S(metal)    S(lipo)     H(rot)  DE(clash)    DE(int)     intcor
     14.20     -15.72       0.95        0.00      98.93       1.76       0.01       1.51       ----

> <Gold.Chemscore.Fitness>
14.1974

> <Gold.Chemscore.DG>
-15.7166

> <Gold.Chemscore.ZeroCoef>
-5.4800

> <Gold.Chemscore.Hbond>
0.9452

> <Gold.Chemscore.Metal>
0.0000

> <Gold.Chemscore.Lipo>
98.9252

> <Gold.Chemscore.Internal_Hbond>
0.0000

> <Gold.Chemscore.DEClash>
0.0130

> <Gold.Chemscore.DEInternal>
1.5062

> <Gold.Chemscore.Rot>
1.7557

> <Gold.Chemscore.Internal.Correction>
   9.000000E+99

> <Gold.Chemscore.Hbonds>
donor molecule, donor type, donor heavy atom, donor atom, acceptor molecule, acceptor atom, score
      P1  H  6931  6943       L1    10  0.40

> <Gold.Chemscore.Hbond.Weighted>
-3.1570

> <Gold.Chemscore.Metal.Weighted>
-0.0000

> <Gold.Chemscore.Lipo.Weighted>
-11.5743

> <Gold.Chemscore.Internal_Hbond.Weighted>
0.0000

> <Gold.Chemscore.DEClash.Weighted>
0.0130

> <Gold.Chemscore.DEInternal.Weighted>
1.5062

> <Gold.Chemscore.Rot.Weighted>
4.4946

> <Gold.Chemscore.Internal.Correction.Weighted>
   9.000000E+99

> <Gold.Protein.RotatedTorsions>
[ 6907 6896 6895 6894 ] final  -51.03 input  -60.11 | X-H torsion
[ 7974 7965 7964 7962 ] final   62.74 input  175.53 | X-H torsion
[ 8008 7997 7996 7995 ] final  112.75 input   59.86 | X-H torsion
[ 10167 10162 10161 10158 ] final  126.24 input  -65.29 | X-H torsion
[ 10718 10713 10712 10709 ] final -109.35 input   66.30 | X-H torsion
[ 10763 10752 10751 10750 ] final -157.52 input  -60.55 | X-H torsion
[ 11005 11000 10999 10996 ] final   37.22 input  -57.11 | X-H torsion

> <Gold.Protein.ActiveResidues>
 VAL166  LYS551  ARG553  GLY616  TRP617  ASP618  TYR619  PRO620  LYS621  CYS622 
 ASP623  PHE694  ASN695  SER759  ASP760  ASP761  ALA762  ILE779  LEU786  VAL792 
 PHE793  MET794  SER795  GLU796  ALA797  LYS798  CYS799  TRP800  GLU811  SER814 

> <Gold.Protein.RotatedAtoms>
  150.8651  134.8012  159.7111 H   0  0  0  0  0  0  0  0  0  0  0  0  # atno 6907 bound_to 6896
  152.4675  134.5037  159.9742 H   0  0  0  0  0  0  0  0  0  0  0  0  # atno 6908 bound_to 6896
  151.5135  133.3442  159.2924 H   0  0  0  0  0  0  0  0  0  0  0  0  # atno 6909 bound_to 6896
  145.8699  139.3371  143.0769 H   0  0  0  0  0  0  0  0  0  0  0  0  # atno 7974 bound_to 7965
  156.2213  140.2993  155.9959 H   0  0  0  0  0  0  0  0  0  0  0  0  # atno 8008 bound_to 7997
  155.2474  140.0424  157.2999 H   0  0  0  0  0  0  0  0  0  0  0  0  # atno 8009 bound_to 7997
  154.5845  140.2384  155.8015 H   0  0  0  0  0  0  0  0  0  0  0  0  # atno 8010 bound_to 7997
  139.5642  144.6901  151.3958 H   0  0  0  0  0  0  0  0  0  0  0  0  # atno 10167 bound_to 10162
  156.0533  130.5759  150.8088 H   0  0  0  0  0  0  0  0  0  0  0  0  # atno 10718 bound_to 10713
  154.7630  135.3123  154.8342 H   0  0  0  0  0  0  0  0  0  0  0  0  # atno 10763 bound_to 10752
  153.9098  135.6807  153.4755 H   0  0  0  0  0  0  0  0  0  0  0  0  # atno 10764 bound_to 10752
  153.1232  135.4813  154.9162 H   0  0  0  0  0  0  0  0  0  0  0  0  # atno 10765 bound_to 10752
  140.2247  134.3598  155.7989 H   0  0  0  0  0  0  0  0  0  0  0  0  # atno 11005 bound_to 11000
  145.9149  140.9155  143.0435 LP  0  0  0  0  0  0  0  0  0  0  0  0  # atno 17320 bound_to 7965
  144.6726  140.1210  143.7450 LP  0  0  0  0  0  0  0  0  0  0  0  0  # atno 17321 bound_to 7965
  140.6924  143.7830  150.7275 LP  0  0  0  0  0  0  0  0  0  0  0  0  # atno 17342 bound_to 10162
  140.1316  143.4521  152.2251 LP  0  0  0  0  0  0  0  0  0  0  0  0  # atno 17343 bound_to 10162
  157.5479  131.0943  150.9736 LP  0  0  0  0  0  0  0  0  0  0  0  0  # atno 17370 bound_to 10713
  157.0003  130.5597  149.5311 LP  0  0  0  0  0  0  0  0  0  0  0  0  # atno 17371 bound_to 10713
  141.2221  133.7213  156.8634 LP  0  0  0  0  0  0  0  0  0  0  0  0  # atno 17394 bound_to 11000
  140.1812  134.9031  157.2951 LP  0  0  0  0  0  0  0  0  0  0  0  0  # atno 17395 bound_to 11000

$$$$
