AV-unprocessed.smi:1040|AV-procd|sdf|4524|dock5
  -GOLD-   22720 2543D 1   1.00000     0.00000
 Structure written by MMmdl.
 54 55  0  0  0  0  0  0  0  0  1 V2000
  147.8971  134.4074  157.2263 C   0  0  0  0  0  0  0  0  0  0  0  0
  147.2858  135.6578  157.8807 C   0  0  2  0  0  0  0  0  0  0  0  0
  147.9046  136.8352  157.2735 N   0  0  0  0  0  0  0  0  0  0  0  0
  147.2773  137.7208  156.4850 C   0  0  0  0  0  0  0  0  0  0  0  0
  146.0910  137.6248  156.1723 O   0  0  0  0  0  0  0  0  0  0  0  0
  148.1155  138.7009  156.1077 N   0  0  0  0  0  0  0  0  0  0  0  0
  147.8912  139.8409  155.2785 C   0  0  0  0  0  0  0  0  0  0  0  0
  146.6240  140.4523  155.1054 C   0  0  0  0  0  0  0  0  0  0  0  0
  146.5128  141.5830  154.2762 C   0  0  0  0  0  0  0  0  0  0  0  0
  147.6714  142.0675  153.6457 C   0  0  0  0  0  0  0  0  0  0  0  0
  148.8830  141.4960  153.7924 N   0  0  0  0  0  0  0  0  0  0  0  0
  148.9990  140.4040  154.5872 C   0  0  0  0  0  0  0  0  0  0  0  0
  150.2770  139.8201  154.6946 N   0  0  0  0  0  0  0  0  0  0  0  0
  150.9186  140.0613  155.9855 C   0  0  0  0  0  0  0  0  0  0  0  0
  152.4166  139.7174  155.9218 C   0  0  0  0  0  0  0  0  0  0  0  0
  152.6311  138.2821  155.4147 C   0  0  0  0  0  0  0  0  0  0  0  0
  151.9097  138.0761  154.0727 C   0  0  0  0  0  0  0  0  0  0  0  0
  150.4235  138.4580  154.1824 C   0  0  0  0  0  0  0  0  0  0  0  0
  147.5893  135.6053  159.3862 C   0  0  0  0  0  0  0  0  0  0  0  0
  148.7547  135.5831  159.7847 O   0  0  0  0  0  0  0  0  0  0  0  0
  146.5179  135.5689  160.1983 N   0  0  0  0  0  0  0  0  0  0  0  0
  146.4850  135.5094  161.6644 C   0  0  0  0  0  0  0  0  0  0  0  0
  146.7536  134.0467  162.0592 C   0  0  0  0  0  0  0  0  0  0  0  0
  145.0973  135.9244  162.1978 C   0  0  0  0  0  0  0  0  0  0  0  0
  147.5893  136.4027  162.2671 C   0  0  0  0  0  0  0  0  0  0  0  0
  147.4733  133.4938  157.6455 H   0  0  0  0  0  0  0  0  0  0  0  0
  148.9790  134.3646  157.3619 H   0  0  0  0  0  0  0  0  0  0  0  0
  147.6998  134.3933  156.1541 H   0  0  0  0  0  0  0  0  0  0  0  0
  146.2077  135.6714  157.7084 H   0  0  0  0  0  0  0  0  0  0  0  0
  148.8778  136.9956  157.4873 H   0  0  0  0  0  0  0  0  0  0  0  0
  149.0503  138.6381  156.4841 H   0  0  0  0  0  0  0  0  0  0  0  0
  145.7301  140.0859  155.5826 H   0  0  0  0  0  0  0  0  0  0  0  0
  145.5595  142.0684  154.1282 H   0  0  0  0  0  0  0  0  0  0  0  0
  147.6239  142.9343  153.0034 H   0  0  0  0  0  0  0  0  0  0  0  0
  150.7925  141.0999  156.2925 H   0  0  0  0  0  0  0  0  0  0  0  0
  150.4273  139.4485  156.7427 H   0  0  0  0  0  0  0  0  0  0  0  0
  152.9232  140.4192  155.2578 H   0  0  0  0  0  0  0  0  0  0  0  0
  152.8703  139.8389  156.9058 H   0  0  0  0  0  0  0  0  0  0  0  0
  153.6961  138.0755  155.3063 H   0  0  0  0  0  0  0  0  0  0  0  0
  152.2472  137.5731  156.1493 H   0  0  0  0  0  0  0  0  0  0  0  0
  152.3864  138.6861  153.3043 H   0  0  0  0  0  0  0  0  0  0  0  0
  152.0060  137.0393  153.7498 H   0  0  0  0  0  0  0  0  0  0  0  0
  149.9121  137.7614  154.8485 H   0  0  0  0  0  0  0  0  0  0  0  0
  149.9476  138.3774  153.2041 H   0  0  0  0  0  0  0  0  0  0  0  0
  145.6150  135.5904  159.7468 H   0  0  0  0  0  0  0  0  0  0  0  0
  146.7366  133.9178  163.1420 H   0  0  0  0  0  0  0  0  0  0  0  0
  147.7293  133.7107  161.7057 H   0  0  0  0  0  0  0  0  0  0  0  0
  146.0030  133.3762  161.6384 H   0  0  0  0  0  0  0  0  0  0  0  0
  144.3040  135.3251  161.7492 H   0  0  0  0  0  0  0  0  0  0  0  0
  144.8744  136.9718  161.9948 H   0  0  0  0  0  0  0  0  0  0  0  0
  145.0371  135.7909  163.2785 H   0  0  0  0  0  0  0  0  0  0  0  0
  147.6342  136.2931  163.3512 H   0  0  0  0  0  0  0  0  0  0  0  0
  147.4207  137.4594  162.0601 H   0  0  0  0  0  0  0  0  0  0  0  0
  148.5713  136.1415  161.8707 H   0  0  0  0  0  0  0  0  0  0  0  0
  1  2  1  0  0  0  0
  1 26  1  0  0  0  0
  1 27  1  0  0  0  0
  1 28  1  0  0  0  0
  2  3  1  0  0  0  0
  2 19  1  0  0  0  0
  2 29  1  0  0  0  0
  3  4  1  0  0  0  0
  3 30  1  0  0  0  0
  4  5  2  0  0  0  0
  4  6  1  0  0  0  0
  6  7  1  0  0  0  0
  6 31  1  0  0  0  0
  7 12  1  0  0  0  0
  7  8  2  0  0  0  0
  8  9  1  0  0  0  0
  8 32  1  0  0  0  0
  9 10  2  0  0  0  0
  9 33  1  0  0  0  0
 10 11  1  0  0  0  0
 10 34  1  0  0  0  0
 11 12  2  0  0  0  0
 12 13  1  0  0  0  0
 13 18  1  0  0  0  0
 13 14  1  0  0  0  0
 14 15  1  0  0  0  0
 14 35  1  0  0  0  0
 14 36  1  0  0  0  0
 15 16  1  0  0  0  0
 15 37  1  0  0  0  0
 15 38  1  0  0  0  0
 16 17  1  0  0  0  0
 16 39  1  0  0  0  0
 16 40  1  0  0  0  0
 17 18  1  0  0  0  0
 17 41  1  0  0  0  0
 17 42  1  0  0  0  0
 18 43  1  0  0  0  0
 18 44  1  0  0  0  0
 19 20  2  0  0  0  0
 19 21  1  0  0  0  0
 21 22  1  0  0  0  0
 21 45  1  0  0  0  0
 22 23  1  0  0  0  0
 22 24  1  0  0  0  0
 22 25  1  0  0  0  0
 23 46  1  0  0  0  0
 23 47  1  0  0  0  0
 23 48  1  0  0  0  0
 24 49  1  0  0  0  0
 24 50  1  0  0  0  0
 24 51  1  0  0  0  0
 25 52  1  0  0  0  0
 25 53  1  0  0  0  0
 25 54  1  0  0  0  0
M  END
> <s_m_source_file>
AV-unprocessed.smi

> <i_m_source_file_index>
1040

> <i_lp_mmshare_version>
43012

> <i_f3d_flags>
0

> <s_epik_input>
W0NIM11DKFtDSDNdKShbQ0gzXSlbTkhdQyg9TylbQ0BIXShbQ0gzXSlbTkhdQyg9TylbTkhdYzFbY0hdW2NIXVtjSF1uYzFOMltDSDJdW0NIMl1bQ0gyXVtDSDJdW0NIMl0y

> <s_epik_cmdline>
J2VwaWtfcHl0aG9uJywgJy1waCcsICc3LjAnLCAnLXRuJywgJzgnLCAnLW1hJywgJzIwMCcsICctbWV0YWxfYmluZGluZycsICctaW1hZScsICc8aW5maWxlLm1hZT4nLCAnLW9tYWUnLCAnPG91dGZpbGUubWFlPic=

> <r_lp_tautomer_probability>
1

> <r_epik_Ionization_Penalty>
0.0878593

> <r_epik_Ionization_Penalty_Charging>
0

> <r_epik_Ionization_Penalty_Neutral>
0.0878593

> <r_epik_State_Penalty>
0.07381

> <r_epik_Charging_Adjusted_Penalty>
0.07381

> <i_epik_Tot_Q>
0

> <i_epik_Tot_abs_Q>
0

> <r_epik_Metal_State_Penalty>
0.0646628

> <b_epik_Metal_Only>
0

> <s_lp_Force_Field>
OPLS_2005

> <r_lp_Energy>
21.1097

> <b_lp_Chiralities_Consistent>
1

> <s_lp_Variant>
AV-unprocessed.smi:1040-1

> <Gold.Version>
5.8.1

> <Gold.Id.Protein>
6NUR|6NUR_protein|mol2

> <Gold.PLP.Fitness>
41.3716

> <Gold.PLP.PLP>
-34.9636

> <Gold.PLP.part.hbond>
-2.9158

> <Gold.PLP.part.metal>
0.0000

> <Gold.PLP.part.buried>
-4.0856

> <Gold.PLP.part.nonpolar>
-27.9926

> <Gold.PLP.part.repulsive>
0.4592

> <Gold.PLP.ligand.clash>
0.0000

> <Gold.PLP.ligand.torsion>
0.7932

> <Gold.PLP.Chemscore.Hbond>
2.5696

> <Gold.PLP.Chemscore.CHOScore>
0.0000

> <Gold.PLP.Chemscore.Metal>
0.0000

> <Gold.Chemscore.Hbonds>
donor molecule, donor type, donor heavy atom, donor atom, acceptor molecule, acceptor atom, score
      P1  H  6896  6909       L1    20  0.65
      P1  H  7989  7998       L1    13  0.78
      P1  H  8011  8017       L1    11  0.66

> <Gold.PLP.Chemscore.Internal.Correction>
0.2856

> <Gold.Rescore>
     Score         DG    S(hbond)    S(metal)    S(lipo)     H(rot)  DE(clash)    DE(int)     intcor
     11.63     -16.68       1.37        0.00      91.87       1.61       1.63       3.42       ----

> <Gold.Chemscore.Fitness>
11.6330

> <Gold.Chemscore.DG>
-16.6824

> <Gold.Chemscore.ZeroCoef>
-5.4800

> <Gold.Chemscore.Hbond>
1.3733

> <Gold.Chemscore.Metal>
0.0000

> <Gold.Chemscore.Lipo>
91.8653

> <Gold.Chemscore.Internal_Hbond>
0.0000

> <Gold.Chemscore.DEClash>
1.6311

> <Gold.Chemscore.DEInternal>
3.4182

> <Gold.Chemscore.Rot>
1.6143

> <Gold.Chemscore.Internal.Correction>
   9.000000E+99

> <Gold.Chemscore.Hbonds>
donor molecule, donor type, donor heavy atom, donor atom, acceptor molecule, acceptor atom, score
      P1  H  6896  6909       L1    20  0.62
      P1  H  7989  7998       L1    13  0.04
      P1  H  8011  8017       L1    11  0.13

> <Gold.Chemscore.Hbond.Weighted>
-4.5868

> <Gold.Chemscore.Metal.Weighted>
-0.0000

> <Gold.Chemscore.Lipo.Weighted>
-10.7482

> <Gold.Chemscore.Internal_Hbond.Weighted>
0.0000

> <Gold.Chemscore.DEClash.Weighted>
1.6311

> <Gold.Chemscore.DEInternal.Weighted>
3.4182

> <Gold.Chemscore.Rot.Weighted>
4.1326

> <Gold.Chemscore.Internal.Correction.Weighted>
   9.000000E+99

> <Gold.Protein.RotatedTorsions>
[ 6907 6896 6895 6894 ] final   48.61 input  -60.11 | X-H torsion
[ 7974 7965 7964 7962 ] final   77.43 input  175.53 | X-H torsion
[ 8008 7997 7996 7995 ] final  -61.20 input   59.86 | X-H torsion
[ 10167 10162 10161 10158 ] final -134.07 input  -65.29 | X-H torsion
[ 10718 10713 10712 10709 ] final   23.29 input   66.30 | X-H torsion
[ 10763 10752 10751 10750 ] final   78.15 input  -60.55 | X-H torsion
[ 11005 11000 10999 10996 ] final  129.89 input  -57.11 | X-H torsion

> <Gold.Protein.ActiveResidues>
 VAL166  LYS551  ARG553  GLY616  TRP617  ASP618  TYR619  PRO620  LYS621  CYS622 
 ASP623  PHE694  ASN695  SER759  ASP760  ASP761  ALA762  ILE779  LEU786  VAL792 
 PHE793  MET794  SER795  GLU796  ALA797  LYS798  CYS799  TRP800  GLU811  SER814 

> <Gold.Protein.RotatedAtoms>
  152.2815  134.7824  160.0395 H   0  0  0  0  0  0  0  0  0  0  0  0  # atno 6907 bound_to 6896
  151.8401  133.3417  159.3648 H   0  0  0  0  0  0  0  0  0  0  0  0  # atno 6908 bound_to 6896
  150.7191  134.5328  159.5753 H   0  0  0  0  0  0  0  0  0  0  0  0  # atno 6909 bound_to 6896
  145.6901  139.2550  143.1764 H   0  0  0  0  0  0  0  0  0  0  0  0  # atno 7974 bound_to 7965
  154.4436  140.1023  156.6393 H   0  0  0  0  0  0  0  0  0  0  0  0  # atno 8008 bound_to 7997
  155.5519  140.3486  155.4452 H   0  0  0  0  0  0  0  0  0  0  0  0  # atno 8009 bound_to 7997
  156.0523  140.1307  157.0026 H   0  0  0  0  0  0  0  0  0  0  0  0  # atno 8010 bound_to 7997
  139.8918  143.6713  152.2611 H   0  0  0  0  0  0  0  0  0  0  0  0  # atno 10167 bound_to 10162
  157.1641  130.6730  149.6054 H   0  0  0  0  0  0  0  0  0  0  0  0  # atno 10718 bound_to 10713
  153.0852  135.4888  154.8582 H   0  0  0  0  0  0  0  0  0  0  0  0  # atno 10763 bound_to 10752
  154.7201  135.3038  154.9063 H   0  0  0  0  0  0  0  0  0  0  0  0  # atno 10764 bound_to 10752
  153.9729  135.6799  153.4800 H   0  0  0  0  0  0  0  0  0  0  0  0  # atno 10765 bound_to 10752
  139.9641  134.9595  156.9213 H   0  0  0  0  0  0  0  0  0  0  0  0  # atno 11005 bound_to 11000
  146.0889  140.7679  142.9605 LP  0  0  0  0  0  0  0  0  0  0  0  0  # atno 17320 bound_to 7965
  144.6999  140.3606  143.7164 LP  0  0  0  0  0  0  0  0  0  0  0  0  # atno 17321 bound_to 7965
  139.7103  144.7621  151.1124 LP  0  0  0  0  0  0  0  0  0  0  0  0  # atno 17342 bound_to 10162
  140.7725  143.5340  150.9390 LP  0  0  0  0  0  0  0  0  0  0  0  0  # atno 17343 bound_to 10162
  155.9749  130.4701  150.6420 LP  0  0  0  0  0  0  0  0  0  0  0  0  # atno 17370 bound_to 10713
  157.4105  131.0823  151.1225 LP  0  0  0  0  0  0  0  0  0  0  0  0  # atno 17371 bound_to 10713
  140.5436  134.0696  155.7348 LP  0  0  0  0  0  0  0  0  0  0  0  0  # atno 17394 bound_to 11000
  141.1319  133.9287  157.2516 LP  0  0  0  0  0  0  0  0  0  0  0  0  # atno 17395 bound_to 11000

$$$$
