AV-unprocessed.smi:1808|AV-procd|sdf|7306|dock2
  -GOLD-   22720 8563D 1   1.00000     0.00000
 Structure written by MMmdl.
 28 29  0  0  0  0  0  0  0  0  1 V2000
  144.4197  136.7607  152.2345 O   0  0  0  0  0  0  0  0  0  0  0  0
  145.6273  136.5512  152.1147 C   0  0  0  0  0  0  0  0  0  0  0  0
  146.5703  137.4144  152.5177 N   0  0  0  0  0  0  0  0  0  0  0  0
  146.3103  138.7084  153.1386 C   0  0  0  0  0  0  0  0  0  0  0  0
  147.5794  139.5751  153.1975 C   0  0  1  0  0  0  0  0  0  0  0  0
  147.3176  141.0303  153.5917 C   0  0  0  0  0  0  0  0  0  0  0  0
  148.5762  141.4453  154.3425 C   0  0  0  0  0  0  0  0  0  0  0  0
  149.3972  140.1586  154.4393 C   0  0  0  0  0  0  0  0  0  0  0  0
  148.4523  139.1232  154.2213 O   0  0  0  0  0  0  0  0  0  0  0  0
  146.1761  135.4495  151.5737 N   0  0  0  0  0  0  0  0  0  0  0  0
  145.5162  134.3153  151.0321 C   0  0  0  0  0  0  0  0  0  0  0  0
  144.1894  134.2078  150.8940 N   0  0  0  0  0  0  0  0  0  0  0  0
  143.8180  132.9840  150.3316 C   0  0  0  0  0  0  0  0  0  0  0  0
  144.8824  132.1653  150.0466 C   0  0  0  0  0  0  0  0  0  0  0  0
  146.4027  132.9043  150.4732 S   0  0  0  0  0  0  0  0  0  0  0  0
  147.5384  137.1651  152.3777 H   0  0  0  0  0  0  0  0  0  0  0  0
  145.5227  139.2285  152.5908 H   0  0  0  0  0  0  0  0  0  0  0  0
  145.9261  138.5362  154.1443 H   0  0  0  0  0  0  0  0  0  0  0  0
  148.1106  139.5479  152.2439 H   0  0  0  0  0  0  0  0  0  0  0  0
  147.1190  141.6589  152.7232 H   0  0  0  0  0  0  0  0  0  0  0  0
  146.4567  141.1006  154.2577 H   0  0  0  0  0  0  0  0  0  0  0  0
  149.1279  142.2312  153.8257 H   0  0  0  0  0  0  0  0  0  0  0  0
  148.3165  141.8150  155.3352 H   0  0  0  0  0  0  0  0  0  0  0  0
  150.1544  140.1245  153.6544 H   0  0  0  0  0  0  0  0  0  0  0  0
  149.8975  140.0488  155.4015 H   0  0  0  0  0  0  0  0  0  0  0  0
  147.1844  135.4179  151.5474 H   0  0  0  0  0  0  0  0  0  0  0  0
  142.7705  132.7775  150.1689 H   0  0  0  0  0  0  0  0  0  0  0  0
  144.8639  131.1768  149.6125 H   0  0  0  0  0  0  0  0  0  0  0  0
  1  2  2  0  0  0  0
  2  3  1  0  0  0  0
  2 10  1  0  0  0  0
  3  4  1  0  0  0  0
  3 16  1  0  0  0  0
  4  5  1  0  0  0  0
  4 17  1  0  0  0  0
  4 18  1  0  0  0  0
  5  9  1  0  0  0  0
  5  6  1  0  0  0  0
  5 19  1  0  0  0  0
  6  7  1  0  0  0  0
  6 20  1  0  0  0  0
  6 21  1  0  0  0  0
  7  8  1  0  0  0  0
  7 22  1  0  0  0  0
  7 23  1  0  0  0  0
  8  9  1  0  0  0  0
  8 24  1  0  0  0  0
  8 25  1  0  0  0  0
 10 11  1  0  0  0  0
 10 26  1  0  0  0  0
 11 15  1  0  0  0  0
 11 12  2  0  0  0  0
 12 13  1  0  0  0  0
 13 14  2  0  0  0  0
 13 27  1  0  0  0  0
 14 15  1  0  0  0  0
 14 28  1  0  0  0  0
M  END
> <s_m_source_file>
AV-unprocessed.smi

> <i_m_source_file_index>
1808

> <i_lp_mmshare_version>
43012

> <i_f3d_flags>
0

> <s_epik_input>
czFbY0hdW2NIXW5jMVtOSF1DKD1PKVtOSF1bQ0gyXVtDQEBIXTJbQ0gyXVtDSDJdW0NIMl1PMg==

> <s_epik_cmdline>
J2VwaWtfcHl0aG9uJywgJy1waCcsICc3LjAnLCAnLXRuJywgJzgnLCAnLW1hJywgJzIwMCcsICctbWV0YWxfYmluZGluZycsICctaW1hZScsICc8aW5maWxlLm1hZT4nLCAnLW9tYWUnLCAnPG91dGZpbGUubWFlPic=

> <r_lp_tautomer_probability>
0.999

> <r_epik_Ionization_Penalty>
0.000333847

> <r_epik_Ionization_Penalty_Charging>
0

> <r_epik_Ionization_Penalty_Neutral>
0.000333847

> <r_epik_State_Penalty>
0.000177984

> <r_epik_Charging_Adjusted_Penalty>
0.000177984

> <i_epik_Tot_Q>
0

> <i_epik_Tot_abs_Q>
0

> <r_epik_Metal_State_Penalty>
0.00767616

> <b_epik_Metal_Only>
0

> <s_lp_Force_Field>
OPLS_2005

> <r_lp_Energy>
15.1674

> <b_lp_Chiralities_Consistent>
1

> <s_lp_Variant>
AV-unprocessed.smi:1808-2

> <Gold.Version>
5.8.1

> <Gold.Id.Protein>
6NUR|6NUR_protein|mol2

> <Gold.PLP.Fitness>
35.4654

> <Gold.PLP.PLP>
-27.0601

> <Gold.PLP.part.hbond>
-2.0000

> <Gold.PLP.part.metal>
0.0000

> <Gold.PLP.part.buried>
-2.2742

> <Gold.PLP.part.nonpolar>
-23.8638

> <Gold.PLP.part.repulsive>
0.6142

> <Gold.PLP.ligand.clash>
0.0000

> <Gold.PLP.ligand.torsion>
0.1643

> <Gold.PLP.Chemscore.Hbond>
2.0000

> <Gold.PLP.Chemscore.CHOScore>
0.9092

> <Gold.PLP.Chemscore.Metal>
0.0000

> <Gold.Chemscore.Hbonds>
donor molecule, donor type, donor heavy atom, donor atom, acceptor molecule, acceptor atom, score
      L1  H     3    16       P1  7948  1.00
      L1  H    10    26       P1  7948  1.00
      L1  C    13    27       P1 10186  0.94

> <Gold.PLP.Chemscore.Internal.Correction>
0.0063

> <Gold.Rescore>
     Score         DG    S(hbond)    S(metal)    S(lipo)     H(rot)  DE(clash)    DE(int)     intcor
     14.53     -15.92       1.96        0.00      62.12       1.32       0.03       1.35       ----

> <Gold.Chemscore.Fitness>
14.5308

> <Gold.Chemscore.DG>
-15.9170

> <Gold.Chemscore.ZeroCoef>
-5.4800

> <Gold.Chemscore.Hbond>
1.9576

> <Gold.Chemscore.Metal>
0.0000

> <Gold.Chemscore.Lipo>
62.1231

> <Gold.Chemscore.Internal_Hbond>
0.0000

> <Gold.Chemscore.DEClash>
0.0322

> <Gold.Chemscore.DEInternal>
1.3540

> <Gold.Chemscore.Rot>
1.3163

> <Gold.Chemscore.Internal.Correction>
   9.000000E+99

> <Gold.Chemscore.Hbonds>
donor molecule, donor type, donor heavy atom, donor atom, acceptor molecule, acceptor atom, score
      L1  H     3    16       P1  7948  0.99
      L1  H    10    26       P1  7948  0.93

> <Gold.Chemscore.Hbond.Weighted>
-6.5385

> <Gold.Chemscore.Metal.Weighted>
-0.0000

> <Gold.Chemscore.Lipo.Weighted>
-7.2684

> <Gold.Chemscore.Internal_Hbond.Weighted>
0.0000

> <Gold.Chemscore.DEClash.Weighted>
0.0322

> <Gold.Chemscore.DEInternal.Weighted>
1.3540

> <Gold.Chemscore.Rot.Weighted>
3.3698

> <Gold.Chemscore.Internal.Correction.Weighted>
   9.000000E+99

> <Gold.Protein.RotatedTorsions>
[ 6907 6896 6895 6894 ] final  -74.14 input  -60.11 | X-H torsion
[ 7974 7965 7964 7962 ] final -106.88 input  175.53 | X-H torsion
[ 8008 7997 7996 7995 ] final -145.60 input   59.86 | X-H torsion
[ 10167 10162 10161 10158 ] final -136.14 input  -65.29 | X-H torsion
[ 10718 10713 10712 10709 ] final  179.27 input   66.30 | X-H torsion
[ 10763 10752 10751 10750 ] final -135.01 input  -60.55 | X-H torsion
[ 11005 11000 10999 10996 ] final   32.23 input  -57.11 | X-H torsion

> <Gold.Protein.ActiveResidues>
 VAL166  LYS551  ARG553  GLY616  TRP617  ASP618  TYR619  PRO620  LYS621  CYS622 
 ASP623  PHE694  ASN695  SER759  ASP760  ASP761  ALA762  ILE779  LEU786  VAL792 
 PHE793  MET794  SER795  GLU796  ALA797  LYS798  CYS799  TRP800  GLU811  SER814 

> <Gold.Protein.RotatedAtoms>
  150.7104  134.4913  159.5516 H   0  0  0  0  0  0  0  0  0  0  0  0  # atno 6907 bound_to 6896
  152.2530  134.8110  160.0452 H   0  0  0  0  0  0  0  0  0  0  0  0  # atno 6908 bound_to 6896
  151.8851  133.3468  159.3816 H   0  0  0  0  0  0  0  0  0  0  0  0  # atno 6909 bound_to 6896
  145.2123  140.9101  143.3307 H   0  0  0  0  0  0  0  0  0  0  0  0  # atno 7974 bound_to 7965
  155.5458  140.0612  157.2860 H   0  0  0  0  0  0  0  0  0  0  0  0  # atno 8008 bound_to 7997
  154.4437  140.1911  156.0680 H   0  0  0  0  0  0  0  0  0  0  0  0  # atno 8009 bound_to 7997
  156.0552  140.3279  155.7401 H   0  0  0  0  0  0  0  0  0  0  0  0  # atno 8010 bound_to 7997
  139.8707  143.6960  152.2640 H   0  0  0  0  0  0  0  0  0  0  0  0  # atno 10167 bound_to 10162
  156.8783  130.9807  151.3065 H   0  0  0  0  0  0  0  0  0  0  0  0  # atno 10718 bound_to 10713
  154.8710  135.3717  154.4828 H   0  0  0  0  0  0  0  0  0  0  0  0  # atno 10763 bound_to 10752
  153.5480  135.7025  153.5609 H   0  0  0  0  0  0  0  0  0  0  0  0  # atno 10764 bound_to 10752
  153.3741  135.4013  155.1774 H   0  0  0  0  0  0  0  0  0  0  0  0  # atno 10765 bound_to 10752
  140.2756  134.3031  155.7815 H   0  0  0  0  0  0  0  0  0  0  0  0  # atno 11005 bound_to 11000
  144.9844  139.3751  143.6246 LP  0  0  0  0  0  0  0  0  0  0  0  0  # atno 17320 bound_to 7965
  146.3395  139.9000  142.8796 LP  0  0  0  0  0  0  0  0  0  0  0  0  # atno 17321 bound_to 7965
  139.7286  144.7587  151.0838 LP  0  0  0  0  0  0  0  0  0  0  0  0  # atno 17342 bound_to 10162
  140.7761  143.5116  150.9645 LP  0  0  0  0  0  0  0  0  0  0  0  0  # atno 17343 bound_to 10162
  157.6155  130.8615  149.9022 LP  0  0  0  0  0  0  0  0  0  0  0  0  # atno 17370 bound_to 10713
  156.0690  130.3688  150.0816 LP  0  0  0  0  0  0  0  0  0  0  0  0  # atno 17371 bound_to 10713
  141.2171  133.7494  156.9402 LP  0  0  0  0  0  0  0  0  0  0  0  0  # atno 17394 bound_to 11000
  140.1331  134.9342  157.2365 LP  0  0  0  0  0  0  0  0  0  0  0  0  # atno 17395 bound_to 11000

$$$$
