AV-unprocessed.smi:1198|AV-procd|sdf|5010|dock5
  -GOLD-   22720 4 23D 1   1.00000     0.00000
 Structure written by MMmdl.
 40 41  0  0  0  0  0  0  0  0  2 V2000
  151.7824  141.4747  158.1461 C   0  0  0  0  0  0  0  0  0  0  0  0
  151.2852  141.4680  156.8125 O   0  0  0  0  0  0  0  0  0  0  0  0
  150.8973  140.2629  156.2635 C   0  0  0  0  0  0  0  0  0  0  0  0
  150.6926  139.1658  157.1234 C   0  0  0  0  0  0  0  0  0  0  0  0
  150.2955  137.9323  156.5724 C   0  0  0  0  0  0  0  0  0  0  0  0
  150.1224  137.8332  155.1711 C   0  0  0  0  0  0  0  0  0  0  0  0
  149.7036  136.6546  154.4962 N   0  0  0  0  0  0  0  0  0  0  0  0
  149.5040  135.4252  155.0011 C   0  0  0  0  0  0  0  0  0  0  0  0
  149.7126  135.0900  156.1667 O   0  0  0  0  0  0  0  0  0  0  0  0
  149.0550  134.5822  154.0604 N   0  0  0  0  0  0  0  0  0  0  0  0
  148.7581  133.1687  154.2702 C   0  0  0  0  0  0  0  0  0  0  0  0
  148.2445  132.4771  152.9916 C   0  0  2  0  0  0  0  0  0  0  0  0
  146.8990  133.0056  152.4985 C   0  0  0  0  0  0  0  0  0  0  0  0
  146.3459  131.8740  151.6232 C   0  0  0  0  0  0  0  0  0  0  0  0
  147.0785  130.6436  152.0044 N   0  3  2  0  0  0  0  0  0  0  0  0
  146.2190  129.4644  152.2374 C   0  0  0  0  0  0  0  0  0  0  0  0
  147.9676  130.9797  153.1353 C   0  0  0  0  0  0  0  0  0  0  0  0
  150.3412  138.9936  154.4000 C   0  0  0  0  0  0  0  0  0  0  0  0
  150.7222  140.1786  154.9215 N   0  0  0  0  0  0  0  0  0  0  0  0
  152.0430  142.4945  158.4289 H   0  0  0  0  0  0  0  0  0  0  0  0
  152.6826  140.8656  158.2397 H   0  0  0  0  0  0  0  0  0  0  0  0
  151.0325  141.1170  158.8528 H   0  0  0  0  0  0  0  0  0  0  0  0
  150.8329  139.2696  158.1893 H   0  0  0  0  0  0  0  0  0  0  0  0
  150.1195  137.0993  157.2348 H   0  0  0  0  0  0  0  0  0  0  0  0
  149.5776  136.7511  153.4991 H   0  0  0  0  0  0  0  0  0  0  0  0
  148.9234  134.9410  153.1258 H   0  0  0  0  0  0  0  0  0  0  0  0
  149.6710  132.6836  154.6170 H   0  0  0  0  0  0  0  0  0  0  0  0
  148.0290  133.0639  155.0752 H   0  0  0  0  0  0  0  0  0  0  0  0
  148.9712  132.6150  152.1890 H   0  0  0  0  0  0  0  0  0  0  0  0
  146.2299  133.1703  153.3445 H   0  0  0  0  0  0  0  0  0  0  0  0
  146.9891  133.9487  151.9586 H   0  0  0  0  0  0  0  0  0  0  0  0
  145.2672  131.7743  151.7525 H   0  0  0  0  0  0  0  0  0  0  0  0
  146.5347  132.0724  150.5679 H   0  0  0  0  0  0  0  0  0  0  0  0
  145.5260  129.6403  153.0612 H   0  0  0  0  0  0  0  0  0  0  0  0
  146.8271  128.5923  152.4794 H   0  0  0  0  0  0  0  0  0  0  0  0
  145.6387  129.2341  151.3434 H   0  0  0  0  0  0  0  0  0  0  0  0
  148.8782  130.3800  153.1166 H   0  0  0  0  0  0  0  0  0  0  0  0
  147.4550  130.7861  154.0793 H   0  0  0  0  0  0  0  0  0  0  0  0
  150.2091  138.9720  153.3280 H   0  0  0  0  0  0  0  0  0  0  0  0
  147.6816  130.4259  151.2236 H   0  0  0  0  0  0  0  0  0  0  0  0
  1  2  1  0  0  0  0
  1 20  1  0  0  0  0
  1 21  1  0  0  0  0
  1 22  1  0  0  0  0
  2  3  1  0  0  0  0
  3 19  1  0  0  0  0
  3  4  2  0  0  0  0
  4  5  1  0  0  0  0
  4 23  1  0  0  0  0
  5  6  2  0  0  0  0
  5 24  1  0  0  0  0
  6  7  1  0  0  0  0
  6 18  1  0  0  0  0
  7  8  1  0  0  0  0
  7 25  1  0  0  0  0
  8  9  2  0  0  0  0
  8 10  1  0  0  0  0
 10 11  1  0  0  0  0
 10 26  1  0  0  0  0
 11 12  1  0  0  0  0
 11 27  1  0  0  0  0
 11 28  1  0  0  0  0
 12 17  1  0  0  0  0
 12 13  1  0  0  0  0
 12 29  1  0  0  0  0
 13 14  1  0  0  0  0
 13 30  1  0  0  0  0
 13 31  1  0  0  0  0
 14 15  1  0  0  0  0
 14 32  1  0  0  0  0
 14 33  1  0  0  0  0
 15 16  1  0  0  0  0
 15 17  1  0  0  0  0
 15 40  1  0  0  0  0
 16 34  1  0  0  0  0
 16 35  1  0  0  0  0
 16 36  1  0  0  0  0
 17 37  1  0  0  0  0
 17 38  1  0  0  0  0
 18 19  2  0  0  0  0
 18 39  1  0  0  0  0
M  CHG  1  15   1
M  END
> <s_m_source_file>
AV-unprocessed.smi

> <i_m_source_file_index>
1198

> <i_lp_mmshare_version>
43012

> <i_f3d_flags>
0

> <s_epik_input>
W0NIM11PYzFbY0hdW2NIXWMoW2NIXW4xKVtOSF1DKD1PKVtOSF1bQ0gyXVtDQEBIXTJbQ0gyXVtDSDJdTihbQ0gzXSlbQ0gyXTI=

> <s_epik_cmdline>
J2VwaWtfcHl0aG9uJywgJy1waCcsICc3LjAnLCAnLXRuJywgJzgnLCAnLW1hJywgJzIwMCcsICctbWV0YWxfYmluZGluZycsICctaW1hZScsICc8aW5maWxlLm1hZT4nLCAnLW9tYWUnLCAnPG91dGZpbGUubWFlPic=

> <r_lp_tautomer_probability>
1

> <r_epik_Ionization_Penalty>
0.00131396

> <r_epik_Ionization_Penalty_Charging>
0.0012301

> <r_epik_Ionization_Penalty_Neutral>
8.38549e-05

> <r_epik_State_Penalty>
0.00081314

> <r_epik_Charging_Adjusted_Penalty>
0.00204324

> <i_epik_Tot_Q>
1

> <i_epik_Tot_abs_Q>
1

> <r_epik_Metal_State_Penalty>
-0

> <b_epik_Metal_Only>
0

> <s_lp_Force_Field>
OPLS_2005

> <r_lp_Energy>
30.1161

> <b_lp_Chiralities_Consistent>
1

> <s_lp_Variant>
AV-unprocessed.smi:1198-1

> <Gold.Version>
5.8.1

> <Gold.Id.Protein>
6NUR|6NUR_protein|mol2

> <Gold.PLP.Fitness>
43.9218

> <Gold.PLP.PLP>
-29.3542

> <Gold.PLP.part.hbond>
-4.0000

> <Gold.PLP.part.metal>
0.0000

> <Gold.PLP.part.buried>
-3.3984

> <Gold.PLP.part.nonpolar>
-21.7791

> <Gold.PLP.part.repulsive>
0.1524

> <Gold.PLP.ligand.clash>
0.0000

> <Gold.PLP.ligand.torsion>
0.2106

> <Gold.PLP.Chemscore.Hbond>
3.9920

> <Gold.PLP.Chemscore.CHOScore>
1.0000

> <Gold.PLP.Chemscore.Metal>
0.0000

> <Gold.Chemscore.Hbonds>
donor molecule, donor type, donor heavy atom, donor atom, acceptor molecule, acceptor atom, score
      L1  H     7    25       P1  7948  1.00
      L1  H    10    26       P1  7948  0.95
      L1  H    15    40       P1 10747  0.99
      P1  H  7989  7998       L1    19  1.00
      L1  C    18    39       P1  7957  1.00

> <Gold.PLP.Chemscore.Internal.Correction>
0.0128

> <Gold.Rescore>
     Score         DG    S(hbond)    S(metal)    S(lipo)     H(rot)  DE(clash)    DE(int)     intcor
     17.46     -18.87       2.92        0.00      64.11       1.51       0.03       1.38       ----

> <Gold.Chemscore.Fitness>
17.4563

> <Gold.Chemscore.DG>
-18.8716

> <Gold.Chemscore.ZeroCoef>
-5.4800

> <Gold.Chemscore.Hbond>
2.9249

> <Gold.Chemscore.Metal>
0.0000

> <Gold.Chemscore.Lipo>
64.1066

> <Gold.Chemscore.Internal_Hbond>
0.0000

> <Gold.Chemscore.DEClash>
0.0341

> <Gold.Chemscore.DEInternal>
1.3812

> <Gold.Chemscore.Rot>
1.5149

> <Gold.Chemscore.Internal.Correction>
   9.000000E+99

> <Gold.Chemscore.Hbonds>
donor molecule, donor type, donor heavy atom, donor atom, acceptor molecule, acceptor atom, score
      L1  H     7    25       P1  7948  0.69
      L1  H    10    26       P1  7948  0.21
      L1  H    15    40       P1 10747  0.93
      P1  H  7989  7998       L1    19  0.26

> <Gold.Chemscore.Hbond.Weighted>
-9.7693

> <Gold.Chemscore.Metal.Weighted>
-0.0000

> <Gold.Chemscore.Lipo.Weighted>
-7.5005

> <Gold.Chemscore.Internal_Hbond.Weighted>
0.0000

> <Gold.Chemscore.DEClash.Weighted>
0.0341

> <Gold.Chemscore.DEInternal.Weighted>
1.3812

> <Gold.Chemscore.Rot.Weighted>
3.8781

> <Gold.Chemscore.Internal.Correction.Weighted>
   9.000000E+99

> <Gold.Protein.RotatedTorsions>
[ 6907 6896 6895 6894 ] final -143.97 input  -60.11 | X-H torsion
[ 7974 7965 7964 7962 ] final -116.76 input  175.53 | X-H torsion
[ 8008 7997 7996 7995 ] final  -52.31 input   59.86 | X-H torsion
[ 10167 10162 10161 10158 ] final -121.31 input  -65.29 | X-H torsion
[ 10718 10713 10712 10709 ] final   84.42 input   66.30 | X-H torsion
[ 10763 10752 10751 10750 ] final -159.06 input  -60.55 | X-H torsion
[ 11005 11000 10999 10996 ] final  136.57 input  -57.11 | X-H torsion

> <Gold.Protein.ActiveResidues>
 VAL166  LYS551  ARG553  GLY616  TRP617  ASP618  TYR619  PRO620  LYS621  CYS622 
 ASP623  PHE694  ASN695  SER759  ASP760  ASP761  ALA762  ILE779  LEU786  VAL792 
 PHE793  MET794  SER795  GLU796  ALA797  LYS798  CYS799  TRP800  GLU811  SER814 

> <Gold.Protein.RotatedAtoms>
  151.1077  133.5196  159.2606 H   0  0  0  0  0  0  0  0  0  0  0  0  # atno 6907 bound_to 6896
  151.2002  135.0439  159.8879 H   0  0  0  0  0  0  0  0  0  0  0  0  # atno 6908 bound_to 6896
  152.5448  134.0906  159.8328 H   0  0  0  0  0  0  0  0  0  0  0  0  # atno 6909 bound_to 6896
  145.0930  140.8502  143.3971 H   0  0  0  0  0  0  0  0  0  0  0  0  # atno 7974 bound_to 7965
  154.4103  140.1227  156.4971 H   0  0  0  0  0  0  0  0  0  0  0  0  # atno 8008 bound_to 7997
  155.6932  140.3495  155.4883 H   0  0  0  0  0  0  0  0  0  0  0  0  # atno 8009 bound_to 7997
  155.9450  140.1094  157.1014 H   0  0  0  0  0  0  0  0  0  0  0  0  # atno 8010 bound_to 7997
  140.0264  143.5293  152.2197 H   0  0  0  0  0  0  0  0  0  0  0  0  # atno 10167 bound_to 10162
  157.6898  131.0132  150.2671 H   0  0  0  0  0  0  0  0  0  0  0  0  # atno 10718 bound_to 10713
  154.7505  135.3091  154.8565 H   0  0  0  0  0  0  0  0  0  0  0  0  # atno 10763 bound_to 10752
  153.9354  135.6780  153.4749 H   0  0  0  0  0  0  0  0  0  0  0  0  # atno 10764 bound_to 10752
  153.1101  135.4870  154.8949 H   0  0  0  0  0  0  0  0  0  0  0  0  # atno 10765 bound_to 10752
  140.0055  134.9461  157.0166 H   0  0  0  0  0  0  0  0  0  0  0  0  # atno 11005 bound_to 11000
  145.1044  139.2800  143.5670 LP  0  0  0  0  0  0  0  0  0  0  0  0  # atno 17320 bound_to 7965
  146.3531  140.0621  142.8628 LP  0  0  0  0  0  0  0  0  0  0  0  0  # atno 17321 bound_to 7965
  139.6105  144.7607  151.2962 LP  0  0  0  0  0  0  0  0  0  0  0  0  # atno 17342 bound_to 10162
  140.7321  143.6833  150.7982 LP  0  0  0  0  0  0  0  0  0  0  0  0  # atno 17343 bound_to 10162
  156.3240  130.3790  149.7550 LP  0  0  0  0  0  0  0  0  0  0  0  0  # atno 17370 bound_to 10713
  156.5111  130.8172  151.3169 LP  0  0  0  0  0  0  0  0  0  0  0  0  # atno 17371 bound_to 10713
  140.4649  134.1446  155.7195 LP  0  0  0  0  0  0  0  0  0  0  0  0  # atno 17394 bound_to 11000
  141.1674  133.8676  157.1674 LP  0  0  0  0  0  0  0  0  0  0  0  0  # atno 17395 bound_to 11000

$$$$
