AV-unprocessed.smi:1882|AV-procd|sdf|7641|dock5
  -GOLD-   22720 9373D 1   1.00000     0.00000
 Structure written by MMmdl.
 25 26  0  0  0  0  0  0  0  0  1 V2000
  152.5960  143.0054  161.4662 C   0  0  0  0  0  0  0  0  0  0  0  0
  152.2005  143.1840  160.0405 C   0  0  0  0  0  0  0  0  0  0  0  0
  151.5935  142.2387  159.3185 N   0  0  0  0  0  0  0  0  0  0  0  0
  151.3276  142.6473  158.0073 C   0  0  0  0  0  0  0  0  0  0  0  0
  150.6453  141.7083  157.0550 C   0  0  0  0  0  0  0  0  0  0  0  0
  151.4296  140.3994  156.9493 C   0  0  0  0  0  0  0  0  0  0  0  0
  152.4551  140.2415  157.6119 O   0  0  0  0  0  0  0  0  0  0  0  0
  150.9355  139.4736  156.1132 N   0  0  0  0  0  0  0  0  0  0  0  0
  151.5109  138.1925  155.8602 C   0  0  0  0  0  0  0  0  0  0  0  0
  152.9086  138.1534  155.2806 C   0  0  0  0  0  0  0  0  0  0  0  0
  151.7313  137.7934  154.4171 C   0  0  0  0  0  0  0  0  0  0  0  0
  151.7396  143.9321  157.7494 C   0  0  0  0  0  0  0  0  0  0  0  0
  152.4867  144.6680  159.1407 S   0  0  0  0  0  0  0  0  0  0  0  0
  152.3377  142.0047  161.8144 H   0  0  0  0  0  0  0  0  0  0  0  0
  152.0811  143.7363  162.0897 H   0  0  0  0  0  0  0  0  0  0  0  0
  153.6714  143.1463  161.5748 H   0  0  0  0  0  0  0  0  0  0  0  0
  149.6302  141.4859  157.3872 H   0  0  0  0  0  0  0  0  0  0  0  0
  150.5505  142.1644  156.0687 H   0  0  0  0  0  0  0  0  0  0  0  0
  150.0866  139.6953  155.6136 H   0  0  0  0  0  0  0  0  0  0  0  0
  151.2566  137.3854  156.5463 H   0  0  0  0  0  0  0  0  0  0  0  0
  153.4055  139.1013  155.0821 H   0  0  0  0  0  0  0  0  0  0  0  0
  153.5620  137.3445  155.6009 H   0  0  0  0  0  0  0  0  0  0  0  0
  151.5972  136.7441  154.1616 H   0  0  0  0  0  0  0  0  0  0  0  0
  151.4428  138.5011  153.6421 H   0  0  0  0  0  0  0  0  0  0  0  0
  151.6533  144.4869  156.8271 H   0  0  0  0  0  0  0  0  0  0  0  0
  1  2  1  0  0  0  0
  1 14  1  0  0  0  0
  1 15  1  0  0  0  0
  1 16  1  0  0  0  0
  2 13  1  0  0  0  0
  2  3  2  0  0  0  0
  3  4  1  0  0  0  0
  4  5  1  0  0  0  0
  4 12  2  0  0  0  0
  5  6  1  0  0  0  0
  5 17  1  0  0  0  0
  5 18  1  0  0  0  0
  6  7  2  0  0  0  0
  6  8  1  0  0  0  0
  8  9  1  0  0  0  0
  8 19  1  0  0  0  0
  9 11  1  0  0  0  0
  9 10  1  0  0  0  0
  9 20  1  0  0  0  0
 10 11  1  0  0  0  0
 10 21  1  0  0  0  0
 10 22  1  0  0  0  0
 11 23  1  0  0  0  0
 11 24  1  0  0  0  0
 12 13  1  0  0  0  0
 12 25  1  0  0  0  0
M  END
> <s_m_source_file>
AV-unprocessed.smi

> <i_m_source_file_index>
1882

> <i_lp_mmshare_version>
43012

> <i_f3d_flags>
0

> <s_epik_input>
W0NIM11jMW5jKFtjSF1zMSlbQ0gyXUMoPU8pW05IXVtDSF0yW0NIMl1bQ0gyXTI=

> <s_epik_cmdline>
J2VwaWtfcHl0aG9uJywgJy1waCcsICc3LjAnLCAnLXRuJywgJzgnLCAnLW1hJywgJzIwMCcsICctbWV0YWxfYmluZGluZycsICctaW1hZScsICc8aW5maWxlLm1hZT4nLCAnLW9tYWUnLCAnPG91dGZpbGUubWFlPic=

> <r_lp_tautomer_probability>
1

> <r_epik_Ionization_Penalty>
5.52242e-05

> <r_epik_Ionization_Penalty_Charging>
0

> <r_epik_Ionization_Penalty_Neutral>
5.52242e-05

> <r_epik_State_Penalty>
-0

> <r_epik_Charging_Adjusted_Penalty>
0

> <i_epik_Tot_Q>
0

> <i_epik_Tot_abs_Q>
0

> <r_epik_Metal_State_Penalty>
-0

> <b_epik_Metal_Only>
0

> <s_lp_Force_Field>
OPLS_2005

> <r_lp_Energy>
14.0294

> <b_lp_Chiralities_Consistent>
1

> <s_lp_Variant>
AV-unprocessed.smi:1882-1

> <Gold.Version>
5.8.1

> <Gold.Id.Protein>
6NUR|6NUR_protein|mol2

> <Gold.PLP.Fitness>
36.9899

> <Gold.PLP.PLP>
-31.1927

> <Gold.PLP.part.hbond>
-1.0000

> <Gold.PLP.part.metal>
0.0000

> <Gold.PLP.part.buried>
-2.3568

> <Gold.PLP.part.nonpolar>
-27.8454

> <Gold.PLP.part.repulsive>
0.0753

> <Gold.PLP.ligand.clash>
0.0000

> <Gold.PLP.ligand.torsion>
0.0586

> <Gold.PLP.Chemscore.Hbond>
0.9600

> <Gold.PLP.Chemscore.CHOScore>
0.9998

> <Gold.PLP.Chemscore.Metal>
0.0000

> <Gold.Chemscore.Hbonds>
donor molecule, donor type, donor heavy atom, donor atom, acceptor molecule, acceptor atom, score
      P1  H  7997  8009       L1     7  0.71

> <Gold.PLP.Chemscore.Internal.Correction>
0.0349

> <Gold.Rescore>
     Score         DG    S(hbond)    S(metal)    S(lipo)     H(rot)  DE(clash)    DE(int)     intcor
     14.33     -15.64       0.95        0.00      89.41       1.36       0.17       1.14       ----

> <Gold.Chemscore.Fitness>
14.3275

> <Gold.Chemscore.DG>
-15.6375

> <Gold.Chemscore.ZeroCoef>
-5.4800

> <Gold.Chemscore.Hbond>
0.9493

> <Gold.Chemscore.Metal>
0.0000

> <Gold.Chemscore.Lipo>
89.4094

> <Gold.Chemscore.Internal_Hbond>
0.0000

> <Gold.Chemscore.DEClash>
0.1670

> <Gold.Chemscore.DEInternal>
1.1430

> <Gold.Chemscore.Rot>
1.3570

> <Gold.Chemscore.Internal.Correction>
   9.000000E+99

> <Gold.Chemscore.Hbonds>
donor molecule, donor type, donor heavy atom, donor atom, acceptor molecule, acceptor atom, score
      P1  H  7997  8009       L1     7  0.66

> <Gold.Chemscore.Hbond.Weighted>
-3.1706

> <Gold.Chemscore.Metal.Weighted>
-0.0000

> <Gold.Chemscore.Lipo.Weighted>
-10.4609

> <Gold.Chemscore.Internal_Hbond.Weighted>
0.0000

> <Gold.Chemscore.DEClash.Weighted>
0.1670

> <Gold.Chemscore.DEInternal.Weighted>
1.1430

> <Gold.Chemscore.Rot.Weighted>
3.4740

> <Gold.Chemscore.Internal.Correction.Weighted>
   9.000000E+99

> <Gold.Protein.RotatedTorsions>
[ 6907 6896 6895 6894 ] final  -97.41 input  -60.11 | X-H torsion
[ 7974 7965 7964 7962 ] final   13.93 input  175.53 | X-H torsion
[ 8008 7997 7996 7995 ] final  177.15 input   59.86 | X-H torsion
[ 10167 10162 10161 10158 ] final  -81.70 input  -65.29 | X-H torsion
[ 10718 10713 10712 10709 ] final   55.30 input   66.30 | X-H torsion
[ 10763 10752 10751 10750 ] final  -55.18 input  -60.55 | X-H torsion
[ 11005 11000 10999 10996 ] final  121.53 input  -57.11 | X-H torsion

> <Gold.Protein.ActiveResidues>
 VAL166  LYS551  ARG553  GLY616  TRP617  ASP618  TYR619  PRO620  LYS621  CYS622 
 ASP623  PHE694  ASN695  SER759  ASP760  ASP761  ALA762  ILE779  LEU786  VAL792 
 PHE793  MET794  SER795  GLU796  ALA797  LYS798  CYS799  TRP800  GLU811  SER814 

> <Gold.Protein.RotatedAtoms>
  150.7016  134.1352  159.4084 H   0  0  0  0  0  0  0  0  0  0  0  0  # atno 6907 bound_to 6896
  151.9337  135.0242  160.0540 H   0  0  0  0  0  0  0  0  0  0  0  0  # atno 6908 bound_to 6896
  152.2153  133.4907  159.5169 H   0  0  0  0  0  0  0  0  0  0  0  0  # atno 6909 bound_to 6896
  146.2317  139.9116  142.8523 H   0  0  0  0  0  0  0  0  0  0  0  0  # atno 7974 bound_to 7965
  156.0688  140.1366  156.9853 H   0  0  0  0  0  0  0  0  0  0  0  0  # atno 8008 bound_to 7997
  154.4520  140.0976  156.6699 H   0  0  0  0  0  0  0  0  0  0  0  0  # atno 8009 bound_to 7997
  155.5261  140.3457  155.4419 H   0  0  0  0  0  0  0  0  0  0  0  0  # atno 8010 bound_to 7997
  140.4388  143.2522  151.8655 H   0  0  0  0  0  0  0  0  0  0  0  0  # atno 10167 bound_to 10162
  157.5333  130.8645  149.8717 H   0  0  0  0  0  0  0  0  0  0  0  0  # atno 10718 bound_to 10713
  154.1866  135.6434  153.5048 H   0  0  0  0  0  0  0  0  0  0  0  0  # atno 10763 bound_to 10752
  153.0045  135.5419  154.6458 H   0  0  0  0  0  0  0  0  0  0  0  0  # atno 10764 bound_to 10752
  154.5836  135.2927  155.0680 H   0  0  0  0  0  0  0  0  0  0  0  0  # atno 10765 bound_to 10752
  139.9230  134.9639  156.7972 H   0  0  0  0  0  0  0  0  0  0  0  0  # atno 11005 bound_to 11000
  145.2224  140.9940  143.4038 LP  0  0  0  0  0  0  0  0  0  0  0  0  # atno 17320 bound_to 7965
  144.9599  139.3991  143.6361 LP  0  0  0  0  0  0  0  0  0  0  0  0  # atno 17321 bound_to 7965
  139.4788  144.5252  151.8745 LP  0  0  0  0  0  0  0  0  0  0  0  0  # atno 17342 bound_to 10162
  140.4342  144.2074  150.5889 LP  0  0  0  0  0  0  0  0  0  0  0  0  # atno 17343 bound_to 10162
  156.0439  130.3732  150.1367 LP  0  0  0  0  0  0  0  0  0  0  0  0  # atno 17370 bound_to 10713
  156.9550  130.9787  151.3490 LP  0  0  0  0  0  0  0  0  0  0  0  0  # atno 17371 bound_to 10713
  140.6419  133.9810  155.7712 LP  0  0  0  0  0  0  0  0  0  0  0  0  # atno 17394 bound_to 11000
  141.0765  134.0127  157.3449 LP  0  0  0  0  0  0  0  0  0  0  0  0  # atno 17395 bound_to 11000

$$$$
