AV-unprocessed.smi:2751|AV-procd|sdf|10603|dock2
  -GOLD-   2272015 53D 1   1.00000     0.00000
 Structure written by MMmdl.
 33 34  0  0  0  0  0  0  0  0  2 V2000
  151.9708  139.7284  154.9515 O   0  0  0  0  0  0  0  0  0  0  0  0
  150.8449  139.6921  155.4538 C   0  0  0  0  0  0  0  0  0  0  0  0
  150.6524  140.1567  156.6970 N   0  0  0  0  0  0  0  0  0  0  0  0
  151.6773  140.7274  157.5649 C   0  0  0  0  0  0  0  0  0  0  0  0
  151.0670  141.3289  158.8426 C   0  0  0  0  0  0  0  0  0  0  0  0
  150.9843  142.8629  158.8002 C   0  0  2  0  0  0  0  0  0  0  0  0
  152.3651  143.5084  158.5715 C   0  0  0  0  0  0  0  0  0  0  0  0
  152.2588  145.0373  158.6077 C   0  0  0  0  0  0  0  0  0  0  0  0
  151.5670  145.4767  159.9024 C   0  0  0  0  0  0  0  0  0  0  0  0
  150.2332  144.7328  160.0743 C   0  0  0  0  0  0  0  0  0  0  0  0
  150.4547  143.3263  160.0416 O   0  0  0  0  0  0  0  0  0  0  0  0
  149.7228  139.2127  154.8708 N   0  5  0  0  0  0  0  0  0  0  0  0
  148.7862  140.0643  154.4227 C   0  0  0  0  0  0  0  0  0  0  0  0
  147.6808  139.7413  153.7490 N   0  0  0  0  0  0  0  0  0  0  0  0
  147.0292  140.9380  153.4935 C   0  0  0  0  0  0  0  0  0  0  0  0
  147.7823  141.9481  154.0268 C   0  0  0  0  0  0  0  0  0  0  0  0
  148.8956  141.4102  154.6108 O   0  0  0  0  0  0  0  0  0  0  0  0
  149.7151  140.1086  157.0692 H   0  0  0  0  0  0  0  0  0  0  0  0
  152.4222  139.9699  157.8141 H   0  0  0  0  0  0  0  0  0  0  0  0
  152.1997  141.5004  157.0010 H   0  0  0  0  0  0  0  0  0  0  0  0
  150.0730  140.9116  159.0088 H   0  0  0  0  0  0  0  0  0  0  0  0
  151.6710  141.0315  159.7007 H   0  0  0  0  0  0  0  0  0  0  0  0
  150.3122  143.1550  157.9911 H   0  0  0  0  0  0  0  0  0  0  0  0
  153.0607  143.1729  159.3420 H   0  0  0  0  0  0  0  0  0  0  0  0
  152.7795  143.1874  157.6152 H   0  0  0  0  0  0  0  0  0  0  0  0
  153.2473  145.4902  158.5310 H   0  0  0  0  0  0  0  0  0  0  0  0
  151.6852  145.3855  157.7478 H   0  0  0  0  0  0  0  0  0  0  0  0
  152.2141  145.2636  160.7541 H   0  0  0  0  0  0  0  0  0  0  0  0
  151.4013  146.5544  159.8958 H   0  0  0  0  0  0  0  0  0  0  0  0
  149.7785  144.9951  161.0295 H   0  0  0  0  0  0  0  0  0  0  0  0
  149.5245  145.0185  159.2956 H   0  0  0  0  0  0  0  0  0  0  0  0
  146.0921  140.9754  152.9583 H   0  0  0  0  0  0  0  0  0  0  0  0
  147.6781  143.0216  154.0729 H   0  0  0  0  0  0  0  0  0  0  0  0
  1  2  2  0  0  0  0
  2 12  1  0  0  0  0
  2  3  1  0  0  0  0
  3  4  1  0  0  0  0
  3 18  1  0  0  0  0
  4  5  1  0  0  0  0
  4 19  1  0  0  0  0
  4 20  1  0  0  0  0
  5  6  1  0  0  0  0
  5 21  1  0  0  0  0
  5 22  1  0  0  0  0
  6 11  1  0  0  0  0
  6  7  1  0  0  0  0
  6 23  1  0  0  0  0
  7  8  1  0  0  0  0
  7 24  1  0  0  0  0
  7 25  1  0  0  0  0
  8  9  1  0  0  0  0
  8 26  1  0  0  0  0
  8 27  1  0  0  0  0
  9 10  1  0  0  0  0
  9 28  1  0  0  0  0
  9 29  1  0  0  0  0
 10 11  1  0  0  0  0
 10 30  1  0  0  0  0
 10 31  1  0  0  0  0
 12 13  1  0  0  0  0
 13 17  1  0  0  0  0
 13 14  2  0  0  0  0
 14 15  1  0  0  0  0
 15 32  1  0  0  0  0
 15 16  2  0  0  0  0
 16 33  1  0  0  0  0
 16 17  1  0  0  0  0
M  CHG  1  12  -1
M  END
> <s_m_source_file>
AV-unprocessed.smi

> <i_m_source_file_index>
2751

> <i_lp_mmshare_version>
43012

> <i_f3d_flags>
0

> <s_epik_input>
bzFbY0hdW2NIXW5jMVtOSF1DKD1PKVtOSF1bQ0gyXVtDSDJdW0NAQEhdMltDSDJdW0NIMl1bQ0gyXVtDSDJdTzI=

> <s_epik_cmdline>
J2VwaWtfcHl0aG9uJywgJy1waCcsICc3LjAnLCAnLXRuJywgJzgnLCAnLW1hJywgJzIwMCcsICctbWV0YWxfYmluZGluZycsICctaW1hZScsICc8aW5maWxlLm1hZT4nLCAnLW9tYWUnLCAnPG91dGZpbGUubWFlPic=

> <r_lp_tautomer_probability>
0.107061

> <r_epik_Ionization_Penalty>
11.077

> <r_epik_Ionization_Penalty_Charging>
7.79122

> <r_epik_Ionization_Penalty_Neutral>
3.28583

> <r_epik_State_Penalty>
5.8984

> <r_epik_Charging_Adjusted_Penalty>
13.6896

> <i_epik_Tot_Q>
-1

> <i_epik_Tot_abs_Q>
1

> <r_epik_Metal_State_Penalty>
1.82322

> <b_epik_Metal_Only>
1

> <s_lp_Force_Field>
OPLS_2005

> <r_lp_Energy>
3.95886

> <b_lp_Chiralities_Consistent>
1

> <s_lp_Variant>
AV-unprocessed.smi:2751-9

> <Gold.Version>
5.8.1

> <Gold.Id.Protein>
6NUR|6NUR_protein|mol2

> <Gold.PLP.Fitness>
42.5728

> <Gold.PLP.PLP>
-35.8993

> <Gold.PLP.part.hbond>
-2.0000

> <Gold.PLP.part.metal>
0.0000

> <Gold.PLP.part.buried>
-7.3308

> <Gold.PLP.part.nonpolar>
-29.0174

> <Gold.PLP.part.repulsive>
0.5810

> <Gold.PLP.ligand.clash>
0.0000

> <Gold.PLP.ligand.torsion>
1.0380

> <Gold.PLP.Chemscore.Hbond>
0.9120

> <Gold.PLP.Chemscore.CHOScore>
2.0000

> <Gold.PLP.Chemscore.Metal>
0.0000

> <Gold.Chemscore.Hbonds>
donor molecule, donor type, donor heavy atom, donor atom, acceptor molecule, acceptor atom, score
      P1  H  7989  7998       L1     1  0.91
      L1  C    15    32       P1 10175  1.00
      L1  C    16    33       P1  8028  0.90

> <Gold.PLP.Chemscore.Internal.Correction>
0.0136

> <Gold.Rescore>
     Score         DG    S(hbond)    S(metal)    S(lipo)     H(rot)  DE(clash)    DE(int)     intcor
     13.64     -14.74       0.98        0.00      86.19       1.60       0.03       1.07       ----

> <Gold.Chemscore.Fitness>
13.6396

> <Gold.Chemscore.DG>
-14.7440

> <Gold.Chemscore.ZeroCoef>
-5.4800

> <Gold.Chemscore.Hbond>
0.9843

> <Gold.Chemscore.Metal>
0.0000

> <Gold.Chemscore.Lipo>
86.1932

> <Gold.Chemscore.Internal_Hbond>
0.0000

> <Gold.Chemscore.DEClash>
0.0347

> <Gold.Chemscore.DEInternal>
1.0697

> <Gold.Chemscore.Rot>
1.6048

> <Gold.Chemscore.Internal.Correction>
   9.000000E+99

> <Gold.Chemscore.Hbonds>
donor molecule, donor type, donor heavy atom, donor atom, acceptor molecule, acceptor atom, score
      P1  H  7989  7998       L1     1  0.27

> <Gold.Chemscore.Hbond.Weighted>
-3.2876

> <Gold.Chemscore.Metal.Weighted>
-0.0000

> <Gold.Chemscore.Lipo.Weighted>
-10.0846

> <Gold.Chemscore.Internal_Hbond.Weighted>
0.0000

> <Gold.Chemscore.DEClash.Weighted>
0.0347

> <Gold.Chemscore.DEInternal.Weighted>
1.0697

> <Gold.Chemscore.Rot.Weighted>
4.1082

> <Gold.Chemscore.Internal.Correction.Weighted>
   9.000000E+99

> <Gold.Protein.RotatedTorsions>
[ 6907 6896 6895 6894 ] final -134.56 input  -60.11 | X-H torsion
[ 7974 7965 7964 7962 ] final  -32.09 input  175.53 | X-H torsion
[ 8008 7997 7996 7995 ] final  165.19 input   59.86 | X-H torsion
[ 10167 10162 10161 10158 ] final -161.27 input  -65.29 | X-H torsion
[ 10718 10713 10712 10709 ] final  162.02 input   66.30 | X-H torsion
[ 10763 10752 10751 10750 ] final  -21.34 input  -60.55 | X-H torsion
[ 11005 11000 10999 10996 ] final   26.16 input  -57.11 | X-H torsion

> <Gold.Protein.ActiveResidues>
 VAL166  LYS551  ARG553  GLY616  TRP617  ASP618  TYR619  PRO620  LYS621  CYS622 
 ASP623  PHE694  ASN695  SER759  ASP760  ASP761  ALA762  ILE779  LEU786  VAL792 
 PHE793  MET794  SER795  GLU796  ALA797  LYS798  CYS799  TRP800  GLU811  SER814 

> <Gold.Protein.RotatedAtoms>
  150.9874  133.6184  159.2713 H   0  0  0  0  0  0  0  0  0  0  0  0  # atno 6907 bound_to 6896
  151.3417  135.0864  159.9383 H   0  0  0  0  0  0  0  0  0  0  0  0  # atno 6908 bound_to 6896
  152.5235  133.9484  159.7714 H   0  0  0  0  0  0  0  0  0  0  0  0  # atno 6909 bound_to 6896
  146.1017  140.5748  142.8818 H   0  0  0  0  0  0  0  0  0  0  0  0  # atno 7974 bound_to 7965
  156.1820  140.1676  156.8256 H   0  0  0  0  0  0  0  0  0  0  0  0  # atno 8008 bound_to 7997
  154.5371  140.0744  156.8479 H   0  0  0  0  0  0  0  0  0  0  0  0  # atno 8009 bound_to 7997
  155.3289  140.3378  155.4242 H   0  0  0  0  0  0  0  0  0  0  0  0  # atno 8010 bound_to 7997
  139.6478  144.0140  152.2139 H   0  0  0  0  0  0  0  0  0  0  0  0  # atno 10167 bound_to 10162
  157.1284  131.0510  151.2383 H   0  0  0  0  0  0  0  0  0  0  0  0  # atno 10718 bound_to 10713
  153.6347  135.6987  153.5263 H   0  0  0  0  0  0  0  0  0  0  0  0  # atno 10763 bound_to 10752
  153.2831  135.4179  155.1097 H   0  0  0  0  0  0  0  0  0  0  0  0  # atno 10764 bound_to 10752
  154.8514  135.3607  154.5890 H   0  0  0  0  0  0  0  0  0  0  0  0  # atno 10765 bound_to 10752
  140.3401  134.2343  155.7691 H   0  0  0  0  0  0  0  0  0  0  0  0  # atno 11005 bound_to 11000
  144.7438  140.5014  143.6850 LP  0  0  0  0  0  0  0  0  0  0  0  0  # atno 17320 bound_to 7965
  145.5841  139.1491  143.3219 LP  0  0  0  0  0  0  0  0  0  0  0  0  # atno 17321 bound_to 7965
  139.9846  144.6404  150.7869 LP  0  0  0  0  0  0  0  0  0  0  0  0  # atno 17342 bound_to 10162
  140.7523  143.2988  151.3135 LP  0  0  0  0  0  0  0  0  0  0  0  0  # atno 17343 bound_to 10162
  157.4414  130.7546  149.7073 LP  0  0  0  0  0  0  0  0  0  0  0  0  # atno 17370 bound_to 10713
  155.9813  130.4020  150.3478 LP  0  0  0  0  0  0  0  0  0  0  0  0  # atno 17371 bound_to 10713
  141.2041  133.7896  157.0306 LP  0  0  0  0  0  0  0  0  0  0  0  0  # atno 17394 bound_to 11000
  140.0788  134.9660  157.1590 LP  0  0  0  0  0  0  0  0  0  0  0  0  # atno 17395 bound_to 11000

$$$$
