#       Name:                AV-unprocessed.smi:2899
#       Creating user name   scv26
#       Creation time:       Fri Mar 27 16:02:21 2020


#       File generated by GOLD software.
#

@<TRIPOS>MOLECULE
AV-unprocessed.smi:2899
    34    36     1
SMALL
NO_CHARGES


@<TRIPOS>ATOM
      1 ****        -3.7677  -1.6073   0.1681 C.3            1 S1                 0.0000
      2 ****        -3.0591  -0.2821   0.3500 C.ar           1 S1                 0.0000
      3 ****        -3.7627   0.9402   0.3414 C.ar           1 S1                 0.0000
      4 ****        -2.9877   2.1038   0.5209 C.ar           1 S1                 0.0000
      5 ****        -1.6481   2.0482   0.6892 N.ar           1 S1                 0.0000
      6 ****        -1.0841   0.8377   0.6789 C.ar           1 S1                 0.0000
      7 ****         0.2878   0.8210   0.8510 N.pl3          1 S1                 0.0000
      8 ****         1.1228  -0.3696   0.7396 C.3            1 S1                 0.0000
      9 ****         2.5817  -0.1212   1.1293 C.3            1 S1                 0.0000
     10 ****         3.3300  -0.6457  -0.1050 C.3            1 S1                 0.0000
     11 ****         3.2172   0.3265  -1.2864 C.3            1 S1                 0.0000
     12 ****         1.7624   0.1322  -1.7096 C.3            1 S1                 0.0000
     13 ****         1.2718  -0.9145  -0.6946 C.3            1 S1                 0.0000
     14 ****         2.4566  -1.6767  -0.5354 O.3            1 S1                 0.0000
     15 ****        -1.7196  -0.3296   0.5195 N.ar           1 S1                 0.0000
     16 ****        -4.8470  -1.4704   0.0960 H              1 S1                 0.0000
     17 ****        -3.5637  -2.2658   1.0128 H              1 S1                 0.0000
     18 ****        -3.4242  -2.0987  -0.7426 H              1 S1                 0.0000
     19 ****        -4.8331   0.9870   0.2060 H              1 S1                 0.0000
     20 ****        -3.4436   3.0827   0.5296 H              1 S1                 0.0000
     21 ****         0.7473   1.7141   0.9523 H              1 S1                 0.0000
     22 ****         0.7162  -1.1506   1.3838 H              1 S1                 0.0000
     23 ****         2.8122   0.9260   1.3310 H              1 S1                 0.0000
     24 ****         2.8388  -0.7003   2.0170 H              1 S1                 0.0000
     25 ****         4.3489  -0.9746   0.1010 H              1 S1                 0.0000
     26 ****         3.4424   1.3549  -1.0017 H              1 S1                 0.0000
     27 ****         3.8917   0.0387  -2.0936 H              1 S1                 0.0000
     28 ****         1.1838   1.0558  -1.6858 H              1 S1                 0.0000
     29 ****         1.7141  -0.2674  -2.7231 H              1 S1                 0.0000
     30 ****         0.4153  -1.4943  -1.0396 H              1 S1                 0.0000
     31 ****        -1.1031   2.8770   0.8159 LP             1 S1                 0.0000
     32 ****         2.3520  -2.3919   0.1557 LP             1 S1                 0.0000
     33 ****         2.7568  -2.0868  -1.3966 LP             1 S1                 0.0000
     34 ****        -1.2247  -1.1985   0.5256 LP             1 S1                 0.0000
@<TRIPOS>BOND
    1    1    2 1     
    2    1   16 1     
    3    1   17 1     
    4    1   18 1     
    5    2   15 ar    
    6    2    3 ar    
    7    3    4 ar    
    8    3   19 1     
    9    4    5 ar    
   10    4   20 1     
   11    5    6 ar    
   12    6    7 1     
   13    6   15 ar    
   14    7    8 1     
   15    7   21 1     
   16    8   13 1     
   17    8    9 1     
   18    8   22 1     
   19    9   10 1     
   20    9   23 1     
   21    9   24 1     
   22   10   14 1     
   23   10   11 1     
   24   10   25 1     
   25   11   12 1     
   26   11   26 1     
   27   11   27 1     
   28   12   13 1     
   29   12   28 1     
   30   12   29 1     
   31   13   14 1     
   32   13   30 1     
   33    5   31 1     
   34   14   32 1     
   35   14   33 1     
   36   15   34 1     
@<TRIPOS>SUBSTRUCTURE
      1 S1             1
@<TRIPOS>SET
LONE_PAIRS      STATIC     ATOMS    <user>   **** ""
4 31 32 33 34
DONOR_HYDROGENS      STATIC     ATOMS    <user>   **** ""
1 21
ATOM$BLUE        STATIC     ATOMS    COLORGROUP SYSTEM
4 31 32 33 34
ATOM$RED        STATIC     ATOMS    COLORGROUP SYSTEM
1 21
