AV-unprocessed.smi:1588|AV-procd|sdf|6391|dock2
  -GOLD-   22720 7 23D 1   1.00000     0.00000
 Structure written by MMmdl.
 37 38  0  0  0  0  0  0  0  0  2 V2000
  151.9263  138.6307  154.9502 C   0  0  0  0  0  0  0  0  0  0  0  0
  151.1935  139.0858  156.2196 C   0  0  0  0  0  0  0  0  0  0  0  0
  149.8631  139.6673  155.9208 N   0  3  1  0  0  0  0  0  0  0  0  0
  149.8948  141.0047  155.2860 C   0  0  0  0  0  0  0  0  0  0  0  0
  148.6403  141.0750  154.4197 C   0  0  0  0  0  0  0  0  0  0  0  0
  148.5165  139.6430  153.9045 C   0  0  2  0  0  0  0  0  0  0  0  0
  147.1183  139.2586  153.3828 C   0  0  0  0  0  0  0  0  0  0  0  0
  147.1201  137.9750  152.6887 N   0  0  0  0  0  0  0  0  0  0  0  0
  146.0226  137.3126  152.2959 C   0  0  0  0  0  0  0  0  0  0  0  0
  144.8773  137.7185  152.4946 O   0  0  0  0  0  0  0  0  0  0  0  0
  146.3396  136.1671  151.6705 N   0  0  0  0  0  0  0  0  0  0  0  0
  145.4477  135.2134  151.1176 C   0  0  0  0  0  0  0  0  0  0  0  0
  145.7438  133.8341  150.9428 C   0  0  0  0  0  0  0  0  0  0  0  0
  144.7222  133.1846  150.4032 N   0  0  0  0  0  0  0  0  0  0  0  0
  143.7768  134.1361  150.2319 N   0  0  0  0  0  0  0  0  0  0  0  0
  144.1741  135.3862  150.6525 C   0  0  0  0  0  0  0  0  0  0  0  0
  148.9901  138.7978  155.0952 C   0  0  0  0  0  0  0  0  0  0  0  0
  142.8753  133.9194  149.8306 H   0  0  0  0  0  0  0  0  0  0  0  0
  152.9218  138.2580  155.1932 H   0  0  0  0  0  0  0  0  0  0  0  0
  152.0446  139.4552  154.2463 H   0  0  0  0  0  0  0  0  0  0  0  0
  151.3917  137.8277  154.4424 H   0  0  0  0  0  0  0  0  0  0  0  0
  151.0893  138.2542  156.9184 H   0  0  0  0  0  0  0  0  0  0  0  0
  151.8010  139.8417  156.7191 H   0  0  0  0  0  0  0  0  0  0  0  0
  149.9333  141.8018  156.0290 H   0  0  0  0  0  0  0  0  0  0  0  0
  150.7772  141.0952  154.6502 H   0  0  0  0  0  0  0  0  0  0  0  0
  147.7763  141.3360  155.0327 H   0  0  0  0  0  0  0  0  0  0  0  0
  148.7228  141.8102  153.6186 H   0  0  0  0  0  0  0  0  0  0  0  0
  149.2448  139.5146  153.1016 H   0  0  0  0  0  0  0  0  0  0  0  0
  146.4023  139.2305  154.2060 H   0  0  0  0  0  0  0  0  0  0  0  0
  146.7566  140.0162  152.6870 H   0  0  0  0  0  0  0  0  0  0  0  0
  148.0210  137.5687  152.4815 H   0  0  0  0  0  0  0  0  0  0  0  0
  147.3220  135.9564  151.5737 H   0  0  0  0  0  0  0  0  0  0  0  0
  146.6474  133.2938  151.1843 H   0  0  0  0  0  0  0  0  0  0  0  0
  143.5313  136.2512  150.5822 H   0  0  0  0  0  0  0  0  0  0  0  0
  149.4957  137.8925  154.7555 H   0  0  0  0  0  0  0  0  0  0  0  0
  148.1473  138.4878  155.7143 H   0  0  0  0  0  0  0  0  0  0  0  0
  149.3838  139.7768  156.8031 H   0  0  0  0  0  0  0  0  0  0  0  0
  1  2  1  0  0  0  0
  1 19  1  0  0  0  0
  1 20  1  0  0  0  0
  1 21  1  0  0  0  0
  2  3  1  0  0  0  0
  2 22  1  0  0  0  0
  2 23  1  0  0  0  0
  3 17  1  0  0  0  0
  3  4  1  0  0  0  0
  3 37  1  0  0  0  0
  4  5  1  0  0  0  0
  4 24  1  0  0  0  0
  4 25  1  0  0  0  0
  5  6  1  0  0  0  0
  5 26  1  0  0  0  0
  5 27  1  0  0  0  0
  6  7  1  0  0  0  0
  6 17  1  0  0  0  0
  6 28  1  0  0  0  0
  7  8  1  0  0  0  0
  7 29  1  0  0  0  0
  7 30  1  0  0  0  0
  8  9  1  0  0  0  0
  8 31  1  0  0  0  0
  9 10  2  0  0  0  0
  9 11  1  0  0  0  0
 11 12  1  0  0  0  0
 11 32  1  0  0  0  0
 12 16  2  0  0  0  0
 12 13  1  0  0  0  0
 13 14  2  0  0  0  0
 13 33  1  0  0  0  0
 14 15  1  0  0  0  0
 15 18  1  0  0  0  0
 15 16  1  0  0  0  0
 16 34  1  0  0  0  0
 17 35  1  0  0  0  0
 17 36  1  0  0  0  0
M  CHG  1   3   1
M  END
> <s_m_source_file>
AV-unprocessed.smi

> <i_m_source_file_index>
1588

> <i_lp_mmshare_version>
43012

> <i_f3d_flags>
0

> <s_epik_input>
W0NIM11bQ0gyXU4xW0NIMl1bQ0gyXVtDQEhdKFtDSDJdMSlbQ0gyXVtOSF1DKD1PKVtOSF1jMltjSF1uW25IXVtjSF0y

> <s_epik_cmdline>
J2VwaWtfcHl0aG9uJywgJy1waCcsICc3LjAnLCAnLXRuJywgJzgnLCAnLW1hJywgJzIwMCcsICctbWV0YWxfYmluZGluZycsICctaW1hZScsICc8aW5maWxlLm1hZT4nLCAnLW9tYWUnLCAnPG91dGZpbGUubWFlPic=

> <r_lp_tautomer_probability>
0.5

> <r_epik_Ionization_Penalty>
0.000628417

> <r_epik_Ionization_Penalty_Charging>
0.000582718

> <r_epik_Ionization_Penalty_Neutral>
4.56984e-05

> <r_epik_State_Penalty>
0.000366292

> <r_epik_Charging_Adjusted_Penalty>
0.00094901

> <i_epik_Tot_Q>
1

> <i_epik_Tot_abs_Q>
1

> <r_epik_Metal_State_Penalty>
-0

> <b_epik_Metal_Only>
0

> <s_lp_Force_Field>
OPLS_2005

> <r_lp_Energy>
31.1472

> <b_lp_Chiralities_Consistent>
1

> <s_lp_Variant>
AV-unprocessed.smi:1588-3

> <Gold.Version>
5.8.1

> <Gold.Id.Protein>
6NUR|6NUR_protein|mol2

> <Gold.PLP.Fitness>
39.0087

> <Gold.PLP.PLP>
-27.5938

> <Gold.PLP.part.hbond>
-3.0000

> <Gold.PLP.part.metal>
0.0000

> <Gold.PLP.part.buried>
-2.6710

> <Gold.PLP.part.nonpolar>
-24.3729

> <Gold.PLP.part.repulsive>
1.6143

> <Gold.PLP.ligand.clash>
0.0000

> <Gold.PLP.ligand.torsion>
0.2941

> <Gold.PLP.Chemscore.Hbond>
2.9920

> <Gold.PLP.Chemscore.CHOScore>
0.9999

> <Gold.PLP.Chemscore.Metal>
0.0000

> <Gold.Chemscore.Hbonds>
donor molecule, donor type, donor heavy atom, donor atom, acceptor molecule, acceptor atom, score
      L1  H     8    31       P1  7948  0.99
      L1  H    11    32       P1  7948  1.00
      L1  H    15    18       P1 10186  0.98
      L1  C    16    34       P1 10171  1.00

> <Gold.PLP.Chemscore.Internal.Correction>
0.0274

> <Gold.Rescore>
     Score         DG    S(hbond)    S(metal)    S(lipo)     H(rot)  DE(clash)    DE(int)     intcor
     17.45     -18.31       2.87        0.00      62.21       1.58       0.48       0.39       ----

> <Gold.Chemscore.Fitness>
17.4467

> <Gold.Chemscore.DG>
-18.3150

> <Gold.Chemscore.ZeroCoef>
-5.4800

> <Gold.Chemscore.Hbond>
2.8711

> <Gold.Chemscore.Metal>
0.0000

> <Gold.Chemscore.Lipo>
62.2072

> <Gold.Chemscore.Internal_Hbond>
0.0000

> <Gold.Chemscore.DEClash>
0.4755

> <Gold.Chemscore.DEInternal>
0.3928

> <Gold.Chemscore.Rot>
1.5753

> <Gold.Chemscore.Internal.Correction>
   9.000000E+99

> <Gold.Chemscore.Hbonds>
donor molecule, donor type, donor heavy atom, donor atom, acceptor molecule, acceptor atom, score
      L1  H     8    31       P1  7948  0.94
      L1  H    11    32       P1  7948  0.98
      L1  H    15    18       P1 10186  0.91

> <Gold.Chemscore.Hbond.Weighted>
-9.5895

> <Gold.Chemscore.Metal.Weighted>
-0.0000

> <Gold.Chemscore.Lipo.Weighted>
-7.2782

> <Gold.Chemscore.Internal_Hbond.Weighted>
0.0000

> <Gold.Chemscore.DEClash.Weighted>
0.4755

> <Gold.Chemscore.DEInternal.Weighted>
0.3928

> <Gold.Chemscore.Rot.Weighted>
4.0328

> <Gold.Chemscore.Internal.Correction.Weighted>
   9.000000E+99

> <Gold.Protein.RotatedTorsions>
[ 6907 6896 6895 6894 ] final  170.33 input  -60.11 | X-H torsion
[ 7974 7965 7964 7962 ] final   85.22 input  175.53 | X-H torsion
[ 8008 7997 7996 7995 ] final   -0.05 input   59.86 | X-H torsion
[ 10167 10162 10161 10158 ] final  145.62 input  -65.29 | X-H torsion
[ 10718 10713 10712 10709 ] final -168.75 input   66.30 | X-H torsion
[ 10763 10752 10751 10750 ] final  -26.13 input  -60.55 | X-H torsion
[ 11005 11000 10999 10996 ] final  103.04 input  -57.11 | X-H torsion

> <Gold.Protein.ActiveResidues>
 VAL166  LYS551  ARG553  GLY616  TRP617  ASP618  TYR619  PRO620  LYS621  CYS622 
 ASP623  PHE694  ASN695  SER759  ASP760  ASP761  ALA762  ILE779  LEU786  VAL792 
 PHE793  MET794  SER795  GLU796  ALA797  LYS798  CYS799  TRP800  GLU811  SER814 

> <Gold.Protein.RotatedAtoms>
  151.8177  133.3390  159.3574 H   0  0  0  0  0  0  0  0  0  0  0  0  # atno 6907 bound_to 6896
  150.7305  134.5603  159.5848 H   0  0  0  0  0  0  0  0  0  0  0  0  # atno 6908 bound_to 6896
  152.3028  134.7591  160.0405 H   0  0  0  0  0  0  0  0  0  0  0  0  # atno 6909 bound_to 6896
  145.5884  139.2334  143.2313 H   0  0  0  0  0  0  0  0  0  0  0  0  # atno 7974 bound_to 7965
  154.6625  140.2594  155.7093 H   0  0  0  0  0  0  0  0  0  0  0  0  # atno 8008 bound_to 7997
  156.2624  140.2845  156.1024 H   0  0  0  0  0  0  0  0  0  0  0  0  # atno 8009 bound_to 7997
  155.1287  140.0378  157.2759 H   0  0  0  0  0  0  0  0  0  0  0  0  # atno 8010 bound_to 7997
  139.4922  144.5889  151.6722 H   0  0  0  0  0  0  0  0  0  0  0  0  # atno 10167 bound_to 10162
  156.7015  130.9198  151.3080 H   0  0  0  0  0  0  0  0  0  0  0  0  # atno 10718 bound_to 10713
  153.7110  135.6950  153.5037 H   0  0  0  0  0  0  0  0  0  0  0  0  # atno 10763 bound_to 10752
  153.2273  135.4349  155.0555 H   0  0  0  0  0  0  0  0  0  0  0  0  # atno 10764 bound_to 10752
  154.8315  135.3475  154.6646 H   0  0  0  0  0  0  0  0  0  0  0  0  # atno 10765 bound_to 10752
  139.8781  134.9247  156.5149 H   0  0  0  0  0  0  0  0  0  0  0  0  # atno 11005 bound_to 11000
  146.1665  140.6711  142.9253 LP  0  0  0  0  0  0  0  0  0  0  0  0  # atno 17320 bound_to 7965
  144.7362  140.4815  143.6902 LP  0  0  0  0  0  0  0  0  0  0  0  0  # atno 17321 bound_to 7965
  140.5511  144.0424  150.6127 LP  0  0  0  0  0  0  0  0  0  0  0  0  # atno 17342 bound_to 10162
  140.3478  143.2981  152.0519 LP  0  0  0  0  0  0  0  0  0  0  0  0  # atno 17343 bound_to 10162
  157.6971  130.9293  150.0676 LP  0  0  0  0  0  0  0  0  0  0  0  0  # atno 17370 bound_to 10713
  156.1725  130.3647  149.9145 LP  0  0  0  0  0  0  0  0  0  0  0  0  # atno 17371 bound_to 10713
  140.8493  133.8144  155.9153 LP  0  0  0  0  0  0  0  0  0  0  0  0  # atno 17394 bound_to 11000
  140.9160  134.2201  157.4956 LP  0  0  0  0  0  0  0  0  0  0  0  0  # atno 17395 bound_to 11000

$$$$
