#       Name:                AV-unprocessed.smi:1540
#       Creating user name   scv26
#       Creation time:       Fri Mar 27 06:36:48 2020


#       File generated by GOLD software.
#

@<TRIPOS>MOLECULE
AV-unprocessed.smi:1540
    39    39     1
SMALL
NO_CHARGES


@<TRIPOS>ATOM
      1 ****        -4.8362   0.1957   1.1577 C.2            1 S1                 0.0000
      2 ****        -3.9617  -0.2800   2.0569 C.2            1 S1                 0.0000
      3 ****        -2.4578  -0.2011   1.9153 C.3            1 S1                 0.0000
      4 ****        -1.8933  -1.5068   1.9275 O.3            1 S1                 0.0000
      5 ****        -0.4686  -1.5610   1.9357 C.3            1 S1                 0.0000
      6 ****        -0.0613  -3.0056   2.2626 C.3            1 S1                 0.0000
      7 ****         0.0950  -1.1107   0.5775 C.2            1 S1                 0.0000
      8 ****        -0.0689  -1.8225  -0.4132 O.2            1 S1                 0.0000
      9 ****         0.7145   0.0862   0.5788 N.am           1 S1                 0.0000
     10 ****         1.3305   0.7738  -0.4800 C.2            1 S1                 0.0000
     11 ****         1.7199   0.2081  -1.6524 C.2            1 S1                 0.0000
     12 ****         2.3669   0.9772  -2.7026 C.2            1 S1                 0.0000
     13 ****         2.7249   0.3512  -4.0416 C.3            1 S1                 0.0000
     14 ****         2.6968   1.2548  -5.0222 F              1 S1                 0.0000
     15 ****         3.9524  -0.1635  -3.9865 F              1 S1                 0.0000
     16 ****         1.8777  -0.6300  -4.3522 F              1 S1                 0.0000
     17 ****         2.5558   2.2870  -2.4576 C.2            1 S1                 0.0000
     18 ****         2.1786   2.8713  -1.2463 N.am           1 S1                 0.0000
     19 ****         1.5779   2.2043  -0.2354 C.2            1 S1                 0.0000
     20 ****         1.2746   2.7915   0.8027 O.2            1 S1                 0.0000
     21 ****         2.3702   3.8562  -1.1323 H              1 S1                 0.0000
     22 ****        -4.5028   0.6781   0.2504 H              1 S1                 0.0000
     23 ****        -5.9006   0.1073   1.3186 H              1 S1                 0.0000
     24 ****        -4.3319  -0.7572   2.9525 H              1 S1                 0.0000
     25 ****        -2.2078   0.3270   0.9940 H              1 S1                 0.0000
     26 ****        -2.0661   0.3850   2.7477 H              1 S1                 0.0000
     27 ****        -0.0873  -0.9137   2.7280 H              1 S1                 0.0000
     28 ****         1.0230  -3.1232   2.2576 H              1 S1                 0.0000
     29 ****        -0.4797  -3.7131   1.5456 H              1 S1                 0.0000
     30 ****        -0.4182  -3.2922   3.2520 H              1 S1                 0.0000
     31 ****         0.7040   0.5897   1.4542 H              1 S1                 0.0000
     32 ****         1.5810  -0.8449  -1.8342 H              1 S1                 0.0000
     33 ****         2.9978   2.9798  -3.1586 H              1 S1                 0.0000
     34 ****        -2.2150  -1.9888   1.1126 LP             1 S1                 0.0000
     35 ****        -2.2239  -1.9775   2.7455 LP             1 S1                 0.0000
     36 ****        -0.5655  -2.6866  -0.3314 LP             1 S1                 0.0000
     37 ****         0.2946  -1.5366  -1.2999 LP             1 S1                 0.0000
     38 ****         0.8302   2.2935   1.5473 LP             1 S1                 0.0000
     39 ****         1.4726   3.7667   0.9016 LP             1 S1                 0.0000
@<TRIPOS>BOND
    1    1    2 2     
    2    1   22 1     
    3    1   23 1     
    4    2    3 1     
    5    2   24 1     
    6    3    4 1     
    7    3   25 1     
    8    3   26 1     
    9    4    5 1     
   10    5    6 1     
   11    5    7 1     
   12    5   27 1     
   13    6   28 1     
   14    6   29 1     
   15    6   30 1     
   16    7    8 2     
   17    7    9 am    
   18    9   10 1     
   19    9   31 1     
   20   10   19 1     
   21   10   11 2     
   22   11   12 1     
   23   11   32 1     
   24   12   13 1     
   25   12   17 2     
   26   13   14 1     
   27   13   15 1     
   28   13   16 1     
   29   17   18 1     
   30   17   33 1     
   31   18   21 1     
   32   18   19 am    
   33   19   20 2     
   34    4   34 1     
   35    4   35 1     
   36    8   36 1     
   37    8   37 1     
   38   20   38 1     
   39   20   39 1     
@<TRIPOS>SUBSTRUCTURE
      1 S1             1
@<TRIPOS>SET
LONE_PAIRS      STATIC     ATOMS    <user>   **** ""
6 34 35 36 37 38 39
DONOR_HYDROGENS      STATIC     ATOMS    <user>   **** ""
2 31 21
ATOM$BLUE        STATIC     ATOMS    COLORGROUP SYSTEM
6 34 35 36 37 38 39
ATOM$RED        STATIC     ATOMS    COLORGROUP SYSTEM
2 31 21
