AV-unprocessed.smi:800|AV-procd|sdf|3788|dock7
  -GOLD-   22720 1223D 1   1.00000     0.00000
 Structure written by MMmdl.
 35 36  0  0  0  0  0  0  0  0  2 V2000
  147.2757  135.6453  163.0595 C   0  0  0  0  0  0  0  0  0  0  0  0
  146.6222  136.6475  162.0953 C   0  0  0  0  0  0  0  0  0  0  0  0
  145.4043  136.0355  161.3895 C   0  0  0  0  0  0  0  0  0  0  0  0
  147.5976  137.0605  161.0871 N   0  5  0  0  0  0  0  0  0  0  0  0
  148.3760  136.1991  160.3721 C   0  0  0  0  0  0  0  0  0  0  0  0
  148.4447  134.9658  160.4183 O   0  0  0  0  0  0  0  0  0  0  0  0
  149.3148  136.9213  159.4481 C   0  0  0  0  0  0  0  0  0  0  0  0
  150.5913  137.0592  159.8763 N   0  0  0  0  0  0  0  0  0  0  0  0
  151.4648  137.6992  159.0905 C   0  0  0  0  0  0  0  0  0  0  0  0
  152.7763  137.8415  159.5627 N   0  0  0  0  0  0  0  0  0  0  0  0
  153.1261  137.6502  160.9721 C   0  0  0  0  0  0  0  0  0  0  0  0
  154.5416  137.0634  161.1072 C   0  0  0  0  0  0  0  0  0  0  0  0
  155.4750  137.8905  160.4232 O   0  0  0  0  0  0  0  0  0  0  0  0
  155.1871  137.9629  159.0320 C   0  0  0  0  0  0  0  0  0  0  0  0
  153.7968  138.5849  158.8191 C   0  0  0  0  0  0  0  0  0  0  0  0
  151.1782  138.2140  157.8884 N   0  0  0  0  0  0  0  0  0  0  0  0
  149.9165  138.0734  157.4313 C   0  0  0  0  0  0  0  0  0  0  0  0
  148.9202  137.4171  158.1777 C   0  0  0  0  0  0  0  0  0  0  0  0
  147.3325  137.2235  157.5145 Cl  0  0  0  0  0  0  0  0  0  0  0  0
  146.5664  135.3152  163.8187 H   0  0  0  0  0  0  0  0  0  0  0  0
  148.1253  136.0914  163.5779 H   0  0  0  0  0  0  0  0  0  0  0  0
  147.6343  134.7601  162.5328 H   0  0  0  0  0  0  0  0  0  0  0  0
  146.2653  137.4947  162.6829 H   0  0  0  0  0  0  0  0  0  0  0  0
  144.6522  135.7203  162.1131 H   0  0  0  0  0  0  0  0  0  0  0  0
  145.6815  135.1623  160.7980 H   0  0  0  0  0  0  0  0  0  0  0  0
  144.9330  136.7564  160.7202 H   0  0  0  0  0  0  0  0  0  0  0  0
  153.0702  138.6144  161.4784 H   0  0  0  0  0  0  0  0  0  0  0  0
  152.4310  136.9845  161.4827 H   0  0  0  0  0  0  0  0  0  0  0  0
  154.8240  137.0048  162.1582 H   0  0  0  0  0  0  0  0  0  0  0  0
  154.5806  136.0474  160.7107 H   0  0  0  0  0  0  0  0  0  0  0  0
  155.9484  138.5721  158.5448 H   0  0  0  0  0  0  0  0  0  0  0  0
  155.2410  136.9691  158.5842 H   0  0  0  0  0  0  0  0  0  0  0  0
  153.5941  138.6113  157.7488 H   0  0  0  0  0  0  0  0  0  0  0  0
  153.7935  139.6189  159.1651 H   0  0  0  0  0  0  0  0  0  0  0  0
  149.7048  138.4796  156.4533 H   0  0  0  0  0  0  0  0  0  0  0  0
  1  2  1  0  0  0  0
  1 20  1  0  0  0  0
  1 21  1  0  0  0  0
  1 22  1  0  0  0  0
  2  3  1  0  0  0  0
  2  4  1  0  0  0  0
  2 23  1  0  0  0  0
  3 24  1  0  0  0  0
  3 25  1  0  0  0  0
  3 26  1  0  0  0  0
  4  5  1  0  0  0  0
  5  6  2  0  0  0  0
  5  7  1  0  0  0  0
  7 18  1  0  0  0  0
  7  8  2  0  0  0  0
  8  9  1  0  0  0  0
  9 10  1  0  0  0  0
  9 16  2  0  0  0  0
 10 15  1  0  0  0  0
 10 11  1  0  0  0  0
 11 12  1  0  0  0  0
 11 27  1  0  0  0  0
 11 28  1  0  0  0  0
 12 13  1  0  0  0  0
 12 29  1  0  0  0  0
 12 30  1  0  0  0  0
 13 14  1  0  0  0  0
 14 15  1  0  0  0  0
 14 31  1  0  0  0  0
 14 32  1  0  0  0  0
 15 33  1  0  0  0  0
 15 34  1  0  0  0  0
 16 17  1  0  0  0  0
 17 18  2  0  0  0  0
 17 35  1  0  0  0  0
 18 19  1  0  0  0  0
M  CHG  1   4  -1
M  END
> <s_m_source_file>
AV-unprocessed.smi

> <i_m_source_file_index>
800

> <i_lp_mmshare_version>
43012

> <i_f3d_flags>
0

> <s_epik_input>
W0NIM11bQ0hdKFtDSDNdKVtOSF1DKD1PKWMxbmMobltjSF1jMUNsKU4yW0NIMl1bQ0gyXU9bQ0gyXVtDSDJdMg==

> <s_epik_cmdline>
J2VwaWtfcHl0aG9uJywgJy1waCcsICc3LjAnLCAnLXRuJywgJzgnLCAnLW1hJywgJzIwMCcsICctbWV0YWxfYmluZGluZycsICctaW1hZScsICc8aW5maWxlLm1hZT4nLCAnLW9tYWUnLCAnPG91dGZpbGUubWFlPic=

> <r_lp_tautomer_probability>
1

> <r_epik_Ionization_Penalty>
6.38192

> <r_epik_Ionization_Penalty_Charging>
6.38189

> <r_epik_Ionization_Penalty_Neutral>
2.33077e-05

> <r_epik_State_Penalty>
6.38188

> <r_epik_Charging_Adjusted_Penalty>
12.7638

> <i_epik_Tot_Q>
-1

> <i_epik_Tot_abs_Q>
1

> <r_epik_Metal_State_Penalty>
2.31349

> <b_epik_Metal_Only>
1

> <s_lp_Force_Field>
OPLS_2005

> <r_lp_Energy>
18.4653

> <b_lp_Chiralities_Consistent>
1

> <s_lp_Variant>
AV-unprocessed.smi:800-2

> <Gold.Version>
5.8.1

> <Gold.Id.Protein>
6NUR|6NUR_protein|mol2

> <Gold.PLP.Fitness>
37.8794

> <Gold.PLP.PLP>
-26.8942

> <Gold.PLP.part.hbond>
-3.2042

> <Gold.PLP.part.metal>
0.0000

> <Gold.PLP.part.buried>
-4.4716

> <Gold.PLP.part.nonpolar>
-20.0960

> <Gold.PLP.part.repulsive>
0.0000

> <Gold.PLP.ligand.clash>
0.0000

> <Gold.PLP.ligand.torsion>
1.6484

> <Gold.PLP.Chemscore.Hbond>
4.7280

> <Gold.PLP.Chemscore.CHOScore>
0.0000

> <Gold.PLP.Chemscore.Metal>
0.0000

> <Gold.Chemscore.Hbonds>
donor molecule, donor type, donor heavy atom, donor atom, acceptor molecule, acceptor atom, score
      P1  H  6896  6909       L1     8  0.99
      P1  H  6931  6943       L1     4  1.90
      P1  H  6934  6947       L1     4  1.89

> <Gold.PLP.Chemscore.Internal.Correction>
0.0981

> <Gold.Rescore>
     Score         DG    S(hbond)    S(metal)    S(lipo)     H(rot)  DE(clash)    DE(int)     intcor
     13.37     -14.83       1.71        0.00      53.02       1.00       0.00       1.45       ----

> <Gold.Chemscore.Fitness>
13.3725

> <Gold.Chemscore.DG>
-14.8299

> <Gold.Chemscore.ZeroCoef>
-5.4800

> <Gold.Chemscore.Hbond>
1.7086

> <Gold.Chemscore.Metal>
0.0000

> <Gold.Chemscore.Lipo>
53.0190

> <Gold.Chemscore.Internal_Hbond>
0.0000

> <Gold.Chemscore.DEClash>
0.0033

> <Gold.Chemscore.DEInternal>
1.4541

> <Gold.Chemscore.Rot>
1.0000

> <Gold.Chemscore.Internal.Correction>
   9.000000E+99

> <Gold.Chemscore.Hbonds>
donor molecule, donor type, donor heavy atom, donor atom, acceptor molecule, acceptor atom, score
      P1  H  6896  6909       L1     8  0.16
      P1  H  6931  6943       L1     4  0.17
      P1  H  6934  6947       L1     4  0.26

> <Gold.Chemscore.Hbond.Weighted>
-5.7067

> <Gold.Chemscore.Metal.Weighted>
-0.0000

> <Gold.Chemscore.Lipo.Weighted>
-6.2032

> <Gold.Chemscore.Internal_Hbond.Weighted>
0.0000

> <Gold.Chemscore.DEClash.Weighted>
0.0033

> <Gold.Chemscore.DEInternal.Weighted>
1.4541

> <Gold.Chemscore.Rot.Weighted>
2.5600

> <Gold.Chemscore.Internal.Correction.Weighted>
   9.000000E+99

> <Gold.Protein.RotatedTorsions>
[ 6907 6896 6895 6894 ] final  101.83 input  -60.11 | X-H torsion
[ 7974 7965 7964 7962 ] final  155.46 input  175.53 | X-H torsion
[ 8008 7997 7996 7995 ] final   50.61 input   59.86 | X-H torsion
[ 10167 10162 10161 10158 ] final -129.00 input  -65.29 | X-H torsion
[ 10718 10713 10712 10709 ] final  177.19 input   66.30 | X-H torsion
[ 10763 10752 10751 10750 ] final  -72.61 input  -60.55 | X-H torsion
[ 11005 11000 10999 10996 ] final   63.13 input  -57.11 | X-H torsion

> <Gold.Protein.ActiveResidues>
 VAL166  LYS551  ARG553  GLY616  TRP617  ASP618  TYR619  PRO620  LYS621  CYS622 
 ASP623  PHE694  ASN695  SER759  ASP760  ASP761  ALA762  ILE779  LEU786  VAL792 
 PHE793  MET794  SER795  GLU796  ALA797  LYS798  CYS799  TRP800  GLU811  SER814 

> <Gold.Protein.RotatedAtoms>
  152.5339  134.0067  159.7919 H   0  0  0  0  0  0  0  0  0  0  0  0  # atno 6907 bound_to 6896
  151.0276  133.5811  159.2671 H   0  0  0  0  0  0  0  0  0  0  0  0  # atno 6908 bound_to 6896
  151.2828  135.0726  159.9229 H   0  0  0  0  0  0  0  0  0  0  0  0  # atno 6909 bound_to 6896
  144.8023  139.7071  143.6176 H   0  0  0  0  0  0  0  0  0  0  0  0  # atno 7974 bound_to 7965
  155.4216  140.3447  155.4272 H   0  0  0  0  0  0  0  0  0  0  0  0  # atno 8008 bound_to 7997
  156.1389  140.1536  156.8982 H   0  0  0  0  0  0  0  0  0  0  0  0  # atno 8009 bound_to 7997
  154.4955  140.0829  156.7667 H   0  0  0  0  0  0  0  0  0  0  0  0  # atno 8010 bound_to 7997
  139.9444  143.6126  152.2494 H   0  0  0  0  0  0  0  0  0  0  0  0  # atno 10167 bound_to 10162
  156.9090  130.9903  151.3024 H   0  0  0  0  0  0  0  0  0  0  0  0  # atno 10718 bound_to 10713
  154.4480  135.5924  153.6173 H   0  0  0  0  0  0  0  0  0  0  0  0  # atno 10763 bound_to 10752
  152.9811  135.6014  154.3640 H   0  0  0  0  0  0  0  0  0  0  0  0  # atno 10764 bound_to 10752
  154.3497  135.2841  155.2357 H   0  0  0  0  0  0  0  0  0  0  0  0  # atno 10765 bound_to 10752
  140.0045  134.6391  155.9877 H   0  0  0  0  0  0  0  0  0  0  0  0  # atno 11005 bound_to 11000
  146.2307  139.5809  142.9557 LP  0  0  0  0  0  0  0  0  0  0  0  0  # atno 17320 bound_to 7965
  145.5522  141.0412  143.2272 LP  0  0  0  0  0  0  0  0  0  0  0  0  # atno 17321 bound_to 7965
  139.6678  144.7662  151.1839 LP  0  0  0  0  0  0  0  0  0  0  0  0  # atno 17342 bound_to 10162
  140.7601  143.5910  150.8796 LP  0  0  0  0  0  0  0  0  0  0  0  0  # atno 17343 bound_to 10162
  157.5979  130.8491  149.8757 LP  0  0  0  0  0  0  0  0  0  0  0  0  # atno 17370 bound_to 10713
  156.0545  130.3711  150.1123 LP  0  0  0  0  0  0  0  0  0  0  0  0  # atno 17371 bound_to 10713
  141.1667  133.6537  156.4503 LP  0  0  0  0  0  0  0  0  0  0  0  0  # atno 17394 bound_to 11000
  140.4667  134.6791  157.5110 LP  0  0  0  0  0  0  0  0  0  0  0  0  # atno 17395 bound_to 11000

$$$$
