AV-unprocessed.smi:3331|AV-procd|sdf|12818|dock9
  -GOLD-   2272019193D 1   1.00000     0.00000
 Structure written by MMmdl.
 47 48  0  0  0  0  0  0  0  0  2 V2000
  150.3447  141.8036  157.1411 C   0  0  0  0  0  0  0  0  0  0  0  0
  149.6883  140.7621  156.2242 C   0  0  2  0  0  0  0  0  0  0  0  0
  150.5399  139.4757  156.1260 C   0  0  0  0  0  0  0  0  0  0  0  0
  149.9700  138.4656  155.1043 C   0  0  2  0  0  0  0  0  0  0  0  0
  150.8973  137.2552  154.9307 C   0  0  0  0  0  0  0  0  0  0  0  0
  149.7016  139.1761  153.7623 C   0  0  0  0  0  0  0  0  0  0  0  0
  148.7776  140.2910  154.0050 N   0  0  0  0  0  0  0  0  0  0  0  0
  147.4585  140.3227  153.6886 C   0  0  0  0  0  0  0  0  0  0  0  0
  146.7465  141.2923  153.9573 O   0  0  0  0  0  0  0  0  0  0  0  0
  146.8053  139.1222  152.9707 C   0  0  2  0  0  0  0  0  0  0  0  0
  146.6106  139.4399  151.4792 C   0  0  0  0  0  0  0  0  0  0  0  0
  145.4995  138.7656  153.5738 N   0  3  0  0  0  0  0  0  0  0  0  0
  145.1278  137.3389  153.4583 C   0  0  0  0  0  0  0  0  0  0  0  0
  145.1035  136.8934  151.9896 C   0  0  0  0  0  0  0  0  0  0  0  0
  144.4465  135.6108  151.8290 N   0  0  0  0  0  0  0  0  0  0  0  0
  144.3432  134.8352  150.6934 C   0  0  0  0  0  0  0  0  0  0  0  0
  143.6378  133.7154  151.0297 C   0  0  0  0  0  0  0  0  0  0  0  0
  143.3525  133.8976  152.4118 C   0  0  0  0  0  0  0  0  0  0  0  0
  143.8390  135.0329  152.8877 N   0  0  0  0  0  0  0  0  0  0  0  0
  149.4165  141.3345  154.8164 C   0  0  0  0  0  0  0  0  0  0  0  0
  151.3121  142.1220  156.7516 H   0  0  0  0  0  0  0  0  0  0  0  0
  150.5046  141.4005  158.1415 H   0  0  0  0  0  0  0  0  0  0  0  0
  149.7173  142.6898  157.2397 H   0  0  0  0  0  0  0  0  0  0  0  0
  148.7279  140.4947  156.6678 H   0  0  0  0  0  0  0  0  0  0  0  0
  151.5559  139.7437  155.8320 H   0  0  0  0  0  0  0  0  0  0  0  0
  150.6197  139.0073  157.1078 H   0  0  0  0  0  0  0  0  0  0  0  0
  149.0174  138.0965  155.4881 H   0  0  0  0  0  0  0  0  0  0  0  0
  151.8718  137.5545  154.5437 H   0  0  0  0  0  0  0  0  0  0  0  0
  150.4710  136.5303  154.2367 H   0  0  0  0  0  0  0  0  0  0  0  0
  151.0585  136.7458  155.8813 H   0  0  0  0  0  0  0  0  0  0  0  0
  150.6362  139.5680  153.3575 H   0  0  0  0  0  0  0  0  0  0  0  0
  149.3506  138.4715  153.0110 H   0  0  0  0  0  0  0  0  0  0  0  0
  147.4314  138.2355  153.0633 H   0  0  0  0  0  0  0  0  0  0  0  0
  147.5528  139.7013  150.9965 H   0  0  0  0  0  0  0  0  0  0  0  0
  145.9236  140.2749  151.3344 H   0  0  0  0  0  0  0  0  0  0  0  0
  146.2024  138.5800  150.9474 H   0  0  0  0  0  0  0  0  0  0  0  0
  145.5172  139.0253  154.5500 H   0  0  0  0  0  0  0  0  0  0  0  0
  145.8440  136.7379  154.0204 H   0  0  0  0  0  0  0  0  0  0  0  0
  144.1478  137.1743  153.9079 H   0  0  0  0  0  0  0  0  0  0  0  0
  144.5801  137.6302  151.3787 H   0  0  0  0  0  0  0  0  0  0  0  0
  146.1174  136.8147  151.5944 H   0  0  0  0  0  0  0  0  0  0  0  0
  144.7737  135.1405  149.7510 H   0  0  0  0  0  0  0  0  0  0  0  0
  143.3677  132.8907  150.3867 H   0  0  0  0  0  0  0  0  0  0  0  0
  142.8100  133.2431  153.0780 H   0  0  0  0  0  0  0  0  0  0  0  0
  148.8128  142.2403  154.8893 H   0  0  0  0  0  0  0  0  0  0  0  0
  150.3506  141.6432  154.3446 H   0  0  0  0  0  0  0  0  0  0  0  0
  144.7834  139.3048  153.1087 H   0  0  0  0  0  0  0  0  0  0  0  0
  1  2  1  0  0  0  0
  1 21  1  0  0  0  0
  1 22  1  0  0  0  0
  1 23  1  0  0  0  0
  2 20  1  0  0  0  0
  2  3  1  0  0  0  0
  2 24  1  0  0  0  0
  3  4  1  0  0  0  0
  3 25  1  0  0  0  0
  3 26  1  0  0  0  0
  4  5  1  0  0  0  0
  4  6  1  0  0  0  0
  4 27  1  0  0  0  0
  5 28  1  0  0  0  0
  5 29  1  0  0  0  0
  5 30  1  0  0  0  0
  6  7  1  0  0  0  0
  6 31  1  0  0  0  0
  6 32  1  0  0  0  0
  7  8  1  0  0  0  0
  7 20  1  0  0  0  0
  8  9  2  0  0  0  0
  8 10  1  0  0  0  0
 10 11  1  0  0  0  0
 10 12  1  0  0  0  0
 10 33  1  0  0  0  0
 11 34  1  0  0  0  0
 11 35  1  0  0  0  0
 11 36  1  0  0  0  0
 12 13  1  0  0  0  0
 12 37  1  0  0  0  0
 12 47  1  0  0  0  0
 13 14  1  0  0  0  0
 13 38  1  0  0  0  0
 13 39  1  0  0  0  0
 14 15  1  0  0  0  0
 14 40  1  0  0  0  0
 14 41  1  0  0  0  0
 15 19  1  0  0  0  0
 15 16  1  0  0  0  0
 16 17  2  0  0  0  0
 16 42  1  0  0  0  0
 17 18  1  0  0  0  0
 17 43  1  0  0  0  0
 18 19  2  0  0  0  0
 18 44  1  0  0  0  0
 20 45  1  0  0  0  0
 20 46  1  0  0  0  0
M  CHG  1  12   1
M  END
> <s_m_source_file>
AV-unprocessed.smi

> <i_m_source_file_index>
3331

> <i_lp_mmshare_version>
43012

> <i_f3d_flags>
0

> <s_epik_input>
W0NIM11bQ0BASF0xW0NIMl1bQ0BASF0oW0NIM10pW0NIMl1OKFtDSDJdMSlDKD1PKVtDQEhdKFtDSDNdKVtOSF1bQ0gyXVtDSDJdbjJbY0hdW2NIXVtjSF1uMg==

> <s_epik_cmdline>
J2VwaWtfcHl0aG9uJywgJy1waCcsICc3LjAnLCAnLXRuJywgJzgnLCAnLW1hJywgJzIwMCcsICctbWV0YWxfYmluZGluZycsICctaW1hZScsICc8aW5maWxlLm1hZT4nLCAnLW9tYWUnLCAnPG91dGZpbGUubWFlPic=

> <r_lp_tautomer_probability>
1

> <r_epik_Ionization_Penalty>
0.189706

> <r_epik_Ionization_Penalty_Charging>
0.189703

> <r_epik_Ionization_Penalty_Neutral>
2.45875e-06

> <r_epik_State_Penalty>
0.179341

> <r_epik_Charging_Adjusted_Penalty>
0.369044

> <i_epik_Tot_Q>
1

> <i_epik_Tot_abs_Q>
1

> <r_epik_Metal_State_Penalty>
0.179578

> <b_epik_Metal_Only>
0

> <s_lp_Force_Field>
OPLS_2005

> <r_lp_Energy>
26.1648

> <b_lp_Chiralities_Consistent>
1

> <s_lp_Variant>
AV-unprocessed.smi:3331-2

> <Gold.Version>
5.8.1

> <Gold.Id.Protein>
6NUR|6NUR_protein|mol2

> <Gold.PLP.Fitness>
43.7680

> <Gold.PLP.PLP>
-33.4009

> <Gold.PLP.part.hbond>
-1.0000

> <Gold.PLP.part.metal>
0.0000

> <Gold.PLP.part.buried>
5.4314

> <Gold.PLP.part.nonpolar>
-37.4644

> <Gold.PLP.part.repulsive>
0.2585

> <Gold.PLP.ligand.clash>
0.0000

> <Gold.PLP.ligand.torsion>
0.8476

> <Gold.PLP.Chemscore.Hbond>
2.0000

> <Gold.PLP.Chemscore.CHOScore>
2.0000

> <Gold.PLP.Chemscore.Metal>
0.0000

> <Gold.Chemscore.Hbonds>
donor molecule, donor type, donor heavy atom, donor atom, acceptor molecule, acceptor atom, score
      L1  H    12    47       P1 10175  2.00
      L1  C    16    42       P1  7921  0.99
      L1  C    18    44       P1 10957  1.00

> <Gold.PLP.Chemscore.Internal.Correction>
0.0624

> <Gold.Rescore>
     Score         DG    S(hbond)    S(metal)    S(lipo)     H(rot)  DE(clash)    DE(int)     intcor
     12.15     -13.86       0.98        0.00      81.27       1.73       0.52       1.19       ----

> <Gold.Chemscore.Fitness>
12.1500

> <Gold.Chemscore.DG>
-13.8582

> <Gold.Chemscore.ZeroCoef>
-5.4800

> <Gold.Chemscore.Hbond>
0.9839

> <Gold.Chemscore.Metal>
0.0000

> <Gold.Chemscore.Lipo>
81.2734

> <Gold.Chemscore.Internal_Hbond>
0.0000

> <Gold.Chemscore.DEClash>
0.5172

> <Gold.Chemscore.DEInternal>
1.1909

> <Gold.Chemscore.Rot>
1.7254

> <Gold.Chemscore.Internal.Correction>
   9.000000E+99

> <Gold.Chemscore.Hbonds>
donor molecule, donor type, donor heavy atom, donor atom, acceptor molecule, acceptor atom, score
      L1  H    12    47       P1 10175  1.00

> <Gold.Chemscore.Hbond.Weighted>
-3.2862

> <Gold.Chemscore.Metal.Weighted>
-0.0000

> <Gold.Chemscore.Lipo.Weighted>
-9.5090

> <Gold.Chemscore.Internal_Hbond.Weighted>
0.0000

> <Gold.Chemscore.DEClash.Weighted>
0.5172

> <Gold.Chemscore.DEInternal.Weighted>
1.1909

> <Gold.Chemscore.Rot.Weighted>
4.4170

> <Gold.Chemscore.Internal.Correction.Weighted>
   9.000000E+99

> <Gold.Protein.RotatedTorsions>
[ 6907 6896 6895 6894 ] final  -43.16 input  -60.11 | X-H torsion
[ 7974 7965 7964 7962 ] final  163.51 input  175.53 | X-H torsion
[ 8008 7997 7996 7995 ] final  155.11 input   59.86 | X-H torsion
[ 10167 10162 10161 10158 ] final   94.20 input  -65.29 | X-H torsion
[ 10718 10713 10712 10709 ] final  139.18 input   66.30 | X-H torsion
[ 10763 10752 10751 10750 ] final  -40.84 input  -60.55 | X-H torsion
[ 11005 11000 10999 10996 ] final -161.88 input  -57.11 | X-H torsion

> <Gold.Protein.ActiveResidues>
 VAL166  LYS551  ARG553  GLY616  TRP617  ASP618  TYR619  PRO620  LYS621  CYS622 
 ASP623  PHE694  ASN695  SER759  ASP760  ASP761  ALA762  ILE779  LEU786  VAL792 
 PHE793  MET794  SER795  GLU796  ALA797  LYS798  CYS799  TRP800  GLU811  SER814 

> <Gold.Protein.RotatedAtoms>
  150.9470  134.8874  159.7647 H   0  0  0  0  0  0  0  0  0  0  0  0  # atno 6907 bound_to 6896
  152.5104  134.3860  159.9377 H   0  0  0  0  0  0  0  0  0  0  0  0  # atno 6908 bound_to 6896
  151.3878  133.3759  159.2752 H   0  0  0  0  0  0  0  0  0  0  0  0  # atno 6909 bound_to 6896
  144.7586  139.8193  143.6341 H   0  0  0  0  0  0  0  0  0  0  0  0  # atno 7974 bound_to 7965
  156.2496  140.1948  156.6750 H   0  0  0  0  0  0  0  0  0  0  0  0  # atno 8008 bound_to 7997
  154.6364  140.0589  156.9820 H   0  0  0  0  0  0  0  0  0  0  0  0  # atno 8009 bound_to 7997
  155.1630  140.3261  155.4410 H   0  0  0  0  0  0  0  0  0  0  0  0  # atno 8010 bound_to 7997
  139.8107  144.6775  150.9645 H   0  0  0  0  0  0  0  0  0  0  0  0  # atno 10167 bound_to 10162
  157.4172  131.1034  151.0392 H   0  0  0  0  0  0  0  0  0  0  0  0  # atno 10718 bound_to 10713
  153.9526  135.6749  153.4744 H   0  0  0  0  0  0  0  0  0  0  0  0  # atno 10763 bound_to 10752
  153.0877  135.4890  154.8625 H   0  0  0  0  0  0  0  0  0  0  0  0  # atno 10764 bound_to 10752
  154.7317  135.3139  154.8840 H   0  0  0  0  0  0  0  0  0  0  0  0  # atno 10765 bound_to 10752
  140.6154  134.4805  157.5219 H   0  0  0  0  0  0  0  0  0  0  0  0  # atno 11005 bound_to 11000
  146.1625  139.4744  142.9979 LP  0  0  0  0  0  0  0  0  0  0  0  0  # atno 17320 bound_to 7965
  145.6694  141.0220  143.1666 LP  0  0  0  0  0  0  0  0  0  0  0  0  # atno 17321 bound_to 7965
  140.7818  143.4188  151.0874 LP  0  0  0  0  0  0  0  0  0  0  0  0  # atno 17342 bound_to 10162
  139.7855  143.8293  152.3144 LP  0  0  0  0  0  0  0  0  0  0  0  0  # atno 17343 bound_to 10162
  157.1335  130.6112  149.5536 LP  0  0  0  0  0  0  0  0  0  0  0  0  # atno 17370 bound_to 10713
  155.9869  130.4906  150.7100 LP  0  0  0  0  0  0  0  0  0  0  0  0  # atno 17371 bound_to 10713
  139.9175  134.8217  156.1319 LP  0  0  0  0  0  0  0  0  0  0  0  0  # atno 17394 bound_to 11000
  141.0779  133.6767  156.2274 LP  0  0  0  0  0  0  0  0  0  0  0  0  # atno 17395 bound_to 11000

$$$$
