AV-unprocessed.smi:2999|AV-procd|sdf|11422|dock4
  -GOLD-   2272016343D 1   1.00000     0.00000
 Structure written by MMmdl.
 38 40  0  0  0  0  0  0  0  0  2 V2000
  150.6076  134.9888  155.9137 O   0  0  0  0  0  0  0  0  0  0  0  0
  150.1764  135.3024  154.8045 C   0  0  0  0  0  0  0  0  0  0  0  0
  149.4244  134.4890  154.0491 N   0  0  0  0  0  0  0  0  0  0  0  0
  149.0320  133.1271  154.4038 C   0  0  0  0  0  0  0  0  0  0  0  0
  148.3344  132.3810  153.2494 C   0  0  1  0  0  0  0  0  0  0  0  0
  148.1754  130.8620  153.4744 C   0  0  0  0  0  0  0  0  0  0  0  0
  147.4882  130.2421  152.3195 N   0  3  1  0  0  0  0  0  0  0  0  0
  147.3487  128.7771  152.4659 C   0  0  0  0  0  0  0  0  0  0  0  0
  148.5383  127.9995  151.9532 C   0  0  0  0  0  0  0  0  0  0  0  0
  147.2573  128.0410  151.1497 C   0  0  0  0  0  0  0  0  0  0  0  0
  146.1916  130.9112  152.0675 C   0  0  0  0  0  0  0  0  0  0  0  0
  146.3972  132.4248  151.8907 C   0  0  0  0  0  0  0  0  0  0  0  0
  147.0497  132.9597  153.0368 O   0  0  0  0  0  0  0  0  0  0  0  0
  150.3783  136.4826  154.1975 N   0  0  0  0  0  0  0  0  0  0  0  0
  151.0927  137.6015  154.6928 C   0  0  0  0  0  0  0  0  0  0  0  0
  150.5842  138.8218  154.5137 N   0  0  0  0  0  0  0  0  0  0  0  0
  151.4009  139.8162  155.0602 C   0  0  0  0  0  0  0  0  0  0  0  0
  152.5378  139.3303  155.6570 C   0  0  0  0  0  0  0  0  0  0  0  0
  152.6317  137.5925  155.5580 S   0  0  0  0  0  0  0  0  0  0  0  0
  149.1085  134.8316  153.1534 H   0  0  0  0  0  0  0  0  0  0  0  0
  149.9341  132.5860  154.6905 H   0  0  0  0  0  0  0  0  0  0  0  0
  148.3918  133.1281  155.2874 H   0  0  0  0  0  0  0  0  0  0  0  0
  148.9353  132.5405  152.3521 H   0  0  0  0  0  0  0  0  0  0  0  0
  149.1543  130.4012  153.6123 H   0  0  0  0  0  0  0  0  0  0  0  0
  147.5954  130.6604  154.3755 H   0  0  0  0  0  0  0  0  0  0  0  0
  146.7956  128.4273  153.3360 H   0  0  0  0  0  0  0  0  0  0  0  0
  149.3911  128.5553  151.5674 H   0  0  0  0  0  0  0  0  0  0  0  0
  148.7811  127.0656  152.4558 H   0  0  0  0  0  0  0  0  0  0  0  0
  146.6573  127.1336  151.1218 H   0  0  0  0  0  0  0  0  0  0  0  0
  147.2610  128.6237  150.2301 H   0  0  0  0  0  0  0  0  0  0  0  0
  145.7275  130.4923  151.1740 H   0  0  0  0  0  0  0  0  0  0  0  0
  145.5130  130.7215  152.9007 H   0  0  0  0  0  0  0  0  0  0  0  0
  146.9809  132.6364  150.9932 H   0  0  0  0  0  0  0  0  0  0  0  0
  145.4352  132.9230  151.7684 H   0  0  0  0  0  0  0  0  0  0  0  0
  149.9684  136.5993  153.2826 H   0  0  0  0  0  0  0  0  0  0  0  0
  151.0951  140.8488  154.9795 H   0  0  0  0  0  0  0  0  0  0  0  0
  153.3226  139.8871  156.1472 H   0  0  0  0  0  0  0  0  0  0  0  0
  148.0681  130.4042  151.5086 H   0  0  0  0  0  0  0  0  0  0  0  0
  1  2  2  0  0  0  0
  2  3  1  0  0  0  0
  2 14  1  0  0  0  0
  3  4  1  0  0  0  0
  3 20  1  0  0  0  0
  4  5  1  0  0  0  0
  4 21  1  0  0  0  0
  4 22  1  0  0  0  0
  5 13  1  0  0  0  0
  5  6  1  0  0  0  0
  5 23  1  0  0  0  0
  6  7  1  0  0  0  0
  6 24  1  0  0  0  0
  6 25  1  0  0  0  0
  7  8  1  0  0  0  0
  7 11  1  0  0  0  0
  7 38  1  0  0  0  0
  8 10  1  0  0  0  0
  8  9  1  0  0  0  0
  8 26  1  0  0  0  0
  9 10  1  0  0  0  0
  9 27  1  0  0  0  0
  9 28  1  0  0  0  0
 10 29  1  0  0  0  0
 10 30  1  0  0  0  0
 11 12  1  0  0  0  0
 11 31  1  0  0  0  0
 11 32  1  0  0  0  0
 12 13  1  0  0  0  0
 12 33  1  0  0  0  0
 12 34  1  0  0  0  0
 14 15  1  0  0  0  0
 14 35  1  0  0  0  0
 15 19  1  0  0  0  0
 15 16  2  0  0  0  0
 16 17  1  0  0  0  0
 17 18  2  0  0  0  0
 17 36  1  0  0  0  0
 18 19  1  0  0  0  0
 18 37  1  0  0  0  0
M  CHG  1   7   1
M  END
> <s_m_source_file>
AV-unprocessed.smi

> <i_m_source_file_index>
2999

> <i_lp_mmshare_version>
43012

> <i_f3d_flags>
0

> <s_epik_input>
czFbY0hdW2NIXW5jMVtOSF1DKD1PKVtOSF1bQ0gyXVtDQEBIXTJbQ0gyXU4oW0NIMl1bQ0gyXU8yKVtDSF0zW0NIMl1bQ0gyXTM=

> <s_epik_cmdline>
J2VwaWtfcHl0aG9uJywgJy1waCcsICc3LjAnLCAnLXRuJywgJzgnLCAnLW1hJywgJzIwMCcsICctbWV0YWxfYmluZGluZycsICctaW1hZScsICc8aW5maWxlLm1hZT4nLCAnLW9tYWUnLCAnPG91dGZpbGUubWFlPic=

> <r_lp_tautomer_probability>
0.999

> <r_epik_Ionization_Penalty>
1.55235

> <r_epik_Ionization_Penalty_Charging>
1.55221

> <r_epik_Ionization_Penalty_Neutral>
0.000139685

> <r_epik_State_Penalty>
1.64652

> <r_epik_Charging_Adjusted_Penalty>
3.19873

> <i_epik_Tot_Q>
1

> <i_epik_Tot_abs_Q>
1

> <r_epik_Metal_State_Penalty>
1.68612

> <b_epik_Metal_Only>
0

> <s_lp_Force_Field>
OPLS_2005

> <r_lp_Energy>
20.9615

> <b_lp_Chiralities_Consistent>
1

> <s_lp_Variant>
AV-unprocessed.smi:2999-6

> <Gold.Version>
5.8.1

> <Gold.Id.Protein>
6NUR|6NUR_protein|mol2

> <Gold.PLP.Fitness>
43.4830

> <Gold.PLP.PLP>
-35.3438

> <Gold.PLP.part.hbond>
-3.7629

> <Gold.PLP.part.metal>
0.0000

> <Gold.PLP.part.buried>
-2.6670

> <Gold.PLP.part.nonpolar>
-29.3751

> <Gold.PLP.part.repulsive>
0.3744

> <Gold.PLP.ligand.clash>
0.0000

> <Gold.PLP.ligand.torsion>
1.0617

> <Gold.PLP.Chemscore.Hbond>
3.0000

> <Gold.PLP.Chemscore.CHOScore>
0.0000

> <Gold.PLP.Chemscore.Metal>
0.0000

> <Gold.Chemscore.Hbonds>
donor molecule, donor type, donor heavy atom, donor atom, acceptor molecule, acceptor atom, score
      L1  H     3    20       P1  7948  0.65
      L1  H     7    38       P1 10747  1.00
      L1  H    14    35       P1  7948  0.75

> <Gold.PLP.Chemscore.Internal.Correction>
1.2626

> <Gold.Rescore>
     Score         DG    S(hbond)    S(metal)    S(lipo)     H(rot)  DE(clash)    DE(int)     intcor
     17.70     -18.61       2.51        0.00      75.21       1.58       0.00       0.91       ----

> <Gold.Chemscore.Fitness>
17.7038

> <Gold.Chemscore.DG>
-18.6128

> <Gold.Chemscore.ZeroCoef>
-5.4800

> <Gold.Chemscore.Hbond>
2.5081

> <Gold.Chemscore.Metal>
0.0000

> <Gold.Chemscore.Lipo>
75.2080

> <Gold.Chemscore.Internal_Hbond>
0.0000

> <Gold.Chemscore.DEClash>
0.0013

> <Gold.Chemscore.DEInternal>
0.9077

> <Gold.Chemscore.Rot>
1.5795

> <Gold.Chemscore.Internal.Correction>
   9.000000E+99

> <Gold.Chemscore.Hbonds>
donor molecule, donor type, donor heavy atom, donor atom, acceptor molecule, acceptor atom, score
      L1  H     3    20       P1  7948  0.05
      L1  H     7    38       P1 10747  0.97
      L1  H    14    35       P1  7948  0.09

> <Gold.Chemscore.Hbond.Weighted>
-8.3769

> <Gold.Chemscore.Metal.Weighted>
-0.0000

> <Gold.Chemscore.Lipo.Weighted>
-8.7993

> <Gold.Chemscore.Internal_Hbond.Weighted>
0.0000

> <Gold.Chemscore.DEClash.Weighted>
0.0013

> <Gold.Chemscore.DEInternal.Weighted>
0.9077

> <Gold.Chemscore.Rot.Weighted>
4.0434

> <Gold.Chemscore.Internal.Correction.Weighted>
   9.000000E+99

> <Gold.Protein.RotatedTorsions>
[ 6907 6896 6895 6894 ] final -123.51 input  -60.11 | X-H torsion
[ 7974 7965 7964 7962 ] final  -13.06 input  175.53 | X-H torsion
[ 8008 7997 7996 7995 ] final  -16.38 input   59.86 | X-H torsion
[ 10167 10162 10161 10158 ] final -103.25 input  -65.29 | X-H torsion
[ 10718 10713 10712 10709 ] final   80.10 input   66.30 | X-H torsion
[ 10763 10752 10751 10750 ] final  172.09 input  -60.55 | X-H torsion
[ 11005 11000 10999 10996 ] final -115.04 input  -57.11 | X-H torsion

> <Gold.Protein.ActiveResidues>
 VAL166  LYS551  ARG553  GLY616  TRP617  ASP618  TYR619  PRO620  LYS621  CYS622 
 ASP623  PHE694  ASN695  SER759  ASP760  ASP761  ALA762  ILE779  LEU786  VAL792 
 PHE793  MET794  SER795  GLU796  ALA797  LYS798  CYS799  TRP800  GLU811  SER814 

> <Gold.Protein.RotatedAtoms>
  150.8678  133.7549  159.2970 H   0  0  0  0  0  0  0  0  0  0  0  0  # atno 6907 bound_to 6896
  151.5171  135.1065  159.9878 H   0  0  0  0  0  0  0  0  0  0  0  0  # atno 6908 bound_to 6896
  152.4673  133.7907  159.6956 H   0  0  0  0  0  0  0  0  0  0  0  0  # atno 6909 bound_to 6896
  146.2128  140.3149  142.8385 H   0  0  0  0  0  0  0  0  0  0  0  0  # atno 7974 bound_to 7965
  154.5057  140.2171  155.9255 H   0  0  0  0  0  0  0  0  0  0  0  0  # atno 8008 bound_to 7997
  156.1491  140.3165  155.8585 H   0  0  0  0  0  0  0  0  0  0  0  0  # atno 8009 bound_to 7997
  155.3974  140.0482  157.3029 H   0  0  0  0  0  0  0  0  0  0  0  0  # atno 8010 bound_to 7997
  140.2220  143.3669  152.0961 H   0  0  0  0  0  0  0  0  0  0  0  0  # atno 10167 bound_to 10162
  157.6796  130.9944  150.2029 H   0  0  0  0  0  0  0  0  0  0  0  0  # atno 10718 bound_to 10713
  154.4212  135.2758  155.1974 H   0  0  0  0  0  0  0  0  0  0  0  0  # atno 10763 bound_to 10752
  154.3919  135.6064  153.5852 H   0  0  0  0  0  0  0  0  0  0  0  0  # atno 10764 bound_to 10752
  152.9833  135.5905  154.4508 H   0  0  0  0  0  0  0  0  0  0  0  0  # atno 10765 bound_to 10752
  141.0513  133.9682  157.2831 H   0  0  0  0  0  0  0  0  0  0  0  0  # atno 11005 bound_to 11000
  144.8962  140.7585  143.5896 LP  0  0  0  0  0  0  0  0  0  0  0  0  # atno 17320 bound_to 7965
  145.3073  139.1830  143.4658 LP  0  0  0  0  0  0  0  0  0  0  0  0  # atno 17321 bound_to 7965
  139.5141  144.6942  151.5676 LP  0  0  0  0  0  0  0  0  0  0  0  0  # atno 17342 bound_to 10162
  140.6248  143.9190  150.6555 LP  0  0  0  0  0  0  0  0  0  0  0  0  # atno 17343 bound_to 10162
  156.2716  130.3722  149.8025 LP  0  0  0  0  0  0  0  0  0  0  0  0  # atno 17370 bound_to 10713
  156.5741  130.8437  151.3364 LP  0  0  0  0  0  0  0  0  0  0  0  0  # atno 17371 bound_to 10713
  139.9353  135.0197  156.8535 LP  0  0  0  0  0  0  0  0  0  0  0  0  # atno 17394 bound_to 11000
  140.6049  134.0137  155.7552 LP  0  0  0  0  0  0  0  0  0  0  0  0  # atno 17395 bound_to 11000

$$$$
