AV-unprocessed.smi:484|AV-procd|sdf|2689|dock9
  -GOLD-   2262023123D 1   1.00000     0.00000
 Structure written by MMmdl.
 47 49  0  0  0  0  0  0  0  0  2 V2000
  153.6396  136.4600  163.6636 C   0  0  0  0  0  0  0  0  0  0  0  0
  154.5644  137.5577  163.1264 C   0  0  0  0  0  0  0  0  0  0  0  0
  154.4740  137.6985  161.6188 C   0  0  0  0  0  0  0  0  0  0  0  0
  155.4515  138.4289  160.9142 C   0  0  0  0  0  0  0  0  0  0  0  0
  155.3660  138.5568  159.5146 C   0  0  0  0  0  0  0  0  0  0  0  0
  154.3078  137.9615  158.7980 C   0  0  0  0  0  0  0  0  0  0  0  0
  154.3010  138.1401  157.4314 O   0  0  0  0  0  0  0  0  0  0  0  0
  153.1931  137.6434  156.6908 C   0  0  0  0  0  0  0  0  0  0  0  0
  152.2180  138.7912  156.3833 C   0  0  2  0  0  0  0  0  0  0  0  0
  152.8023  139.6521  155.4268 O   0  0  0  0  0  0  0  0  0  0  0  0
  151.7520  139.5568  157.6388 C   0  0  0  0  0  0  0  0  0  0  0  0
  151.3840  140.9520  157.3506 N   0  0  0  0  0  0  0  0  0  0  0  0
  150.5625  141.4582  156.3868 C   0  0  0  0  0  0  0  0  0  0  0  0
  149.8120  140.6728  155.3585 C   0  0  0  0  0  0  0  0  0  0  0  0
  150.6215  140.2410  154.2845 O   0  0  0  0  0  0  0  0  0  0  0  0
  150.5501  142.8133  156.5405 N   0  3  0  0  0  0  0  0  0  0  0  0
  151.3716  143.1771  157.6077 C   0  0  0  0  0  0  0  0  0  0  0  0
  151.6754  144.4272  158.1380 C   0  0  0  0  0  0  0  0  0  0  0  0
  152.5569  144.4505  159.2385 C   0  0  0  0  0  0  0  0  0  0  0  0
  153.1002  143.2623  159.7687 C   0  0  0  0  0  0  0  0  0  0  0  0
  152.7850  142.0010  159.2220 C   0  0  0  0  0  0  0  0  0  0  0  0
  151.9113  141.9858  158.1347 C   0  0  0  0  0  0  0  0  0  0  0  0
  153.3283  137.2260  159.5119 C   0  0  0  0  0  0  0  0  0  0  0  0
  153.4138  137.0966  160.9118 C   0  0  0  0  0  0  0  0  0  0  0  0
  153.7218  136.3794  164.7476 H   0  0  0  0  0  0  0  0  0  0  0  0
  153.8926  135.4887  163.2374 H   0  0  0  0  0  0  0  0  0  0  0  0
  152.5971  136.6709  163.4235 H   0  0  0  0  0  0  0  0  0  0  0  0
  154.3143  138.5121  163.5916 H   0  0  0  0  0  0  0  0  0  0  0  0
  155.5964  137.3417  163.4064 H   0  0  0  0  0  0  0  0  0  0  0  0
  156.2704  138.8926  161.4445 H   0  0  0  0  0  0  0  0  0  0  0  0
  156.1209  139.1191  158.9851 H   0  0  0  0  0  0  0  0  0  0  0  0
  153.5208  137.1639  155.7667 H   0  0  0  0  0  0  0  0  0  0  0  0
  152.6723  136.8936  157.2885 H   0  0  0  0  0  0  0  0  0  0  0  0
  151.3421  138.3586  155.8991 H   0  0  0  0  0  0  0  0  0  0  0  0
  152.2853  140.4419  155.3814 H   0  0  0  0  0  0  0  0  0  0  0  0
  150.8716  139.0713  158.0613 H   0  0  0  0  0  0  0  0  0  0  0  0
  152.5085  139.5416  158.4234 H   0  0  0  0  0  0  0  0  0  0  0  0
  149.3611  139.8001  155.8310 H   0  0  0  0  0  0  0  0  0  0  0  0
  148.9998  141.2851  154.9656 H   0  0  0  0  0  0  0  0  0  0  0  0
  150.2580  139.4403  153.9375 H   0  0  0  0  0  0  0  0  0  0  0  0
  151.2613  145.3385  157.7317 H   0  0  0  0  0  0  0  0  0  0  0  0
  152.8226  145.3982  159.6840 H   0  0  0  0  0  0  0  0  0  0  0  0
  153.7737  143.3187  160.6116 H   0  0  0  0  0  0  0  0  0  0  0  0
  153.2119  141.0990  159.6346 H   0  0  0  0  0  0  0  0  0  0  0  0
  152.5001  136.7505  159.0092 H   0  0  0  0  0  0  0  0  0  0  0  0
  152.6610  136.5316  161.4419 H   0  0  0  0  0  0  0  0  0  0  0  0
  150.0156  143.4389  155.9513 H   0  0  0  0  0  0  0  0  0  0  0  0
  1  2  1  0  0  0  0
  1 25  1  0  0  0  0
  1 26  1  0  0  0  0
  1 27  1  0  0  0  0
  2  3  1  0  0  0  0
  2 28  1  0  0  0  0
  2 29  1  0  0  0  0
  3 24  1  0  0  0  0
  3  4  2  0  0  0  0
  4  5  1  0  0  0  0
  4 30  1  0  0  0  0
  5  6  2  0  0  0  0
  5 31  1  0  0  0  0
  6  7  1  0  0  0  0
  6 23  1  0  0  0  0
  7  8  1  0  0  0  0
  8  9  1  0  0  0  0
  8 32  1  0  0  0  0
  8 33  1  0  0  0  0
  9 10  1  0  0  0  0
  9 11  1  0  0  0  0
  9 34  1  0  0  0  0
 10 35  1  0  0  0  0
 11 12  1  0  0  0  0
 11 36  1  0  0  0  0
 11 37  1  0  0  0  0
 12 22  1  0  0  0  0
 12 13  1  0  0  0  0
 13 14  1  0  0  0  0
 13 16  2  0  0  0  0
 14 15  1  0  0  0  0
 14 38  1  0  0  0  0
 14 39  1  0  0  0  0
 15 40  1  0  0  0  0
 16 17  1  0  0  0  0
 16 47  1  0  0  0  0
 17 22  2  0  0  0  0
 17 18  1  0  0  0  0
 18 19  2  0  0  0  0
 18 41  1  0  0  0  0
 19 20  1  0  0  0  0
 19 42  1  0  0  0  0
 20 21  2  0  0  0  0
 20 43  1  0  0  0  0
 21 22  1  0  0  0  0
 21 44  1  0  0  0  0
 23 24  2  0  0  0  0
 23 45  1  0  0  0  0
 24 46  1  0  0  0  0
M  CHG  1  16   1
M  END
> <s_m_source_file>
AV-unprocessed.smi

> <i_m_source_file_index>
484

> <i_lp_mmshare_version>
43012

> <i_f3d_flags>
0

> <s_epik_input>
W0NIM11bQ0gyXWMxW2NIXVtjSF1jKFtjSF1bY0hdMSlPW0NIMl1bQ0BIXShbT0hdKVtDSDJdbihjKG4yKVtDSDJdW09IXSljKGMyMylbY0hdW2NIXVtjSF1bY0hdMw==

> <s_epik_cmdline>
J2VwaWtfcHl0aG9uJywgJy1waCcsICc3LjAnLCAnLXRuJywgJzgnLCAnLW1hJywgJzIwMCcsICctbWV0YWxfYmluZGluZycsICctaW1hZScsICc8aW5maWxlLm1hZT4nLCAnLW9tYWUnLCAnPG91dGZpbGUubWFlPic=

> <r_lp_tautomer_probability>
1

> <r_epik_Ionization_Penalty>
1.43166

> <r_epik_Ionization_Penalty_Charging>
1.43081

> <r_epik_Ionization_Penalty_Neutral>
0.000858184

> <r_epik_State_Penalty>
1.51538

> <r_epik_Charging_Adjusted_Penalty>
2.94618

> <i_epik_Tot_Q>
1

> <i_epik_Tot_abs_Q>
1

> <r_epik_Metal_State_Penalty>
5.56039

> <b_epik_Metal_Only>
0

> <s_lp_Force_Field>
OPLS_2005

> <r_lp_Energy>
18.7475

> <b_lp_Chiralities_Consistent>
1

> <s_lp_Variant>
AV-unprocessed.smi:484-3

> <Gold.Version>
5.8.1

> <Gold.Id.Protein>
6NUR|6NUR_protein|mol2

> <Gold.PLP.Fitness>
59.9233

> <Gold.PLP.PLP>
-50.1733

> <Gold.PLP.part.hbond>
-3.9367

> <Gold.PLP.part.metal>
0.0000

> <Gold.PLP.part.buried>
-7.1337

> <Gold.PLP.part.nonpolar>
-40.0438

> <Gold.PLP.part.repulsive>
0.0661

> <Gold.PLP.ligand.clash>
0.0000

> <Gold.PLP.ligand.torsion>
1.2135

> <Gold.PLP.Chemscore.Hbond>
4.0000

> <Gold.PLP.Chemscore.CHOScore>
0.0000

> <Gold.PLP.Chemscore.Metal>
0.0000

> <Gold.Chemscore.Hbonds>
donor molecule, donor type, donor heavy atom, donor atom, acceptor molecule, acceptor atom, score
      L1  H    16    47       P1  8028  2.00
      P1  H  7989  7998       L1    15  0.73
      P1  H  7997  8010       L1    10  1.00

> <Gold.PLP.Chemscore.Internal.Correction>
0.1771

> <Gold.Rescore>
     Score         DG    S(hbond)    S(metal)    S(lipo)     H(rot)  DE(clash)    DE(int)     intcor
     19.23     -20.66       2.01        0.00     141.81       3.18       0.10       1.32       ----

> <Gold.Chemscore.Fitness>
19.2313

> <Gold.Chemscore.DG>
-20.6589

> <Gold.Chemscore.ZeroCoef>
-5.4800

> <Gold.Chemscore.Hbond>
2.0144

> <Gold.Chemscore.Metal>
0.0000

> <Gold.Chemscore.Lipo>
141.8107

> <Gold.Chemscore.Internal_Hbond>
0.0000

> <Gold.Chemscore.DEClash>
0.1031

> <Gold.Chemscore.DEInternal>
1.3245

> <Gold.Chemscore.Rot>
3.1801

> <Gold.Chemscore.Internal.Correction>
   9.000000E+99

> <Gold.Chemscore.Hbonds>
donor molecule, donor type, donor heavy atom, donor atom, acceptor molecule, acceptor atom, score
      L1  H    16    47       P1  8028  0.98
      P1  H  7989  7998       L1    15  0.67
      P1  H  7997  8010       L1    10  0.12

> <Gold.Chemscore.Hbond.Weighted>
-6.7280

> <Gold.Chemscore.Metal.Weighted>
-0.0000

> <Gold.Chemscore.Lipo.Weighted>
-16.5918

> <Gold.Chemscore.Internal_Hbond.Weighted>
0.0000

> <Gold.Chemscore.DEClash.Weighted>
0.1031

> <Gold.Chemscore.DEInternal.Weighted>
1.3245

> <Gold.Chemscore.Rot.Weighted>
8.1410

> <Gold.Chemscore.Internal.Correction.Weighted>
   9.000000E+99

> <Gold.Protein.RotatedTorsions>
[ 6907 6896 6895 6894 ] final  143.10 input  -60.11 | X-H torsion
[ 7974 7965 7964 7962 ] final   46.24 input  175.53 | X-H torsion
[ 8008 7997 7996 7995 ] final   75.60 input   59.86 | X-H torsion
[ 10167 10162 10161 10158 ] final -161.17 input  -65.29 | X-H torsion
[ 10718 10713 10712 10709 ] final  -43.87 input   66.30 | X-H torsion
[ 10763 10752 10751 10750 ] final   25.31 input  -60.55 | X-H torsion
[ 11005 11000 10999 10996 ] final -161.95 input  -57.11 | X-H torsion

> <Gold.Protein.ActiveResidues>
 VAL166  LYS551  ARG553  GLY616  TRP617  ASP618  TYR619  PRO620  LYS621  CYS622 
 ASP623  PHE694  ASN695  SER759  ASP760  ASP761  ALA762  ILE779  LEU786  VAL792 
 PHE793  MET794  SER795  GLU796  ALA797  LYS798  CYS799  TRP800  GLU811  SER814 

> <Gold.Protein.RotatedAtoms>
  152.2105  133.4908  159.5107 H   0  0  0  0  0  0  0  0  0  0  0  0  # atno 6907 bound_to 6896
  150.6989  134.1473  159.4136 H   0  0  0  0  0  0  0  0  0  0  0  0  # atno 6908 bound_to 6896
  151.9392  135.0221  160.0585 H   0  0  0  0  0  0  0  0  0  0  0  0  # atno 6909 bound_to 6896
  146.0408  139.4878  142.9779 H   0  0  0  0  0  0  0  0  0  0  0  0  # atno 7974 bound_to 7965
  155.8152  140.3472  155.5481 H   0  0  0  0  0  0  0  0  0  0  0  0  # atno 8008 bound_to 7997
  155.8400  140.0940  157.1761 H   0  0  0  0  0  0  0  0  0  0  0  0  # atno 8009 bound_to 7997
  154.4005  140.1396  156.3704 H   0  0  0  0  0  0  0  0  0  0  0  0  # atno 8010 bound_to 7997
  139.6485  144.0128  152.2144 H   0  0  0  0  0  0  0  0  0  0  0  0  # atno 10167 bound_to 10162
  156.2445  130.4182  149.8721 H   0  0  0  0  0  0  0  0  0  0  0  0  # atno 10718 bound_to 10713
  153.0701  135.6586  154.0266 H   0  0  0  0  0  0  0  0  0  0  0  0  # atno 10763 bound_to 10752
  153.9914  135.2945  155.3413 H   0  0  0  0  0  0  0  0  0  0  0  0  # atno 10764 bound_to 10752
  154.7073  135.5220  153.8683 H   0  0  0  0  0  0  0  0  0  0  0  0  # atno 10765 bound_to 10752
  140.6147  134.4812  157.5218 H   0  0  0  0  0  0  0  0  0  0  0  0  # atno 11005 bound_to 11000
  145.6888  141.0170  143.1567 LP  0  0  0  0  0  0  0  0  0  0  0  0  # atno 17320 bound_to 7965
  144.7073  139.8507  143.7426 LP  0  0  0  0  0  0  0  0  0  0  0  0  # atno 17321 bound_to 7965
  139.9836  144.6411  150.7878 LP  0  0  0  0  0  0  0  0  0  0  0  0  # atno 17342 bound_to 10162
  140.7526  143.2993  151.3122 LP  0  0  0  0  0  0  0  0  0  0  0  0  # atno 17343 bound_to 10162
  156.6291  130.8658  151.3491 LP  0  0  0  0  0  0  0  0  0  0  0  0  # atno 17370 bound_to 10713
  157.7189  130.9533  150.1361 LP  0  0  0  0  0  0  0  0  0  0  0  0  # atno 17371 bound_to 10713
  139.9177  134.8211  156.1311 LP  0  0  0  0  0  0  0  0  0  0  0  0  # atno 17394 bound_to 11000
  141.0783  133.6765  156.2283 LP  0  0  0  0  0  0  0  0  0  0  0  0  # atno 17395 bound_to 11000

$$$$
