AV-unprocessed.smi:2013|AV-procd|sdf|8158|dock3
  -GOLD-   2272010403D 1   1.00000     0.00000
 Structure written by MMmdl.
 51 52  0  0  0  0  0  0  0  0  2 V2000
  147.7818  141.9838  154.3090 C   0  0  0  0  0  0  0  0  0  0  0  0
  147.2135  140.6269  153.8593 C   0  0  0  0  0  0  0  0  0  0  0  0
  146.2344  140.0693  154.9070 C   0  0  0  0  0  0  0  0  0  0  0  0
  148.2840  139.5748  153.4487 C   0  0  1  0  0  0  0  0  0  0  0  0
  149.1471  139.0347  154.6216 C   0  0  0  0  0  0  0  0  0  0  0  0
  150.2769  139.8999  154.9395 N   0  0  0  0  0  0  0  0  0  0  0  0
  150.4919  140.4901  156.1248 C   0  0  0  0  0  0  0  0  0  0  0  0
  149.7416  140.3564  157.0910 O   0  0  0  0  0  0  0  0  0  0  0  0
  151.7428  141.3674  156.2409 C   0  0  0  0  0  0  0  0  0  0  0  0
  151.9782  141.8137  157.6201 N   0  0  0  0  0  0  0  0  0  0  0  0
  151.2551  142.8837  158.1159 C   0  0  0  0  0  0  0  0  0  0  0  0
  151.4048  143.3701  159.3670 C   0  0  0  0  0  0  0  0  0  0  0  0
  152.3652  142.7766  160.2881 C   0  0  0  0  0  0  0  0  0  0  0  0
  152.5407  143.1802  161.4387 O   0  0  0  0  0  0  0  0  0  0  0  0
  153.0931  141.6867  159.7589 N   0  0  0  0  0  0  0  0  0  0  0  0
  154.0568  141.0682  160.6457 C   0  0  0  0  0  0  0  0  0  0  0  0
  152.9306  141.1786  158.4485 C   0  0  0  0  0  0  0  0  0  0  0  0
  153.5858  140.2240  158.0239 O   0  0  0  0  0  0  0  0  0  0  0  0
  147.6952  138.4969  152.5935 N   0  3  0  0  0  0  0  0  0  0  0  0
  146.9160  137.4934  153.3592 C   0  0  0  0  0  0  0  0  0  0  0  0
  146.5014  136.3276  152.4443 C   0  0  0  0  0  0  0  0  0  0  0  0
  145.7733  136.8208  151.3261 O   0  0  0  0  0  0  0  0  0  0  0  0
  146.5440  137.7231  150.5419 C   0  0  0  0  0  0  0  0  0  0  0  0
  146.9259  138.9389  151.4002 C   0  0  0  0  0  0  0  0  0  0  0  0
  148.3078  141.9061  155.2600 H   0  0  0  0  0  0  0  0  0  0  0  0
  146.9794  142.7093  154.4464 H   0  0  0  0  0  0  0  0  0  0  0  0
  148.4672  142.4006  153.5718 H   0  0  0  0  0  0  0  0  0  0  0  0
  146.6074  140.8296  152.9758 H   0  0  0  0  0  0  0  0  0  0  0  0
  146.7300  139.8728  155.8580 H   0  0  0  0  0  0  0  0  0  0  0  0
  145.7808  139.1374  154.5684 H   0  0  0  0  0  0  0  0  0  0  0  0
  145.4245  140.7740  155.0985 H   0  0  0  0  0  0  0  0  0  0  0  0
  148.9756  140.1299  152.8130 H   0  0  0  0  0  0  0  0  0  0  0  0
  148.5586  138.9405  155.5335 H   0  0  0  0  0  0  0  0  0  0  0  0
  149.5156  138.0336  154.3905 H   0  0  0  0  0  0  0  0  0  0  0  0
  150.9446  140.0704  154.2004 H   0  0  0  0  0  0  0  0  0  0  0  0
  152.6067  140.8013  155.8889 H   0  0  0  0  0  0  0  0  0  0  0  0
  151.6556  142.2140  155.5579 H   0  0  0  0  0  0  0  0  0  0  0  0
  150.5323  143.3587  157.4683 H   0  0  0  0  0  0  0  0  0  0  0  0
  150.8069  144.2097  159.6904 H   0  0  0  0  0  0  0  0  0  0  0  0
  154.6050  140.2706  160.1458 H   0  0  0  0  0  0  0  0  0  0  0  0
  153.5002  140.6640  161.4930 H   0  0  0  0  0  0  0  0  0  0  0  0
  154.7536  141.8463  160.9629 H   0  0  0  0  0  0  0  0  0  0  0  0
  147.5131  137.1034  154.1846 H   0  0  0  0  0  0  0  0  0  0  0  0
  146.0342  137.9666  153.7940 H   0  0  0  0  0  0  0  0  0  0  0  0
  147.3771  135.7726  152.1042 H   0  0  0  0  0  0  0  0  0  0  0  0
  145.8728  135.6253  152.9922 H   0  0  0  0  0  0  0  0  0  0  0  0
  147.4327  137.2244  150.1516 H   0  0  0  0  0  0  0  0  0  0  0  0
  145.9511  138.0396  149.6833 H   0  0  0  0  0  0  0  0  0  0  0  0
  146.0148  139.4544  151.7068 H   0  0  0  0  0  0  0  0  0  0  0  0
  147.5037  139.6411  150.8017 H   0  0  0  0  0  0  0  0  0  0  0  0
  148.4920  137.9890  152.2368 H   0  0  0  0  0  0  0  0  0  0  0  0
  1  2  1  0  0  0  0
  1 25  1  0  0  0  0
  1 26  1  0  0  0  0
  1 27  1  0  0  0  0
  2  3  1  0  0  0  0
  2  4  1  0  0  0  0
  2 28  1  0  0  0  0
  3 29  1  0  0  0  0
  3 30  1  0  0  0  0
  3 31  1  0  0  0  0
  4  5  1  0  0  0  0
  4 19  1  0  0  0  0
  4 32  1  0  0  0  0
  5  6  1  0  0  0  0
  5 33  1  0  0  0  0
  5 34  1  0  0  0  0
  6  7  1  0  0  0  0
  6 35  1  0  0  0  0
  7  8  2  0  0  0  0
  7  9  1  0  0  0  0
  9 10  1  0  0  0  0
  9 36  1  0  0  0  0
  9 37  1  0  0  0  0
 10 17  1  0  0  0  0
 10 11  1  0  0  0  0
 11 12  2  0  0  0  0
 11 38  1  0  0  0  0
 12 13  1  0  0  0  0
 12 39  1  0  0  0  0
 13 14  2  0  0  0  0
 13 15  1  0  0  0  0
 15 16  1  0  0  0  0
 15 17  1  0  0  0  0
 16 40  1  0  0  0  0
 16 41  1  0  0  0  0
 16 42  1  0  0  0  0
 17 18  2  0  0  0  0
 19 24  1  0  0  0  0
 19 20  1  0  0  0  0
 19 51  1  0  0  0  0
 20 21  1  0  0  0  0
 20 43  1  0  0  0  0
 20 44  1  0  0  0  0
 21 22  1  0  0  0  0
 21 45  1  0  0  0  0
 21 46  1  0  0  0  0
 22 23  1  0  0  0  0
 23 24  1  0  0  0  0
 23 47  1  0  0  0  0
 23 48  1  0  0  0  0
 24 49  1  0  0  0  0
 24 50  1  0  0  0  0
M  CHG  1  19   1
M  END
> <s_m_source_file>
AV-unprocessed.smi

> <i_m_source_file_index>
2013

> <i_lp_mmshare_version>
43012

> <i_f3d_flags>
0

> <s_epik_input>
W0NIMl0xW0NIMl1PW0NIMl1bQ0gyXU4xW0NASF0oW0NIXShbQ0gzXSlbQ0gzXSlbQ0gyXVtOSF1DKD1PKVtDSDJdbjJbY0hdW2NIXWMoPU8pbihbQ0gzXSljMj1P

> <s_epik_cmdline>
J2VwaWtfcHl0aG9uJywgJy1waCcsICc3LjAnLCAnLXRuJywgJzgnLCAnLW1hJywgJzIwMCcsICctbWV0YWxfYmluZGluZycsICctaW1hZScsICc8aW5maWxlLm1hZT4nLCAnLW9tYWUnLCAnPG91dGZpbGUubWFlPic=

> <r_lp_tautomer_probability>
1

> <r_epik_Ionization_Penalty>
0.370738

> <r_epik_Ionization_Penalty_Charging>
0.370738

> <r_epik_Ionization_Penalty_Neutral>
8.1827e-08

> <r_epik_State_Penalty>
0.368162

> <r_epik_Charging_Adjusted_Penalty>
0.7389

> <i_epik_Tot_Q>
1

> <i_epik_Tot_abs_Q>
1

> <r_epik_Metal_State_Penalty>
0.368194

> <b_epik_Metal_Only>
0

> <s_lp_Force_Field>
OPLS_2005

> <r_lp_Energy>
35.5949

> <b_lp_Chiralities_Consistent>
1

> <s_lp_Variant>
AV-unprocessed.smi:2013-2

> <Gold.Version>
5.8.1

> <Gold.Id.Protein>
6NUR|6NUR_protein|mol2

> <Gold.PLP.Fitness>
49.4994

> <Gold.PLP.PLP>
-38.8087

> <Gold.PLP.part.hbond>
-2.0000

> <Gold.PLP.part.metal>
0.0000

> <Gold.PLP.part.buried>
-2.8198

> <Gold.PLP.part.nonpolar>
-34.7836

> <Gold.PLP.part.repulsive>
0.4304

> <Gold.PLP.ligand.clash>
0.0000

> <Gold.PLP.ligand.torsion>
0.9458

> <Gold.PLP.Chemscore.Hbond>
3.0000

> <Gold.PLP.Chemscore.CHOScore>
1.0000

> <Gold.PLP.Chemscore.Metal>
0.0000

> <Gold.Chemscore.Hbonds>
donor molecule, donor type, donor heavy atom, donor atom, acceptor molecule, acceptor atom, score
      L1  H    19    51       P1  7948  1.57
      P1  H  7997  8008       L1    18  0.67
      L1  C    11    38       P1  8028  0.36

> <Gold.PLP.Chemscore.Internal.Correction>
0.5823

> <Gold.Rescore>
     Score         DG    S(hbond)    S(metal)    S(lipo)     H(rot)  DE(clash)    DE(int)     intcor
     14.13     -15.44       1.95        0.00      79.32       2.28       0.23       1.08       ----

> <Gold.Chemscore.Fitness>
14.1349

> <Gold.Chemscore.DG>
-15.4354

> <Gold.Chemscore.ZeroCoef>
-5.4800

> <Gold.Chemscore.Hbond>
1.9507

> <Gold.Chemscore.Metal>
0.0000

> <Gold.Chemscore.Lipo>
79.3213

> <Gold.Chemscore.Internal_Hbond>
0.0000

> <Gold.Chemscore.DEClash>
0.2251

> <Gold.Chemscore.DEInternal>
1.0754

> <Gold.Chemscore.Rot>
2.2814

> <Gold.Chemscore.Internal.Correction>
   9.000000E+99

> <Gold.Chemscore.Hbonds>
donor molecule, donor type, donor heavy atom, donor atom, acceptor molecule, acceptor atom, score
      L1  H    19    51       P1  7948  0.80
      P1  H  7997  8008       L1    18  0.65

> <Gold.Chemscore.Hbond.Weighted>
-6.5152

> <Gold.Chemscore.Metal.Weighted>
-0.0000

> <Gold.Chemscore.Lipo.Weighted>
-9.2806

> <Gold.Chemscore.Internal_Hbond.Weighted>
0.0000

> <Gold.Chemscore.DEClash.Weighted>
0.2251

> <Gold.Chemscore.DEInternal.Weighted>
1.0754

> <Gold.Chemscore.Rot.Weighted>
5.8404

> <Gold.Chemscore.Internal.Correction.Weighted>
   9.000000E+99

> <Gold.Protein.RotatedTorsions>
[ 6907 6896 6895 6894 ] final   93.82 input  -60.11 | X-H torsion
[ 7974 7965 7964 7962 ] final -123.23 input  175.53 | X-H torsion
[ 8008 7997 7996 7995 ] final  -85.55 input   59.86 | X-H torsion
[ 10167 10162 10161 10158 ] final  120.85 input  -65.29 | X-H torsion
[ 10718 10713 10712 10709 ] final   95.83 input   66.30 | X-H torsion
[ 10763 10752 10751 10750 ] final  111.53 input  -60.55 | X-H torsion
[ 11005 11000 10999 10996 ] final -115.75 input  -57.11 | X-H torsion

> <Gold.Protein.ActiveResidues>
 VAL166  LYS551  ARG553  GLY616  TRP617  ASP618  TYR619  PRO620  LYS621  CYS622 
 ASP623  PHE694  ASN695  SER759  ASP760  ASP761  ALA762  ILE779  LEU786  VAL792 
 PHE793  MET794  SER795  GLU796  ALA797  LYS798  CYS799  TRP800  GLU811  SER814 

> <Gold.Protein.RotatedAtoms>
  152.5451  134.1289  159.8430 H   0  0  0  0  0  0  0  0  0  0  0  0  # atno 6907 bound_to 6896
  151.1337  133.5012  159.2606 H   0  0  0  0  0  0  0  0  0  0  0  0  # atno 6908 bound_to 6896
  151.1648  135.0300  159.8780 H   0  0  0  0  0  0  0  0  0  0  0  0  # atno 6909 bound_to 6896
  145.0209  140.7987  143.4381 H   0  0  0  0  0  0  0  0  0  0  0  0  # atno 7974 bound_to 7965
  154.6420  140.0590  156.9856 H   0  0  0  0  0  0  0  0  0  0  0  0  # atno 8008 bound_to 7997
  155.1502  140.3273  155.4414 H   0  0  0  0  0  0  0  0  0  0  0  0  # atno 8009 bound_to 7997
  156.2535  140.1948  156.6614 H   0  0  0  0  0  0  0  0  0  0  0  0  # atno 8010 bound_to 7997
  139.5956  144.7040  151.3184 H   0  0  0  0  0  0  0  0  0  0  0  0  # atno 10167 bound_to 10162
  157.6934  131.0558  150.4399 H   0  0  0  0  0  0  0  0  0  0  0  0  # atno 10718 bound_to 10713
  153.4646  135.3714  155.2357 H   0  0  0  0  0  0  0  0  0  0  0  0  # atno 10763 bound_to 10752
  154.8757  135.3917  154.3884 H   0  0  0  0  0  0  0  0  0  0  0  0  # atno 10764 bound_to 10752
  153.4463  135.7085  153.6202 H   0  0  0  0  0  0  0  0  0  0  0  0  # atno 10765 bound_to 10752
  141.0467  133.9751  157.2905 H   0  0  0  0  0  0  0  0  0  0  0  0  # atno 11005 bound_to 11000
  145.1897  139.2308  143.5249 LP  0  0  0  0  0  0  0  0  0  0  0  0  # atno 17320 bound_to 7965
  146.3485  140.1690  142.8590 LP  0  0  0  0  0  0  0  0  0  0  0  0  # atno 17321 bound_to 7965
  140.7209  143.7137  150.7749 LP  0  0  0  0  0  0  0  0  0  0  0  0  # atno 17342 bound_to 10162
  140.0703  143.5068  152.2583 LP  0  0  0  0  0  0  0  0  0  0  0  0  # atno 17343 bound_to 10162
  156.4759  130.4063  149.6490 LP  0  0  0  0  0  0  0  0  0  0  0  0  # atno 17370 bound_to 10713
  156.3554  130.7454  151.2419 LP  0  0  0  0  0  0  0  0  0  0  0  0  # atno 17371 bound_to 10713
  139.9318  135.0199  156.8424 LP  0  0  0  0  0  0  0  0  0  0  0  0  # atno 17394 bound_to 11000
  140.6132  134.0063  155.7586 LP  0  0  0  0  0  0  0  0  0  0  0  0  # atno 17395 bound_to 11000

$$$$
