AV-unprocessed.smi:1976|AV-procd|sdf|7989|dock4
  -GOLD-   2272010173D 1   1.00000     0.00000
 Structure written by MMmdl.
 45 47  0  0  0  0  0  0  0  0  2 V2000
  151.9130  141.0870  157.5406 O   0  0  0  0  0  0  0  0  0  0  0  0
  151.3848  142.1906  157.6841 C   0  0  0  0  0  0  0  0  0  0  0  0
  152.0943  143.3210  158.4432 C   0  0  0  0  0  0  0  0  0  0  0  0
  152.5530  142.9307  159.7871 N   0  0  0  0  0  0  0  0  0  0  0  0
  153.3551  141.7760  159.8751 C   0  0  0  0  0  0  0  0  0  0  0  0
  153.8357  141.3045  161.0414 C   0  0  0  0  0  0  0  0  0  0  0  0
  154.7498  140.0903  161.0968 C   0  0  0  0  0  0  0  0  0  0  0  0
  154.1262  138.9991  160.6516 F   0  0  0  0  0  0  0  0  0  0  0  0
  155.8225  140.2960  160.3336 F   0  0  0  0  0  0  0  0  0  0  0  0
  155.1655  139.8564  162.3423 F   0  0  0  0  0  0  0  0  0  0  0  0
  153.5127  142.0709  162.2290 C   0  0  0  0  0  0  0  0  0  0  0  0
  152.7581  143.1852  162.1606 C   0  0  0  0  0  0  0  0  0  0  0  0
  152.2281  143.6754  160.8861 C   0  0  0  0  0  0  0  0  0  0  0  0
  151.5388  144.6927  160.8104 O   0  0  0  0  0  0  0  0  0  0  0  0
  150.1644  142.4837  157.2096 N   0  0  0  0  0  0  0  0  0  0  0  0
  149.3094  141.5681  156.4561 C   0  0  2  0  0  0  0  0  0  0  0  0
  149.5467  141.6383  154.9354 C   0  0  0  0  0  0  0  0  0  0  0  0
  148.1472  141.5379  154.3200 C   0  0  0  0  0  0  0  0  0  0  0  0
  147.3053  142.2208  155.3091 N   0  3  1  0  0  0  0  0  0  0  0  0
  145.8377  142.1166  155.1819 C   0  0  0  0  0  0  0  0  0  0  0  0
  145.1911  143.0662  156.2134 C   0  0  0  0  0  0  0  0  0  0  0  0
  145.7264  142.8287  157.6439 C   0  0  0  0  0  0  0  0  0  0  0  0
  147.2700  142.8204  157.6853 C   0  0  0  0  0  0  0  0  0  0  0  0
  147.7929  141.8183  156.6399 C   0  0  2  0  0  0  0  0  0  0  0  0
  152.9294  143.6788  157.8384 H   0  0  0  0  0  0  0  0  0  0  0  0
  151.4131  144.1703  158.5163 H   0  0  0  0  0  0  0  0  0  0  0  0
  153.5631  141.3016  158.9270 H   0  0  0  0  0  0  0  0  0  0  0  0
  153.8793  141.7450  163.1913 H   0  0  0  0  0  0  0  0  0  0  0  0
  152.5362  143.7304  163.0664 H   0  0  0  0  0  0  0  0  0  0  0  0
  149.8068  143.4141  157.3723 H   0  0  0  0  0  0  0  0  0  0  0  0
  149.5265  140.5470  156.7769 H   0  0  0  0  0  0  0  0  0  0  0  0
  149.9885  142.5987  154.6650 H   0  0  0  0  0  0  0  0  0  0  0  0
  150.2168  140.8558  154.5775 H   0  0  0  0  0  0  0  0  0  0  0  0
  148.0846  142.0057  153.3369 H   0  0  0  0  0  0  0  0  0  0  0  0
  147.8401  140.4946  154.2298 H   0  0  0  0  0  0  0  0  0  0  0  0
  145.5341  142.3947  154.1720 H   0  0  0  0  0  0  0  0  0  0  0  0
  145.5177  141.0864  155.3450 H   0  0  0  0  0  0  0  0  0  0  0  0
  145.3964  144.0981  155.9253 H   0  0  0  0  0  0  0  0  0  0  0  0
  144.1067  142.9549  156.1964 H   0  0  0  0  0  0  0  0  0  0  0  0
  145.3371  143.5890  158.3214 H   0  0  0  0  0  0  0  0  0  0  0  0
  145.3528  141.8720  158.0113 H   0  0  0  0  0  0  0  0  0  0  0  0
  147.6564  143.8202  157.4823 H   0  0  0  0  0  0  0  0  0  0  0  0
  147.6063  142.5449  158.6852 H   0  0  0  0  0  0  0  0  0  0  0  0
  147.3528  140.8446  156.8668 H   0  0  0  0  0  0  0  0  0  0  0  0
  147.5291  143.2014  155.2164 H   0  0  0  0  0  0  0  0  0  0  0  0
  1  2  2  0  0  0  0
  2  3  1  0  0  0  0
  2 15  1  0  0  0  0
  3  4  1  0  0  0  0
  3 25  1  0  0  0  0
  3 26  1  0  0  0  0
  4 13  1  0  0  0  0
  4  5  1  0  0  0  0
  5  6  2  0  0  0  0
  5 27  1  0  0  0  0
  6  7  1  0  0  0  0
  6 11  1  0  0  0  0
  7  8  1  0  0  0  0
  7  9  1  0  0  0  0
  7 10  1  0  0  0  0
 11 12  2  0  0  0  0
 11 28  1  0  0  0  0
 12 13  1  0  0  0  0
 12 29  1  0  0  0  0
 13 14  2  0  0  0  0
 15 16  1  0  0  0  0
 15 30  1  0  0  0  0
 16 24  1  0  0  0  0
 16 17  1  0  0  0  0
 16 31  1  0  0  0  0
 17 18  1  0  0  0  0
 17 32  1  0  0  0  0
 17 33  1  0  0  0  0
 18 19  1  0  0  0  0
 18 34  1  0  0  0  0
 18 35  1  0  0  0  0
 19 24  1  0  0  0  0
 19 20  1  0  0  0  0
 19 45  1  0  0  0  0
 20 21  1  0  0  0  0
 20 36  1  0  0  0  0
 20 37  1  0  0  0  0
 21 22  1  0  0  0  0
 21 38  1  0  0  0  0
 21 39  1  0  0  0  0
 22 23  1  0  0  0  0
 22 40  1  0  0  0  0
 22 41  1  0  0  0  0
 23 24  1  0  0  0  0
 23 42  1  0  0  0  0
 23 43  1  0  0  0  0
 24 44  1  0  0  0  0
M  CHG  1  19   1
M  END
> <s_m_source_file>
AV-unprocessed.smi

> <i_m_source_file_index>
1976

> <i_lp_mmshare_version>
43012

> <i_f3d_flags>
0

> <s_epik_input>
W0NIMl0xW0NIMl1bQ0gyXVtDSDJdW0NASF0oTjEyKVtDQEBIXShbQ0gyXVtDSDJdMilbTkhdQyg9TylbQ0gyXW4zW2NIXWMoQyhGKShGKUYpW2NIXVtjSF1jMz1P

> <s_epik_cmdline>
J2VwaWtfcHl0aG9uJywgJy1waCcsICc3LjAnLCAnLXRuJywgJzgnLCAnLW1hJywgJzIwMCcsICctbWV0YWxfYmluZGluZycsICctaW1hZScsICc8aW5maWxlLm1hZT4nLCAnLW9tYWUnLCAnPG91dGZpbGUubWFlPic=

> <r_lp_tautomer_probability>
1

> <r_epik_Ionization_Penalty>
0.00171506

> <r_epik_Ionization_Penalty_Charging>
0.00171498

> <r_epik_Ionization_Penalty_Neutral>
7.81737e-08

> <r_epik_State_Penalty>
0.00115937

> <r_epik_Charging_Adjusted_Penalty>
0.00287436

> <i_epik_Tot_Q>
1

> <i_epik_Tot_abs_Q>
1

> <r_epik_Metal_State_Penalty>
-0

> <b_epik_Metal_Only>
0

> <s_lp_Force_Field>
OPLS_2005

> <r_lp_Energy>
53.4145

> <b_lp_Chiralities_Consistent>
1

> <s_lp_Variant>
AV-unprocessed.smi:1976-7

> <Gold.Version>
5.8.1

> <Gold.Id.Protein>
6NUR|6NUR_protein|mol2

> <Gold.PLP.Fitness>
56.6060

> <Gold.PLP.PLP>
-51.4123

> <Gold.PLP.part.hbond>
-2.0000

> <Gold.PLP.part.metal>
0.0000

> <Gold.PLP.part.buried>
-3.3752

> <Gold.PLP.part.nonpolar>
-44.4021

> <Gold.PLP.part.repulsive>
0.2698

> <Gold.PLP.ligand.clash>
0.0000

> <Gold.PLP.ligand.torsion>
0.4929

> <Gold.PLP.Chemscore.Hbond>
2.0482

> <Gold.PLP.Chemscore.CHOScore>
0.0000

> <Gold.PLP.Chemscore.Metal>
0.0000

> <Gold.Chemscore.Hbonds>
donor molecule, donor type, donor heavy atom, donor atom, acceptor molecule, acceptor atom, score
      L1  H    15    30       P1  8028  0.11
      L1  H    19    45       P1  8028  1.84

> <Gold.PLP.Chemscore.Internal.Correction>
0.0351

> <Gold.Rescore>
     Score         DG    S(hbond)    S(metal)    S(lipo)     H(rot)  DE(clash)    DE(int)     intcor
     13.41     -15.56       0.71        0.00     100.54       1.58       0.44       1.70       ----

> <Gold.Chemscore.Fitness>
13.4143

> <Gold.Chemscore.DG>
-15.5562

> <Gold.Chemscore.ZeroCoef>
-5.4800

> <Gold.Chemscore.Hbond>
0.7082

> <Gold.Chemscore.Metal>
0.0000

> <Gold.Chemscore.Lipo>
100.5406

> <Gold.Chemscore.Internal_Hbond>
0.0000

> <Gold.Chemscore.DEClash>
0.4449

> <Gold.Chemscore.DEInternal>
1.6970

> <Gold.Chemscore.Rot>
1.5830

> <Gold.Chemscore.Internal.Correction>
   9.000000E+99

> <Gold.Chemscore.Hbonds>
donor molecule, donor type, donor heavy atom, donor atom, acceptor molecule, acceptor atom, score
      L1  H    15    30       P1  8028  0.10
      L1  H    19    45       P1  8028  0.22

> <Gold.Chemscore.Hbond.Weighted>
-2.3654

> <Gold.Chemscore.Metal.Weighted>
-0.0000

> <Gold.Chemscore.Lipo.Weighted>
-11.7632

> <Gold.Chemscore.Internal_Hbond.Weighted>
0.0000

> <Gold.Chemscore.DEClash.Weighted>
0.4449

> <Gold.Chemscore.DEInternal.Weighted>
1.6970

> <Gold.Chemscore.Rot.Weighted>
4.0524

> <Gold.Chemscore.Internal.Correction.Weighted>
   9.000000E+99

> <Gold.Protein.RotatedTorsions>
[ 6907 6896 6895 6894 ] final   35.56 input  -60.11 | X-H torsion
[ 7974 7965 7964 7962 ] final   16.19 input  175.53 | X-H torsion
[ 8008 7997 7996 7995 ] final   44.94 input   59.86 | X-H torsion
[ 10167 10162 10161 10158 ] final  103.82 input  -65.29 | X-H torsion
[ 10718 10713 10712 10709 ] final  136.62 input   66.30 | X-H torsion
[ 10763 10752 10751 10750 ] final -174.91 input  -60.55 | X-H torsion
[ 11005 11000 10999 10996 ] final   44.59 input  -57.11 | X-H torsion

> <Gold.Protein.ActiveResidues>
 VAL166  LYS551  ARG553  GLY616  TRP617  ASP618  TYR619  PRO620  LYS621  CYS622 
 ASP623  PHE694  ASN695  SER759  ASP760  ASP761  ALA762  ILE779  LEU786  VAL792 
 PHE793  MET794  SER795  GLU796  ALA797  LYS798  CYS799  TRP800  GLU811  SER814 

> <Gold.Protein.RotatedAtoms>
  152.1178  134.9227  160.0564 H   0  0  0  0  0  0  0  0  0  0  0  0  # atno 6907 bound_to 6896
  152.0380  133.3960  159.4333 H   0  0  0  0  0  0  0  0  0  0  0  0  # atno 6908 bound_to 6896
  150.6847  134.3368  159.4894 H   0  0  0  0  0  0  0  0  0  0  0  0  # atno 6909 bound_to 6896
  146.2257  139.8785  142.8575 H   0  0  0  0  0  0  0  0  0  0  0  0  # atno 7974 bound_to 7965
  155.3276  140.3400  155.4240 H   0  0  0  0  0  0  0  0  0  0  0  0  # atno 8008 bound_to 7997
  156.1878  140.1686  156.8188 H   0  0  0  0  0  0  0  0  0  0  0  0  # atno 8009 bound_to 7997
  154.5406  140.0725  156.8487 H   0  0  0  0  0  0  0  0  0  0  0  0  # atno 8010 bound_to 7997
  139.7230  144.7054  151.0842 H   0  0  0  0  0  0  0  0  0  0  0  0  # atno 10167 bound_to 10162
  157.4447  131.1061  151.0103 H   0  0  0  0  0  0  0  0  0  0  0  0  # atno 10718 bound_to 10713
  154.5907  135.2845  155.0638 H   0  0  0  0  0  0  0  0  0  0  0  0  # atno 10763 bound_to 10752
  154.1940  135.6436  153.5072 H   0  0  0  0  0  0  0  0  0  0  0  0  # atno 10764 bound_to 10752
  153.0120  135.5453  154.6592 H   0  0  0  0  0  0  0  0  0  0  0  0  # atno 10765 bound_to 10752
  140.1538  134.4428  155.8363 H   0  0  0  0  0  0  0  0  0  0  0  0  # atno 11005 bound_to 11000
  145.2537  141.0053  143.3866 LP  0  0  0  0  0  0  0  0  0  0  0  0  # atno 17320 bound_to 7965
  144.9354  139.4250  143.6475 LP  0  0  0  0  0  0  0  0  0  0  0  0  # atno 17321 bound_to 7965
  140.7757  143.5141  150.9616 LP  0  0  0  0  0  0  0  0  0  0  0  0  # atno 17342 bound_to 10162
  139.8828  143.7050  152.3155 LP  0  0  0  0  0  0  0  0  0  0  0  0  # atno 17343 bound_to 10162
  157.0954  130.5959  149.5448 LP  0  0  0  0  0  0  0  0  0  0  0  0  # atno 17370 bound_to 10713
  155.9962  130.5031  150.7489 LP  0  0  0  0  0  0  0  0  0  0  0  0  # atno 17371 bound_to 10713
  141.2202  133.6884  156.7470 LP  0  0  0  0  0  0  0  0  0  0  0  0  # atno 17394 bound_to 11000
  140.2572  134.8495  157.3724 LP  0  0  0  0  0  0  0  0  0  0  0  0  # atno 17395 bound_to 11000

$$$$
