AV-unprocessed.smi:1521|AV-procd|sdf|6130|dock3
  -GOLD-   22720 6273D 1   1.00000     0.00000
 Structure written by MMmdl.
 36 37  0  0  0  0  0  0  0  0  1 V2000
  146.0876  137.7198  154.4895 O   0  0  0  0  0  0  0  0  0  0  0  0
  147.0092  136.9111  154.3810 C   0  0  0  0  0  0  0  0  0  0  0  0
  148.0895  136.9164  155.1741 N   0  0  0  0  0  0  0  0  0  0  0  0
  148.3250  137.8535  156.2673 C   0  0  0  0  0  0  0  0  0  0  0  0
  149.0330  139.1284  155.7785 C   0  0  2  0  0  0  0  0  0  0  0  0
  150.4187  138.8234  155.1753 C   0  0  0  0  0  0  0  0  0  0  0  0
  151.0412  140.0413  154.7870 O   0  0  0  0  0  0  0  0  0  0  0  0
  151.2103  140.9122  155.8972 C   0  0  0  0  0  0  0  0  0  0  0  0
  149.8328  141.2205  156.5067 C   0  0  0  0  0  0  0  0  0  0  0  0
  149.2142  139.9997  156.8905 O   0  0  0  0  0  0  0  0  0  0  0  0
  147.0733  135.9054  153.4893 N   0  0  0  0  0  0  0  0  0  0  0  0
  146.1727  135.5730  152.4636 C   0  0  0  0  0  0  0  0  0  0  0  0
  145.8130  134.3058  152.1304 C   0  0  0  0  0  0  0  0  0  0  0  0
  144.8598  134.0286  151.0687 C   0  0  0  0  0  0  0  0  0  0  0  0
  144.5243  132.6053  150.6504 C   0  0  0  0  0  0  0  0  0  0  0  0
  144.8196  132.3961  149.3669 F   0  0  0  0  0  0  0  0  0  0  0  0
  145.1976  131.7192  151.3846 F   0  0  0  0  0  0  0  0  0  0  0  0
  143.2221  132.3795  150.8187 F   0  0  0  0  0  0  0  0  0  0  0  0
  144.3552  135.0955  150.4218 C   0  0  0  0  0  0  0  0  0  0  0  0
  144.7029  136.4018  150.7731 N   0  0  0  0  0  0  0  0  0  0  0  0
  145.5768  136.7177  151.7549 C   0  0  0  0  0  0  0  0  0  0  0  0
  145.8297  137.8956  152.0058 O   0  0  0  0  0  0  0  0  0  0  0  0
  144.2681  137.1488  150.2510 H   0  0  0  0  0  0  0  0  0  0  0  0
  148.7955  136.2109  155.0220 H   0  0  0  0  0  0  0  0  0  0  0  0
  147.3637  138.1072  156.7146 H   0  0  0  0  0  0  0  0  0  0  0  0
  148.9111  137.3702  157.0508 H   0  0  0  0  0  0  0  0  0  0  0  0
  148.4141  139.6209  155.0263 H   0  0  0  0  0  0  0  0  0  0  0  0
  151.0497  138.2910  155.8891 H   0  0  0  0  0  0  0  0  0  0  0  0
  150.3193  138.1846  154.2975 H   0  0  0  0  0  0  0  0  0  0  0  0
  151.8695  140.4561  156.6371 H   0  0  0  0  0  0  0  0  0  0  0  0
  151.6912  141.8309  155.5606 H   0  0  0  0  0  0  0  0  0  0  0  0
  149.9403  141.8573  157.3846 H   0  0  0  0  0  0  0  0  0  0  0  0
  149.2028  141.7566  155.7953 H   0  0  0  0  0  0  0  0  0  0  0  0
  147.8548  135.2727  153.5825 H   0  0  0  0  0  0  0  0  0  0  0  0
  146.2101  133.4592  152.6665 H   0  0  0  0  0  0  0  0  0  0  0  0
  143.6615  135.0340  149.5962 H   0  0  0  0  0  0  0  0  0  0  0  0
  1  2  2  0  0  0  0
  2  3  1  0  0  0  0
  2 11  1  0  0  0  0
  3  4  1  0  0  0  0
  3 24  1  0  0  0  0
  4  5  1  0  0  0  0
  4 25  1  0  0  0  0
  4 26  1  0  0  0  0
  5 10  1  0  0  0  0
  5  6  1  0  0  0  0
  5 27  1  0  0  0  0
  6  7  1  0  0  0  0
  6 28  1  0  0  0  0
  6 29  1  0  0  0  0
  7  8  1  0  0  0  0
  8  9  1  0  0  0  0
  8 30  1  0  0  0  0
  8 31  1  0  0  0  0
  9 10  1  0  0  0  0
  9 32  1  0  0  0  0
  9 33  1  0  0  0  0
 11 12  1  0  0  0  0
 11 34  1  0  0  0  0
 12 21  1  0  0  0  0
 12 13  2  0  0  0  0
 13 14  1  0  0  0  0
 13 35  1  0  0  0  0
 14 15  1  0  0  0  0
 14 19  2  0  0  0  0
 15 16  1  0  0  0  0
 15 17  1  0  0  0  0
 15 18  1  0  0  0  0
 19 20  1  0  0  0  0
 19 36  1  0  0  0  0
 20 23  1  0  0  0  0
 20 21  1  0  0  0  0
 21 22  2  0  0  0  0
M  END
> <s_m_source_file>
AV-unprocessed.smi

> <i_m_source_file_index>
1521

> <i_lp_mmshare_version>
43012

> <i_f3d_flags>
0

> <s_epik_input>
Tz1jMVtuSF1bY0hdYyhDKEYpKEYpRilbY0hdYzFbTkhdQyg9TylbTkhdW0NIMl1bQ0BASF0yW0NIMl1PW0NIMl1bQ0gyXU8y

> <s_epik_cmdline>
J2VwaWtfcHl0aG9uJywgJy1waCcsICc3LjAnLCAnLXRuJywgJzgnLCAnLW1hJywgJzIwMCcsICctbWV0YWxfYmluZGluZycsICctaW1hZScsICc8aW5maWxlLm1hZT4nLCAnLW9tYWUnLCAnPG91dGZpbGUubWFlPic=

> <r_lp_tautomer_probability>
1

> <r_epik_Ionization_Penalty>
0.00396636

> <r_epik_Ionization_Penalty_Charging>
0.00394789

> <r_epik_Ionization_Penalty_Neutral>
1.84676e-05

> <r_epik_State_Penalty>
-0

> <r_epik_Charging_Adjusted_Penalty>
0.00394789

> <i_epik_Tot_Q>
0

> <i_epik_Tot_abs_Q>
0

> <r_epik_Metal_State_Penalty>
0.372669

> <b_epik_Metal_Only>
0

> <s_lp_Force_Field>
OPLS_2005

> <r_lp_Energy>
18.8562

> <b_lp_Chiralities_Consistent>
1

> <s_lp_Variant>
AV-unprocessed.smi:1521-1

> <Gold.Version>
5.8.1

> <Gold.Id.Protein>
6NUR|6NUR_protein|mol2

> <Gold.PLP.Fitness>
38.4225

> <Gold.PLP.PLP>
-31.6475

> <Gold.PLP.part.hbond>
-2.8786

> <Gold.PLP.part.metal>
0.0000

> <Gold.PLP.part.buried>
-3.1507

> <Gold.PLP.part.nonpolar>
-25.3682

> <Gold.PLP.part.repulsive>
0.8720

> <Gold.PLP.ligand.clash>
0.0000

> <Gold.PLP.ligand.torsion>
0.5098

> <Gold.PLP.Chemscore.Hbond>
2.0000

> <Gold.PLP.Chemscore.CHOScore>
0.5779

> <Gold.PLP.Chemscore.Metal>
0.0000

> <Gold.Chemscore.Hbonds>
donor molecule, donor type, donor heavy atom, donor atom, acceptor molecule, acceptor atom, score
      L1  H    20    23       P1 10171  1.00
      P1  H  7989  7998       L1     7  1.00
      L1  C    19    36       P1 10186  0.55

> <Gold.PLP.Chemscore.Internal.Correction>
0.0611

> <Gold.Rescore>
     Score         DG    S(hbond)    S(metal)    S(lipo)     H(rot)  DE(clash)    DE(int)     intcor
      8.48     -13.27       1.84        0.00      44.07       1.37       0.09       4.70       ----

> <Gold.Chemscore.Fitness>
8.4790

> <Gold.Chemscore.DG>
-13.2721

> <Gold.Chemscore.ZeroCoef>
-5.4800

> <Gold.Chemscore.Hbond>
1.8420

> <Gold.Chemscore.Metal>
0.0000

> <Gold.Chemscore.Lipo>
44.0681

> <Gold.Chemscore.Internal_Hbond>
0.0000

> <Gold.Chemscore.DEClash>
0.0885

> <Gold.Chemscore.DEInternal>
4.7046

> <Gold.Chemscore.Rot>
1.3735

> <Gold.Chemscore.Internal.Correction>
   9.000000E+99

> <Gold.Chemscore.Hbonds>
donor molecule, donor type, donor heavy atom, donor atom, acceptor molecule, acceptor atom, score
      L1  H    11    34       P1  7948  0.01
      L1  H    20    23       P1 10171  0.94
      P1  H  7989  7998       L1     7  0.50

> <Gold.Chemscore.Hbond.Weighted>
-6.1523

> <Gold.Chemscore.Metal.Weighted>
-0.0000

> <Gold.Chemscore.Lipo.Weighted>
-5.1560

> <Gold.Chemscore.Internal_Hbond.Weighted>
0.0000

> <Gold.Chemscore.DEClash.Weighted>
0.0885

> <Gold.Chemscore.DEInternal.Weighted>
4.7046

> <Gold.Chemscore.Rot.Weighted>
3.5162

> <Gold.Chemscore.Internal.Correction.Weighted>
   9.000000E+99

> <Gold.Protein.RotatedTorsions>
[ 6907 6896 6895 6894 ] final   84.16 input  -60.11 | X-H torsion
[ 7974 7965 7964 7962 ] final -105.13 input  175.53 | X-H torsion
[ 8008 7997 7996 7995 ] final -129.03 input   59.86 | X-H torsion
[ 10167 10162 10161 10158 ] final   55.25 input  -65.29 | X-H torsion
[ 10718 10713 10712 10709 ] final   53.30 input   66.30 | X-H torsion
[ 10763 10752 10751 10750 ] final   -8.86 input  -60.55 | X-H torsion
[ 11005 11000 10999 10996 ] final  -72.28 input  -57.11 | X-H torsion

> <Gold.Protein.ActiveResidues>
 VAL166  LYS551  ARG553  GLY616  TRP617  ASP618  TYR619  PRO620  LYS621  CYS622 
 ASP623  PHE694  ASN695  SER759  ASP760  ASP761  ALA762  ILE779  LEU786  VAL792 
 PHE793  MET794  SER795  GLU796  ALA797  LYS798  CYS799  TRP800  GLU811  SER814 

> <Gold.Protein.RotatedAtoms>
  152.5345  134.2784  159.8997 H   0  0  0  0  0  0  0  0  0  0  0  0  # atno 6907 bound_to 6896
  151.2739  133.4235  159.2630 H   0  0  0  0  0  0  0  0  0  0  0  0  # atno 6908 bound_to 6896
  151.0343  134.9577  159.8184 H   0  0  0  0  0  0  0  0  0  0  0  0  # atno 6909 bound_to 6896
  145.2343  140.9182  143.3186 H   0  0  0  0  0  0  0  0  0  0  0  0  # atno 7974 bound_to 7965
  155.2725  140.0440  157.3008 H   0  0  0  0  0  0  0  0  0  0  0  0  # atno 8008 bound_to 7997
  154.5645  140.2356  155.8254 H   0  0  0  0  0  0  0  0  0  0  0  0  # atno 8009 bound_to 7997
  156.2074  140.3009  155.9664 H   0  0  0  0  0  0  0  0  0  0  0  0  # atno 8010 bound_to 7997
  140.2215  144.3783  150.6449 H   0  0  0  0  0  0  0  0  0  0  0  0  # atno 10167 bound_to 10162
  157.5154  130.8529  149.8489 H   0  0  0  0  0  0  0  0  0  0  0  0  # atno 10718 bound_to 10713
  153.4465  135.7014  153.6136 H   0  0  0  0  0  0  0  0  0  0  0  0  # atno 10763 bound_to 10752
  153.4488  135.3763  155.2272 H   0  0  0  0  0  0  0  0  0  0  0  0  # atno 10764 bound_to 10752
  154.8728  135.3992  154.3871 H   0  0  0  0  0  0  0  0  0  0  0  0  # atno 10765 bound_to 10752
  141.1606  133.6842  156.7035 H   0  0  0  0  0  0  0  0  0  0  0  0  # atno 11005 bound_to 11000
  144.9647  139.3942  143.6338 LP  0  0  0  0  0  0  0  0  0  0  0  0  # atno 17320 bound_to 7965
  146.3345  139.8717  142.8839 LP  0  0  0  0  0  0  0  0  0  0  0  0  # atno 17321 bound_to 7965
  140.6251  143.2180  151.6612 LP  0  0  0  0  0  0  0  0  0  0  0  0  # atno 17342 bound_to 10162
  139.5142  144.3417  152.0734 LP  0  0  0  0  0  0  0  0  0  0  0  0  # atno 17343 bound_to 10162
  156.0317  130.3763  150.1670 LP  0  0  0  0  0  0  0  0  0  0  0  0  # atno 17370 bound_to 10713
  156.9859  130.9878  151.3426 LP  0  0  0  0  0  0  0  0  0  0  0  0  # atno 17371 bound_to 10713
  140.2941  134.8217  157.4041 LP  0  0  0  0  0  0  0  0  0  0  0  0  # atno 17394 bound_to 11000
  140.1321  134.5082  155.8097 LP  0  0  0  0  0  0  0  0  0  0  0  0  # atno 17395 bound_to 11000

$$$$
