AV-unprocessed.smi:1116|AV-procd|sdf|4811|dock3
  -GOLD-   22720 3363D 1   1.00000     0.00000
 Structure written by MMmdl.
 35 36  0  0  0  0  0  0  0  0  2 V2000
  152.6131  143.2424  161.5662 C   0  0  0  0  0  0  0  0  0  0  0  0
  152.0922  143.2810  160.1703 C   0  0  0  0  0  0  0  0  0  0  0  0
  151.4990  142.2441  159.5728 N   0  0  0  0  0  0  0  0  0  0  0  0
  151.0959  142.5346  158.2655 C   0  0  0  0  0  0  0  0  0  0  0  0
  150.4134  141.4863  157.4405 C   0  0  0  0  0  0  0  0  0  0  0  0
  151.1163  141.2582  156.0919 C   0  0  0  0  0  0  0  0  0  0  0  0
  150.8615  139.9194  155.5722 N   0  0  0  0  0  0  0  0  0  0  0  0
  151.7021  138.8784  155.6761 C   0  0  0  0  0  0  0  0  0  0  0  0
  152.7961  138.9497  156.2367 O   0  0  0  0  0  0  0  0  0  0  0  0
  151.2378  137.5671  155.0354 C   0  0  0  0  0  0  0  0  0  0  0  0
  150.5596  136.6110  156.0359 C   0  0  0  0  0  0  0  0  0  0  0  0
  150.2659  135.2231  155.4324 C   0  0  2  0  0  0  0  0  0  0  0  0
  149.1192  135.2663  154.5512 N   0  0  0  0  0  0  0  0  0  0  0  0
  148.1749  134.4125  154.9408 C   0  0  0  0  0  0  0  0  0  0  0  0
  147.1272  134.2781  154.3126 O   0  0  0  0  0  0  0  0  0  0  0  0
  148.5567  133.7808  156.0679 N   0  5  0  0  0  0  0  0  0  0  0  0
  149.7818  134.1961  156.4559 C   0  0  0  0  0  0  0  0  0  0  0  0
  150.4648  133.8644  157.4234 O   0  0  0  0  0  0  0  0  0  0  0  0
  151.4002  143.8156  157.8777 C   0  0  0  0  0  0  0  0  0  0  0  0
  152.2004  144.7055  159.1436 S   0  0  0  0  0  0  0  0  0  0  0  0
  152.4336  142.2661  162.0176 H   0  0  0  0  0  0  0  0  0  0  0  0
  152.1169  144.0027  162.1695 H   0  0  0  0  0  0  0  0  0  0  0  0
  153.6855  143.4373  161.5684 H   0  0  0  0  0  0  0  0  0  0  0  0
  150.3751  140.5469  157.9938 H   0  0  0  0  0  0  0  0  0  0  0  0
  149.3750  141.7732  157.2704 H   0  0  0  0  0  0  0  0  0  0  0  0
  150.8004  142.0079  155.3644 H   0  0  0  0  0  0  0  0  0  0  0  0
  152.1940  141.3749  156.2094 H   0  0  0  0  0  0  0  0  0  0  0  0
  149.9826  139.7735  155.0968 H   0  0  0  0  0  0  0  0  0  0  0  0
  150.5516  137.7917  154.2176 H   0  0  0  0  0  0  0  0  0  0  0  0
  152.1057  137.0806  154.5893 H   0  0  0  0  0  0  0  0  0  0  0  0
  151.2087  136.4815  156.9035 H   0  0  0  0  0  0  0  0  0  0  0  0
  149.6372  137.0584  156.4109 H   0  0  0  0  0  0  0  0  0  0  0  0
  151.1335  134.8295  154.9011 H   0  0  0  0  0  0  0  0  0  0  0  0
  149.0650  135.8548  153.7332 H   0  0  0  0  0  0  0  0  0  0  0  0
  151.2030  144.2877  156.9264 H   0  0  0  0  0  0  0  0  0  0  0  0
  1  2  1  0  0  0  0
  1 21  1  0  0  0  0
  1 22  1  0  0  0  0
  1 23  1  0  0  0  0
  2 20  1  0  0  0  0
  2  3  2  0  0  0  0
  3  4  1  0  0  0  0
  4  5  1  0  0  0  0
  4 19  2  0  0  0  0
  5  6  1  0  0  0  0
  5 24  1  0  0  0  0
  5 25  1  0  0  0  0
  6  7  1  0  0  0  0
  6 26  1  0  0  0  0
  6 27  1  0  0  0  0
  7  8  1  0  0  0  0
  7 28  1  0  0  0  0
  8  9  2  0  0  0  0
  8 10  1  0  0  0  0
 10 11  1  0  0  0  0
 10 29  1  0  0  0  0
 10 30  1  0  0  0  0
 11 12  1  0  0  0  0
 11 31  1  0  0  0  0
 11 32  1  0  0  0  0
 12 17  1  0  0  0  0
 12 13  1  0  0  0  0
 12 33  1  0  0  0  0
 13 14  1  0  0  0  0
 13 34  1  0  0  0  0
 14 15  2  0  0  0  0
 14 16  1  0  0  0  0
 16 17  1  0  0  0  0
 17 18  2  0  0  0  0
 19 20  1  0  0  0  0
 19 35  1  0  0  0  0
M  CHG  1  16  -1
M  END
> <s_m_source_file>
AV-unprocessed.smi

> <i_m_source_file_index>
1116

> <i_lp_mmshare_version>
43012

> <i_f3d_flags>
0

> <s_epik_input>
W0NIM11jMW5jKFtjSF1zMSlbQ0gyXVtDSDJdW05IXUMoPU8pW0NIMl1bQ0gyXVtDQEBIXTJbTkhdQyg9TylbTkhdQzI9Tw==

> <s_epik_cmdline>
J2VwaWtfcHl0aG9uJywgJy1waCcsICc3LjAnLCAnLXRuJywgJzgnLCAnLW1hJywgJzIwMCcsICctbWV0YWxfYmluZGluZycsICctaW1hZScsICc8aW5maWxlLm1hZT4nLCAnLW9tYWUnLCAnPG91dGZpbGUubWFlPic=

> <r_lp_tautomer_probability>
1

> <r_epik_Ionization_Penalty>
2.5713

> <r_epik_Ionization_Penalty_Charging>
2.57023

> <r_epik_Ionization_Penalty_Neutral>
0.00106405

> <r_epik_State_Penalty>
2.56828

> <r_epik_Charging_Adjusted_Penalty>
5.13851

> <i_epik_Tot_Q>
-1

> <i_epik_Tot_abs_Q>
1

> <r_epik_Metal_State_Penalty>
0.44525

> <b_epik_Metal_Only>
1

> <s_lp_Force_Field>
OPLS_2005

> <r_lp_Energy>
1.68608

> <b_lp_Chiralities_Consistent>
1

> <s_lp_Variant>
AV-unprocessed.smi:1116-5

> <Gold.Version>
5.8.1

> <Gold.Id.Protein>
6NUR|6NUR_protein|mol2

> <Gold.PLP.Fitness>
47.8769

> <Gold.PLP.PLP>
-38.5304

> <Gold.PLP.part.hbond>
-3.3329

> <Gold.PLP.part.metal>
0.0000

> <Gold.PLP.part.buried>
-6.5591

> <Gold.PLP.part.nonpolar>
-29.8190

> <Gold.PLP.part.repulsive>
0.2626

> <Gold.PLP.ligand.clash>
0.0000

> <Gold.PLP.ligand.torsion>
0.7637

> <Gold.PLP.Chemscore.Hbond>
2.6080

> <Gold.PLP.Chemscore.CHOScore>
1.0000

> <Gold.PLP.Chemscore.Metal>
0.0000

> <Gold.Chemscore.Hbonds>
donor molecule, donor type, donor heavy atom, donor atom, acceptor molecule, acceptor atom, score
      L1  H    13    34       P1  7948  1.00
      P1  H  6896  6908       L1    18  0.75
      P1  H  7997  8008       L1     9  1.00
      L1  C    19    35       P1  8028  0.71

> <Gold.PLP.Chemscore.Internal.Correction>
0.0498

> <Gold.Rescore>
     Score         DG    S(hbond)    S(metal)    S(lipo)     H(rot)  DE(clash)    DE(int)     intcor
     16.86     -17.73       2.75        0.00      86.75       2.77       0.14       0.73       ----

> <Gold.Chemscore.Fitness>
16.8650

> <Gold.Chemscore.DG>
-17.7325

> <Gold.Chemscore.ZeroCoef>
-5.4800

> <Gold.Chemscore.Hbond>
2.7519

> <Gold.Chemscore.Metal>
0.0000

> <Gold.Chemscore.Lipo>
86.7517

> <Gold.Chemscore.Internal_Hbond>
0.0000

> <Gold.Chemscore.DEClash>
0.1363

> <Gold.Chemscore.DEInternal>
0.7312

> <Gold.Chemscore.Rot>
2.7691

> <Gold.Chemscore.Internal.Correction>
   9.000000E+99

> <Gold.Chemscore.Hbonds>
donor molecule, donor type, donor heavy atom, donor atom, acceptor molecule, acceptor atom, score
      L1  H    13    34       P1  7948  0.89
      P1  H  6896  6908       L1    18  0.76
      P1  H  7997  8008       L1     9  0.97

> <Gold.Chemscore.Hbond.Weighted>
-9.1915

> <Gold.Chemscore.Metal.Weighted>
-0.0000

> <Gold.Chemscore.Lipo.Weighted>
-10.1499

> <Gold.Chemscore.Internal_Hbond.Weighted>
0.0000

> <Gold.Chemscore.DEClash.Weighted>
0.1363

> <Gold.Chemscore.DEInternal.Weighted>
0.7312

> <Gold.Chemscore.Rot.Weighted>
7.0889

> <Gold.Chemscore.Internal.Correction.Weighted>
   9.000000E+99

> <Gold.Protein.RotatedTorsions>
[ 6907 6896 6895 6894 ] final  103.73 input  -60.11 | X-H torsion
[ 7974 7965 7964 7962 ] final   97.41 input  175.53 | X-H torsion
[ 8008 7997 7996 7995 ] final  -59.35 input   59.86 | X-H torsion
[ 10167 10162 10161 10158 ] final -137.15 input  -65.29 | X-H torsion
[ 10718 10713 10712 10709 ] final -102.56 input   66.30 | X-H torsion
[ 10763 10752 10751 10750 ] final   74.20 input  -60.55 | X-H torsion
[ 11005 11000 10999 10996 ] final -161.83 input  -57.11 | X-H torsion

> <Gold.Protein.ActiveResidues>
 VAL166  LYS551  ARG553  GLY616  TRP617  ASP618  TYR619  PRO620  LYS621  CYS622 
 ASP623  PHE694  ASN695  SER759  ASP760  ASP761  ALA762  ILE779  LEU786  VAL792 
 PHE793  MET794  SER795  GLU796  ALA797  LYS798  CYS799  TRP800  GLU811  SER814 

> <Gold.Protein.RotatedAtoms>
  152.5286  133.9781  159.7793 H   0  0  0  0  0  0  0  0  0  0  0  0  # atno 6907 bound_to 6896
  151.0040  133.6020  159.2698 H   0  0  0  0  0  0  0  0  0  0  0  0  # atno 6908 bound_to 6896
  151.3119  135.0803  159.9328 H   0  0  0  0  0  0  0  0  0  0  0  0  # atno 6909 bound_to 6896
  145.4259  139.2316  143.3171 H   0  0  0  0  0  0  0  0  0  0  0  0  # atno 7974 bound_to 7965
  154.4349  140.1063  156.6102 H   0  0  0  0  0  0  0  0  0  0  0  0  # atno 8008 bound_to 7997
  155.5817  140.3491  155.4523 H   0  0  0  0  0  0  0  0  0  0  0  0  # atno 8009 bound_to 7997
  156.0313  140.1261  157.0244 H   0  0  0  0  0  0  0  0  0  0  0  0  # atno 8010 bound_to 7997
  139.8607  143.7081  152.2650 H   0  0  0  0  0  0  0  0  0  0  0  0  # atno 10167 bound_to 10162
  156.0233  130.5426  150.7126 H   0  0  0  0  0  0  0  0  0  0  0  0  # atno 10718 bound_to 10713
  153.0571  135.5034  154.8007 H   0  0  0  0  0  0  0  0  0  0  0  0  # atno 10763 bound_to 10752
  154.6824  135.2970  154.9596 H   0  0  0  0  0  0  0  0  0  0  0  0  # atno 10764 bound_to 10752
  154.0378  135.6721  153.4839 H   0  0  0  0  0  0  0  0  0  0  0  0  # atno 10765 bound_to 10752
  140.6160  134.4800  157.5219 H   0  0  0  0  0  0  0  0  0  0  0  0  # atno 11005 bound_to 11000
  146.2632  140.4989  142.8845 LP  0  0  0  0  0  0  0  0  0  0  0  0  # atno 17320 bound_to 7965
  144.8214  140.6557  143.6350 LP  0  0  0  0  0  0  0  0  0  0  0  0  # atno 17321 bound_to 7965
  139.7377  144.7567  151.0702 LP  0  0  0  0  0  0  0  0  0  0  0  0  # atno 17342 bound_to 10162
  140.7775  143.5011  150.9771 LP  0  0  0  0  0  0  0  0  0  0  0  0  # atno 17343 bound_to 10162
  157.4761  131.0898  151.0589 LP  0  0  0  0  0  0  0  0  0  0  0  0  # atno 17370 bound_to 10713
  157.1035  130.5992  149.5465 LP  0  0  0  0  0  0  0  0  0  0  0  0  # atno 17371 bound_to 10713
  139.9173  134.8221  156.1326 LP  0  0  0  0  0  0  0  0  0  0  0  0  # atno 17394 bound_to 11000
  141.0775  133.6769  156.2267 LP  0  0  0  0  0  0  0  0  0  0  0  0  # atno 17395 bound_to 11000

$$$$
