AV-unprocessed.smi:452|AV-procd|sdf|2610|dock8
  -GOLD-   2262023 13D 1   1.00000     0.00000
 Structure written by MMmdl.
 43 44  0  0  0  0  0  0  0  0  1 V2000
  143.6016  135.3841  151.9694 C   0  0  0  0  0  0  0  0  0  0  0  0
  144.8867  136.0074  151.4029 C   0  0  0  0  0  0  0  0  0  0  0  0
  145.9034  134.9058  151.0577 C   0  0  0  0  0  0  0  0  0  0  0  0
  145.4591  137.0567  152.3786 C   0  0  0  0  0  0  0  0  0  0  0  0
  146.5385  137.9685  151.7608 C   0  0  0  0  0  0  0  0  0  0  0  0
  147.0837  138.9970  152.7571 C   0  0  0  0  0  0  0  0  0  0  0  0
  146.3850  139.9537  153.0928 O   0  0  0  0  0  0  0  0  0  0  0  0
  148.3344  138.7709  153.2018 N   0  0  0  0  0  0  0  0  0  0  0  0
  149.0937  139.5351  154.1270 C   0  0  0  0  0  0  0  0  0  0  0  0
  150.2804  138.9170  154.5794 C   0  0  0  0  0  0  0  0  0  0  0  0
  151.1023  139.5879  155.5048 C   0  0  0  0  0  0  0  0  0  0  0  0
  150.7227  140.8664  155.9558 C   0  0  0  0  0  0  0  0  0  0  0  0
  151.5226  141.5432  156.8875 N   0  0  0  0  0  0  0  0  0  0  0  0
  151.8278  140.7375  158.0629 C   0  0  0  0  0  0  0  0  0  0  0  0
  152.8078  141.4912  158.9793 C   0  0  0  0  0  0  0  0  0  0  0  0
  152.2646  142.7643  159.3177 O   0  0  0  0  0  0  0  0  0  0  0  0
  152.0408  143.5729  158.1661 C   0  0  0  0  0  0  0  0  0  0  0  0
  151.0363  142.8734  157.2333 C   0  0  0  0  0  0  0  0  0  0  0  0
  149.5217  141.4103  155.4486 C   0  0  0  0  0  0  0  0  0  0  0  0
  148.7321  140.7669  154.5635 N   0  0  0  0  0  0  0  0  0  0  0  0
  143.7958  134.8605  152.9062 H   0  0  0  0  0  0  0  0  0  0  0  0
  143.1699  134.6670  151.2706 H   0  0  0  0  0  0  0  0  0  0  0  0
  142.8458  136.1454  152.1641 H   0  0  0  0  0  0  0  0  0  0  0  0
  144.6174  136.5173  150.4768 H   0  0  0  0  0  0  0  0  0  0  0  0
  146.2423  134.3853  151.9540 H   0  0  0  0  0  0  0  0  0  0  0  0
  146.7807  135.3070  150.5518 H   0  0  0  0  0  0  0  0  0  0  0  0
  145.4635  134.1635  150.3909 H   0  0  0  0  0  0  0  0  0  0  0  0
  144.6382  137.6807  152.7356 H   0  0  0  0  0  0  0  0  0  0  0  0
  145.8592  136.5545  153.2608 H   0  0  0  0  0  0  0  0  0  0  0  0
  147.3659  137.3689  151.3808 H   0  0  0  0  0  0  0  0  0  0  0  0
  146.1256  138.5066  150.9069 H   0  0  0  0  0  0  0  0  0  0  0  0
  148.7912  137.9451  152.8440 H   0  0  0  0  0  0  0  0  0  0  0  0
  150.5610  137.9351  154.2266 H   0  0  0  0  0  0  0  0  0  0  0  0
  152.0099  139.1238  155.8626 H   0  0  0  0  0  0  0  0  0  0  0  0
  150.9084  140.5157  158.6067 H   0  0  0  0  0  0  0  0  0  0  0  0
  152.2607  139.7842  157.7572 H   0  0  0  0  0  0  0  0  0  0  0  0
  152.9801  140.9230  159.8934 H   0  0  0  0  0  0  0  0  0  0  0  0
  153.7768  141.6154  158.4931 H   0  0  0  0  0  0  0  0  0  0  0  0
  151.6515  144.5412  158.4809 H   0  0  0  0  0  0  0  0  0  0  0  0
  152.9847  143.7605  157.6514 H   0  0  0  0  0  0  0  0  0  0  0  0
  150.8950  143.4629  156.3268 H   0  0  0  0  0  0  0  0  0  0  0  0
  150.0668  142.8007  157.7274 H   0  0  0  0  0  0  0  0  0  0  0  0
  149.1767  142.3838  155.7649 H   0  0  0  0  0  0  0  0  0  0  0  0
  1  2  1  0  0  0  0
  1 21  1  0  0  0  0
  1 22  1  0  0  0  0
  1 23  1  0  0  0  0
  2  3  1  0  0  0  0
  2  4  1  0  0  0  0
  2 24  1  0  0  0  0
  3 25  1  0  0  0  0
  3 26  1  0  0  0  0
  3 27  1  0  0  0  0
  4  5  1  0  0  0  0
  4 28  1  0  0  0  0
  4 29  1  0  0  0  0
  5  6  1  0  0  0  0
  5 30  1  0  0  0  0
  5 31  1  0  0  0  0
  6  7  2  0  0  0  0
  6  8  1  0  0  0  0
  8  9  1  0  0  0  0
  8 32  1  0  0  0  0
  9 20  1  0  0  0  0
  9 10  2  0  0  0  0
 10 11  1  0  0  0  0
 10 33  1  0  0  0  0
 11 12  2  0  0  0  0
 11 34  1  0  0  0  0
 12 13  1  0  0  0  0
 12 19  1  0  0  0  0
 13 18  1  0  0  0  0
 13 14  1  0  0  0  0
 14 15  1  0  0  0  0
 14 35  1  0  0  0  0
 14 36  1  0  0  0  0
 15 16  1  0  0  0  0
 15 37  1  0  0  0  0
 15 38  1  0  0  0  0
 16 17  1  0  0  0  0
 17 18  1  0  0  0  0
 17 39  1  0  0  0  0
 17 40  1  0  0  0  0
 18 41  1  0  0  0  0
 18 42  1  0  0  0  0
 19 20  2  0  0  0  0
 19 43  1  0  0  0  0
M  END
> <s_m_source_file>
AV-unprocessed.smi

> <i_m_source_file_index>
452

> <i_lp_mmshare_version>
43012

> <i_f3d_flags>
0

> <s_epik_input>
W0NIM11bQ0hdKFtDSDNdKVtDSDJdW0NIMl1DKD1PKVtOSF1jMVtjSF1bY0hdYyhbY0hdbjEpTjJbQ0gyXVtDSDJdT1tDSDJdW0NIMl0y

> <s_epik_cmdline>
J2VwaWtfcHl0aG9uJywgJy1waCcsICc3LjAnLCAnLXRuJywgJzgnLCAnLW1hJywgJzIwMCcsICctbWV0YWxfYmluZGluZycsICctaW1hZScsICc8aW5maWxlLm1hZT4nLCAnLW9tYWUnLCAnPG91dGZpbGUubWFlPic=

> <r_lp_tautomer_probability>
1

> <r_epik_Ionization_Penalty>
0.0030116

> <r_epik_Ionization_Penalty_Charging>
0

> <r_epik_Ionization_Penalty_Neutral>
0.0030116

> <r_epik_State_Penalty>
0.00263935

> <r_epik_Charging_Adjusted_Penalty>
0.00263935

> <i_epik_Tot_Q>
0

> <i_epik_Tot_abs_Q>
0

> <r_epik_Metal_State_Penalty>
-0

> <b_epik_Metal_Only>
0

> <s_lp_Force_Field>
OPLS_2005

> <r_lp_Energy>
28.4973

> <b_lp_Chiralities_Consistent>
1

> <s_lp_Variant>
AV-unprocessed.smi:452-1

> <Gold.Version>
5.8.1

> <Gold.Id.Protein>
6NUR|6NUR_protein|mol2

> <Gold.PLP.Fitness>
41.6093

> <Gold.PLP.PLP>
-36.1076

> <Gold.PLP.part.hbond>
-2.0000

> <Gold.PLP.part.metal>
0.0000

> <Gold.PLP.part.buried>
-0.4395

> <Gold.PLP.part.nonpolar>
-36.2851

> <Gold.PLP.part.repulsive>
2.2887

> <Gold.PLP.ligand.clash>
0.0000

> <Gold.PLP.ligand.torsion>
0.3025

> <Gold.PLP.Chemscore.Hbond>
1.0000

> <Gold.PLP.Chemscore.CHOScore>
1.0000

> <Gold.PLP.Chemscore.Metal>
0.0000

> <Gold.Chemscore.Hbonds>
donor molecule, donor type, donor heavy atom, donor atom, acceptor molecule, acceptor atom, score
      L1  H     8    32       P1  7948  1.00
      L1  C    19    43       P1  8028  1.00

> <Gold.PLP.Chemscore.Internal.Correction>
0.1067

> <Gold.Rescore>
     Score         DG    S(hbond)    S(metal)    S(lipo)     H(rot)  DE(clash)    DE(int)     intcor
     12.89     -16.26       0.93        0.00      96.94       1.43       1.86       1.51       ----

> <Gold.Chemscore.Fitness>
12.8889

> <Gold.Chemscore.DG>
-16.2608

> <Gold.Chemscore.ZeroCoef>
-5.4800

> <Gold.Chemscore.Hbond>
0.9304

> <Gold.Chemscore.Metal>
0.0000

> <Gold.Chemscore.Lipo>
96.9408

> <Gold.Chemscore.Internal_Hbond>
0.0000

> <Gold.Chemscore.DEClash>
1.8586

> <Gold.Chemscore.DEInternal>
1.5133

> <Gold.Chemscore.Rot>
1.4332

> <Gold.Chemscore.Internal.Correction>
   9.000000E+99

> <Gold.Chemscore.Hbonds>
donor molecule, donor type, donor heavy atom, donor atom, acceptor molecule, acceptor atom, score
      L1  H     8    32       P1  7948  0.98

> <Gold.Chemscore.Hbond.Weighted>
-3.1077

> <Gold.Chemscore.Metal.Weighted>
-0.0000

> <Gold.Chemscore.Lipo.Weighted>
-11.3421

> <Gold.Chemscore.Internal_Hbond.Weighted>
0.0000

> <Gold.Chemscore.DEClash.Weighted>
1.8586

> <Gold.Chemscore.DEInternal.Weighted>
1.5133

> <Gold.Chemscore.Rot.Weighted>
3.6689

> <Gold.Chemscore.Internal.Correction.Weighted>
   9.000000E+99

> <Gold.Protein.RotatedTorsions>
[ 6907 6896 6895 6894 ] final  174.17 input  -60.11 | X-H torsion
[ 7974 7965 7964 7962 ] final  -82.55 input  175.53 | X-H torsion
[ 8008 7997 7996 7995 ] final -151.42 input   59.86 | X-H torsion
[ 10167 10162 10161 10158 ] final -139.21 input  -65.29 | X-H torsion
[ 10718 10713 10712 10709 ] final   25.34 input   66.30 | X-H torsion
[ 10763 10752 10751 10750 ] final   51.64 input  -60.55 | X-H torsion
[ 11005 11000 10999 10996 ] final  102.01 input  -57.11 | X-H torsion

> <Gold.Protein.ActiveResidues>
 VAL166  LYS551  ARG553  GLY616  TRP617  ASP618  TYR619  PRO620  LYS621  CYS622 
 ASP623  PHE694  ASN695  SER759  ASP760  ASP761  ALA762  ILE779  LEU786  VAL792 
 PHE793  MET794  SER795  GLU796  ALA797  LYS798  CYS799  TRP800  GLU811  SER814 

> <Gold.Protein.RotatedAtoms>
  151.7566  133.3331  159.3406 H   0  0  0  0  0  0  0  0  0  0  0  0  # atno 6907 bound_to 6896
  150.7514  134.6143  159.6112 H   0  0  0  0  0  0  0  0  0  0  0  0  # atno 6908 bound_to 6896
  152.3433  134.7107  160.0309 H   0  0  0  0  0  0  0  0  0  0  0  0  # atno 6909 bound_to 6896
  145.5318  140.9520  143.1599 H   0  0  0  0  0  0  0  0  0  0  0  0  # atno 7974 bound_to 7965
  155.6391  140.0700  157.2624 H   0  0  0  0  0  0  0  0  0  0  0  0  # atno 8008 bound_to 7997
  154.4188  140.1753  156.1604 H   0  0  0  0  0  0  0  0  0  0  0  0  # atno 8009 bound_to 7997
  155.9870  140.3348  155.6720 H   0  0  0  0  0  0  0  0  0  0  0  0  # atno 8010 bound_to 7997
  139.8402  143.7332  152.2663 H   0  0  0  0  0  0  0  0  0  0  0  0  # atno 10167 bound_to 10162
  157.1920  130.6850  149.6154 H   0  0  0  0  0  0  0  0  0  0  0  0  # atno 10718 bound_to 10713
  152.9786  135.5839  154.4448 H   0  0  0  0  0  0  0  0  0  0  0  0  # atno 10763 bound_to 10752
  154.4044  135.2769  155.2078 H   0  0  0  0  0  0  0  0  0  0  0  0  # atno 10764 bound_to 10752
  154.3895  135.6128  153.5889 H   0  0  0  0  0  0  0  0  0  0  0  0  # atno 10765 bound_to 10752
  139.8775  134.9207  156.4994 H   0  0  0  0  0  0  0  0  0  0  0  0  # atno 11005 bound_to 11000
  144.7622  139.6930  143.7230 LP  0  0  0  0  0  0  0  0  0  0  0  0  # atno 17320 bound_to 7965
  146.2039  139.5350  142.9725 LP  0  0  0  0  0  0  0  0  0  0  0  0  # atno 17321 bound_to 7965
  139.7567  144.7519  151.0425 LP  0  0  0  0  0  0  0  0  0  0  0  0  # atno 17342 bound_to 10162
  140.7799  143.4798  151.0034 LP  0  0  0  0  0  0  0  0  0  0  0  0  # atno 17343 bound_to 10162
  155.9710  130.4611  150.6098 LP  0  0  0  0  0  0  0  0  0  0  0  0  # atno 17370 bound_to 10713
  157.3851  131.0787  151.1443 LP  0  0  0  0  0  0  0  0  0  0  0  0  # atno 17371 bound_to 10713
  140.8601  133.8066  155.9256 LP  0  0  0  0  0  0  0  0  0  0  0  0  # atno 17394 bound_to 11000
  140.9058  134.2322  157.5015 LP  0  0  0  0  0  0  0  0  0  0  0  0  # atno 17395 bound_to 11000

$$$$
