AV-unprocessed.smi:3342|AV-procd|sdf|12889|dock7
  -GOLD-   2272019293D 1   1.00000     0.00000
 Structure written by MMmdl.
 41 42  0  0  0  0  0  0  0  0  1 V2000
  146.6993  140.1712  151.7282 C   0  0  0  0  0  0  0  0  0  0  0  0
  146.4299  139.1912  152.8819 C   0  0  2  0  0  0  0  0  0  0  0  0
  147.7208  138.6255  153.5129 C   0  0  0  0  0  0  0  0  0  0  0  0
  148.6312  139.6641  153.9566 N   0  0  0  0  0  0  0  0  0  0  0  0
  148.3383  141.0082  154.1451 C   0  0  0  0  0  0  0  0  0  0  0  0
  149.5019  141.6082  154.5705 C   0  0  0  0  0  0  0  0  0  0  0  0
  150.5162  140.6570  154.6553 N   0  0  0  0  0  0  0  0  0  0  0  0
  149.9249  139.5301  154.2800 C   0  0  0  0  0  0  0  0  0  0  0  0
  145.5910  138.1008  152.3937 N   0  0  0  0  0  0  0  0  0  0  0  0
  145.0980  137.0957  153.1380 C   0  0  0  0  0  0  0  0  0  0  0  0
  145.3066  137.0151  154.3495 O   0  0  0  0  0  0  0  0  0  0  0  0
  144.3431  136.2002  152.4521 N   0  0  0  0  0  0  0  0  0  0  0  0
  144.0971  136.1993  151.0000 C   0  0  0  0  0  0  0  0  0  0  0  0
  144.9475  135.0886  150.3573 C   0  0  0  0  0  0  0  0  0  0  0  0
  144.6343  133.7106  150.9875 C   0  0  0  0  0  0  0  0  0  0  0  0
  145.5810  132.6307  150.4470 C   0  0  0  0  0  0  0  0  0  0  0  0
  146.8783  132.7581  150.7372 N   0  0  0  0  0  0  0  0  0  0  0  0
  145.1502  131.6936  149.7776 O   0  0  0  0  0  0  0  0  0  0  0  0
  144.6967  133.7820  152.5320 C   0  0  0  0  0  0  0  0  0  0  0  0
  143.8609  134.9584  153.0687 C   0  0  0  0  0  0  0  0  0  0  0  0
  147.2460  141.0504  152.0696 H   0  0  0  0  0  0  0  0  0  0  0  0
  145.7664  140.5238  151.2874 H   0  0  0  0  0  0  0  0  0  0  0  0
  147.2847  139.7007  150.9375 H   0  0  0  0  0  0  0  0  0  0  0  0
  145.8771  139.7369  153.6488 H   0  0  0  0  0  0  0  0  0  0  0  0
  147.4835  137.9979  154.3731 H   0  0  0  0  0  0  0  0  0  0  0  0
  148.2437  137.9885  152.7978 H   0  0  0  0  0  0  0  0  0  0  0  0
  147.3542  141.4148  153.9633 H   0  0  0  0  0  0  0  0  0  0  0  0
  149.6857  142.6425  154.8211 H   0  0  0  0  0  0  0  0  0  0  0  0
  150.4470  138.5855  154.2345 H   0  0  0  0  0  0  0  0  0  0  0  0
  145.3696  138.1054  151.4089 H   0  0  0  0  0  0  0  0  0  0  0  0
  143.0386  136.0093  150.8161 H   0  0  0  0  0  0  0  0  0  0  0  0
  144.3045  137.1523  150.5136 H   0  0  0  0  0  0  0  0  0  0  0  0
  144.7600  135.0584  149.2831 H   0  0  0  0  0  0  0  0  0  0  0  0
  146.0042  135.3330  150.4794 H   0  0  0  0  0  0  0  0  0  0  0  0
  143.6124  133.4452  150.7101 H   0  0  0  0  0  0  0  0  0  0  0  0
  147.5400  132.0723  150.4037 H   0  0  0  0  0  0  0  0  0  0  0  0
  147.1928  133.5420  151.2905 H   0  0  0  0  0  0  0  0  0  0  0  0
  144.3352  132.8484  152.9648 H   0  0  0  0  0  0  0  0  0  0  0  0
  145.7292  133.8970  152.8665 H   0  0  0  0  0  0  0  0  0  0  0  0
  143.9073  134.9832  154.1584 H   0  0  0  0  0  0  0  0  0  0  0  0
  142.8076  134.8151  152.8231 H   0  0  0  0  0  0  0  0  0  0  0  0
  1  2  1  0  0  0  0
  1 21  1  0  0  0  0
  1 22  1  0  0  0  0
  1 23  1  0  0  0  0
  2  3  1  0  0  0  0
  2  9  1  0  0  0  0
  2 24  1  0  0  0  0
  3  4  1  0  0  0  0
  3 25  1  0  0  0  0
  3 26  1  0  0  0  0
  4  8  1  0  0  0  0
  4  5  1  0  0  0  0
  5  6  2  0  0  0  0
  5 27  1  0  0  0  0
  6  7  1  0  0  0  0
  6 28  1  0  0  0  0
  7  8  2  0  0  0  0
  8 29  1  0  0  0  0
  9 10  1  0  0  0  0
  9 30  1  0  0  0  0
 10 11  2  0  0  0  0
 10 12  1  0  0  0  0
 12 20  1  0  0  0  0
 12 13  1  0  0  0  0
 13 14  1  0  0  0  0
 13 31  1  0  0  0  0
 13 32  1  0  0  0  0
 14 15  1  0  0  0  0
 14 33  1  0  0  0  0
 14 34  1  0  0  0  0
 15 16  1  0  0  0  0
 15 19  1  0  0  0  0
 15 35  1  0  0  0  0
 16 17  1  0  0  0  0
 16 18  2  0  0  0  0
 17 36  1  0  0  0  0
 17 37  1  0  0  0  0
 19 20  1  0  0  0  0
 19 38  1  0  0  0  0
 19 39  1  0  0  0  0
 20 40  1  0  0  0  0
 20 41  1  0  0  0  0
M  END
> <s_m_source_file>
AV-unprocessed.smi

> <i_m_source_file_index>
3342

> <i_lp_mmshare_version>
43012

> <i_f3d_flags>
0

> <s_epik_input>
W2NIXTFuW2NIXVtjSF1uMVtDSDJdW0NAQEhdKFtDSDNdKVtOSF1DKD1PKU4yW0NIMl1bQ0gyXVtDSF0oQyg9TylbTkgyXSlbQ0gyXVtDSDJdMg==

> <s_epik_cmdline>
J2VwaWtfcHl0aG9uJywgJy1waCcsICc3LjAnLCAnLXRuJywgJzgnLCAnLW1hJywgJzIwMCcsICctbWV0YWxfYmluZGluZycsICctaW1hZScsICc8aW5maWxlLm1hZT4nLCAnLW9tYWUnLCAnPG91dGZpbGUubWFlPic=

> <r_lp_tautomer_probability>
1

> <r_epik_Ionization_Penalty>
0.624431

> <r_epik_Ionization_Penalty_Charging>
0.624374

> <r_epik_Ionization_Penalty_Neutral>
5.67186e-05

> <r_epik_State_Penalty>
0.640677

> <r_epik_Charging_Adjusted_Penalty>
1.26505

> <i_epik_Tot_Q>
0

> <i_epik_Tot_abs_Q>
0

> <r_epik_Metal_State_Penalty>
0.307574

> <b_epik_Metal_Only>
0

> <s_lp_Force_Field>
OPLS_2005

> <r_lp_Energy>
29.2273

> <b_lp_Chiralities_Consistent>
1

> <s_lp_Variant>
AV-unprocessed.smi:3342-3

> <Gold.Version>
5.8.1

> <Gold.Id.Protein>
6NUR|6NUR_protein|mol2

> <Gold.PLP.Fitness>
38.3609

> <Gold.PLP.PLP>
-28.8028

> <Gold.PLP.part.hbond>
-4.1312

> <Gold.PLP.part.metal>
0.0000

> <Gold.PLP.part.buried>
6.6099

> <Gold.PLP.part.nonpolar>
-31.0239

> <Gold.PLP.part.repulsive>
0.3513

> <Gold.PLP.ligand.clash>
0.0000

> <Gold.PLP.ligand.torsion>
0.2480

> <Gold.PLP.Chemscore.Hbond>
2.3240

> <Gold.PLP.Chemscore.CHOScore>
1.0000

> <Gold.PLP.Chemscore.Metal>
0.0000

> <Gold.Chemscore.Hbonds>
donor molecule, donor type, donor heavy atom, donor atom, acceptor molecule, acceptor atom, score
      L1  H     9    30       P1 10171  0.44
      L1  H    17    36       P1 10747  1.00
      P1  H  7989  7998       L1     7  0.91
      L1  C     6    28       P1  8028  1.00

> <Gold.PLP.Chemscore.Internal.Correction>
0.0822

> <Gold.Rescore>
     Score         DG    S(hbond)    S(metal)    S(lipo)     H(rot)  DE(clash)    DE(int)     intcor
     10.39     -11.97       1.61        0.00      59.26       2.28       1.08       0.51       ----

> <Gold.Chemscore.Fitness>
10.3875

> <Gold.Chemscore.DG>
-11.9711

> <Gold.Chemscore.ZeroCoef>
-5.4800

> <Gold.Chemscore.Hbond>
1.6119

> <Gold.Chemscore.Metal>
0.0000

> <Gold.Chemscore.Lipo>
59.2576

> <Gold.Chemscore.Internal_Hbond>
0.0000

> <Gold.Chemscore.DEClash>
1.0763

> <Gold.Chemscore.DEInternal>
0.5073

> <Gold.Chemscore.Rot>
2.2757

> <Gold.Chemscore.Internal.Correction>
   9.000000E+99

> <Gold.Chemscore.Hbonds>
donor molecule, donor type, donor heavy atom, donor atom, acceptor molecule, acceptor atom, score
      L1  H     9    30       P1 10171  0.43
      L1  H    17    36       P1 10747  1.00
      P1  H  7989  7998       L1     7  0.28

> <Gold.Chemscore.Hbond.Weighted>
-5.3839

> <Gold.Chemscore.Metal.Weighted>
-0.0000

> <Gold.Chemscore.Lipo.Weighted>
-6.9331

> <Gold.Chemscore.Internal_Hbond.Weighted>
0.0000

> <Gold.Chemscore.DEClash.Weighted>
1.0763

> <Gold.Chemscore.DEInternal.Weighted>
0.5073

> <Gold.Chemscore.Rot.Weighted>
5.8259

> <Gold.Chemscore.Internal.Correction.Weighted>
   9.000000E+99

> <Gold.Protein.RotatedTorsions>
[ 6907 6896 6895 6894 ] final  108.77 input  -60.11 | X-H torsion
[ 7974 7965 7964 7962 ] final -157.26 input  175.53 | X-H torsion
[ 8008 7997 7996 7995 ] final    0.67 input   59.86 | X-H torsion
[ 10167 10162 10161 10158 ] final -176.51 input  -65.29 | X-H torsion
[ 10718 10713 10712 10709 ] final  147.28 input   66.30 | X-H torsion
[ 10763 10752 10751 10750 ] final  155.73 input  -60.55 | X-H torsion
[ 11005 11000 10999 10996 ] final  144.42 input  -57.11 | X-H torsion

> <Gold.Protein.ActiveResidues>
 VAL166  LYS551  ARG553  GLY616  TRP617  ASP618  TYR619  PRO620  LYS621  CYS622 
 ASP623  PHE694  ASN695  SER759  ASP760  ASP761  ALA762  ILE779  LEU786  VAL792 
 PHE793  MET794  SER795  GLU796  ALA797  LYS798  CYS799  TRP800  GLU811  SER814 

> <Gold.Protein.RotatedAtoms>
  152.5097  133.9040  159.7454 H   0  0  0  0  0  0  0  0  0  0  0  0  # atno 6907 bound_to 6896
  150.9449  133.6606  159.2790 H   0  0  0  0  0  0  0  0  0  0  0  0  # atno 6908 bound_to 6896
  151.3904  135.0960  159.9577 H   0  0  0  0  0  0  0  0  0  0  0  0  # atno 6909 bound_to 6896
  144.7556  140.3994  143.6015 H   0  0  0  0  0  0  0  0  0  0  0  0  # atno 7974 bound_to 7965
  154.6708  140.2611  155.7009 H   0  0  0  0  0  0  0  0  0  0  0  0  # atno 8008 bound_to 7997
  156.2658  140.2829  156.1138 H   0  0  0  0  0  0  0  0  0  0  0  0  # atno 8009 bound_to 7997
  155.1171  140.0376  157.2730 H   0  0  0  0  0  0  0  0  0  0  0  0  # atno 8010 bound_to 7997
  139.5526  144.2071  152.1104 H   0  0  0  0  0  0  0  0  0  0  0  0  # atno 10167 bound_to 10162
  157.3229  131.0907  151.1226 H   0  0  0  0  0  0  0  0  0  0  0  0  # atno 10718 bound_to 10713
  154.1730  135.2803  155.3075 H   0  0  0  0  0  0  0  0  0  0  0  0  # atno 10763 bound_to 10752
  154.6061  135.5514  153.7427 H   0  0  0  0  0  0  0  0  0  0  0  0  # atno 10764 bound_to 10752
  153.0159  135.6403  154.1870 H   0  0  0  0  0  0  0  0  0  0  0  0  # atno 10765 bound_to 10752
  140.0631  134.9194  157.1218 H   0  0  0  0  0  0  0  0  0  0  0  0  # atno 11005 bound_to 11000
  145.6791  139.1615  143.2711 LP  0  0  0  0  0  0  0  0  0  0  0  0  # atno 17320 bound_to 7965
  146.1562  140.6855  142.9299 LP  0  0  0  0  0  0  0  0  0  0  0  0  # atno 17321 bound_to 7965
  140.1569  144.5063  150.6655 LP  0  0  0  0  0  0  0  0  0  0  0  0  # atno 17342 bound_to 10162
  140.6792  143.2319  151.5428 LP  0  0  0  0  0  0  0  0  0  0  0  0  # atno 17343 bound_to 10162
  157.2504  130.6611  149.5929 LP  0  0  0  0  0  0  0  0  0  0  0  0  # atno 17370 bound_to 10713
  155.9687  130.4540  150.5834 LP  0  0  0  0  0  0  0  0  0  0  0  0  # atno 17371 bound_to 10713
  140.3740  134.2359  155.7175 LP  0  0  0  0  0  0  0  0  0  0  0  0  # atno 17394 bound_to 11000
  141.1981  133.8043  157.0596 LP  0  0  0  0  0  0  0  0  0  0  0  0  # atno 17395 bound_to 11000

$$$$
