AV-unprocessed.smi:1785|AV-procd|sdf|7200|dock10
  -GOLD-   22720 8443D 1   1.00000     0.00000
 Structure written by MMmdl.
 28 29  0  0  0  0  0  0  0  0  1 V2000
  153.9034  140.5488  159.7958 C   0  0  0  0  0  0  0  0  0  0  0  0
  153.0178  141.7799  159.9037 C   0  0  0  0  0  0  0  0  0  0  0  0
  153.1442  142.6247  161.0268 C   0  0  0  0  0  0  0  0  0  0  0  0
  152.3249  143.7623  161.1250 C   0  0  0  0  0  0  0  0  0  0  0  0
  151.4083  144.0084  160.0885 C   0  0  0  0  0  0  0  0  0  0  0  0
  151.2811  143.2068  159.0114 N   0  0  0  0  0  0  0  0  0  0  0  0
  152.0640  142.1041  158.9016 C   0  0  0  0  0  0  0  0  0  0  0  0
  151.9858  141.2121  157.7953 N   0  0  0  0  0  0  0  0  0  0  0  0
  151.2220  141.2994  156.6885 C   0  0  0  0  0  0  0  0  0  0  0  0
  150.4351  142.2210  156.4645 O   0  0  0  0  0  0  0  0  0  0  0  0
  151.4477  140.1660  155.7995 C   0  0  0  0  0  0  0  0  0  0  0  0
  150.4250  139.6929  155.0501 C   0  0  0  0  0  0  0  0  0  0  0  0
  150.5292  138.6075  154.2165 O   0  0  0  0  0  0  0  0  0  0  0  0
  151.7193  137.8457  154.3810 C   0  0  0  0  0  0  0  0  0  0  0  0
  152.9254  138.7750  154.5816 C   0  0  0  0  0  0  0  0  0  0  0  0
  152.7113  139.6241  155.7040 O   0  0  0  0  0  0  0  0  0  0  0  0
  154.5605  140.4549  160.6608 H   0  0  0  0  0  0  0  0  0  0  0  0
  154.5285  140.6060  158.9043 H   0  0  0  0  0  0  0  0  0  0  0  0
  153.2965  139.6447  159.7373 H   0  0  0  0  0  0  0  0  0  0  0  0
  153.8597  142.4063  161.8060 H   0  0  0  0  0  0  0  0  0  0  0  0
  152.3969  144.4280  161.9723 H   0  0  0  0  0  0  0  0  0  0  0  0
  150.7596  144.8712  160.1245 H   0  0  0  0  0  0  0  0  0  0  0  0
  152.5857  140.4021  157.8498 H   0  0  0  0  0  0  0  0  0  0  0  0
  149.4193  140.0885  155.0602 H   0  0  0  0  0  0  0  0  0  0  0  0
  151.6045  137.1813  155.2386 H   0  0  0  0  0  0  0  0  0  0  0  0
  151.8641  137.2155  153.5033 H   0  0  0  0  0  0  0  0  0  0  0  0
  153.8331  138.1932  154.7423 H   0  0  0  0  0  0  0  0  0  0  0  0
  153.0886  139.3869  153.6933 H   0  0  0  0  0  0  0  0  0  0  0  0
  1  2  1  0  0  0  0
  1 17  1  0  0  0  0
  1 18  1  0  0  0  0
  1 19  1  0  0  0  0
  2  7  1  0  0  0  0
  2  3  2  0  0  0  0
  3  4  1  0  0  0  0
  3 20  1  0  0  0  0
  4  5  2  0  0  0  0
  4 21  1  0  0  0  0
  5  6  1  0  0  0  0
  5 22  1  0  0  0  0
  6  7  2  0  0  0  0
  7  8  1  0  0  0  0
  8  9  1  0  0  0  0
  8 23  1  0  0  0  0
  9 10  2  0  0  0  0
  9 11  1  0  0  0  0
 11 16  1  0  0  0  0
 11 12  2  0  0  0  0
 12 13  1  0  0  0  0
 12 24  1  0  0  0  0
 13 14  1  0  0  0  0
 14 15  1  0  0  0  0
 14 25  1  0  0  0  0
 14 26  1  0  0  0  0
 15 16  1  0  0  0  0
 15 27  1  0  0  0  0
 15 28  1  0  0  0  0
M  END
> <s_m_source_file>
AV-unprocessed.smi

> <i_m_source_file_index>
1785

> <i_lp_mmshare_version>
43012

> <i_f3d_flags>
0

> <s_epik_input>
W0NIM11jMVtjSF1bY0hdW2NIXW5jMVtOSF1DKD1PKUMyPVtDSF1PW0NIMl1bQ0gyXU8y

> <s_epik_cmdline>
J2VwaWtfcHl0aG9uJywgJy1waCcsICc3LjAnLCAnLXRuJywgJzgnLCAnLW1hJywgJzIwMCcsICctbWV0YWxfYmluZGluZycsICctaW1hZScsICc8aW5maWxlLm1hZT4nLCAnLW9tYWUnLCAnPG91dGZpbGUubWFlPic=

> <r_lp_tautomer_probability>
1

> <r_epik_Ionization_Penalty>
8.87723e-05

> <r_epik_Ionization_Penalty_Charging>
0

> <r_epik_Ionization_Penalty_Neutral>
8.87723e-05

> <r_epik_State_Penalty>
-0

> <r_epik_Charging_Adjusted_Penalty>
0

> <i_epik_Tot_Q>
0

> <i_epik_Tot_abs_Q>
0

> <r_epik_Metal_State_Penalty>
0.0224094

> <b_epik_Metal_Only>
0

> <s_lp_Force_Field>
OPLS_2005

> <r_lp_Energy>
4.55211

> <b_lp_Chiralities_Consistent>
1

> <s_lp_Variant>
AV-unprocessed.smi:1785-1

> <Gold.Version>
5.8.1

> <Gold.Id.Protein>
6NUR|6NUR_protein|mol2

> <Gold.PLP.Fitness>
38.5185

> <Gold.PLP.PLP>
-36.4546

> <Gold.PLP.part.hbond>
-1.0000

> <Gold.PLP.part.metal>
0.0000

> <Gold.PLP.part.buried>
-5.8712

> <Gold.PLP.part.nonpolar>
-30.8872

> <Gold.PLP.part.repulsive>
1.1159

> <Gold.PLP.ligand.clash>
0.0000

> <Gold.PLP.ligand.torsion>
0.4687

> <Gold.PLP.Chemscore.Hbond>
1.0000

> <Gold.PLP.Chemscore.CHOScore>
0.0000

> <Gold.PLP.Chemscore.Metal>
0.0000

> <Gold.Chemscore.Hbonds>
donor molecule, donor type, donor heavy atom, donor atom, acceptor molecule, acceptor atom, score
      P1  H  7997  8009       L1    16  1.00

> <Gold.PLP.Chemscore.Internal.Correction>
0.0012

> <Gold.Rescore>
     Score         DG    S(hbond)    S(metal)    S(lipo)     H(rot)  DE(clash)    DE(int)     intcor
     16.77     -18.71       0.94        0.00      86.12       0.00       0.02       1.92       ----

> <Gold.Chemscore.Fitness>
16.7689

> <Gold.Chemscore.DG>
-18.7097

> <Gold.Chemscore.ZeroCoef>
-5.4800

> <Gold.Chemscore.Hbond>
0.9442

> <Gold.Chemscore.Metal>
0.0000

> <Gold.Chemscore.Lipo>
86.1191

> <Gold.Chemscore.Internal_Hbond>
0.0000

> <Gold.Chemscore.DEClash>
0.0190

> <Gold.Chemscore.DEInternal>
1.9217

> <Gold.Chemscore.Rot>
0.0000

> <Gold.Chemscore.Internal.Correction>
   9.000000E+99

> <Gold.Chemscore.Hbonds>
donor molecule, donor type, donor heavy atom, donor atom, acceptor molecule, acceptor atom, score
      P1  H  7997  8009       L1    16  0.40

> <Gold.Chemscore.Hbond.Weighted>
-3.1537

> <Gold.Chemscore.Metal.Weighted>
-0.0000

> <Gold.Chemscore.Lipo.Weighted>
-10.0759

> <Gold.Chemscore.Internal_Hbond.Weighted>
0.0000

> <Gold.Chemscore.DEClash.Weighted>
0.0190

> <Gold.Chemscore.DEInternal.Weighted>
1.9217

> <Gold.Chemscore.Rot.Weighted>
0.0000

> <Gold.Chemscore.Internal.Correction.Weighted>
   9.000000E+99

> <Gold.Protein.RotatedTorsions>
[ 6907 6896 6895 6894 ] final  168.32 input  -60.11 | X-H torsion
[ 7974 7965 7964 7962 ] final -171.66 input  175.53 | X-H torsion
[ 8008 7997 7996 7995 ] final -149.13 input   59.86 | X-H torsion
[ 10167 10162 10161 10158 ] final  -99.72 input  -65.29 | X-H torsion
[ 10718 10713 10712 10709 ] final -179.18 input   66.30 | X-H torsion
[ 10763 10752 10751 10750 ] final -174.37 input  -60.55 | X-H torsion
[ 11005 11000 10999 10996 ] final  118.66 input  -57.11 | X-H torsion

> <Gold.Protein.ActiveResidues>
 VAL166  LYS551  ARG553  GLY616  TRP617  ASP618  TYR619  PRO620  LYS621  CYS622 
 ASP623  PHE694  ASN695  SER759  ASP760  ASP761  ALA762  ILE779  LEU786  VAL792 
 PHE793  MET794  SER795  GLU796  ALA797  LYS798  CYS799  TRP800  GLU811  SER814 

> <Gold.Protein.RotatedAtoms>
  151.8495  133.3437  159.3668 H   0  0  0  0  0  0  0  0  0  0  0  0  # atno 6907 bound_to 6896
  150.7210  134.5313  159.5711 H   0  0  0  0  0  0  0  0  0  0  0  0  # atno 6908 bound_to 6896
  152.2803  134.7836  160.0449 H   0  0  0  0  0  0  0  0  0  0  0  0  # atno 6909 bound_to 6896
  144.7154  140.1889  143.6350 H   0  0  0  0  0  0  0  0  0  0  0  0  # atno 7974 bound_to 7965
  155.6028  140.0664  157.2728 H   0  0  0  0  0  0  0  0  0  0  0  0  # atno 8008 bound_to 7997
  154.4274  140.1815  156.1238 H   0  0  0  0  0  0  0  0  0  0  0  0  # atno 8009 bound_to 7997
  156.0146  140.3323  155.6979 H   0  0  0  0  0  0  0  0  0  0  0  0  # atno 8010 bound_to 7997
  140.2594  143.3417  152.0640 H   0  0  0  0  0  0  0  0  0  0  0  0  # atno 10167 bound_to 10162
  156.8553  130.9733  151.3088 H   0  0  0  0  0  0  0  0  0  0  0  0  # atno 10718 bound_to 10713
  154.5970  135.2850  155.0576 H   0  0  0  0  0  0  0  0  0  0  0  0  # atno 10763 bound_to 10752
  154.1855  135.6449  153.5049 H   0  0  0  0  0  0  0  0  0  0  0  0  # atno 10764 bound_to 10752
  153.0142  135.5434  154.6675 H   0  0  0  0  0  0  0  0  0  0  0  0  # atno 10765 bound_to 10752
  139.9118  134.9622  156.7538 H   0  0  0  0  0  0  0  0  0  0  0  0  # atno 11005 bound_to 11000
  145.8787  139.2311  143.1618 LP  0  0  0  0  0  0  0  0  0  0  0  0  # atno 17320 bound_to 7965
  146.0015  140.8516  143.0016 LP  0  0  0  0  0  0  0  0  0  0  0  0  # atno 17321 bound_to 7965
  139.5021  144.6728  151.6201 LP  0  0  0  0  0  0  0  0  0  0  0  0  # atno 17342 bound_to 10162
  140.5977  143.9665  150.6365 LP  0  0  0  0  0  0  0  0  0  0  0  0  # atno 17343 bound_to 10162
  157.6280  130.8707  149.9224 LP  0  0  0  0  0  0  0  0  0  0  0  0  # atno 17370 bound_to 10713
  156.0806  130.3673  150.0589 LP  0  0  0  0  0  0  0  0  0  0  0  0  # atno 17371 bound_to 10713
  140.6752  133.9523  155.7879 LP  0  0  0  0  0  0  0  0  0  0  0  0  # atno 17394 bound_to 11000
  141.0549  134.0431  157.3735 LP  0  0  0  0  0  0  0  0  0  0  0  0  # atno 17395 bound_to 11000

$$$$
