AV-unprocessed.smi:492|AV-procd|sdf|2709|dock9
  -GOLD-   2262023153D 1   1.00000     0.00000
 Structure written by MMmdl.
 46 48  0  0  0  0  0  0  0  0  1 V2000
  150.8309  129.2653  155.0800 C   0  0  0  0  0  0  0  0  0  0  0  0
  150.1972  130.3537  154.4236 O   0  0  0  0  0  0  0  0  0  0  0  0
  150.4321  131.6251  154.9018 C   0  0  0  0  0  0  0  0  0  0  0  0
  151.3636  131.9317  155.9254 C   0  0  0  0  0  0  0  0  0  0  0  0
  151.5413  133.2617  156.3540 C   0  0  0  0  0  0  0  0  0  0  0  0
  150.7991  134.3058  155.7667 C   0  0  0  0  0  0  0  0  0  0  0  0
  150.9865  135.7327  156.2482 C   0  0  0  0  0  0  0  0  0  0  0  0
  151.8652  136.4667  155.4116 O   0  0  0  0  0  0  0  0  0  0  0  0
  151.4767  137.8209  155.2457 C   0  0  0  0  0  0  0  0  0  0  0  0
  152.2127  138.7012  156.2680 C   0  0  1  0  0  0  0  0  0  0  0  0
  152.9034  139.7234  155.5775 O   0  0  0  0  0  0  0  0  0  0  0  0
  151.2912  139.2692  157.3682 C   0  0  0  0  0  0  0  0  0  0  0  0
  151.9474  140.2759  158.1907 N   0  0  0  0  0  0  0  0  0  0  0  0
  152.8656  140.0886  159.1706 C   0  0  0  0  0  0  0  0  0  0  0  0
  153.3458  138.7250  159.5547 C   0  0  0  0  0  0  0  0  0  0  0  0
  153.3098  141.1935  159.7702 N   0  0  0  0  0  0  0  0  0  0  0  0
  152.6116  142.1927  159.1197 C   0  0  0  0  0  0  0  0  0  0  0  0
  152.6358  143.5947  159.2962 C   0  0  0  0  0  0  0  0  0  0  0  0
  151.8203  144.4282  158.5027 C   0  0  0  0  0  0  0  0  0  0  0  0
  150.9712  143.8736  157.5230 C   0  0  0  0  0  0  0  0  0  0  0  0
  150.9322  142.4793  157.3305 C   0  0  0  0  0  0  0  0  0  0  0  0
  151.7478  141.6516  158.1255 C   0  0  0  0  0  0  0  0  0  0  0  0
  149.8640  134.0048  154.7548 C   0  0  0  0  0  0  0  0  0  0  0  0
  149.6879  132.6753  154.3260 C   0  0  0  0  0  0  0  0  0  0  0  0
  150.5507  128.3349  154.5864 H   0  0  0  0  0  0  0  0  0  0  0  0
  150.5184  129.1925  156.1226 H   0  0  0  0  0  0  0  0  0  0  0  0
  151.9175  129.3483  155.0332 H   0  0  0  0  0  0  0  0  0  0  0  0
  151.9552  131.1635  156.3996 H   0  0  0  0  0  0  0  0  0  0  0  0
  152.2534  133.4771  157.1372 H   0  0  0  0  0  0  0  0  0  0  0  0
  150.0098  136.2175  156.2789 H   0  0  0  0  0  0  0  0  0  0  0  0
  151.3780  135.7199  157.2666 H   0  0  0  0  0  0  0  0  0  0  0  0
  151.7391  138.1456  154.2375 H   0  0  0  0  0  0  0  0  0  0  0  0
  150.3957  137.9299  155.3488 H   0  0  0  0  0  0  0  0  0  0  0  0
  152.9810  138.0884  156.7391 H   0  0  0  0  0  0  0  0  0  0  0  0
  152.5212  139.8123  154.7177 H   0  0  0  0  0  0  0  0  0  0  0  0
  150.4030  139.7213  156.9259 H   0  0  0  0  0  0  0  0  0  0  0  0
  150.9291  138.4668  158.0110 H   0  0  0  0  0  0  0  0  0  0  0  0
  154.0574  138.7889  160.3786 H   0  0  0  0  0  0  0  0  0  0  0  0
  153.8426  138.2455  158.7119 H   0  0  0  0  0  0  0  0  0  0  0  0
  152.5091  138.1039  159.8748 H   0  0  0  0  0  0  0  0  0  0  0  0
  153.2836  144.0286  160.0434 H   0  0  0  0  0  0  0  0  0  0  0  0
  151.8471  145.4985  158.6462 H   0  0  0  0  0  0  0  0  0  0  0  0
  150.3503  144.5186  156.9186 H   0  0  0  0  0  0  0  0  0  0  0  0
  150.2849  142.0518  156.5796 H   0  0  0  0  0  0  0  0  0  0  0  0
  149.2777  134.7907  154.3016 H   0  0  0  0  0  0  0  0  0  0  0  0
  148.9717  132.4587  153.5470 H   0  0  0  0  0  0  0  0  0  0  0  0
  1  2  1  0  0  0  0
  1 25  1  0  0  0  0
  1 26  1  0  0  0  0
  1 27  1  0  0  0  0
  2  3  1  0  0  0  0
  3 24  1  0  0  0  0
  3  4  2  0  0  0  0
  4  5  1  0  0  0  0
  4 28  1  0  0  0  0
  5  6  2  0  0  0  0
  5 29  1  0  0  0  0
  6  7  1  0  0  0  0
  6 23  1  0  0  0  0
  7  8  1  0  0  0  0
  7 30  1  0  0  0  0
  7 31  1  0  0  0  0
  8  9  1  0  0  0  0
  9 10  1  0  0  0  0
  9 32  1  0  0  0  0
  9 33  1  0  0  0  0
 10 11  1  0  0  0  0
 10 12  1  0  0  0  0
 10 34  1  0  0  0  0
 11 35  1  0  0  0  0
 12 13  1  0  0  0  0
 12 36  1  0  0  0  0
 12 37  1  0  0  0  0
 13 22  1  0  0  0  0
 13 14  1  0  0  0  0
 14 15  1  0  0  0  0
 14 16  2  0  0  0  0
 15 38  1  0  0  0  0
 15 39  1  0  0  0  0
 15 40  1  0  0  0  0
 16 17  1  0  0  0  0
 17 22  2  0  0  0  0
 17 18  1  0  0  0  0
 18 19  2  0  0  0  0
 18 41  1  0  0  0  0
 19 20  1  0  0  0  0
 19 42  1  0  0  0  0
 20 21  2  0  0  0  0
 20 43  1  0  0  0  0
 21 22  1  0  0  0  0
 21 44  1  0  0  0  0
 23 24  2  0  0  0  0
 23 45  1  0  0  0  0
 24 46  1  0  0  0  0
M  END
> <s_m_source_file>
AV-unprocessed.smi

> <i_m_source_file_index>
492

> <i_lp_mmshare_version>
43012

> <i_f3d_flags>
0

> <s_epik_input>
W0NIM11PYzFbY0hdW2NIXWMoW2NIXVtjSF0xKVtDSDJdT1tDSDJdW0NASF0oW09IXSlbQ0gyXW4oYyhuMilbQ0gzXSljKGMyMylbY0hdW2NIXVtjSF1bY0hdMw==

> <s_epik_cmdline>
J2VwaWtfcHl0aG9uJywgJy1waCcsICc3LjAnLCAnLXRuJywgJzgnLCAnLW1hJywgJzIwMCcsICctbWV0YWxfYmluZGluZycsICctaW1hZScsICc8aW5maWxlLm1hZT4nLCAnLW9tYWUnLCAnPG91dGZpbGUubWFlPic=

> <r_lp_tautomer_probability>
1

> <r_epik_Ionization_Penalty>
0.132603

> <r_epik_Ionization_Penalty_Charging>
0

> <r_epik_Ionization_Penalty_Neutral>
0.132603

> <r_epik_State_Penalty>
0.121982

> <r_epik_Charging_Adjusted_Penalty>
0.121982

> <i_epik_Tot_Q>
0

> <i_epik_Tot_abs_Q>
0

> <r_epik_Metal_State_Penalty>
0.000135431

> <b_epik_Metal_Only>
0

> <s_lp_Force_Field>
OPLS_2005

> <r_lp_Energy>
18.9568

> <b_lp_Chiralities_Consistent>
1

> <s_lp_Variant>
AV-unprocessed.smi:492-2

> <Gold.Version>
5.8.1

> <Gold.Id.Protein>
6NUR|6NUR_protein|mol2

> <Gold.PLP.Fitness>
52.0117

> <Gold.PLP.PLP>
-49.6796

> <Gold.PLP.part.hbond>
-1.7008

> <Gold.PLP.part.metal>
0.0000

> <Gold.PLP.part.buried>
-5.5629

> <Gold.PLP.part.nonpolar>
-42.0849

> <Gold.PLP.part.repulsive>
0.1817

> <Gold.PLP.ligand.clash>
0.0000

> <Gold.PLP.ligand.torsion>
1.8343

> <Gold.PLP.Chemscore.Hbond>
1.9120

> <Gold.PLP.Chemscore.CHOScore>
0.0000

> <Gold.PLP.Chemscore.Metal>
0.0000

> <Gold.Chemscore.Hbonds>
donor molecule, donor type, donor heavy atom, donor atom, acceptor molecule, acceptor atom, score
      P1  H  7997  8009       L1    11  0.82
      P1  H 10752 10764       L1     8  1.00

> <Gold.PLP.Chemscore.Internal.Correction>
0.2648

> <Gold.Rescore>
     Score         DG    S(hbond)    S(metal)    S(lipo)     H(rot)  DE(clash)    DE(int)     intcor
     18.79     -20.38       1.86        0.00     126.77       2.40       0.00       1.59       ----

> <Gold.Chemscore.Fitness>
18.7880

> <Gold.Chemscore.DG>
-20.3831

> <Gold.Chemscore.ZeroCoef>
-5.4800

> <Gold.Chemscore.Hbond>
1.8603

> <Gold.Chemscore.Metal>
0.0000

> <Gold.Chemscore.Lipo>
126.7653

> <Gold.Chemscore.Internal_Hbond>
0.0000

> <Gold.Chemscore.DEClash>
0.0021

> <Gold.Chemscore.DEInternal>
1.5930

> <Gold.Chemscore.Rot>
2.3991

> <Gold.Chemscore.Internal.Correction>
   9.000000E+99

> <Gold.Chemscore.Hbonds>
donor molecule, donor type, donor heavy atom, donor atom, acceptor molecule, acceptor atom, score
      P1  H  7997  8009       L1    11  0.53
      P1  H 10752 10764       L1     8  0.76

> <Gold.Chemscore.Hbond.Weighted>
-6.2133

> <Gold.Chemscore.Metal.Weighted>
-0.0000

> <Gold.Chemscore.Lipo.Weighted>
-14.8315

> <Gold.Chemscore.Internal_Hbond.Weighted>
0.0000

> <Gold.Chemscore.DEClash.Weighted>
0.0021

> <Gold.Chemscore.DEInternal.Weighted>
1.5930

> <Gold.Chemscore.Rot.Weighted>
6.1417

> <Gold.Chemscore.Internal.Correction.Weighted>
   9.000000E+99

> <Gold.Protein.RotatedTorsions>
[ 6907 6896 6895 6894 ] final   93.94 input  -60.11 | X-H torsion
[ 7974 7965 7964 7962 ] final -168.20 input  175.53 | X-H torsion
[ 8008 7997 7996 7995 ] final -174.00 input   59.86 | X-H torsion
[ 10167 10162 10161 10158 ] final -151.92 input  -65.29 | X-H torsion
[ 10718 10713 10712 10709 ] final   73.33 input   66.30 | X-H torsion
[ 10763 10752 10751 10750 ] final  -44.83 input  -60.55 | X-H torsion
[ 11005 11000 10999 10996 ] final  -46.03 input  -57.11 | X-H torsion

> <Gold.Protein.ActiveResidues>
 VAL166  LYS551  ARG553  GLY616  TRP617  ASP618  TYR619  PRO620  LYS621  CYS622 
 ASP623  PHE694  ASN695  SER759  ASP760  ASP761  ALA762  ILE779  LEU786  VAL792 
 PHE793  MET794  SER795  GLU796  ALA797  LYS798  CYS799  TRP800  GLU811  SER814 

> <Gold.Protein.RotatedAtoms>
  152.5451  134.1270  159.8422 H   0  0  0  0  0  0  0  0  0  0  0  0  # atno 6907 bound_to 6896
  151.1320  133.5023  159.2606 H   0  0  0  0  0  0  0  0  0  0  0  0  # atno 6908 bound_to 6896
  151.1665  135.0308  159.8787 H   0  0  0  0  0  0  0  0  0  0  0  0  # atno 6909 bound_to 6896
  144.7207  140.2405  143.6292 H   0  0  0  0  0  0  0  0  0  0  0  0  # atno 7974 bound_to 7965
  155.9645  140.1151  157.0866 H   0  0  0  0  0  0  0  0  0  0  0  0  # atno 8008 bound_to 7997
  154.4140  140.1175  156.5291 H   0  0  0  0  0  0  0  0  0  0  0  0  # atno 8009 bound_to 7997
  155.6677  140.3473  155.4808 H   0  0  0  0  0  0  0  0  0  0  0  0  # atno 8010 bound_to 7997
  139.7226  143.8933  152.2508 H   0  0  0  0  0  0  0  0  0  0  0  0  # atno 10167 bound_to 10162
  157.6542  130.9623  150.1053 H   0  0  0  0  0  0  0  0  0  0  0  0  # atno 10718 bound_to 10713
  154.0185  135.6672  153.4770 H   0  0  0  0  0  0  0  0  0  0  0  0  # atno 10763 bound_to 10752
  153.0590  135.5039  154.8045 H   0  0  0  0  0  0  0  0  0  0  0  0  # atno 10764 bound_to 10752
  154.6952  135.3068  154.9387 H   0  0  0  0  0  0  0  0  0  0  0  0  # atno 10765 bound_to 10752
  141.0553  133.6728  156.3097 H   0  0  0  0  0  0  0  0  0  0  0  0  # atno 11005 bound_to 11000
  145.8324  139.2092  143.1875 LP  0  0  0  0  0  0  0  0  0  0  0  0  # atno 17320 bound_to 7965
  146.0419  140.8157  142.9824 LP  0  0  0  0  0  0  0  0  0  0  0  0  # atno 17321 bound_to 7965
  139.8833  144.7005  150.8853 LP  0  0  0  0  0  0  0  0  0  0  0  0  # atno 17342 bound_to 10162
  140.7756  143.3643  151.1768 LP  0  0  0  0  0  0  0  0  0  0  0  0  # atno 17343 bound_to 10162
  156.1965  130.3657  149.8843 LP  0  0  0  0  0  0  0  0  0  0  0  0  # atno 17370 bound_to 10713
  156.6758  130.8838  151.3569 LP  0  0  0  0  0  0  0  0  0  0  0  0  # atno 17371 bound_to 10713
  140.5976  134.5587  157.5511 LP  0  0  0  0  0  0  0  0  0  0  0  0  # atno 17394 bound_to 11000
  139.9385  134.7831  156.0740 LP  0  0  0  0  0  0  0  0  0  0  0  0  # atno 17395 bound_to 11000

$$$$
