AV-unprocessed.smi:2340|AV-procd|sdf|9346|dock9
  -GOLD-   2272012563D 1   1.00000     0.00000
 Structure written by MMmdl.
 40 41  0  0  0  0  0  0  0  0  1 V2000
  145.0869  135.8008  151.1489 C   0  0  0  0  0  0  0  0  0  0  0  0
  145.5094  134.4357  151.5921 C   0  0  0  0  0  0  0  0  0  0  0  0
  144.8610  133.2507  151.3488 C   0  0  0  0  0  0  0  0  0  0  0  0
  145.7033  131.8947  152.0457 S   0  0  0  0  0  0  0  0  0  0  0  0
  146.9256  133.0059  152.6553 C   0  0  0  0  0  0  0  0  0  0  0  0
  148.1307  132.5552  153.4245 C   0  0  2  0  0  0  0  0  0  0  0  0
  148.1312  131.0392  153.6669 C   0  0  0  0  0  0  0  0  0  0  0  0
  148.3696  133.3724  154.7146 C   0  0  0  0  0  0  0  0  0  0  0  0
  148.8170  134.7367  154.4484 N   0  0  0  0  0  0  0  0  0  0  0  0
  149.2956  135.5831  155.3694 C   0  0  0  0  0  0  0  0  0  0  0  0
  149.3594  135.3316  156.5730 O   0  0  0  0  0  0  0  0  0  0  0  0
  149.7230  136.7256  154.8168 N   0  0  0  0  0  0  0  0  0  0  0  0
  150.3532  137.8235  155.5476 C   0  0  1  0  0  0  0  0  0  0  0  0
  151.8776  137.7801  155.4176 C   0  0  0  0  0  0  0  0  0  0  0  0
  152.2555  139.1882  154.9690 C   0  0  0  0  0  0  0  0  0  0  0  0
  151.1163  139.6193  154.2459 O   0  0  0  0  0  0  0  0  0  0  0  0
  149.9758  139.2121  154.9871 C   0  0  1  0  0  0  0  0  0  0  0  0
  148.7134  139.2989  154.1142 C   0  0  0  0  0  0  0  0  0  0  0  0
  146.6827  134.2806  152.3350 N   0  0  0  0  0  0  0  0  0  0  0  0
  144.1337  135.7715  150.6205 H   0  0  0  0  0  0  0  0  0  0  0  0
  145.8233  136.2408  150.4762 H   0  0  0  0  0  0  0  0  0  0  0  0
  144.9715  136.4727  151.9996 H   0  0  0  0  0  0  0  0  0  0  0  0
  143.9428  133.0931  150.8026 H   0  0  0  0  0  0  0  0  0  0  0  0
  148.9853  132.7489  152.7751 H   0  0  0  0  0  0  0  0  0  0  0  0
  148.0645  130.4915  152.7264 H   0  0  0  0  0  0  0  0  0  0  0  0
  147.2883  130.7373  154.2891 H   0  0  0  0  0  0  0  0  0  0  0  0
  149.0454  130.7230  154.1696 H   0  0  0  0  0  0  0  0  0  0  0  0
  147.4371  133.4465  155.2749 H   0  0  0  0  0  0  0  0  0  0  0  0
  149.0811  132.8637  155.3669 H   0  0  0  0  0  0  0  0  0  0  0  0
  148.8078  135.0376  153.4847 H   0  0  0  0  0  0  0  0  0  0  0  0
  149.6312  136.8377  153.8178 H   0  0  0  0  0  0  0  0  0  0  0  0
  150.0542  137.7736  156.5961 H   0  0  0  0  0  0  0  0  0  0  0  0
  152.3700  137.4984  156.3487 H   0  0  0  0  0  0  0  0  0  0  0  0
  152.1856  137.0643  154.6532 H   0  0  0  0  0  0  0  0  0  0  0  0
  152.4111  139.8422  155.8283 H   0  0  0  0  0  0  0  0  0  0  0  0
  153.1555  139.2077  154.3541 H   0  0  0  0  0  0  0  0  0  0  0  0
  149.8685  139.9046  155.8240 H   0  0  0  0  0  0  0  0  0  0  0  0
  147.8345  138.9540  154.6592 H   0  0  0  0  0  0  0  0  0  0  0  0
  148.8080  138.7005  153.2076 H   0  0  0  0  0  0  0  0  0  0  0  0
  148.5288  140.3283  153.8066 H   0  0  0  0  0  0  0  0  0  0  0  0
  1  2  1  0  0  0  0
  1 20  1  0  0  0  0
  1 21  1  0  0  0  0
  1 22  1  0  0  0  0
  2 19  1  0  0  0  0
  2  3  2  0  0  0  0
  3  4  1  0  0  0  0
  3 23  1  0  0  0  0
  4  5  1  0  0  0  0
  5  6  1  0  0  0  0
  5 19  2  0  0  0  0
  6  7  1  0  0  0  0
  6  8  1  0  0  0  0
  6 24  1  0  0  0  0
  7 25  1  0  0  0  0
  7 26  1  0  0  0  0
  7 27  1  0  0  0  0
  8  9  1  0  0  0  0
  8 28  1  0  0  0  0
  8 29  1  0  0  0  0
  9 10  1  0  0  0  0
  9 30  1  0  0  0  0
 10 11  2  0  0  0  0
 10 12  1  0  0  0  0
 12 13  1  0  0  0  0
 12 31  1  0  0  0  0
 13 17  1  0  0  0  0
 13 14  1  0  0  0  0
 13 32  1  0  0  0  0
 14 15  1  0  0  0  0
 14 33  1  0  0  0  0
 14 34  1  0  0  0  0
 15 16  1  0  0  0  0
 15 35  1  0  0  0  0
 15 36  1  0  0  0  0
 16 17  1  0  0  0  0
 17 18  1  0  0  0  0
 17 37  1  0  0  0  0
 18 38  1  0  0  0  0
 18 39  1  0  0  0  0
 18 40  1  0  0  0  0
M  END
> <s_m_source_file>
AV-unprocessed.smi

> <i_m_source_file_index>
2340

> <i_lp_mmshare_version>
43012

> <i_f3d_flags>
0

> <s_epik_input>
W0NIM11jMVtjSF1zYyhuMSlbQ0BIXShbQ0gzXSlbQ0gyXVtOSF1DKD1PKVtOSF1bQ0BASF0yW0NIMl1bQ0gyXU9bQ0BIXTJbQ0gzXQ==

> <s_epik_cmdline>
J2VwaWtfcHl0aG9uJywgJy1waCcsICc3LjAnLCAnLXRuJywgJzgnLCAnLW1hJywgJzIwMCcsICctbWV0YWxfYmluZGluZycsICctaW1hZScsICc8aW5maWxlLm1hZT4nLCAnLW9tYWUnLCAnPG91dGZpbGUubWFlPic=

> <r_epik_Ionization_Penalty>
0.00156622

> <r_epik_Ionization_Penalty_Charging>
0

> <r_epik_Ionization_Penalty_Neutral>
0.00156622

> <r_epik_State_Penalty>
0.00101902

> <r_epik_Charging_Adjusted_Penalty>
0.00101902

> <i_epik_Tot_Q>
0

> <i_epik_Tot_abs_Q>
0

> <r_epik_Metal_State_Penalty>
-0

> <b_epik_Metal_Only>
0

> <s_lp_Force_Field>
OPLS_2005

> <r_lp_Energy>
5.02478

> <b_lp_Chiralities_Consistent>
1

> <s_lp_Variant>
AV-unprocessed.smi:2340-3

> <Gold.Version>
5.8.1

> <Gold.Id.Protein>
6NUR|6NUR_protein|mol2

> <Gold.PLP.Fitness>
39.3427

> <Gold.PLP.PLP>
-31.7765

> <Gold.PLP.part.hbond>
-3.0000

> <Gold.PLP.part.metal>
0.0000

> <Gold.PLP.part.buried>
-2.3270

> <Gold.PLP.part.nonpolar>
-27.5890

> <Gold.PLP.part.repulsive>
1.7772

> <Gold.PLP.ligand.clash>
0.0000

> <Gold.PLP.ligand.torsion>
0.6147

> <Gold.PLP.Chemscore.Hbond>
2.8925

> <Gold.PLP.Chemscore.CHOScore>
0.0000

> <Gold.PLP.Chemscore.Metal>
0.0000

> <Gold.Chemscore.Hbonds>
donor molecule, donor type, donor heavy atom, donor atom, acceptor molecule, acceptor atom, score
      L1  H     9    30       P1  7948  1.00
      L1  H    12    31       P1  7948  0.76
      P1  H  7989  7998       L1    16  1.00

> <Gold.PLP.Chemscore.Internal.Correction>
0.1181

> <Gold.Rescore>
     Score         DG    S(hbond)    S(metal)    S(lipo)     H(rot)  DE(clash)    DE(int)     intcor
     15.37     -16.95       2.19        0.00      69.14       1.53       0.07       1.51       ----

> <Gold.Chemscore.Fitness>
15.3726

> <Gold.Chemscore.DG>
-16.9497

> <Gold.Chemscore.ZeroCoef>
-5.4800

> <Gold.Chemscore.Hbond>
2.1867

> <Gold.Chemscore.Metal>
0.0000

> <Gold.Chemscore.Lipo>
69.1411

> <Gold.Chemscore.Internal_Hbond>
0.0000

> <Gold.Chemscore.DEClash>
0.0716

> <Gold.Chemscore.DEInternal>
1.5054

> <Gold.Chemscore.Rot>
1.5325

> <Gold.Chemscore.Internal.Correction>
   9.000000E+99

> <Gold.Chemscore.Hbonds>
donor molecule, donor type, donor heavy atom, donor atom, acceptor molecule, acceptor atom, score
      L1  H     9    30       P1  7948  0.59
      L1  H    12    31       P1  7948  0.57
      P1  H  7989  7998       L1    16  0.37

> <Gold.Chemscore.Hbond.Weighted>
-7.3035

> <Gold.Chemscore.Metal.Weighted>
-0.0000

> <Gold.Chemscore.Lipo.Weighted>
-8.0895

> <Gold.Chemscore.Internal_Hbond.Weighted>
0.0000

> <Gold.Chemscore.DEClash.Weighted>
0.0716

> <Gold.Chemscore.DEInternal.Weighted>
1.5054

> <Gold.Chemscore.Rot.Weighted>
3.9233

> <Gold.Chemscore.Internal.Correction.Weighted>
   9.000000E+99

> <Gold.Protein.RotatedTorsions>
[ 6907 6896 6895 6894 ] final  -28.19 input  -60.11 | X-H torsion
[ 7974 7965 7964 7962 ] final  152.70 input  175.53 | X-H torsion
[ 8008 7997 7996 7995 ] final  112.80 input   59.86 | X-H torsion
[ 10167 10162 10161 10158 ] final   -0.20 input  -65.29 | X-H torsion
[ 10718 10713 10712 10709 ] final  -28.89 input   66.30 | X-H torsion
[ 10763 10752 10751 10750 ] final -176.56 input  -60.55 | X-H torsion
[ 11005 11000 10999 10996 ] final  176.68 input  -57.11 | X-H torsion

> <Gold.Protein.ActiveResidues>
 VAL166  LYS551  ARG553  GLY616  TRP617  ASP618  TYR619  PRO620  LYS621  CYS622 
 ASP623  PHE694  ASN695  SER759  ASP760  ASP761  ALA762  ILE779  LEU786  VAL792 
 PHE793  MET794  SER795  GLU796  ALA797  LYS798  CYS799  TRP800  GLU811  SER814 

> <Gold.Protein.RotatedAtoms>
  151.1364  135.0157  159.8605 H   0  0  0  0  0  0  0  0  0  0  0  0  # atno 6907 bound_to 6896
  152.5452  134.1550  159.8544 H   0  0  0  0  0  0  0  0  0  0  0  0  # atno 6908 bound_to 6896
  151.1622  133.4792  159.2627 H   0  0  0  0  0  0  0  0  0  0  0  0  # atno 6909 bound_to 6896
  144.8204  139.6703  143.6103 H   0  0  0  0  0  0  0  0  0  0  0  0  # atno 7974 bound_to 7965
  156.2216  140.2992  155.9967 H   0  0  0  0  0  0  0  0  0  0  0  0  # atno 8008 bound_to 7997
  155.2466  140.0424  157.2998 H   0  0  0  0  0  0  0  0  0  0  0  0  # atno 8009 bound_to 7997
  154.5850  140.2385  155.8008 H   0  0  0  0  0  0  0  0  0  0  0  0  # atno 8010 bound_to 7997
  140.6757  143.6923  150.8018 H   0  0  0  0  0  0  0  0  0  0  0  0  # atno 10167 bound_to 10162
  156.4194  130.4423  149.7194 H   0  0  0  0  0  0  0  0  0  0  0  0  # atno 10718 bound_to 10713
  154.5708  135.2828  155.0829 H   0  0  0  0  0  0  0  0  0  0  0  0  # atno 10763 bound_to 10752
  154.2202  135.6392  153.5146 H   0  0  0  0  0  0  0  0  0  0  0  0  # atno 10764 bound_to 10752
  153.0057  135.5512  154.6331 H   0  0  0  0  0  0  0  0  0  0  0  0  # atno 10765 bound_to 10752
  140.3758  134.6990  157.4421 H   0  0  0  0  0  0  0  0  0  0  0  0  # atno 11005 bound_to 11000
  146.2509  139.6198  142.9427 LP  0  0  0  0  0  0  0  0  0  0  0  0  # atno 17320 bound_to 7965
  145.5118  141.0435  143.2484 LP  0  0  0  0  0  0  0  0  0  0  0  0  # atno 17321 bound_to 7965
  140.0616  143.5149  152.2625 LP  0  0  0  0  0  0  0  0  0  0  0  0  # atno 17342 bound_to 10162
  139.6048  144.7593  151.3088 LP  0  0  0  0  0  0  0  0  0  0  0  0  # atno 17343 bound_to 10162
  156.4141  130.7736  151.2751 LP  0  0  0  0  0  0  0  0  0  0  0  0  # atno 17370 bound_to 10713
  157.7508  131.0202  150.3701 LP  0  0  0  0  0  0  0  0  0  0  0  0  # atno 17371 bound_to 10713
  140.0516  134.6122  155.8855 LP  0  0  0  0  0  0  0  0  0  0  0  0  # atno 17394 bound_to 11000
  141.1940  133.6581  156.5573 LP  0  0  0  0  0  0  0  0  0  0  0  0  # atno 17395 bound_to 11000

$$$$
