AV-unprocessed.smi:2035|AV-procd|sdf|8271|dock5
  -GOLD-   2272010543D 1   1.00000     0.00000
 Structure written by MMmdl.
 35 36  0  0  0  0  0  0  0  0  2 V2000
  150.9268  140.8077  155.9813 O   0  0  0  0  0  0  0  0  0  0  0  0
  150.4429  141.8831  155.6280 C   0  0  0  0  0  0  0  0  0  0  0  0
  150.5412  143.0375  156.3095 N   0  0  0  0  0  0  0  0  0  0  0  0
  151.2057  143.2746  157.5429 C   0  0  0  0  0  0  0  0  0  0  0  0
  151.0412  144.5417  158.1450 C   0  0  0  0  0  0  0  0  0  0  0  0
  151.6741  144.8143  159.3749 C   0  0  0  0  0  0  0  0  0  0  0  0
  152.4210  143.8612  159.9726 N   0  3  0  0  0  0  0  0  0  0  0  0
  152.5929  142.6302  159.4446 C   0  0  0  0  0  0  0  0  0  0  0  0
  151.9850  142.2998  158.2161 C   0  0  0  0  0  0  0  0  0  0  0  0
  149.7640  142.0503  154.4839 N   0  0  0  0  0  0  0  0  0  0  0  0
  149.4885  141.0080  153.4950 C   0  0  2  0  0  0  0  0  0  0  0  0
  148.5415  139.9321  154.0870 C   0  0  0  0  0  0  0  0  0  0  0  0
  148.6215  138.5306  153.4466 C   0  0  0  0  0  0  0  0  0  0  0  0
  148.4466  138.4899  151.9150 C   0  0  0  0  0  0  0  0  0  0  0  0
  149.4013  139.3791  151.0828 C   0  0  0  0  0  0  0  0  0  0  0  0
  150.6604  139.7053  151.7516 N   0  0  0  0  0  0  0  0  0  0  0  0
  150.7807  140.4690  152.8513 C   0  0  0  0  0  0  0  0  0  0  0  0
  151.8804  140.7157  153.3449 O   0  0  0  0  0  0  0  0  0  0  0  0
  150.1668  143.8557  155.8515 H   0  0  0  0  0  0  0  0  0  0  0  0
  150.4428  145.3039  157.6668 H   0  0  0  0  0  0  0  0  0  0  0  0
  151.6049  145.7587  159.8948 H   0  0  0  0  0  0  0  0  0  0  0  0
  153.2028  141.9485  160.0193 H   0  0  0  0  0  0  0  0  0  0  0  0
  152.1180  141.3045  157.8197 H   0  0  0  0  0  0  0  0  0  0  0  0
  149.3983  142.9681  154.2752 H   0  0  0  0  0  0  0  0  0  0  0  0
  148.9539  141.5003  152.6815 H   0  0  0  0  0  0  0  0  0  0  0  0
  148.7487  139.8157  155.1518 H   0  0  0  0  0  0  0  0  0  0  0  0
  147.5147  140.2951  154.0273 H   0  0  0  0  0  0  0  0  0  0  0  0
  149.5709  138.0645  153.7132 H   0  0  0  0  0  0  0  0  0  0  0  0
  147.8598  137.8968  153.9015 H   0  0  0  0  0  0  0  0  0  0  0  0
  148.5782  137.4548  151.5978 H   0  0  0  0  0  0  0  0  0  0  0  0
  147.4173  138.7427  151.6590 H   0  0  0  0  0  0  0  0  0  0  0  0
  149.6315  138.8817  150.1403 H   0  0  0  0  0  0  0  0  0  0  0  0
  148.8983  140.3047  150.8010 H   0  0  0  0  0  0  0  0  0  0  0  0
  151.5054  139.3383  151.3379 H   0  0  0  0  0  0  0  0  0  0  0  0
  152.8702  144.0781  160.8629 H   0  0  0  0  0  0  0  0  0  0  0  0
  1  2  2  0  0  0  0
  2  3  1  0  0  0  0
  2 10  1  0  0  0  0
  3  4  1  0  0  0  0
  3 19  1  0  0  0  0
  4  9  1  0  0  0  0
  4  5  2  0  0  0  0
  5  6  1  0  0  0  0
  5 20  1  0  0  0  0
  6  7  2  0  0  0  0
  6 21  1  0  0  0  0
  7  8  1  0  0  0  0
  7 35  1  0  0  0  0
  8  9  2  0  0  0  0
  8 22  1  0  0  0  0
  9 23  1  0  0  0  0
 10 11  1  0  0  0  0
 10 24  1  0  0  0  0
 11 17  1  0  0  0  0
 11 12  1  0  0  0  0
 11 25  1  0  0  0  0
 12 13  1  0  0  0  0
 12 26  1  0  0  0  0
 12 27  1  0  0  0  0
 13 14  1  0  0  0  0
 13 28  1  0  0  0  0
 13 29  1  0  0  0  0
 14 15  1  0  0  0  0
 14 30  1  0  0  0  0
 14 31  1  0  0  0  0
 15 16  1  0  0  0  0
 15 32  1  0  0  0  0
 15 33  1  0  0  0  0
 16 17  1  0  0  0  0
 16 34  1  0  0  0  0
 17 18  2  0  0  0  0
M  CHG  1   7   1
M  END
> <s_m_source_file>
AV-unprocessed.smi

> <i_m_source_file_index>
2035

> <i_lp_mmshare_version>
43012

> <i_f3d_flags>
0

> <s_epik_input>
W2NIXTFbY0hdbltjSF1bY0hdYzFbTkhdQyg9TylbTkhdW0NAQEhdMltDSDJdW0NIMl1bQ0gyXVtDSDJdW05IXUMyPU8=

> <s_epik_cmdline>
J2VwaWtfcHl0aG9uJywgJy1waCcsICc3LjAnLCAnLXRuJywgJzgnLCAnLW1hJywgJzIwMCcsICctbWV0YWxfYmluZGluZycsICctaW1hZScsICc8aW5maWxlLm1hZT4nLCAnLW9tYWUnLCAnPG91dGZpbGUubWFlPic=

> <r_epik_Ionization_Penalty>
1.10339

> <r_epik_Ionization_Penalty_Charging>
1.10337

> <r_epik_Ionization_Penalty_Neutral>
1.85869e-05

> <r_epik_State_Penalty>
1.16071

> <r_epik_Charging_Adjusted_Penalty>
2.26408

> <i_epik_Tot_Q>
1

> <i_epik_Tot_abs_Q>
1

> <r_epik_Metal_State_Penalty>
1.24751

> <b_epik_Metal_Only>
0

> <s_lp_Force_Field>
OPLS_2005

> <r_lp_Energy>
25.3939

> <b_lp_Chiralities_Consistent>
1

> <s_lp_Variant>
AV-unprocessed.smi:2035-3

> <Gold.Version>
5.8.1

> <Gold.Id.Protein>
6NUR|6NUR_protein|mol2

> <Gold.PLP.Fitness>
42.4890

> <Gold.PLP.PLP>
-32.2945

> <Gold.PLP.part.hbond>
-4.7858

> <Gold.PLP.part.metal>
0.0000

> <Gold.PLP.part.buried>
-3.2363

> <Gold.PLP.part.nonpolar>
-25.6718

> <Gold.PLP.part.repulsive>
1.1232

> <Gold.PLP.ligand.clash>
0.0000

> <Gold.PLP.ligand.torsion>
0.0358

> <Gold.PLP.Chemscore.Hbond>
3.4046

> <Gold.PLP.Chemscore.CHOScore>
0.0000

> <Gold.PLP.Chemscore.Metal>
0.0000

> <Gold.Chemscore.Hbonds>
donor molecule, donor type, donor heavy atom, donor atom, acceptor molecule, acceptor atom, score
      L1  H     3    19       P1  8028  0.91
      L1  H    10    24       P1  8028  0.26

> <Gold.PLP.Chemscore.Internal.Correction>
0.0523

> <Gold.Rescore>
     Score         DG    S(hbond)    S(metal)    S(lipo)     H(rot)  DE(clash)    DE(int)     intcor
     18.73     -21.37       3.18        0.00      66.99       1.00       0.16       2.48       ----

> <Gold.Chemscore.Fitness>
18.7274

> <Gold.Chemscore.DG>
-21.3674

> <Gold.Chemscore.ZeroCoef>
-5.4800

> <Gold.Chemscore.Hbond>
3.1765

> <Gold.Chemscore.Metal>
0.0000

> <Gold.Chemscore.Lipo>
66.9898

> <Gold.Chemscore.Internal_Hbond>
0.0000

> <Gold.Chemscore.DEClash>
0.1617

> <Gold.Chemscore.DEInternal>
2.4783

> <Gold.Chemscore.Rot>
1.0000

> <Gold.Chemscore.Internal.Correction>
   9.000000E+99

> <Gold.Chemscore.Hbonds>
donor molecule, donor type, donor heavy atom, donor atom, acceptor molecule, acceptor atom, score
      L1  H     3    19       P1  8028  0.85
      L1  H    10    24       P1  8028  0.26

> <Gold.Chemscore.Hbond.Weighted>
-10.6096

> <Gold.Chemscore.Metal.Weighted>
-0.0000

> <Gold.Chemscore.Lipo.Weighted>
-7.8378

> <Gold.Chemscore.Internal_Hbond.Weighted>
0.0000

> <Gold.Chemscore.DEClash.Weighted>
0.1617

> <Gold.Chemscore.DEInternal.Weighted>
2.4783

> <Gold.Chemscore.Rot.Weighted>
2.5600

> <Gold.Chemscore.Internal.Correction.Weighted>
   9.000000E+99

> <Gold.Protein.RotatedTorsions>
[ 6907 6896 6895 6894 ] final  138.00 input  -60.11 | X-H torsion
[ 7974 7965 7964 7962 ] final    3.14 input  175.53 | X-H torsion
[ 8008 7997 7996 7995 ] final  105.39 input   59.86 | X-H torsion
[ 10167 10162 10161 10158 ] final  -75.53 input  -65.29 | X-H torsion
[ 10718 10713 10712 10709 ] final  158.61 input   66.30 | X-H torsion
[ 10763 10752 10751 10750 ] final  152.39 input  -60.55 | X-H torsion
[ 11005 11000 10999 10996 ] final -163.26 input  -57.11 | X-H torsion

> <Gold.Protein.ActiveResidues>
 VAL166  LYS551  ARG553  GLY616  TRP617  ASP618  TYR619  PRO620  LYS621  CYS622 
 ASP623  PHE694  ASN695  SER759  ASP760  ASP761  ALA762  ILE779  LEU786  VAL792 
 PHE793  MET794  SER795  GLU796  ALA797  LYS798  CYS799  TRP800  GLU811  SER814 

> <Gold.Protein.RotatedAtoms>
  152.2716  133.5388  159.5442 H   0  0  0  0  0  0  0  0  0  0  0  0  # atno 6907 bound_to 6896
  150.7161  134.0689  159.3866 H   0  0  0  0  0  0  0  0  0  0  0  0  # atno 6908 bound_to 6896
  151.8604  135.0526  160.0519 H   0  0  0  0  0  0  0  0  0  0  0  0  # atno 6909 bound_to 6896
  146.2445  140.0731  142.8361 H   0  0  0  0  0  0  0  0  0  0  0  0  # atno 7974 bound_to 7965
  156.1655  140.3131  155.8881 H   0  0  0  0  0  0  0  0  0  0  0  0  # atno 8008 bound_to 7997
  155.3695  140.0481  157.3062 H   0  0  0  0  0  0  0  0  0  0  0  0  # atno 8009 bound_to 7997
  154.5188  140.2191  155.9025 H   0  0  0  0  0  0  0  0  0  0  0  0  # atno 8010 bound_to 7997
  140.4934  143.2375  151.7870 H   0  0  0  0  0  0  0  0  0  0  0  0  # atno 10167 bound_to 10162
  157.1756  131.0620  151.2159 H   0  0  0  0  0  0  0  0  0  0  0  0  # atno 10718 bound_to 10713
  154.1192  135.2834  155.3212 H   0  0  0  0  0  0  0  0  0  0  0  0  # atno 10763 bound_to 10752
  154.6435  135.5394  153.7820 H   0  0  0  0  0  0  0  0  0  0  0  0  # atno 10764 bound_to 10752
  153.0318  135.6492  154.1347 H   0  0  0  0  0  0  0  0  0  0  0  0  # atno 10765 bound_to 10752
  140.6000  134.4957  157.5204 H   0  0  0  0  0  0  0  0  0  0  0  0  # atno 11005 bound_to 11000
  145.0799  140.9213  143.4832 LP  0  0  0  0  0  0  0  0  0  0  0  0  # atno 17320 bound_to 7965
  145.0882  139.2910  143.5749 LP  0  0  0  0  0  0  0  0  0  0  0  0  # atno 17321 bound_to 7965
  139.4856  144.4619  151.9531 LP  0  0  0  0  0  0  0  0  0  0  0  0  # atno 17342 bound_to 10162
  140.3706  144.2860  150.5920 LP  0  0  0  0  0  0  0  0  0  0  0  0  # atno 17343 bound_to 10162
  157.4002  130.7329  149.6761 LP  0  0  0  0  0  0  0  0  0  0  0  0  # atno 17370 bound_to 10713
  155.9732  130.4123  150.4024 LP  0  0  0  0  0  0  0  0  0  0  0  0  # atno 17371 bound_to 10713
  139.9236  134.8099  156.1135 LP  0  0  0  0  0  0  0  0  0  0  0  0  # atno 17394 bound_to 11000
  141.0878  133.6727  156.2474 LP  0  0  0  0  0  0  0  0  0  0  0  0  # atno 17395 bound_to 11000

$$$$
