AV-unprocessed.smi:3089|AV-procd|sdf|11772|dock6
  -GOLD-   2272017153D 1   1.00000     0.00000
 Structure written by MMmdl.
 24 24  0  0  0  0  0  0  0  0  1 V2000
  152.3671  141.1140  158.3878 C   0  0  0  0  0  0  0  0  0  0  0  0
  151.7248  140.7105  157.1555 N   0  0  0  0  0  0  0  0  0  0  0  0
  150.4757  141.0517  156.6848 C   0  0  0  0  0  0  0  0  0  0  0  0
  150.3048  140.4357  155.4754 C   0  0  0  0  0  0  0  0  0  0  0  0
  149.1083  140.4916  154.5489 C   0  0  1  0  0  0  0  0  0  0  0  0
  148.0023  141.3561  155.1794 C   0  0  0  0  0  0  0  0  0  0  0  0
  149.4121  141.1136  153.3146 O   0  0  0  0  0  0  0  0  0  0  0  0
  148.5592  139.0840  154.2263 C   0  0  0  0  0  0  0  0  0  0  0  0
  149.4601  138.2753  153.3873 N   0  0  0  0  0  0  0  0  0  0  0  0
  151.5292  139.7256  155.2999 C   0  0  0  0  0  0  0  0  0  0  0  0
  152.3750  139.8929  156.3036 N   0  0  0  0  0  0  0  0  0  0  0  0
  151.7126  141.7803  158.9499 H   0  0  0  0  0  0  0  0  0  0  0  0
  153.2975  141.6373  158.1648 H   0  0  0  0  0  0  0  0  0  0  0  0
  152.5854  140.2356  158.9957 H   0  0  0  0  0  0  0  0  0  0  0  0
  149.8157  141.7003  157.2419 H   0  0  0  0  0  0  0  0  0  0  0  0
  147.6643  140.9394  156.1289 H   0  0  0  0  0  0  0  0  0  0  0  0
  147.1304  141.4283  154.5279 H   0  0  0  0  0  0  0  0  0  0  0  0
  148.3535  142.3706  155.3738 H   0  0  0  0  0  0  0  0  0  0  0  0
  149.3257  140.4720  152.6265 H   0  0  0  0  0  0  0  0  0  0  0  0
  148.3881  138.5486  155.1608 H   0  0  0  0  0  0  0  0  0  0  0  0
  147.5821  139.1672  153.7490 H   0  0  0  0  0  0  0  0  0  0  0  0
  148.9748  137.4533  153.0312 H   0  0  0  0  0  0  0  0  0  0  0  0
  149.7698  138.8142  152.5796 H   0  0  0  0  0  0  0  0  0  0  0  0
  151.8270  139.0962  154.4741 H   0  0  0  0  0  0  0  0  0  0  0  0
  1  2  1  0  0  0  0
  1 12  1  0  0  0  0
  1 13  1  0  0  0  0
  1 14  1  0  0  0  0
  2 11  1  0  0  0  0
  2  3  1  0  0  0  0
  3  4  2  0  0  0  0
  3 15  1  0  0  0  0
  4  5  1  0  0  0  0
  4 10  1  0  0  0  0
  5  6  1  0  0  0  0
  5  7  1  0  0  0  0
  5  8  1  0  0  0  0
  6 16  1  0  0  0  0
  6 17  1  0  0  0  0
  6 18  1  0  0  0  0
  7 19  1  0  0  0  0
  8  9  1  0  0  0  0
  8 20  1  0  0  0  0
  8 21  1  0  0  0  0
  9 22  1  0  0  0  0
  9 23  1  0  0  0  0
 10 11  2  0  0  0  0
 10 24  1  0  0  0  0
M  END
> <s_m_source_file>
AV-unprocessed.smi

> <i_m_source_file_index>
3089

> <i_lp_mmshare_version>
43012

> <i_f3d_flags>
0

> <s_epik_input>
W0NIM11uMVtjSF1jKFtjSF1uMSlbQ0BAXShbQ0gzXSkoW09IXSlbQ0gyXVtOSDJd

> <s_epik_cmdline>
J2VwaWtfcHl0aG9uJywgJy1waCcsICc3LjAnLCAnLXRuJywgJzgnLCAnLW1hJywgJzIwMCcsICctbWV0YWxfYmluZGluZycsICctaW1hZScsICc8aW5maWxlLm1hZT4nLCAnLW9tYWUnLCAnPG91dGZpbGUubWFlPic=

> <r_lp_tautomer_probability>
1

> <r_epik_Ionization_Penalty>
2.22427

> <r_epik_Ionization_Penalty_Charging>
0

> <r_epik_Ionization_Penalty_Neutral>
2.22427

> <r_epik_State_Penalty>
2.36938

> <r_epik_Charging_Adjusted_Penalty>
2.36938

> <i_epik_Tot_Q>
0

> <i_epik_Tot_abs_Q>
0

> <r_epik_Metal_State_Penalty>
2.36933

> <b_epik_Metal_Only>
0

> <s_lp_Force_Field>
OPLS_2005

> <r_lp_Energy>
8.30458

> <b_lp_Chiralities_Consistent>
1

> <s_lp_Variant>
AV-unprocessed.smi:3089-3

> <Gold.Version>
5.8.1

> <Gold.Id.Protein>
6NUR|6NUR_protein|mol2

> <Gold.PLP.Fitness>
38.0332

> <Gold.PLP.PLP>
-23.4838

> <Gold.PLP.part.hbond>
-5.5231

> <Gold.PLP.part.metal>
0.0000

> <Gold.PLP.part.buried>
-1.6933

> <Gold.PLP.part.nonpolar>
-16.5227

> <Gold.PLP.part.repulsive>
0.0000

> <Gold.PLP.ligand.clash>
0.0000

> <Gold.PLP.ligand.torsion>
0.1006

> <Gold.PLP.Chemscore.Hbond>
4.9099

> <Gold.PLP.Chemscore.CHOScore>
0.0000

> <Gold.PLP.Chemscore.Metal>
0.0000

> <Gold.Chemscore.Hbonds>
donor molecule, donor type, donor heavy atom, donor atom, acceptor molecule, acceptor atom, score
      L1  H     7    19       P1  7957  0.98
      L1  H     9    22       P1  7948  0.90
      L1  H     9    23       P1  7957  1.00
      P1  H  7989  7998       L1     7  0.06
      P1  H  7997  8010       L1    11  1.00
      P1  H  8011  8017       L1     7  0.85

> <Gold.PLP.Chemscore.Internal.Correction>
0.0209

> <Gold.Rescore>
     Score         DG    S(hbond)    S(metal)    S(lipo)     H(rot)  DE(clash)    DE(int)     intcor
     18.40     -18.67       3.82        0.00      43.90       1.84       0.15       0.12       ----

> <Gold.Chemscore.Fitness>
18.3956

> <Gold.Chemscore.DG>
-18.6653

> <Gold.Chemscore.ZeroCoef>
-5.4800

> <Gold.Chemscore.Hbond>
3.8191

> <Gold.Chemscore.Metal>
0.0000

> <Gold.Chemscore.Lipo>
43.9015

> <Gold.Chemscore.Internal_Hbond>
0.0000

> <Gold.Chemscore.DEClash>
0.1461

> <Gold.Chemscore.DEInternal>
0.1236

> <Gold.Chemscore.Rot>
1.8386

> <Gold.Chemscore.Internal.Correction>
   9.000000E+99

> <Gold.Chemscore.Hbonds>
donor molecule, donor type, donor heavy atom, donor atom, acceptor molecule, acceptor atom, score
      L1  H     7    19       P1  7957  0.89
      L1  H     9    22       P1  7948  0.86
      L1  H     9    23       P1  7957  0.65
      P1  H  7997  8010       L1    11  0.88
      P1  H  8011  8017       L1     7  0.14

> <Gold.Chemscore.Hbond.Weighted>
-12.7557

> <Gold.Chemscore.Metal.Weighted>
-0.0000

> <Gold.Chemscore.Lipo.Weighted>
-5.1365

> <Gold.Chemscore.Internal_Hbond.Weighted>
0.0000

> <Gold.Chemscore.DEClash.Weighted>
0.1461

> <Gold.Chemscore.DEInternal.Weighted>
0.1236

> <Gold.Chemscore.Rot.Weighted>
4.7069

> <Gold.Chemscore.Internal.Correction.Weighted>
   9.000000E+99

> <Gold.Protein.RotatedTorsions>
[ 6907 6896 6895 6894 ] final   -6.45 input  -60.11 | X-H torsion
[ 7974 7965 7964 7962 ] final   94.47 input  175.53 | X-H torsion
[ 8008 7997 7996 7995 ] final   88.30 input   59.86 | X-H torsion
[ 10167 10162 10161 10158 ] final   27.29 input  -65.29 | X-H torsion
[ 10718 10713 10712 10709 ] final   10.58 input   66.30 | X-H torsion
[ 10763 10752 10751 10750 ] final  -16.84 input  -60.55 | X-H torsion
[ 11005 11000 10999 10996 ] final  155.57 input  -57.11 | X-H torsion

> <Gold.Protein.ActiveResidues>
 VAL166  LYS551  ARG553  GLY616  TRP617  ASP618  TYR619  PRO620  LYS621  CYS622 
 ASP623  PHE694  ASN695  SER759  ASP760  ASP761  ALA762  ILE779  LEU786  VAL792 
 PHE793  MET794  SER795  GLU796  ALA797  LYS798  CYS799  TRP800  GLU811  SER814 

> <Gold.Protein.RotatedAtoms>
  151.4654  135.1042  159.9736 H   0  0  0  0  0  0  0  0  0  0  0  0  # atno 6907 bound_to 6896
  152.4837  133.8314  159.7115 H   0  0  0  0  0  0  0  0  0  0  0  0  # atno 6908 bound_to 6896
  150.8928  133.7159  159.2927 H   0  0  0  0  0  0  0  0  0  0  0  0  # atno 6909 bound_to 6896
  145.4652  139.2284  143.2965 H   0  0  0  0  0  0  0  0  0  0  0  0  # atno 7974 bound_to 7965
  155.9861  140.3373  155.6708 H   0  0  0  0  0  0  0  0  0  0  0  0  # atno 8008 bound_to 7997
  155.6484  140.0703  157.2613 H   0  0  0  0  0  0  0  0  0  0  0  0  # atno 8009 bound_to 7997
  154.4205  140.1730  156.1635 H   0  0  0  0  0  0  0  0  0  0  0  0  # atno 8010 bound_to 7997
  140.4951  144.0405  150.6311 H   0  0  0  0  0  0  0  0  0  0  0  0  # atno 10167 bound_to 10162
  156.9830  130.6013  149.5678 H   0  0  0  0  0  0  0  0  0  0  0  0  # atno 10718 bound_to 10713
  153.5648  135.7009  153.5531 H   0  0  0  0  0  0  0  0  0  0  0  0  # atno 10763 bound_to 10752
  153.3397  135.4024  155.1562 H   0  0  0  0  0  0  0  0  0  0  0  0  # atno 10764 bound_to 10752
  154.8642  135.3739  154.5167 H   0  0  0  0  0  0  0  0  0  0  0  0  # atno 10765 bound_to 10752
  140.1593  134.8620  157.2554 H   0  0  0  0  0  0  0  0  0  0  0  0  # atno 11005 bound_to 11000
  146.2428  140.5425  142.8926 LP  0  0  0  0  0  0  0  0  0  0  0  0  # atno 17320 bound_to 7965
  144.7978  140.6157  143.6498 LP  0  0  0  0  0  0  0  0  0  0  0  0  # atno 17321 bound_to 7965
  140.3685  143.2868  152.0305 LP  0  0  0  0  0  0  0  0  0  0  0  0  # atno 17342 bound_to 10162
  139.4859  144.6248  151.7185 LP  0  0  0  0  0  0  0  0  0  0  0  0  # atno 17343 bound_to 10162
  156.0237  130.5331  150.8347 LP  0  0  0  0  0  0  0  0  0  0  0  0  # atno 17370 bound_to 10713
  157.5513  131.0944  150.9692 LP  0  0  0  0  0  0  0  0  0  0  0  0  # atno 17371 bound_to 10713
  140.2509  134.3684  155.7443 LP  0  0  0  0  0  0  0  0  0  0  0  0  # atno 17394 bound_to 11000
  141.2208  133.7316  156.8933 LP  0  0  0  0  0  0  0  0  0  0  0  0  # atno 17395 bound_to 11000

$$$$
