AV-unprocessed.smi:942|AV-procd|sdf|4225|dock3
  -GOLD-   22720 2133D 1   1.00000     0.00000
 Structure written by MMmdl.
 42 44  0  0  0  0  0  0  0  0  1 V2000
  150.7948  141.4979  158.8721 O   0  0  0  0  0  0  0  0  0  0  0  0
  151.2513  142.0601  157.8767 C   0  0  0  0  0  0  0  0  0  0  0  0
  151.2221  141.5086  156.6538 N   0  0  0  0  0  0  0  0  0  0  0  0
  150.6473  140.2050  156.3325 C   0  0  2  0  0  0  0  0  0  0  0  0
  151.6120  139.0546  156.6900 C   0  0  0  0  0  0  0  0  0  0  0  0
  152.0191  138.4036  155.3656 C   0  0  0  0  0  0  0  0  0  0  0  0
  150.8406  138.6680  154.4340 C   0  0  0  0  0  0  0  0  0  0  0  0
  150.3899  140.0822  154.8155 C   0  0  1  0  0  0  0  0  0  0  0  0
  149.0159  140.3777  154.4397 N   0  0  0  0  0  0  0  0  0  0  0  0
  148.1148  139.5494  153.7794 C   0  0  0  0  0  0  0  0  0  0  0  0
  146.9403  140.2575  153.6614 C   0  0  0  0  0  0  0  0  0  0  0  0
  147.0901  141.5132  154.2442 N   0  0  0  0  0  0  0  0  0  0  0  0
  148.3413  141.5098  154.6851 C   0  0  0  0  0  0  0  0  0  0  0  0
  151.8964  143.4553  157.9784 C   0  0  0  0  0  0  0  0  0  0  0  0
  153.1455  143.4697  158.8916 C   0  0  0  0  0  0  0  0  0  0  0  0
  152.8108  143.4625  160.3950 C   0  0  0  0  0  0  0  0  0  0  0  0
  151.8467  144.6019  160.7573 C   0  0  0  0  0  0  0  0  0  0  0  0
  150.5660  144.5380  159.9116 C   0  0  0  0  0  0  0  0  0  0  0  0
  150.8879  144.5488  158.4051 C   0  0  0  0  0  0  0  0  0  0  0  0
  151.6192  142.0334  155.8880 H   0  0  0  0  0  0  0  0  0  0  0  0
  149.7171  140.0682  156.8877 H   0  0  0  0  0  0  0  0  0  0  0  0
  152.4830  139.3795  157.2612 H   0  0  0  0  0  0  0  0  0  0  0  0
  151.0846  138.3241  157.3051 H   0  0  0  0  0  0  0  0  0  0  0  0
  152.9124  138.8934  154.9753 H   0  0  0  0  0  0  0  0  0  0  0  0
  152.2410  137.3413  155.4715 H   0  0  0  0  0  0  0  0  0  0  0  0
  151.1114  138.5840  153.3811 H   0  0  0  0  0  0  0  0  0  0  0  0
  150.0548  137.9389  154.6353 H   0  0  0  0  0  0  0  0  0  0  0  0
  151.0409  140.7794  154.2834 H   0  0  0  0  0  0  0  0  0  0  0  0
  148.3751  138.5514  153.4582 H   0  0  0  0  0  0  0  0  0  0  0  0
  146.0053  139.9606  153.2094 H   0  0  0  0  0  0  0  0  0  0  0  0
  148.7768  142.3530  155.2013 H   0  0  0  0  0  0  0  0  0  0  0  0
  152.2360  143.7131  156.9737 H   0  0  0  0  0  0  0  0  0  0  0  0
  153.7941  142.6244  158.6569 H   0  0  0  0  0  0  0  0  0  0  0  0
  153.7313  144.3623  158.6682 H   0  0  0  0  0  0  0  0  0  0  0  0
  152.3742  142.5059  160.6813 H   0  0  0  0  0  0  0  0  0  0  0  0
  153.7287  143.5597  160.9755 H   0  0  0  0  0  0  0  0  0  0  0  0
  151.5953  144.5528  161.8173 H   0  0  0  0  0  0  0  0  0  0  0  0
  152.3406  145.5617  160.6005 H   0  0  0  0  0  0  0  0  0  0  0  0
  149.9982  143.6446  160.1711 H   0  0  0  0  0  0  0  0  0  0  0  0
  149.9228  145.3841  160.1550 H   0  0  0  0  0  0  0  0  0  0  0  0
  151.2986  145.5245  158.1426 H   0  0  0  0  0  0  0  0  0  0  0  0
  149.9640  144.4539  157.8329 H   0  0  0  0  0  0  0  0  0  0  0  0
  1  2  2  0  0  0  0
  2  3  1  0  0  0  0
  2 14  1  0  0  0  0
  3  4  1  0  0  0  0
  3 20  1  0  0  0  0
  4  8  1  0  0  0  0
  4  5  1  0  0  0  0
  4 21  1  0  0  0  0
  5  6  1  0  0  0  0
  5 22  1  0  0  0  0
  5 23  1  0  0  0  0
  6  7  1  0  0  0  0
  6 24  1  0  0  0  0
  6 25  1  0  0  0  0
  7  8  1  0  0  0  0
  7 26  1  0  0  0  0
  7 27  1  0  0  0  0
  8  9  1  0  0  0  0
  8 28  1  0  0  0  0
  9 13  1  0  0  0  0
  9 10  1  0  0  0  0
 10 11  2  0  0  0  0
 10 29  1  0  0  0  0
 11 12  1  0  0  0  0
 11 30  1  0  0  0  0
 12 13  2  0  0  0  0
 13 31  1  0  0  0  0
 14 19  1  0  0  0  0
 14 15  1  0  0  0  0
 14 32  1  0  0  0  0
 15 16  1  0  0  0  0
 15 33  1  0  0  0  0
 15 34  1  0  0  0  0
 16 17  1  0  0  0  0
 16 35  1  0  0  0  0
 16 36  1  0  0  0  0
 17 18  1  0  0  0  0
 17 37  1  0  0  0  0
 17 38  1  0  0  0  0
 18 19  1  0  0  0  0
 18 39  1  0  0  0  0
 18 40  1  0  0  0  0
 19 41  1  0  0  0  0
 19 42  1  0  0  0  0
M  END
> <s_m_source_file>
AV-unprocessed.smi

> <i_m_source_file_index>
942

> <i_lp_mmshare_version>
43012

> <i_f3d_flags>
0

> <s_epik_input>
W0NIMl0xW0NIMl1bQ0gyXVtDSDJdW0NIMl1bQ0hdMUMoPU8pW05IXVtDQEBIXTJbQ0gyXVtDSDJdW0NIMl1bQ0BIXTJuM1tjSF1bY0hdbltjSF0z

> <s_epik_cmdline>
J2VwaWtfcHl0aG9uJywgJy1waCcsICc3LjAnLCAnLXRuJywgJzgnLCAnLW1hJywgJzIwMCcsICctbWV0YWxfYmluZGluZycsICctaW1hZScsICc8aW5maWxlLm1hZT4nLCAnLW9tYWUnLCAnPG91dGZpbGUubWFlPic=

> <r_lp_tautomer_probability>
1

> <r_epik_Ionization_Penalty>
0.778458

> <r_epik_Ionization_Penalty_Charging>
0.778458

> <r_epik_Ionization_Penalty_Neutral>
2.79355e-08

> <r_epik_State_Penalty>
0.807804

> <r_epik_Charging_Adjusted_Penalty>
1.58626

> <i_epik_Tot_Q>
0

> <i_epik_Tot_abs_Q>
0

> <r_epik_Metal_State_Penalty>
0.343007

> <b_epik_Metal_Only>
0

> <s_lp_Force_Field>
OPLS_2005

> <r_lp_Energy>
30.2661

> <b_lp_Chiralities_Consistent>
1

> <s_lp_Variant>
AV-unprocessed.smi:942-5

> <Gold.Version>
5.8.1

> <Gold.Id.Protein>
6NUR|6NUR_protein|mol2

> <Gold.PLP.Fitness>
47.4677

> <Gold.PLP.PLP>
-41.2091

> <Gold.PLP.part.hbond>
0.0000

> <Gold.PLP.part.metal>
0.0000

> <Gold.PLP.part.buried>
-2.0334

> <Gold.PLP.part.nonpolar>
-39.7823

> <Gold.PLP.part.repulsive>
0.2592

> <Gold.PLP.ligand.clash>
0.0000

> <Gold.PLP.ligand.torsion>
0.2958

> <Gold.PLP.Chemscore.Hbond>
0.0000

> <Gold.PLP.Chemscore.CHOScore>
2.2675

> <Gold.PLP.Chemscore.Metal>
0.0000

> <Gold.Chemscore.Hbonds>
donor molecule, donor type, donor heavy atom, donor atom, acceptor molecule, acceptor atom, score
      L1  C    10    29       P1  7948  0.19
      L1  C    11    30       P1 10175  1.00
      L1  C    13    31       P1  8028  1.00

> <Gold.PLP.Chemscore.Internal.Correction>
0.0479

> <Gold.Rescore>
     Score         DG    S(hbond)    S(metal)    S(lipo)     H(rot)  DE(clash)    DE(int)     intcor
     14.78     -15.19       0.00        0.00     114.53       1.44       0.06       0.36       ----

> <Gold.Chemscore.Fitness>
14.7754

> <Gold.Chemscore.DG>
-15.1944

> <Gold.Chemscore.ZeroCoef>
-5.4800

> <Gold.Chemscore.Hbond>
0.0000

> <Gold.Chemscore.Metal>
0.0000

> <Gold.Chemscore.Lipo>
114.5268

> <Gold.Chemscore.Internal_Hbond>
0.0000

> <Gold.Chemscore.DEClash>
0.0605

> <Gold.Chemscore.DEInternal>
0.3585

> <Gold.Chemscore.Rot>
1.4395

> <Gold.Chemscore.Internal.Correction>
   9.000000E+99

> <Gold.Chemscore.Hbond.Weighted>
-0.0000

> <Gold.Chemscore.Metal.Weighted>
-0.0000

> <Gold.Chemscore.Lipo.Weighted>
-13.3996

> <Gold.Chemscore.Internal_Hbond.Weighted>
0.0000

> <Gold.Chemscore.DEClash.Weighted>
0.0605

> <Gold.Chemscore.DEInternal.Weighted>
0.3585

> <Gold.Chemscore.Rot.Weighted>
3.6852

> <Gold.Chemscore.Internal.Correction.Weighted>
   9.000000E+99

> <Gold.Protein.RotatedTorsions>
[ 6907 6896 6895 6894 ] final  -85.01 input  -60.11 | X-H torsion
[ 7974 7965 7964 7962 ] final   24.74 input  175.53 | X-H torsion
[ 8008 7997 7996 7995 ] final -166.58 input   59.86 | X-H torsion
[ 10167 10162 10161 10158 ] final  -33.39 input  -65.29 | X-H torsion
[ 10718 10713 10712 10709 ] final -155.40 input   66.30 | X-H torsion
[ 10763 10752 10751 10750 ] final  -94.59 input  -60.55 | X-H torsion
[ 11005 11000 10999 10996 ] final  127.42 input  -57.11 | X-H torsion

> <Gold.Protein.ActiveResidues>
 VAL166  LYS551  ARG553  GLY616  TRP617  ASP618  TYR619  PRO620  LYS621  CYS622 
 ASP623  PHE694  ASN695  SER759  ASP760  ASP761  ALA762  ILE779  LEU786  VAL792 
 PHE793  MET794  SER795  GLU796  ALA797  LYS798  CYS799  TRP800  GLU811  SER814 

> <Gold.Protein.RotatedAtoms>
  150.6872  134.3271  159.4810 H   0  0  0  0  0  0  0  0  0  0  0  0  # atno 6907 bound_to 6896
  152.1139  134.9251  160.0575 H   0  0  0  0  0  0  0  0  0  0  0  0  # atno 6908 bound_to 6896
  152.0483  133.3973  159.4403 H   0  0  0  0  0  0  0  0  0  0  0  0  # atno 6909 bound_to 6896
  146.1923  139.7563  142.8823 H   0  0  0  0  0  0  0  0  0  0  0  0  # atno 7974 bound_to 7965
  155.8657  140.0985  157.1583 H   0  0  0  0  0  0  0  0  0  0  0  0  # atno 8008 bound_to 7997
  154.3993  140.1356  156.4079 H   0  0  0  0  0  0  0  0  0  0  0  0  # atno 8009 bound_to 7997
  155.7806  140.3458  155.5298 H   0  0  0  0  0  0  0  0  0  0  0  0  # atno 8010 bound_to 7997
  140.7205  143.3624  151.1937 H   0  0  0  0  0  0  0  0  0  0  0  0  # atno 10167 bound_to 10162
  156.5124  130.8441  151.2651 H   0  0  0  0  0  0  0  0  0  0  0  0  # atno 10718 bound_to 10713
  154.7069  135.5152  153.8608 H   0  0  0  0  0  0  0  0  0  0  0  0  # atno 10763 bound_to 10752
  153.0749  135.6613  154.0177 H   0  0  0  0  0  0  0  0  0  0  0  0  # atno 10764 bound_to 10752
  154.0026  135.3009  155.3380 H   0  0  0  0  0  0  0  0  0  0  0  0  # atno 10765 bound_to 10752
  139.9506  134.9622  156.8851 H   0  0  0  0  0  0  0  0  0  0  0  0  # atno 11005 bound_to 11000
  145.3754  141.0349  143.3207 LP  0  0  0  0  0  0  0  0  0  0  0  0  # atno 17320 bound_to 7965
  144.8511  139.5321  143.6856 LP  0  0  0  0  0  0  0  0  0  0  0  0  # atno 17321 bound_to 7965
  139.7179  143.9271  152.2974 LP  0  0  0  0  0  0  0  0  0  0  0  0  # atno 17342 bound_to 10162
  139.9018  144.6907  150.8657 LP  0  0  0  0  0  0  0  0  0  0  0  0  # atno 17343 bound_to 10162
  157.7448  130.9945  150.2710 LP  0  0  0  0  0  0  0  0  0  0  0  0  # atno 17370 bound_to 10713
  156.3228  130.3788  149.7560 LP  0  0  0  0  0  0  0  0  0  0  0  0  # atno 17371 bound_to 10713
  140.5727  134.0427  155.7436 LP  0  0  0  0  0  0  0  0  0  0  0  0  # atno 17394 bound_to 11000
  141.1168  133.9527  157.2806 LP  0  0  0  0  0  0  0  0  0  0  0  0  # atno 17395 bound_to 11000

$$$$
