AV-unprocessed.smi:187|AV-procd|sdf|1468|dock6
  -GOLD-   2262019283D 1   1.00000     0.00000
 Structure written by MMmdl.
 53 56  0  0  0  0  0  0  0  0  1 V2000
  149.7817  140.6911  155.9727 C   0  0  0  0  0  0  0  0  0  0  0  0
  150.3658  141.1279  157.3317 C   0  0  2  0  0  0  0  0  0  0  0  0
  151.0318  142.5122  157.1950 C   0  0  0  0  0  0  0  0  0  0  0  0
  151.6560  142.9700  158.5205 C   0  0  0  0  0  0  0  0  0  0  0  0
  152.6546  141.9136  159.0297 C   0  0  1  0  0  0  0  0  0  0  0  0
  153.2578  142.3292  160.3774 C   0  0  0  0  0  0  0  0  0  0  0  0
  154.2593  141.5842  160.8518 N   0  0  0  0  0  0  0  0  0  0  0  0
  152.8280  143.3085  160.9846 O   0  0  0  0  0  0  0  0  0  0  0  0
  151.9495  140.5482  159.1442 C   0  0  0  0  0  0  0  0  0  0  0  0
  151.3291  140.1607  157.8778 N   0  0  0  0  0  0  0  0  0  0  0  0
  150.9208  138.8729  157.9189 C   0  0  0  0  0  0  0  0  0  0  0  0
  150.5407  138.3840  159.1246 N   0  0  0  0  0  0  0  0  0  0  0  0
  150.1317  137.1163  159.2315 C   0  0  0  0  0  0  0  0  0  0  0  0
  150.0223  136.1908  158.2756 N   0  0  0  0  0  0  0  0  0  0  0  0
  150.3919  136.6856  157.0591 C   0  0  0  0  0  0  0  0  0  0  0  0
  150.8545  138.0047  156.7928 C   0  0  0  0  0  0  0  0  0  0  0  0
  151.1486  138.1409  155.4417 N   0  0  0  0  0  0  0  0  0  0  0  0
  150.8837  136.9660  154.9392 C   0  0  0  0  0  0  0  0  0  0  0  0
  150.3964  136.0404  155.8347 N   0  0  0  0  0  0  0  0  0  0  0  0
  150.0613  134.6740  155.5613 C   0  0  0  0  0  0  0  0  0  0  0  0
  150.0635  134.1267  154.1317 C   0  0  0  0  0  0  0  0  0  0  0  0
  148.9021  133.1759  154.5020 C   0  0  0  0  0  0  0  0  0  0  0  0
  147.7927  133.0414  153.4459 C   0  0  0  0  0  0  0  0  0  0  0  0
  148.2643  132.3810  152.2890 O   0  0  0  0  0  0  0  0  0  0  0  0
  149.3253  131.7707  154.9756 C   0  0  0  0  0  0  0  0  0  0  0  0
  148.2288  131.0507  155.5014 O   0  0  0  0  0  0  0  0  0  0  0  0
  148.6119  134.1881  155.6316 C   0  0  0  0  0  0  0  0  0  0  0  0
  149.1161  141.4558  155.5719 H   0  0  0  0  0  0  0  0  0  0  0  0
  149.1978  139.7742  156.0546 H   0  0  0  0  0  0  0  0  0  0  0  0
  150.5706  140.5211  155.2393 H   0  0  0  0  0  0  0  0  0  0  0  0
  149.5435  141.2251  158.0413 H   0  0  0  0  0  0  0  0  0  0  0  0
  151.8049  142.4744  156.4259 H   0  0  0  0  0  0  0  0  0  0  0  0
  150.3005  143.2492  156.8619 H   0  0  0  0  0  0  0  0  0  0  0  0
  152.1553  143.9296  158.3810 H   0  0  0  0  0  0  0  0  0  0  0  0
  150.8650  143.1320  159.2546 H   0  0  0  0  0  0  0  0  0  0  0  0
  153.4615  141.8219  158.3000 H   0  0  0  0  0  0  0  0  0  0  0  0
  154.6882  141.8189  161.7352 H   0  0  0  0  0  0  0  0  0  0  0  0
  154.5842  140.7872  160.3236 H   0  0  0  0  0  0  0  0  0  0  0  0
  152.6713  139.7874  159.4470 H   0  0  0  0  0  0  0  0  0  0  0  0
  151.1830  140.5840  159.9205 H   0  0  0  0  0  0  0  0  0  0  0  0
  149.8509  136.7984  160.2247 H   0  0  0  0  0  0  0  0  0  0  0  0
  151.0310  136.7456  153.8920 H   0  0  0  0  0  0  0  0  0  0  0  0
  150.7029  134.0717  156.2069 H   0  0  0  0  0  0  0  0  0  0  0  0
  149.7769  134.8813  153.3966 H   0  0  0  0  0  0  0  0  0  0  0  0
  150.9924  133.6355  153.8408 H   0  0  0  0  0  0  0  0  0  0  0  0
  146.9544  132.4644  153.8374 H   0  0  0  0  0  0  0  0  0  0  0  0
  147.3877  134.0126  153.1604 H   0  0  0  0  0  0  0  0  0  0  0  0
  149.0028  132.8629  151.9483 H   0  0  0  0  0  0  0  0  0  0  0  0
  149.7433  131.1867  154.1554 H   0  0  0  0  0  0  0  0  0  0  0  0
  150.1061  131.8239  155.7348 H   0  0  0  0  0  0  0  0  0  0  0  0
  147.4315  131.4328  155.1679 H   0  0  0  0  0  0  0  0  0  0  0  0
  148.3301  133.7421  156.5862 H   0  0  0  0  0  0  0  0  0  0  0  0
  147.8996  134.9615  155.3376 H   0  0  0  0  0  0  0  0  0  0  0  0
  1  2  1  0  0  0  0
  1 28  1  0  0  0  0
  1 29  1  0  0  0  0
  1 30  1  0  0  0  0
  2 10  1  0  0  0  0
  2  3  1  0  0  0  0
  2 31  1  0  0  0  0
  3  4  1  0  0  0  0
  3 32  1  0  0  0  0
  3 33  1  0  0  0  0
  4  5  1  0  0  0  0
  4 34  1  0  0  0  0
  4 35  1  0  0  0  0
  5  6  1  0  0  0  0
  5  9  1  0  0  0  0
  5 36  1  0  0  0  0
  6  7  1  0  0  0  0
  6  8  2  0  0  0  0
  7 37  1  0  0  0  0
  7 38  1  0  0  0  0
  9 10  1  0  0  0  0
  9 39  1  0  0  0  0
  9 40  1  0  0  0  0
 10 11  1  0  0  0  0
 11 16  1  0  0  0  0
 11 12  2  0  0  0  0
 12 13  1  0  0  0  0
 13 14  2  0  0  0  0
 13 41  1  0  0  0  0
 14 15  1  0  0  0  0
 15 19  1  0  0  0  0
 15 16  2  0  0  0  0
 16 17  1  0  0  0  0
 17 18  2  0  0  0  0
 18 19  1  0  0  0  0
 18 42  1  0  0  0  0
 19 20  1  0  0  0  0
 20 27  1  0  0  0  0
 20 21  1  0  0  0  0
 20 43  1  0  0  0  0
 21 22  1  0  0  0  0
 21 44  1  0  0  0  0
 21 45  1  0  0  0  0
 22 23  1  0  0  0  0
 22 25  1  0  0  0  0
 22 27  1  0  0  0  0
 23 24  1  0  0  0  0
 23 46  1  0  0  0  0
 23 47  1  0  0  0  0
 24 48  1  0  0  0  0
 25 26  1  0  0  0  0
 25 49  1  0  0  0  0
 25 50  1  0  0  0  0
 26 51  1  0  0  0  0
 27 52  1  0  0  0  0
 27 53  1  0  0  0  0
M  END
> <s_m_source_file>
AV-unprocessed.smi

> <i_m_source_file_index>
187

> <i_lp_mmshare_version>
43012

> <i_f3d_flags>
0

> <s_epik_input>
W0NIM11bQ0BASF0xW0NIMl1bQ0gyXVtDQEBIXShDKD1PKVtOSDJdKVtDSDJdTjFjKG5bY0hdbjIpYyhjMjMpbltjSF1uM1tDSF0oW0NIMl00KVtDSDJdQzQoW0NIMl1bT0hdKVtDSDJdW09IXQ==

> <s_epik_cmdline>
J2VwaWtfcHl0aG9uJywgJy1waCcsICc3LjAnLCAnLXRuJywgJzgnLCAnLW1hJywgJzIwMCcsICctbWV0YWxfYmluZGluZycsICctaW1hZScsICc8aW5maWxlLm1hZT4nLCAnLW9tYWUnLCAnPG91dGZpbGUubWFlPic=

> <r_lp_tautomer_probability>
1

> <r_epik_Ionization_Penalty>
0.0017711

> <r_epik_Ionization_Penalty_Charging>
0

> <r_epik_Ionization_Penalty_Neutral>
0.0017711

> <r_epik_State_Penalty>
0.00107211

> <r_epik_Charging_Adjusted_Penalty>
0.00107211

> <i_epik_Tot_Q>
0

> <i_epik_Tot_abs_Q>
0

> <r_epik_Metal_State_Penalty>
-0

> <b_epik_Metal_Only>
0

> <s_lp_Force_Field>
OPLS_2005

> <r_lp_Energy>
40.3757

> <b_lp_Chiralities_Consistent>
1

> <s_lp_Variant>
AV-unprocessed.smi:187-1

> <Gold.Version>
5.8.1

> <Gold.Id.Protein>
6NUR|6NUR_protein|mol2

> <Gold.PLP.Fitness>
41.1609

> <Gold.PLP.PLP>
-38.0648

> <Gold.PLP.part.hbond>
-2.8554

> <Gold.PLP.part.metal>
0.0000

> <Gold.PLP.part.buried>
-7.6873

> <Gold.PLP.part.nonpolar>
-28.6042

> <Gold.PLP.part.repulsive>
0.1155

> <Gold.PLP.ligand.clash>
0.0000

> <Gold.PLP.ligand.torsion>
0.9516

> <Gold.PLP.Chemscore.Hbond>
0.4259

> <Gold.PLP.Chemscore.CHOScore>
1.0054

> <Gold.PLP.Chemscore.Metal>
0.0000

> <Gold.Chemscore.Hbonds>
donor molecule, donor type, donor heavy atom, donor atom, acceptor molecule, acceptor atom, score
      P1  H  6896  6909       L1    14  0.44
      L1  C    18    42       P1  7948  0.02
      L1  C    18    42       P1  7949  1.00

> <Gold.PLP.Chemscore.Internal.Correction>
0.7056

> <Gold.Rescore>
     Score         DG    S(hbond)    S(metal)    S(lipo)     H(rot)  DE(clash)    DE(int)     intcor
      3.48      -6.32       0.77        0.00      72.60       3.99       0.06       2.77       ----

> <Gold.Chemscore.Fitness>
3.4815

> <Gold.Chemscore.DG>
-6.3165

> <Gold.Chemscore.ZeroCoef>
-5.4800

> <Gold.Chemscore.Hbond>
0.7656

> <Gold.Chemscore.Metal>
0.0000

> <Gold.Chemscore.Lipo>
72.5988

> <Gold.Chemscore.Internal_Hbond>
0.0000

> <Gold.Chemscore.DEClash>
0.0601

> <Gold.Chemscore.DEInternal>
2.7749

> <Gold.Chemscore.Rot>
3.9902

> <Gold.Chemscore.Internal.Correction>
   9.000000E+99

> <Gold.Chemscore.Hbonds>
donor molecule, donor type, donor heavy atom, donor atom, acceptor molecule, acceptor atom, score
      P1  H  6896  6909       L1    14  0.04

> <Gold.Chemscore.Hbond.Weighted>
-2.5572

> <Gold.Chemscore.Metal.Weighted>
-0.0000

> <Gold.Chemscore.Lipo.Weighted>
-8.4941

> <Gold.Chemscore.Internal_Hbond.Weighted>
0.0000

> <Gold.Chemscore.DEClash.Weighted>
0.0601

> <Gold.Chemscore.DEInternal.Weighted>
2.7749

> <Gold.Chemscore.Rot.Weighted>
10.2148

> <Gold.Chemscore.Internal.Correction.Weighted>
   9.000000E+99

> <Gold.Protein.RotatedTorsions>
[ 6907 6896 6895 6894 ] final   51.74 input  -60.11 | X-H torsion
[ 7974 7965 7964 7962 ] final  -57.21 input  175.53 | X-H torsion
[ 8008 7997 7996 7995 ] final   92.56 input   59.86 | X-H torsion
[ 10167 10162 10161 10158 ] final  -44.06 input  -65.29 | X-H torsion
[ 10718 10713 10712 10709 ] final -102.88 input   66.30 | X-H torsion
[ 10763 10752 10751 10750 ] final  -72.18 input  -60.55 | X-H torsion
[ 11005 11000 10999 10996 ] final   11.82 input  -57.11 | X-H torsion

> <Gold.Protein.ActiveResidues>
 VAL166  LYS551  ARG553  GLY616  TRP617  ASP618  TYR619  PRO620  LYS621  CYS622 
 ASP623  PHE694  ASN695  SER759  ASP760  ASP761  ALA762  ILE779  LEU786  VAL792 
 PHE793  MET794  SER795  GLU796  ALA797  LYS798  CYS799  TRP800  GLU811  SER814 

> <Gold.Protein.RotatedAtoms>
  152.3159  134.7441  160.0325 H   0  0  0  0  0  0  0  0  0  0  0  0  # atno 6907 bound_to 6896
  151.7906  133.3353  159.3506 H   0  0  0  0  0  0  0  0  0  0  0  0  # atno 6908 bound_to 6896
  150.7344  134.5777  159.5967 H   0  0  0  0  0  0  0  0  0  0  0  0  # atno 6909 bound_to 6896
  145.8537  140.8334  142.9972 H   0  0  0  0  0  0  0  0  0  0  0  0  # atno 7974 bound_to 7965
  156.0367  140.3324  155.7199 H   0  0  0  0  0  0  0  0  0  0  0  0  # atno 8008 bound_to 7997
  155.5805  140.0636  157.2802 H   0  0  0  0  0  0  0  0  0  0  0  0  # atno 8009 bound_to 7997
  154.4376  140.1845  156.0959 H   0  0  0  0  0  0  0  0  0  0  0  0  # atno 8010 bound_to 7997
  140.6911  143.2950  151.3441 H   0  0  0  0  0  0  0  0  0  0  0  0  # atno 10167 bound_to 10162
  156.0245  130.5441  150.7172 H   0  0  0  0  0  0  0  0  0  0  0  0  # atno 10718 bound_to 10713
  154.4421  135.5938  153.6136 H   0  0  0  0  0  0  0  0  0  0  0  0  # atno 10763 bound_to 10752
  152.9806  135.6000  154.3710 H   0  0  0  0  0  0  0  0  0  0  0  0  # atno 10764 bound_to 10752
  154.3561  135.2841  155.2324 H   0  0  0  0  0  0  0  0  0  0  0  0  # atno 10765 bound_to 10752
  140.4989  134.0766  155.7789 H   0  0  0  0  0  0  0  0  0  0  0  0  # atno 11005 bound_to 11000
  144.6728  140.0992  143.7461 LP  0  0  0  0  0  0  0  0  0  0  0  0  # atno 17320 bound_to 7965
  145.9328  139.2617  143.1315 LP  0  0  0  0  0  0  0  0  0  0  0  0  # atno 17321 bound_to 7965
  139.6315  144.0712  152.2480 LP  0  0  0  0  0  0  0  0  0  0  0  0  # atno 17342 bound_to 10162
  140.0188  144.6168  150.7584 LP  0  0  0  0  0  0  0  0  0  0  0  0  # atno 17343 bound_to 10162
  157.4796  131.0901  151.0551 LP  0  0  0  0  0  0  0  0  0  0  0  0  # atno 17370 bound_to 10713
  157.0988  130.5973  149.5455 LP  0  0  0  0  0  0  0  0  0  0  0  0  # atno 17371 bound_to 10713
  141.1446  133.9078  157.2247 LP  0  0  0  0  0  0  0  0  0  0  0  0  # atno 17394 bound_to 11000
  139.9725  135.0124  156.9548 LP  0  0  0  0  0  0  0  0  0  0  0  0  # atno 17395 bound_to 11000

$$$$
