AV-unprocessed.smi:2579|AV-procd|sdf|10123|dock6
  -GOLD-   2272014143D 1   1.00000     0.00000
 Structure written by MMmdl.
 39 41  0  0  0  0  0  0  0  0  2 V2000
  149.1462  141.2802  153.1796 O   0  0  0  0  0  0  0  0  0  0  0  0
  147.9016  141.5623  153.7821 C   0  0  0  0  0  0  0  0  0  0  0  0
  148.1188  142.1192  155.1983 C   0  0  0  0  0  0  0  0  0  0  0  0
  149.0753  141.3324  155.9644 N   0  0  0  0  0  0  0  0  0  0  0  0
  149.8993  141.9576  156.9080 C   0  0  0  0  0  0  0  0  0  0  0  0
  149.7500  143.2195  157.3928 N   0  3  0  0  0  0  0  0  0  0  0  0
  150.7787  143.4645  158.3067 C   0  0  0  0  0  0  0  0  0  0  0  0
  151.0691  144.5948  159.0649 C   0  0  0  0  0  0  0  0  0  0  0  0
  152.2014  144.5223  159.9027 C   0  0  0  0  0  0  0  0  0  0  0  0
  152.9983  143.3609  159.9638 C   0  0  0  0  0  0  0  0  0  0  0  0
  152.6964  142.2196  159.1922 C   0  0  0  0  0  0  0  0  0  0  0  0
  151.5735  142.2945  158.3684 C   0  0  0  0  0  0  0  0  0  0  0  0
  150.9843  141.3801  157.4852 N   0  0  0  0  0  0  0  0  0  0  0  0
  151.5735  140.0462  157.3049 C   0  0  0  0  0  0  0  0  0  0  0  0
  151.6630  139.6492  155.8228 C   0  0  2  0  0  0  0  0  0  0  0  0
  151.1011  138.2598  155.5228 C   0  0  0  0  0  0  0  0  0  0  0  0
  151.8844  137.8701  154.2905 C   0  0  0  0  0  0  0  0  0  0  0  0
  153.2608  138.4411  154.6130 C   0  0  0  0  0  0  0  0  0  0  0  0
  153.0168  139.6209  155.3726 O   0  0  0  0  0  0  0  0  0  0  0  0
  149.0130  140.6399  152.4971 H   0  0  0  0  0  0  0  0  0  0  0  0
  147.3212  142.2412  153.1567 H   0  0  0  0  0  0  0  0  0  0  0  0
  147.3455  140.6264  153.8392 H   0  0  0  0  0  0  0  0  0  0  0  0
  148.4806  143.1459  155.1361 H   0  0  0  0  0  0  0  0  0  0  0  0
  147.1736  142.1666  155.7401 H   0  0  0  0  0  0  0  0  0  0  0  0
  149.3126  140.4077  155.6341 H   0  0  0  0  0  0  0  0  0  0  0  0
  150.4635  145.4879  159.0192 H   0  0  0  0  0  0  0  0  0  0  0  0
  152.4653  145.3760  160.5099 H   0  0  0  0  0  0  0  0  0  0  0  0
  153.8600  143.3447  160.6153 H   0  0  0  0  0  0  0  0  0  0  0  0
  153.3183  141.3380  159.2421 H   0  0  0  0  0  0  0  0  0  0  0  0
  152.5539  140.0248  157.7811 H   0  0  0  0  0  0  0  0  0  0  0  0
  150.9525  139.3326  157.8473 H   0  0  0  0  0  0  0  0  0  0  0  0
  151.1362  140.3839  155.2118 H   0  0  0  0  0  0  0  0  0  0  0  0
  151.3237  137.5677  156.3365 H   0  0  0  0  0  0  0  0  0  0  0  0
  150.0226  138.2631  155.3628 H   0  0  0  0  0  0  0  0  0  0  0  0
  151.8996  136.7947  154.1116 H   0  0  0  0  0  0  0  0  0  0  0  0
  151.4679  138.3608  153.4098 H   0  0  0  0  0  0  0  0  0  0  0  0
  153.8264  137.7430  155.2316 H   0  0  0  0  0  0  0  0  0  0  0  0
  153.8468  138.6541  153.7187 H   0  0  0  0  0  0  0  0  0  0  0  0
  149.0108  143.8550  157.1224 H   0  0  0  0  0  0  0  0  0  0  0  0
  1  2  1  0  0  0  0
  1 20  1  0  0  0  0
  2  3  1  0  0  0  0
  2 21  1  0  0  0  0
  2 22  1  0  0  0  0
  3  4  1  0  0  0  0
  3 23  1  0  0  0  0
  3 24  1  0  0  0  0
  4  5  1  0  0  0  0
  4 25  1  0  0  0  0
  5 13  1  0  0  0  0
  5  6  2  0  0  0  0
  6  7  1  0  0  0  0
  6 39  1  0  0  0  0
  7 12  2  0  0  0  0
  7  8  1  0  0  0  0
  8  9  2  0  0  0  0
  8 26  1  0  0  0  0
  9 10  1  0  0  0  0
  9 27  1  0  0  0  0
 10 11  2  0  0  0  0
 10 28  1  0  0  0  0
 11 12  1  0  0  0  0
 11 29  1  0  0  0  0
 12 13  1  0  0  0  0
 13 14  1  0  0  0  0
 14 15  1  0  0  0  0
 14 30  1  0  0  0  0
 14 31  1  0  0  0  0
 15 19  1  0  0  0  0
 15 16  1  0  0  0  0
 15 32  1  0  0  0  0
 16 17  1  0  0  0  0
 16 33  1  0  0  0  0
 16 34  1  0  0  0  0
 17 18  1  0  0  0  0
 17 35  1  0  0  0  0
 17 36  1  0  0  0  0
 18 19  1  0  0  0  0
 18 37  1  0  0  0  0
 18 38  1  0  0  0  0
M  CHG  1   6   1
M  END
> <s_m_source_file>
AV-unprocessed.smi

> <i_m_source_file_index>
2579

> <i_lp_mmshare_version>
43012

> <i_f3d_flags>
0

> <s_epik_input>
W09IXVtDSDJdW0NIMl1bTkhdYyhuMSluKGMoYzEyKVtjSF1bY0hdW2NIXVtjSF0yKVtDSDJdW0NAQEhdM1tDSDJdW0NIMl1bQ0gyXU8z

> <s_epik_cmdline>
J2VwaWtfcHl0aG9uJywgJy1waCcsICc3LjAnLCAnLXRuJywgJzgnLCAnLW1hJywgJzIwMCcsICctbWV0YWxfYmluZGluZycsICctaW1hZScsICc8aW5maWxlLm1hZT4nLCAnLW9tYWUnLCAnPG91dGZpbGUubWFlPic=

> <r_epik_Ionization_Penalty>
0.0735651

> <r_epik_Ionization_Penalty_Charging>
0.0735628

> <r_epik_Ionization_Penalty_Neutral>
2.35277e-06

> <r_epik_State_Penalty>
0.0647164

> <r_epik_Charging_Adjusted_Penalty>
0.138279

> <i_epik_Tot_Q>
1

> <i_epik_Tot_abs_Q>
1

> <r_epik_Metal_State_Penalty>
2.81856

> <b_epik_Metal_Only>
0

> <s_lp_Force_Field>
OPLS_2005

> <r_lp_Energy>
32.6829

> <b_lp_Chiralities_Consistent>
1

> <s_lp_Variant>
AV-unprocessed.smi:2579-1

> <Gold.Version>
5.8.1

> <Gold.Id.Protein>
6NUR|6NUR_protein|mol2

> <Gold.PLP.Fitness>
52.5628

> <Gold.PLP.PLP>
-42.4815

> <Gold.PLP.part.hbond>
-4.3084

> <Gold.PLP.part.metal>
0.0000

> <Gold.PLP.part.buried>
-0.4650

> <Gold.PLP.part.nonpolar>
-37.1640

> <Gold.PLP.part.repulsive>
0.0744

> <Gold.PLP.ligand.clash>
0.0000

> <Gold.PLP.ligand.torsion>
1.1151

> <Gold.PLP.Chemscore.Hbond>
4.1022

> <Gold.PLP.Chemscore.CHOScore>
0.0000

> <Gold.PLP.Chemscore.Metal>
0.0000

> <Gold.Chemscore.Hbonds>
donor molecule, donor type, donor heavy atom, donor atom, acceptor molecule, acceptor atom, score
      L1  H     1    20       P1  7957  0.88
      L1  H     6    39       P1  8028  1.06
      P1  H  7997  8008       L1    19  1.00
      P1  H  8011  8017       L1     1  0.95

> <Gold.PLP.Chemscore.Internal.Correction>
0.0049

> <Gold.Rescore>
     Score         DG    S(hbond)    S(metal)    S(lipo)     H(rot)  DE(clash)    DE(int)     intcor
     19.61     -21.28       2.56        0.00     110.54       2.22       0.58       1.09       ----

> <Gold.Chemscore.Fitness>
19.6140

> <Gold.Chemscore.DG>
-21.2842

> <Gold.Chemscore.ZeroCoef>
-5.4800

> <Gold.Chemscore.Hbond>
2.5613

> <Gold.Chemscore.Metal>
0.0000

> <Gold.Chemscore.Lipo>
110.5404

> <Gold.Chemscore.Internal_Hbond>
0.0000

> <Gold.Chemscore.DEClash>
0.5847

> <Gold.Chemscore.DEInternal>
1.0856

> <Gold.Chemscore.Rot>
2.2202

> <Gold.Chemscore.Internal.Correction>
   9.000000E+99

> <Gold.Chemscore.Hbonds>
donor molecule, donor type, donor heavy atom, donor atom, acceptor molecule, acceptor atom, score
      L1  H     1    20       P1  7957  0.84
      L1  H     6    39       P1  8028  0.12
      P1  H  7997  8008       L1    19  0.84
      P1  H  8011  8017       L1     1  0.19

> <Gold.Chemscore.Hbond.Weighted>
-8.5547

> <Gold.Chemscore.Metal.Weighted>
-0.0000

> <Gold.Chemscore.Lipo.Weighted>
-12.9332

> <Gold.Chemscore.Internal_Hbond.Weighted>
0.0000

> <Gold.Chemscore.DEClash.Weighted>
0.5847

> <Gold.Chemscore.DEInternal.Weighted>
1.0856

> <Gold.Chemscore.Rot.Weighted>
5.6837

> <Gold.Chemscore.Internal.Correction.Weighted>
   9.000000E+99

> <Gold.Protein.RotatedTorsions>
[ 6907 6896 6895 6894 ] final  -53.82 input  -60.11 | X-H torsion
[ 7974 7965 7964 7962 ] final  -87.41 input  175.53 | X-H torsion
[ 8008 7997 7996 7995 ] final  -38.76 input   59.86 | X-H torsion
[ 10167 10162 10161 10158 ] final  106.93 input  -65.29 | X-H torsion
[ 10718 10713 10712 10709 ] final  103.37 input   66.30 | X-H torsion
[ 10763 10752 10751 10750 ] final  -19.69 input  -60.55 | X-H torsion
[ 11005 11000 10999 10996 ] final -169.64 input  -57.11 | X-H torsion

> <Gold.Protein.ActiveResidues>
 VAL166  LYS551  ARG553  GLY616  TRP617  ASP618  TYR619  PRO620  LYS621  CYS622 
 ASP623  PHE694  ASN695  SER759  ASP760  ASP761  ALA762  ILE779  LEU786  VAL792 
 PHE793  MET794  SER795  GLU796  ALA797  LYS798  CYS799  TRP800  GLU811  SER814 

> <Gold.Protein.RotatedAtoms>
  150.8392  134.7678  159.6918 H   0  0  0  0  0  0  0  0  0  0  0  0  # atno 6907 bound_to 6896
  152.4483  134.5445  159.9858 H   0  0  0  0  0  0  0  0  0  0  0  0  # atno 6908 bound_to 6896
  151.5588  133.3368  159.3003 H   0  0  0  0  0  0  0  0  0  0  0  0  # atno 6909 bound_to 6896
  145.4668  140.9560  143.1939 H   0  0  0  0  0  0  0  0  0  0  0  0  # atno 7974 bound_to 7965
  154.4032  140.1569  156.2753 H   0  0  0  0  0  0  0  0  0  0  0  0  # atno 8008 bound_to 7997
  155.8918  140.3438  155.5939 H   0  0  0  0  0  0  0  0  0  0  0  0  # atno 8009 bound_to 7997
  155.7550  140.0810  157.2173 H   0  0  0  0  0  0  0  0  0  0  0  0  # atno 8010 bound_to 7997
  139.6968  144.7100  151.1253 H   0  0  0  0  0  0  0  0  0  0  0  0  # atno 10167 bound_to 10162
  157.6774  131.0777  150.5545 H   0  0  0  0  0  0  0  0  0  0  0  0  # atno 10718 bound_to 10713
  153.6087  135.6997  153.5355 H   0  0  0  0  0  0  0  0  0  0  0  0  # atno 10763 bound_to 10752
  153.3035  135.4122  155.1273 H   0  0  0  0  0  0  0  0  0  0  0  0  # atno 10764 bound_to 10752
  154.8568  135.3654  154.5624 H   0  0  0  0  0  0  0  0  0  0  0  0  # atno 10765 bound_to 10752
  140.5285  134.5640  157.5068 H   0  0  0  0  0  0  0  0  0  0  0  0  # atno 11005 bound_to 11000
  144.7969  139.6217  143.7089 LP  0  0  0  0  0  0  0  0  0  0  0  0  # atno 17320 bound_to 7965
  146.2419  139.6019  142.9485 LP  0  0  0  0  0  0  0  0  0  0  0  0  # atno 17321 bound_to 7965
  140.7699  143.5480  150.9237 LP  0  0  0  0  0  0  0  0  0  0  0  0  # atno 17342 bound_to 10162
  139.9160  143.6663  152.3106 LP  0  0  0  0  0  0  0  0  0  0  0  0  # atno 17343 bound_to 10162
  156.5849  130.4314  149.5961 LP  0  0  0  0  0  0  0  0  0  0  0  0  # atno 17370 bound_to 10713
  156.2631  130.6973  151.1748 LP  0  0  0  0  0  0  0  0  0  0  0  0  # atno 17371 bound_to 10713
  139.9567  134.7522  156.0326 LP  0  0  0  0  0  0  0  0  0  0  0  0  # atno 17394 bound_to 11000
  141.1295  133.6590  156.3426 LP  0  0  0  0  0  0  0  0  0  0  0  0  # atno 17395 bound_to 11000

$$$$
