AV-unprocessed.smi:1813|AV-procd|sdf|7343|dock7
  -GOLD-   22720 9 03D 1   1.00000     0.00000
 Structure written by MMmdl.
 38 39  0  0  0  0  0  0  0  0  2 V2000
  151.0537  142.5687  157.1557 C   0  0  0  0  0  0  0  0  0  0  0  0
  149.8340  142.4356  156.3746 N   0  0  0  0  0  0  0  0  0  0  0  0
  149.6291  141.4879  155.4483 C   0  0  0  0  0  0  0  0  0  0  0  0
  150.4648  140.6321  155.1589 O   0  0  0  0  0  0  0  0  0  0  0  0
  148.2744  141.5124  154.7309 C   0  0  0  0  0  0  0  0  0  0  0  0
  148.0176  140.3482  153.8517 N   0  0  0  0  0  0  0  0  0  0  0  0
  147.0862  140.6634  152.7579 C   0  0  0  0  0  0  0  0  0  0  0  0
  146.9066  139.4470  151.8325 C   0  0  0  0  0  0  0  0  0  0  0  0
  146.3982  138.2255  152.6102 C   0  0  0  0  0  0  0  0  0  0  0  0
  146.3464  137.0619  151.7293 N   0  0  0  0  0  0  0  0  0  0  0  0
  145.3374  136.1833  151.6412 C   0  0  0  0  0  0  0  0  0  0  0  0
  144.3366  136.3209  152.3489 O   0  0  0  0  0  0  0  0  0  0  0  0
  145.5511  135.1993  150.7381 N   0  5  0  0  0  0  0  0  0  0  0  0
  144.7550  134.1179  150.7211 C   0  0  0  0  0  0  0  0  0  0  0  0
  143.7666  133.9260  151.6022 N   0  0  0  0  0  0  0  0  0  0  0  0
  143.0701  132.7324  151.4043 C   0  0  0  0  0  0  0  0  0  0  0  0
  143.5458  131.9930  150.3540 C   0  0  0  0  0  0  0  0  0  0  0  0
  144.8900  132.7796  149.5767 S   0  0  0  0  0  0  0  0  0  0  0  0
  147.3333  137.9722  153.8038 C   0  0  0  0  0  0  0  0  0  0  0  0
  147.4943  139.2408  154.6587 C   0  0  0  0  0  0  0  0  0  0  0  0
  150.9685  143.4159  157.8360 H   0  0  0  0  0  0  0  0  0  0  0  0
  151.9142  142.7367  156.5070 H   0  0  0  0  0  0  0  0  0  0  0  0
  151.2339  141.6715  157.7494 H   0  0  0  0  0  0  0  0  0  0  0  0
  149.0918  143.0965  156.5547 H   0  0  0  0  0  0  0  0  0  0  0  0
  147.5035  141.5636  155.5011 H   0  0  0  0  0  0  0  0  0  0  0  0
  148.1954  142.4347  154.1522 H   0  0  0  0  0  0  0  0  0  0  0  0
  146.1221  140.9765  153.1629 H   0  0  0  0  0  0  0  0  0  0  0  0
  147.4580  141.4917  152.1550 H   0  0  0  0  0  0  0  0  0  0  0  0
  146.2097  139.6940  151.0307 H   0  0  0  0  0  0  0  0  0  0  0  0
  147.8590  139.2143  151.3529 H   0  0  0  0  0  0  0  0  0  0  0  0
  145.3946  138.4460  152.9789 H   0  0  0  0  0  0  0  0  0  0  0  0
  147.1455  136.9070  151.1324 H   0  0  0  0  0  0  0  0  0  0  0  0
  142.2488  132.4876  152.0612 H   0  0  0  0  0  0  0  0  0  0  0  0
  143.1913  131.0399  149.9923 H   0  0  0  0  0  0  0  0  0  0  0  0
  146.9442  137.1619  154.4214 H   0  0  0  0  0  0  0  0  0  0  0  0
  148.3122  137.6463  153.4485 H   0  0  0  0  0  0  0  0  0  0  0  0
  148.1797  139.0253  155.4796 H   0  0  0  0  0  0  0  0  0  0  0  0
  146.5384  139.5160  155.1082 H   0  0  0  0  0  0  0  0  0  0  0  0
  1  2  1  0  0  0  0
  1 21  1  0  0  0  0
  1 22  1  0  0  0  0
  1 23  1  0  0  0  0
  2  3  1  0  0  0  0
  2 24  1  0  0  0  0
  3  4  2  0  0  0  0
  3  5  1  0  0  0  0
  5  6  1  0  0  0  0
  5 25  1  0  0  0  0
  5 26  1  0  0  0  0
  6 20  1  0  0  0  0
  6  7  1  0  0  0  0
  7  8  1  0  0  0  0
  7 27  1  0  0  0  0
  7 28  1  0  0  0  0
  8  9  1  0  0  0  0
  8 29  1  0  0  0  0
  8 30  1  0  0  0  0
  9 10  1  0  0  0  0
  9 19  1  0  0  0  0
  9 31  1  0  0  0  0
 10 11  1  0  0  0  0
 10 32  1  0  0  0  0
 11 12  2  0  0  0  0
 11 13  1  0  0  0  0
 13 14  1  0  0  0  0
 14 18  1  0  0  0  0
 14 15  2  0  0  0  0
 15 16  1  0  0  0  0
 16 17  2  0  0  0  0
 16 33  1  0  0  0  0
 17 18  1  0  0  0  0
 17 34  1  0  0  0  0
 19 20  1  0  0  0  0
 19 35  1  0  0  0  0
 19 36  1  0  0  0  0
 20 37  1  0  0  0  0
 20 38  1  0  0  0  0
M  CHG  1  13  -1
M  END
> <s_m_source_file>
AV-unprocessed.smi

> <i_m_source_file_index>
1813

> <i_lp_mmshare_version>
43012

> <i_f3d_flags>
0

> <s_epik_input>
W0NIM11bTkhdQyg9TylbQ0gyXU4xW0NIMl1bQ0gyXVtDSF0oW0NIMl1bQ0gyXTEpW05IXUMoPU8pW05IXWMybltjSF1bY0hdczI=

> <s_epik_cmdline>
J2VwaWtfcHl0aG9uJywgJy1waCcsICc3LjAnLCAnLXRuJywgJzgnLCAnLW1hJywgJzIwMCcsICctbWV0YWxfYmluZGluZycsICctaW1hZScsICc8aW5maWxlLm1hZT4nLCAnLW9tYWUnLCAnPG91dGZpbGUubWFlPic=

> <r_lp_tautomer_probability>
0.999

> <r_epik_Ionization_Penalty>
7.12803

> <r_epik_Ionization_Penalty_Charging>
5.8513

> <r_epik_Ionization_Penalty_Neutral>
1.27674

> <r_epik_State_Penalty>
5.99796

> <r_epik_Charging_Adjusted_Penalty>
11.8493

> <i_epik_Tot_Q>
-1

> <i_epik_Tot_abs_Q>
1

> <r_epik_Metal_State_Penalty>
1.97283

> <b_epik_Metal_Only>
1

> <s_lp_Force_Field>
OPLS_2005

> <r_lp_Energy>
7.89498

> <b_lp_Chiralities_Consistent>
1

> <s_lp_Variant>
AV-unprocessed.smi:1813-4

> <Gold.Version>
5.8.1

> <Gold.Id.Protein>
6NUR|6NUR_protein|mol2

> <Gold.PLP.Fitness>
38.9100

> <Gold.PLP.PLP>
-30.9741

> <Gold.PLP.part.hbond>
-3.0000

> <Gold.PLP.part.metal>
0.0000

> <Gold.PLP.part.buried>
0.0302

> <Gold.PLP.part.nonpolar>
-30.3275

> <Gold.PLP.part.repulsive>
1.1638

> <Gold.PLP.ligand.clash>
0.0000

> <Gold.PLP.ligand.torsion>
0.5768

> <Gold.PLP.Chemscore.Hbond>
1.9840

> <Gold.PLP.Chemscore.CHOScore>
1.0421

> <Gold.PLP.Chemscore.Metal>
0.0000

> <Gold.Chemscore.Hbonds>
donor molecule, donor type, donor heavy atom, donor atom, acceptor molecule, acceptor atom, score
      L1  H     2    24       P1  8028  0.50
      L1  H    10    32       P1  7948  0.48
      P1  H  7989  7998       L1     4  0.90
      L1  C    16    33       P1 10957  0.07
      L1  C    17    34       P1 10952  0.95

> <Gold.PLP.Chemscore.Internal.Correction>
0.0112

> <Gold.Rescore>
     Score         DG    S(hbond)    S(metal)    S(lipo)     H(rot)  DE(clash)    DE(int)     intcor
     11.96     -17.39       2.08        0.00      80.39       1.73       3.19       2.24       ----

> <Gold.Chemscore.Fitness>
11.9624

> <Gold.Chemscore.DG>
-17.3869

> <Gold.Chemscore.ZeroCoef>
-5.4800

> <Gold.Chemscore.Hbond>
2.0780

> <Gold.Chemscore.Metal>
0.0000

> <Gold.Chemscore.Lipo>
80.3896

> <Gold.Chemscore.Internal_Hbond>
0.0000

> <Gold.Chemscore.DEClash>
3.1862

> <Gold.Chemscore.DEInternal>
2.2383

> <Gold.Chemscore.Rot>
1.7341

> <Gold.Chemscore.Internal.Correction>
   9.000000E+99

> <Gold.Chemscore.Hbonds>
donor molecule, donor type, donor heavy atom, donor atom, acceptor molecule, acceptor atom, score
      L1  H     2    24       P1  8028  0.50
      L1  H    10    32       P1  7948  0.45
      P1  H  7989  7998       L1     4  0.80

> <Gold.Chemscore.Hbond.Weighted>
-6.9405

> <Gold.Chemscore.Metal.Weighted>
-0.0000

> <Gold.Chemscore.Lipo.Weighted>
-9.4056

> <Gold.Chemscore.Internal_Hbond.Weighted>
0.0000

> <Gold.Chemscore.DEClash.Weighted>
3.1862

> <Gold.Chemscore.DEInternal.Weighted>
2.2383

> <Gold.Chemscore.Rot.Weighted>
4.4392

> <Gold.Chemscore.Internal.Correction.Weighted>
   9.000000E+99

> <Gold.Protein.RotatedTorsions>
[ 6907 6896 6895 6894 ] final -128.56 input  -60.11 | X-H torsion
[ 7974 7965 7964 7962 ] final   35.19 input  175.53 | X-H torsion
[ 8008 7997 7996 7995 ] final   60.99 input   59.86 | X-H torsion
[ 10167 10162 10161 10158 ] final -157.02 input  -65.29 | X-H torsion
[ 10718 10713 10712 10709 ] final   32.19 input   66.30 | X-H torsion
[ 10763 10752 10751 10750 ] final  -47.89 input  -60.55 | X-H torsion
[ 11005 11000 10999 10996 ] final  -86.68 input  -57.11 | X-H torsion

> <Gold.Protein.ActiveResidues>
 VAL166  LYS551  ARG553  GLY616  TRP617  ASP618  TYR619  PRO620  LYS621  CYS622 
 ASP623  PHE694  ASN695  SER759  ASP760  ASP761  ALA762  ILE779  LEU786  VAL792 
 PHE793  MET794  SER795  GLU796  ALA797  LYS798  CYS799  TRP800  GLU811  SER814 

> <Gold.Protein.RotatedAtoms>
  150.9192  133.6901  159.2835 H   0  0  0  0  0  0  0  0  0  0  0  0  # atno 6907 bound_to 6896
  151.4361  135.1014  159.9666 H   0  0  0  0  0  0  0  0  0  0  0  0  # atno 6908 bound_to 6896
  152.4971  133.8611  159.7306 H   0  0  0  0  0  0  0  0  0  0  0  0  # atno 6909 bound_to 6896
  146.1300  139.6174  142.9233 H   0  0  0  0  0  0  0  0  0  0  0  0  # atno 7974 bound_to 7965
  155.5911  140.3493  155.4567 H   0  0  0  0  0  0  0  0  0  0  0  0  # atno 8008 bound_to 7997
  156.0300  140.1272  157.0292 H   0  0  0  0  0  0  0  0  0  0  0  0  # atno 8009 bound_to 7997
  154.4348  140.1045  156.6072 H   0  0  0  0  0  0  0  0  0  0  0  0  # atno 8010 bound_to 7997
  139.6804  143.9592  152.2333 H   0  0  0  0  0  0  0  0  0  0  0  0  # atno 10167 bound_to 10162
  157.2821  130.7260  149.6562 H   0  0  0  0  0  0  0  0  0  0  0  0  # atno 10718 bound_to 10713
  154.0688  135.6607  153.4821 H   0  0  0  0  0  0  0  0  0  0  0  0  # atno 10763 bound_to 10752
  153.0399  135.5152  154.7587 H   0  0  0  0  0  0  0  0  0  0  0  0  # atno 10764 bound_to 10752
  154.6646  135.3020  154.9789 H   0  0  0  0  0  0  0  0  0  0  0  0  # atno 10765 bound_to 10752
  141.1627  133.7468  156.9196 H   0  0  0  0  0  0  0  0  0  0  0  0  # atno 11005 bound_to 11000
  145.5280  141.0428  143.2398 LP  0  0  0  0  0  0  0  0  0  0  0  0  # atno 17320 bound_to 7965
  144.7681  139.6797  143.7206 LP  0  0  0  0  0  0  0  0  0  0  0  0  # atno 17321 bound_to 7965
  139.9380  144.6699  150.8295 LP  0  0  0  0  0  0  0  0  0  0  0  0  # atno 17342 bound_to 10162
  140.7650  143.3263  151.2508 LP  0  0  0  0  0  0  0  0  0  0  0  0  # atno 17343 bound_to 10162
  155.9664  130.4335  150.5008 LP  0  0  0  0  0  0  0  0  0  0  0  0  # atno 17370 bound_to 10713
  157.2954  131.0634  151.2105 LP  0  0  0  0  0  0  0  0  0  0  0  0  # atno 17371 bound_to 10713
  140.1460  134.9262  157.2530 LP  0  0  0  0  0  0  0  0  0  0  0  0  # atno 17394 bound_to 11000
  140.2779  134.3384  155.7352 LP  0  0  0  0  0  0  0  0  0  0  0  0  # atno 17395 bound_to 11000

$$$$
