AV-unprocessed.smi:3255|AV-procd|sdf|12463|dock1
  -GOLD-   2272018363D 1   1.00000     0.00000
 Structure written by MMmdl.
 38 39  0  0  0  0  0  0  0  0  1 V2000
  152.1077  138.0867  154.7140 C   0  0  0  0  0  0  0  0  0  0  0  0
  150.5797  138.1000  154.8667 C   0  0  2  0  0  0  0  0  0  0  0  0
  150.0421  136.8426  154.3485 N   0  0  0  0  0  0  0  0  0  0  0  0
  149.8703  135.7168  155.0558 C   0  0  0  0  0  0  0  0  0  0  0  0
  150.1739  135.5916  156.2423 O   0  0  0  0  0  0  0  0  0  0  0  0
  149.3016  134.7503  154.3214 N   0  0  0  0  0  0  0  0  0  0  0  0
  148.9160  133.4337  154.8218 C   0  0  0  0  0  0  0  0  0  0  0  0
  148.9444  132.3638  153.7138 C   0  0  0  0  0  0  0  0  0  0  0  0
  147.7484  132.3740  152.8912 N   0  0  0  0  0  0  0  0  0  0  0  0
  147.2594  133.4326  152.1367 C   0  0  0  0  0  0  0  0  0  0  0  0
  146.1041  132.9867  151.5355 C   0  0  0  0  0  0  0  0  0  0  0  0
  145.8700  131.6618  151.8951 N   0  0  0  0  0  0  0  0  0  0  0  0
  146.8858  131.3668  152.6962 C   0  0  0  0  0  0  0  0  0  0  0  0
  149.9396  139.3027  154.1413 C   0  0  1  0  0  0  0  0  0  0  0  0
  148.4177  139.4094  154.2773 C   0  0  0  0  0  0  0  0  0  0  0  0
  148.1904  140.8905  154.0893 C   0  0  0  0  0  0  0  0  0  0  0  0
  149.3864  141.4740  154.8322 C   0  0  0  0  0  0  0  0  0  0  0  0
  150.4413  140.5299  154.6696 O   0  0  0  0  0  0  0  0  0  0  0  0
  152.5525  138.9943  155.1228 H   0  0  0  0  0  0  0  0  0  0  0  0
  152.4027  138.0150  153.6666 H   0  0  0  0  0  0  0  0  0  0  0  0
  152.5471  137.2407  155.2434 H   0  0  0  0  0  0  0  0  0  0  0  0
  150.3577  138.1852  155.9319 H   0  0  0  0  0  0  0  0  0  0  0  0
  149.7571  136.8403  153.3800 H   0  0  0  0  0  0  0  0  0  0  0  0
  149.0917  134.9492  153.3542 H   0  0  0  0  0  0  0  0  0  0  0  0
  149.6255  133.1597  155.6026 H   0  0  0  0  0  0  0  0  0  0  0  0
  147.9367  133.4653  155.3028 H   0  0  0  0  0  0  0  0  0  0  0  0
  149.8158  132.5020  153.0724 H   0  0  0  0  0  0  0  0  0  0  0  0
  149.0383  131.3728  154.1592 H   0  0  0  0  0  0  0  0  0  0  0  0
  147.7543  134.3919  152.0978 H   0  0  0  0  0  0  0  0  0  0  0  0
  145.4293  133.5139  150.8773 H   0  0  0  0  0  0  0  0  0  0  0  0
  147.0016  130.3976  153.1586 H   0  0  0  0  0  0  0  0  0  0  0  0
  150.1933  139.2766  153.0802 H   0  0  0  0  0  0  0  0  0  0  0  0
  147.8831  138.8004  153.5482 H   0  0  0  0  0  0  0  0  0  0  0  0
  148.0953  139.1104  155.2760 H   0  0  0  0  0  0  0  0  0  0  0  0
  148.2399  141.1470  153.0302 H   0  0  0  0  0  0  0  0  0  0  0  0
  147.2330  141.2326  154.4829 H   0  0  0  0  0  0  0  0  0  0  0  0
  149.6695  142.4591  154.4607 H   0  0  0  0  0  0  0  0  0  0  0  0
  149.1647  141.5636  155.8963 H   0  0  0  0  0  0  0  0  0  0  0  0
  1  2  1  0  0  0  0
  1 19  1  0  0  0  0
  1 20  1  0  0  0  0
  1 21  1  0  0  0  0
  2  3  1  0  0  0  0
  2 14  1  0  0  0  0
  2 22  1  0  0  0  0
  3  4  1  0  0  0  0
  3 23  1  0  0  0  0
  4  5  2  0  0  0  0
  4  6  1  0  0  0  0
  6  7  1  0  0  0  0
  6 24  1  0  0  0  0
  7  8  1  0  0  0  0
  7 25  1  0  0  0  0
  7 26  1  0  0  0  0
  8  9  1  0  0  0  0
  8 27  1  0  0  0  0
  8 28  1  0  0  0  0
  9 13  1  0  0  0  0
  9 10  1  0  0  0  0
 10 11  2  0  0  0  0
 10 29  1  0  0  0  0
 11 12  1  0  0  0  0
 11 30  1  0  0  0  0
 12 13  2  0  0  0  0
 13 31  1  0  0  0  0
 14 18  1  0  0  0  0
 14 15  1  0  0  0  0
 14 32  1  0  0  0  0
 15 16  1  0  0  0  0
 15 33  1  0  0  0  0
 15 34  1  0  0  0  0
 16 17  1  0  0  0  0
 16 35  1  0  0  0  0
 16 36  1  0  0  0  0
 17 18  1  0  0  0  0
 17 37  1  0  0  0  0
 17 38  1  0  0  0  0
M  END
> <s_m_source_file>
AV-unprocessed.smi

> <i_m_source_file_index>
3255

> <i_lp_mmshare_version>
43012

> <i_f3d_flags>
0

> <s_epik_input>
TzFbQ0gyXVtDSDJdW0NIMl1bQ0BIXTFbQ0BIXShbQ0gzXSlbTkhdQyg9TylbTkhdW0NIMl1bQ0gyXW4yW2NIXVtjSF1uW2NIXTI=

> <s_epik_cmdline>
J2VwaWtfcHl0aG9uJywgJy1waCcsICc3LjAnLCAnLXRuJywgJzgnLCAnLW1hJywgJzIwMCcsICctbWV0YWxfYmluZGluZycsICctaW1hZScsICc8aW5maWxlLm1hZT4nLCAnLW9tYWUnLCAnPG91dGZpbGUubWFlPic=

> <r_lp_tautomer_probability>
1

> <r_epik_Ionization_Penalty>
0.620274

> <r_epik_Ionization_Penalty_Charging>
0.620225

> <r_epik_Ionization_Penalty_Neutral>
4.91362e-05

> <r_epik_State_Penalty>
0.636186

> <r_epik_Charging_Adjusted_Penalty>
1.25641

> <i_epik_Tot_Q>
0

> <i_epik_Tot_abs_Q>
0

> <r_epik_Metal_State_Penalty>
0.306491

> <b_epik_Metal_Only>
0

> <s_lp_Force_Field>
OPLS_2005

> <r_lp_Energy>
16.3443

> <b_lp_Chiralities_Consistent>
1

> <s_lp_Variant>
AV-unprocessed.smi:3255-7

> <Gold.Version>
5.8.1

> <Gold.Id.Protein>
6NUR|6NUR_protein|mol2

> <Gold.PLP.Fitness>
44.2189

> <Gold.PLP.PLP>
-33.6294

> <Gold.PLP.part.hbond>
-3.4571

> <Gold.PLP.part.metal>
0.0000

> <Gold.PLP.part.buried>
-1.7229

> <Gold.PLP.part.nonpolar>
-29.3496

> <Gold.PLP.part.repulsive>
0.3271

> <Gold.PLP.ligand.clash>
0.0000

> <Gold.PLP.ligand.torsion>
0.6657

> <Gold.PLP.Chemscore.Hbond>
2.9420

> <Gold.PLP.Chemscore.CHOScore>
1.0000

> <Gold.PLP.Chemscore.Metal>
0.0000

> <Gold.Chemscore.Hbonds>
donor molecule, donor type, donor heavy atom, donor atom, acceptor molecule, acceptor atom, score
      L1  H     3    23       P1  7948  1.00
      L1  H     6    24       P1  7948  0.90
      P1  H  7989  7998       L1    18  0.98
      L1  C    10    29       P1  7948  1.00

> <Gold.PLP.Chemscore.Internal.Correction>
0.0950

> <Gold.Rescore>
     Score         DG    S(hbond)    S(metal)    S(lipo)     H(rot)  DE(clash)    DE(int)     intcor
     14.33     -15.34       2.45        0.00      62.00       2.18       0.19       0.82       ----

> <Gold.Chemscore.Fitness>
14.3311

> <Gold.Chemscore.DG>
-15.3391

> <Gold.Chemscore.ZeroCoef>
-5.4800

> <Gold.Chemscore.Hbond>
2.4532

> <Gold.Chemscore.Metal>
0.0000

> <Gold.Chemscore.Lipo>
61.9967

> <Gold.Chemscore.Internal_Hbond>
0.0000

> <Gold.Chemscore.DEClash>
0.1881

> <Gold.Chemscore.DEInternal>
0.8199

> <Gold.Chemscore.Rot>
2.1828

> <Gold.Chemscore.Internal.Correction>
   9.000000E+99

> <Gold.Chemscore.Hbonds>
donor molecule, donor type, donor heavy atom, donor atom, acceptor molecule, acceptor atom, score
      L1  H     3    23       P1  7948  0.44
      L1  H     6    24       P1  7948  0.17
      P1  H  7989  7998       L1    18  0.23

> <Gold.Chemscore.Hbond.Weighted>
-8.1936

> <Gold.Chemscore.Metal.Weighted>
-0.0000

> <Gold.Chemscore.Lipo.Weighted>
-7.2536

> <Gold.Chemscore.Internal_Hbond.Weighted>
0.0000

> <Gold.Chemscore.DEClash.Weighted>
0.1881

> <Gold.Chemscore.DEInternal.Weighted>
0.8199

> <Gold.Chemscore.Rot.Weighted>
5.5881

> <Gold.Chemscore.Internal.Correction.Weighted>
   9.000000E+99

> <Gold.Protein.RotatedTorsions>
[ 6907 6896 6895 6894 ] final   19.95 input  -60.11 | X-H torsion
[ 7974 7965 7964 7962 ] final -158.74 input  175.53 | X-H torsion
[ 8008 7997 7996 7995 ] final    6.72 input   59.86 | X-H torsion
[ 10167 10162 10161 10158 ] final  -76.99 input  -65.29 | X-H torsion
[ 10718 10713 10712 10709 ] final  113.91 input   66.30 | X-H torsion
[ 10763 10752 10751 10750 ] final  -20.57 input  -60.55 | X-H torsion
[ 11005 11000 10999 10996 ] final -165.67 input  -57.11 | X-H torsion

> <Gold.Protein.ActiveResidues>
 VAL166  LYS551  ARG553  GLY616  TRP617  ASP618  TYR619  PRO620  LYS621  CYS622 
 ASP623  PHE694  ASN695  SER759  ASP760  ASP761  ALA762  ILE779  LEU786  VAL792 
 PHE793  MET794  SER795  GLU796  ALA797  LYS798  CYS799  TRP800  GLU811  SER814 

> <Gold.Protein.RotatedAtoms>
  151.8888  135.0425  160.0495 H   0  0  0  0  0  0  0  0  0  0  0  0  # atno 6907 bound_to 6896
  152.2453  133.5165  159.5302 H   0  0  0  0  0  0  0  0  0  0  0  0  # atno 6908 bound_to 6896
  150.7066  134.0950  159.3988 H   0  0  0  0  0  0  0  0  0  0  0  0  # atno 6909 bound_to 6896
  144.7493  140.3784  143.6060 H   0  0  0  0  0  0  0  0  0  0  0  0  # atno 7974 bound_to 7965
  154.7446  140.2755  155.6344 H   0  0  0  0  0  0  0  0  0  0  0  0  # atno 8008 bound_to 7997
  156.2882  140.2690  156.2109 H   0  0  0  0  0  0  0  0  0  0  0  0  # atno 8009 bound_to 7997
  155.0214  140.0371  157.2428 H   0  0  0  0  0  0  0  0  0  0  0  0  # atno 8010 bound_to 7997
  140.4809  143.2402  151.8059 H   0  0  0  0  0  0  0  0  0  0  0  0  # atno 10167 bound_to 10162
  157.6311  131.0991  150.7110 H   0  0  0  0  0  0  0  0  0  0  0  0  # atno 10718 bound_to 10713
  153.6226  135.6992  153.5305 H   0  0  0  0  0  0  0  0  0  0  0  0  # atno 10763 bound_to 10752
  153.2925  135.4153  155.1179 H   0  0  0  0  0  0  0  0  0  0  0  0  # atno 10764 bound_to 10752
  154.8540  135.3629  154.5767 H   0  0  0  0  0  0  0  0  0  0  0  0  # atno 10765 bound_to 10752
  140.5731  134.5217  157.5165 H   0  0  0  0  0  0  0  0  0  0  0  0  # atno 11005 bound_to 11000
  145.7004  139.1660  143.2596 LP  0  0  0  0  0  0  0  0  0  0  0  0  # atno 17320 bound_to 7965
  146.1420  140.7045  142.9362 LP  0  0  0  0  0  0  0  0  0  0  0  0  # atno 17321 bound_to 7965
  139.4833  144.4774  151.9350 LP  0  0  0  0  0  0  0  0  0  0  0  0  # atno 17342 bound_to 10162
  140.3859  144.2677  150.5904 LP  0  0  0  0  0  0  0  0  0  0  0  0  # atno 17343 bound_to 10162
  156.7449  130.4750  149.5469 LP  0  0  0  0  0  0  0  0  0  0  0  0  # atno 17370 bound_to 10713
  156.1516  130.6313  151.0602 LP  0  0  0  0  0  0  0  0  0  0  0  0  # atno 17371 bound_to 10713
  139.9352  134.7888  156.0822 LP  0  0  0  0  0  0  0  0  0  0  0  0  # atno 17394 bound_to 11000
  141.1043  133.6665  156.2828 LP  0  0  0  0  0  0  0  0  0  0  0  0  # atno 17395 bound_to 11000

$$$$
