AV-unprocessed.smi:200|AV-procd|sdf|1578|dock2
  -GOLD-   2262019463D 1   1.00000     0.00000
 Structure written by MMmdl.
 56 59  0  0  0  0  0  0  0  0  1 V2000
  156.8457  139.9143  159.4318 C   0  0  0  0  0  0  0  0  0  0  0  0
  155.5160  139.5879  159.0599 O   0  0  0  0  0  0  0  0  0  0  0  0
  154.5213  140.0651  159.9567 C   0  0  0  0  0  0  0  0  0  0  0  0
  153.1012  139.6150  159.5524 C   0  0  0  0  0  0  0  0  0  0  0  0
  152.5063  140.4351  158.4951 N   0  0  0  0  0  0  0  0  0  0  0  0
  152.0326  139.7549  157.4226 C   0  0  0  0  0  0  0  0  0  0  0  0
  152.6578  139.8550  156.2202 N   0  0  0  0  0  0  0  0  0  0  0  0
  152.1925  139.1760  155.1676 C   0  0  0  0  0  0  0  0  0  0  0  0
  151.1406  138.3568  155.1012 N   0  0  0  0  0  0  0  0  0  0  0  0
  150.5080  138.2597  156.3057 C   0  0  0  0  0  0  0  0  0  0  0  0
  150.8789  138.9304  157.5039 C   0  0  0  0  0  0  0  0  0  0  0  0
  149.9920  138.6134  158.5240 N   0  0  0  0  0  0  0  0  0  0  0  0
  149.1441  137.7971  157.9605 C   0  0  0  0  0  0  0  0  0  0  0  0
  149.3928  137.5083  156.6363 N   0  0  0  0  0  0  0  0  0  0  0  0
  148.6166  136.6259  155.7766 C   0  0  0  0  0  0  0  0  0  0  0  0
  148.6756  135.1324  156.1704 C   0  0  0  0  0  0  0  0  0  0  0  0
  147.8294  134.2777  155.2117 C   0  0  0  0  0  0  0  0  0  0  0  0
  148.3541  134.2974  153.8997 O   0  0  0  0  0  0  0  0  0  0  0  0
  150.0852  134.5962  156.4550 C   0  0  0  0  0  0  0  0  0  0  0  0
  149.8459  134.5171  157.8756 O   0  0  0  0  0  0  0  0  0  0  0  0
  148.4542  134.8306  157.6600 C   0  0  0  0  0  0  0  0  0  0  0  0
  151.7118  141.5868  158.9435 C   0  0  2  0  0  0  0  0  0  0  0  0
  150.7816  142.1990  157.8841 C   0  0  0  0  0  0  0  0  0  0  0  0
  150.5329  143.6469  158.3397 C   0  0  0  0  0  0  0  0  0  0  0  0
  151.4234  143.8813  159.5730 C   0  0  2  0  0  0  0  0  0  0  0  0
  151.9989  145.3008  159.6655 C   0  0  0  0  0  0  0  0  0  0  0  0
  152.4912  142.7882  159.4942 C   0  0  0  0  0  0  0  0  0  0  0  0
  157.5397  139.4516  158.7303 H   0  0  0  0  0  0  0  0  0  0  0  0
  157.0820  139.5420  160.4292 H   0  0  0  0  0  0  0  0  0  0  0  0
  157.0215  140.9894  159.4058 H   0  0  0  0  0  0  0  0  0  0  0  0
  154.7647  139.6998  160.9545 H   0  0  0  0  0  0  0  0  0  0  0  0
  154.5683  141.1531  160.0204 H   0  0  0  0  0  0  0  0  0  0  0  0
  153.1317  138.5754  159.2239 H   0  0  0  0  0  0  0  0  0  0  0  0
  152.4458  139.6275  160.4231 H   0  0  0  0  0  0  0  0  0  0  0  0
  152.7431  139.3051  154.2474 H   0  0  0  0  0  0  0  0  0  0  0  0
  148.3136  137.3698  158.5034 H   0  0  0  0  0  0  0  0  0  0  0  0
  147.5858  136.9820  155.7709 H   0  0  0  0  0  0  0  0  0  0  0  0
  148.9716  136.7607  154.7541 H   0  0  0  0  0  0  0  0  0  0  0  0
  147.8083  133.2387  155.5422 H   0  0  0  0  0  0  0  0  0  0  0  0
  146.7900  134.6034  155.1913 H   0  0  0  0  0  0  0  0  0  0  0  0
  148.7355  135.1475  153.7413 H   0  0  0  0  0  0  0  0  0  0  0  0
  150.2835  133.6145  156.0221 H   0  0  0  0  0  0  0  0  0  0  0  0
  150.8841  135.2962  156.2072 H   0  0  0  0  0  0  0  0  0  0  0  0
  148.1315  135.6842  158.2533 H   0  0  0  0  0  0  0  0  0  0  0  0
  147.8116  133.9693  157.8472 H   0  0  0  0  0  0  0  0  0  0  0  0
  151.0828  141.2269  159.7592 H   0  0  0  0  0  0  0  0  0  0  0  0
  151.2548  142.2152  156.9027 H   0  0  0  0  0  0  0  0  0  0  0  0
  149.8546  141.6334  157.7874 H   0  0  0  0  0  0  0  0  0  0  0  0
  150.7943  144.3321  157.5321 H   0  0  0  0  0  0  0  0  0  0  0  0
  149.4830  143.8184  158.5795 H   0  0  0  0  0  0  0  0  0  0  0  0
  150.8203  143.6928  160.4628 H   0  0  0  0  0  0  0  0  0  0  0  0
  152.6118  145.5387  158.7955 H   0  0  0  0  0  0  0  0  0  0  0  0
  152.6233  145.4107  160.5524 H   0  0  0  0  0  0  0  0  0  0  0  0
  151.2024  146.0427  159.7257 H   0  0  0  0  0  0  0  0  0  0  0  0
  152.9531  142.5817  160.4601 H   0  0  0  0  0  0  0  0  0  0  0  0
  153.2745  143.1074  158.8058 H   0  0  0  0  0  0  0  0  0  0  0  0
  1  2  1  0  0  0  0
  1 28  1  0  0  0  0
  1 29  1  0  0  0  0
  1 30  1  0  0  0  0
  2  3  1  0  0  0  0
  3  4  1  0  0  0  0
  3 31  1  0  0  0  0
  3 32  1  0  0  0  0
  4  5  1  0  0  0  0
  4 33  1  0  0  0  0
  4 34  1  0  0  0  0
  5  6  1  0  0  0  0
  5 22  1  0  0  0  0
  6 11  1  0  0  0  0
  6  7  2  0  0  0  0
  7  8  1  0  0  0  0
  8  9  2  0  0  0  0
  8 35  1  0  0  0  0
  9 10  1  0  0  0  0
 10 14  1  0  0  0  0
 10 11  2  0  0  0  0
 11 12  1  0  0  0  0
 12 13  2  0  0  0  0
 13 14  1  0  0  0  0
 13 36  1  0  0  0  0
 14 15  1  0  0  0  0
 15 16  1  0  0  0  0
 15 37  1  0  0  0  0
 15 38  1  0  0  0  0
 16 21  1  0  0  0  0
 16 17  1  0  0  0  0
 16 19  1  0  0  0  0
 17 18  1  0  0  0  0
 17 39  1  0  0  0  0
 17 40  1  0  0  0  0
 18 41  1  0  0  0  0
 19 20  1  0  0  0  0
 19 42  1  0  0  0  0
 19 43  1  0  0  0  0
 20 21  1  0  0  0  0
 21 44  1  0  0  0  0
 21 45  1  0  0  0  0
 22 27  1  0  0  0  0
 22 23  1  0  0  0  0
 22 46  1  0  0  0  0
 23 24  1  0  0  0  0
 23 47  1  0  0  0  0
 23 48  1  0  0  0  0
 24 25  1  0  0  0  0
 24 49  1  0  0  0  0
 24 50  1  0  0  0  0
 25 26  1  0  0  0  0
 25 27  1  0  0  0  0
 25 51  1  0  0  0  0
 26 52  1  0  0  0  0
 26 53  1  0  0  0  0
 26 54  1  0  0  0  0
 27 55  1  0  0  0  0
 27 56  1  0  0  0  0
M  END
> <s_m_source_file>
AV-unprocessed.smi

> <i_m_source_file_index>
200

> <i_lp_mmshare_version>
43012

> <i_f3d_flags>
0

> <s_epik_input>
W0NIM11bQ0BASF0oW0NIMl0xKVtDSDJdW0NIMl1bQ0BIXTFOKFtDSDJdW0NIMl1PW0NIM10pYyhuW2NIXW4yKWMoYzIzKW5bY0hdbjNbQ0gyXUM0KFtDSDJdW09IXSlbQ0gyXU9bQ0gyXTQ=

> <s_epik_cmdline>
J2VwaWtfcHl0aG9uJywgJy1waCcsICc3LjAnLCAnLXRuJywgJzgnLCAnLW1hJywgJzIwMCcsICctbWV0YWxfYmluZGluZycsICctaW1hZScsICc8aW5maWxlLm1hZT4nLCAnLW9tYWUnLCAnPG91dGZpbGUubWFlPic=

> <r_lp_tautomer_probability>
1

> <r_epik_Ionization_Penalty>
0.00363087

> <r_epik_Ionization_Penalty_Charging>
0

> <r_epik_Ionization_Penalty_Neutral>
0.00363087

> <r_epik_State_Penalty>
0.0024341

> <r_epik_Charging_Adjusted_Penalty>
0.0024341

> <i_epik_Tot_Q>
0

> <i_epik_Tot_abs_Q>
0

> <r_epik_Metal_State_Penalty>
-0

> <b_epik_Metal_Only>
0

> <s_lp_Force_Field>
OPLS_2005

> <r_lp_Energy>
51.1688

> <b_lp_Chiralities_Consistent>
1

> <s_lp_Variant>
AV-unprocessed.smi:200-3

> <Gold.Version>
5.8.1

> <Gold.Id.Protein>
6NUR|6NUR_protein|mol2

> <Gold.PLP.Fitness>
45.6482

> <Gold.PLP.PLP>
-37.0498

> <Gold.PLP.part.hbond>
-4.0000

> <Gold.PLP.part.metal>
0.0000

> <Gold.PLP.part.buried>
-4.5068

> <Gold.PLP.part.nonpolar>
-28.3981

> <Gold.PLP.part.repulsive>
0.0833

> <Gold.PLP.ligand.clash>
0.0000

> <Gold.PLP.ligand.torsion>
1.7030

> <Gold.PLP.Chemscore.Hbond>
3.5224

> <Gold.PLP.Chemscore.CHOScore>
0.0000

> <Gold.PLP.Chemscore.Metal>
0.0000

> <Gold.Chemscore.Hbonds>
donor molecule, donor type, donor heavy atom, donor atom, acceptor molecule, acceptor atom, score
      L1  H    18    41       P1  7948  0.40
      P1  H  6896  6908       L1    20  1.00
      P1  H  7997  8009       L1     2  0.95
      P1  H  7997  8010       L1     7  1.00

> <Gold.PLP.Chemscore.Internal.Correction>
1.4373

> <Gold.Rescore>
     Score         DG    S(hbond)    S(metal)    S(lipo)     H(rot)  DE(clash)    DE(int)     intcor
     16.06     -18.00       2.92        0.00      95.28       3.28       0.04       1.90       ----

> <Gold.Chemscore.Fitness>
16.0583

> <Gold.Chemscore.DG>
-17.9967

> <Gold.Chemscore.ZeroCoef>
-5.4800

> <Gold.Chemscore.Hbond>
2.9208

> <Gold.Chemscore.Metal>
0.0000

> <Gold.Chemscore.Lipo>
95.2816

> <Gold.Chemscore.Internal_Hbond>
0.0000

> <Gold.Chemscore.DEClash>
0.0370

> <Gold.Chemscore.DEInternal>
1.9014

> <Gold.Chemscore.Rot>
3.2761

> <Gold.Chemscore.Internal.Correction>
   9.000000E+99

> <Gold.Chemscore.Hbonds>
donor molecule, donor type, donor heavy atom, donor atom, acceptor molecule, acceptor atom, score
      L1  H    18    41       P1  7948  0.31
      P1  H  6896  6908       L1    20  0.95
      P1  H  7997  8009       L1     2  0.21
      P1  H  7997  8010       L1     7  0.80

> <Gold.Chemscore.Hbond.Weighted>
-9.7556

> <Gold.Chemscore.Metal.Weighted>
-0.0000

> <Gold.Chemscore.Lipo.Weighted>
-11.1479

> <Gold.Chemscore.Internal_Hbond.Weighted>
0.0000

> <Gold.Chemscore.DEClash.Weighted>
0.0370

> <Gold.Chemscore.DEInternal.Weighted>
1.9014

> <Gold.Chemscore.Rot.Weighted>
8.3868

> <Gold.Chemscore.Internal.Correction.Weighted>
   9.000000E+99

> <Gold.Protein.RotatedTorsions>
[ 6907 6896 6895 6894 ] final  141.48 input  -60.11 | X-H torsion
[ 7974 7965 7964 7962 ] final   32.83 input  175.53 | X-H torsion
[ 8008 7997 7996 7995 ] final   92.77 input   59.86 | X-H torsion
[ 10167 10162 10161 10158 ] final    2.21 input  -65.29 | X-H torsion
[ 10718 10713 10712 10709 ] final -132.71 input   66.30 | X-H torsion
[ 10763 10752 10751 10750 ] final  -37.62 input  -60.55 | X-H torsion
[ 11005 11000 10999 10996 ] final  -64.51 input  -57.11 | X-H torsion

> <Gold.Protein.ActiveResidues>
 VAL166  LYS551  ARG553  GLY616  TRP617  ASP618  TYR619  PRO620  LYS621  CYS622 
 ASP623  PHE694  ASN695  SER759  ASP760  ASP761  ALA762  ILE779  LEU786  VAL792 
 PHE793  MET794  SER795  GLU796  ALA797  LYS798  CYS799  TRP800  GLU811  SER814 

> <Gold.Protein.RotatedAtoms>
  152.2304  133.5054  159.5212 H   0  0  0  0  0  0  0  0  0  0  0  0  # atno 6907 bound_to 6896
  150.7036  134.1223  159.4048 H   0  0  0  0  0  0  0  0  0  0  0  0  # atno 6908 bound_to 6896
  151.9145  135.0325  160.0568 H   0  0  0  0  0  0  0  0  0  0  0  0  # atno 6909 bound_to 6896
  146.1461  139.6475  142.9130 H   0  0  0  0  0  0  0  0  0  0  0  0  # atno 7974 bound_to 7965
  156.0392  140.3321  155.7225 H   0  0  0  0  0  0  0  0  0  0  0  0  # atno 8008 bound_to 7997
  155.5770  140.0633  157.2810 H   0  0  0  0  0  0  0  0  0  0  0  0  # atno 8009 bound_to 7997
  154.4386  140.1850  156.0925 H   0  0  0  0  0  0  0  0  0  0  0  0  # atno 8010 bound_to 7997
  140.6646  143.7214  150.7802 H   0  0  0  0  0  0  0  0  0  0  0  0  # atno 10167 bound_to 10162
  156.2373  130.7074  151.0921 H   0  0  0  0  0  0  0  0  0  0  0  0  # atno 10718 bound_to 10713
  153.8993  135.6804  153.4756 H   0  0  0  0  0  0  0  0  0  0  0  0  # atno 10763 bound_to 10752
  153.1138  135.4771  154.9078 H   0  0  0  0  0  0  0  0  0  0  0  0  # atno 10764 bound_to 10752
  154.7583  135.3203  154.8381 H   0  0  0  0  0  0  0  0  0  0  0  0  # atno 10765 bound_to 10752
  141.1427  133.6667  156.5845 H   0  0  0  0  0  0  0  0  0  0  0  0  # atno 11005 bound_to 11000
  145.4934  141.0438  143.2580 LP  0  0  0  0  0  0  0  0  0  0  0  0  # atno 17320 bound_to 7965
  144.7848  139.6450  143.7139 LP  0  0  0  0  0  0  0  0  0  0  0  0  # atno 17321 bound_to 7965
  140.0888  143.4897  152.2490 LP  0  0  0  0  0  0  0  0  0  0  0  0  # atno 17342 bound_to 10162
  139.5890  144.7543  151.3447 LP  0  0  0  0  0  0  0  0  0  0  0  0  # atno 17343 bound_to 10162
  157.7160  131.0709  150.6324 LP  0  0  0  0  0  0  0  0  0  0  0  0  # atno 17370 bound_to 10713
  156.6395  130.4454  149.5757 LP  0  0  0  0  0  0  0  0  0  0  0  0  # atno 17371 bound_to 10713
  140.3812  134.7522  157.4662 LP  0  0  0  0  0  0  0  0  0  0  0  0  # atno 17394 bound_to 11000
  140.0636  134.5960  155.8720 LP  0  0  0  0  0  0  0  0  0  0  0  0  # atno 17395 bound_to 11000

$$$$
