#       Name:                AV-unprocessed.smi:2639
#       Creating user name   scv26
#       Creation time:       Fri Mar 27 14:27:40 2020


#       File generated by GOLD software.
#

@<TRIPOS>MOLECULE
AV-unprocessed.smi:2639
    48    49     1
SMALL
NO_CHARGES


@<TRIPOS>ATOM
      1 ****         0.1129  -0.3099   2.6687 C.3            1 S1                 0.0000
      2 ****         0.6314   0.3546   1.3677 C.3            1 S1                 0.0000
      3 ****         2.1880   0.3833   1.4145 C.3            1 S1                 0.0000
      4 ****         2.6809   1.2816   2.3885 O.3            1 S1                 0.0000
      5 ****         0.1929  -0.4281   0.2011 N.am           1 S1                 0.0000
      6 ****         0.4521  -1.7115  -0.1018 C.2            1 S1                 0.0000
      7 ****         1.1264  -2.4628   0.6015 O.2            1 S1                 0.0000
      8 ****        -0.1393  -2.0582  -1.2585 N.am           1 S1                 0.0000
      9 ****        -0.0890  -3.3020  -1.9451 C.ar           1 S1                 0.0000
     10 ****        -1.1017  -3.5731  -2.8885 C.ar           1 S1                 0.0000
     11 ****        -1.0640  -4.7921  -3.5947 C.ar           1 S1                 0.0000
     12 ****        -0.0977  -5.7186  -3.4235 N.ar           1 S1                 0.0000
     13 ****         0.8795  -5.4510  -2.5315 C.ar           1 S1                 0.0000
     14 ****         0.9352  -4.2643  -1.7734 C.ar           1 S1                 0.0000
     15 ****         0.0311   1.7978   1.2156 C.3            1 S1                 0.0000
     16 ****        -1.5216   1.8250   1.1868 C.3            1 S1                 0.0000
     17 ****        -2.0786   3.2547   1.0930 C.3            1 S1                 0.0000
     18 ****        -1.5232   3.9915  -0.1319 C.3            1 S1                 0.0000
     19 ****         0.0100   3.9942  -0.1114 C.3            1 S1                 0.0000
     20 ****         0.5714   2.5662  -0.0210 C.3            1 S1                 0.0000
     21 ****         0.2483   0.3468   3.5286 H              1 S1                 0.0000
     22 ****         0.6428  -1.2359   2.8921 H              1 S1                 0.0000
     23 ****        -0.9453  -0.5629   2.6089 H              1 S1                 0.0000
     24 ****         2.5936  -0.6010   1.6478 H              1 S1                 0.0000
     25 ****         2.6082   0.6566   0.4465 H              1 S1                 0.0000
     26 ****         3.6251   1.2438   2.3807 H              1 S1                 0.0000
     27 ****        -0.3819   0.0785  -0.4560 H              1 S1                 0.0000
     28 ****        -0.7349  -1.3593  -1.6776 H              1 S1                 0.0000
     29 ****        -1.8980  -2.8653  -3.0676 H              1 S1                 0.0000
     30 ****        -1.8300  -5.0279  -4.3185 H              1 S1                 0.0000
     31 ****         1.6464  -6.2036  -2.4221 H              1 S1                 0.0000
     32 ****         1.7603  -4.1142  -1.0945 H              1 S1                 0.0000
     33 ****         0.3284   2.3689   2.0962 H              1 S1                 0.0000
     34 ****        -1.8962   1.2431   0.3442 H              1 S1                 0.0000
     35 ****        -1.9334   1.3661   2.0845 H              1 S1                 0.0000
     36 ****        -3.1675   3.2255   1.0449 H              1 S1                 0.0000
     37 ****        -1.8241   3.8063   1.9990 H              1 S1                 0.0000
     38 ****        -1.8785   3.5104  -1.0440 H              1 S1                 0.0000
     39 ****        -1.8980   5.0152  -0.1535 H              1 S1                 0.0000
     40 ****         0.3915   4.4864  -1.0065 H              1 S1                 0.0000
     41 ****         0.3642   4.5801   0.7380 H              1 S1                 0.0000
     42 ****         1.6575   2.6384   0.0120 H              1 S1                 0.0000
     43 ****         0.3268   2.0279  -0.9372 H              1 S1                 0.0000
     44 ****         2.3402   1.0201   3.2916 LP             1 S1                 0.0000
     45 ****         2.3787   2.2105   2.1743 LP             1 S1                 0.0000
     46 ****         1.5196  -2.1273   1.4575 LP             1 S1                 0.0000
     47 ****         1.2812  -3.4089   0.3170 LP             1 S1                 0.0000
     48 ****        -0.1054  -6.5748  -3.9402 LP             1 S1                 0.0000
@<TRIPOS>BOND
    1    1    2 1     
    2    1   21 1     
    3    1   22 1     
    4    1   23 1     
    5    2    3 1     
    6    2    5 1     
    7    2   15 1     
    8    3    4 1     
    9    3   24 1     
   10    3   25 1     
   11    4   26 1     
   12    5    6 am    
   13    5   27 1     
   14    6    7 2     
   15    6    8 am    
   16    8    9 1     
   17    8   28 1     
   18    9   14 ar    
   19    9   10 ar    
   20   10   11 ar    
   21   10   29 1     
   22   11   12 ar    
   23   11   30 1     
   24   12   13 ar    
   25   13   14 ar    
   26   13   31 1     
   27   14   32 1     
   28   15   20 1     
   29   15   16 1     
   30   15   33 1     
   31   16   17 1     
   32   16   34 1     
   33   16   35 1     
   34   17   18 1     
   35   17   36 1     
   36   17   37 1     
   37   18   19 1     
   38   18   38 1     
   39   18   39 1     
   40   19   20 1     
   41   19   40 1     
   42   19   41 1     
   43   20   42 1     
   44   20   43 1     
   45    4   44 1     
   46    4   45 1     
   47    7   46 1     
   48    7   47 1     
   49   12   48 1     
@<TRIPOS>SUBSTRUCTURE
      1 S1             1
@<TRIPOS>SET
LONE_PAIRS      STATIC     ATOMS    <user>   **** ""
5 44 45 46 47 48
DONOR_HYDROGENS      STATIC     ATOMS    <user>   **** ""
3 26 27 28
ATOM$BLUE        STATIC     ATOMS    COLORGROUP SYSTEM
5 44 45 46 47 48
ATOM$RED        STATIC     ATOMS    COLORGROUP SYSTEM
3 26 27 28
