AV-unprocessed.smi:1251|AV-procd|sdf|5262|dock10
  -GOLD-   22720 4373D 1   1.00000     0.00000
 Structure written by MMmdl.
 38 39  0  0  0  0  0  0  0  0  2 V2000
  146.8000  139.0015  152.0833 C   0  0  0  0  0  0  0  0  0  0  0  0
  146.8597  140.2507  152.9688 C   0  0  0  0  0  0  0  0  0  0  0  0
  148.1354  140.3093  153.8205 C   0  0  0  0  0  0  0  0  0  0  0  0
  147.9304  141.0334  155.1089 C   0  0  0  0  0  0  0  0  0  0  0  0
  148.9217  141.2729  155.9711 N   0  0  0  0  0  0  0  0  0  0  0  0
  148.4898  141.9871  157.0791 N   0  0  0  0  0  0  0  0  0  0  0  0
  147.1832  142.2836  157.0370 C   0  0  0  0  0  0  0  0  0  0  0  0
  146.5708  142.9769  158.0109 N   0  5  0  0  0  0  0  0  0  0  0  0
  147.2206  143.2350  159.1687 C   0  0  0  0  0  0  0  0  0  0  0  0
  146.8831  142.8617  160.2945 O   0  0  0  0  0  0  0  0  0  0  0  0
  148.3292  143.9717  159.0104 N   0  0  0  0  0  0  0  0  0  0  0  0
  149.2493  144.3947  160.0656 C   0  0  2  0  0  0  0  0  0  0  0  0
  148.5291  145.3058  161.0726 C   0  0  0  0  0  0  0  0  0  0  0  0
  150.4928  145.0715  159.4534 C   0  0  1  0  0  0  0  0  0  0  0  0
  151.7553  145.0000  160.3313 C   0  0  0  0  0  0  0  0  0  0  0  0
  152.7092  144.1355  159.5305 C   0  0  0  0  0  0  0  0  0  0  0  0
  152.2514  144.3944  158.1033 C   0  0  0  0  0  0  0  0  0  0  0  0
  150.8389  144.4372  158.2219 O   0  0  0  0  0  0  0  0  0  0  0  0
  146.3776  141.7036  155.5795 S   0  0  0  0  0  0  0  0  0  0  0  0
  145.8866  138.9910  151.4884 H   0  0  0  0  0  0  0  0  0  0  0  0
  146.8163  138.0920  152.6844 H   0  0  0  0  0  0  0  0  0  0  0  0
  147.6454  138.9653  151.3957 H   0  0  0  0  0  0  0  0  0  0  0  0
  146.7989  141.1401  152.3404 H   0  0  0  0  0  0  0  0  0  0  0  0
  145.9846  140.2720  153.6193 H   0  0  0  0  0  0  0  0  0  0  0  0
  148.4843  139.3005  154.0423 H   0  0  0  0  0  0  0  0  0  0  0  0
  148.9355  140.8005  153.2653 H   0  0  0  0  0  0  0  0  0  0  0  0
  148.5624  144.2561  158.0702 H   0  0  0  0  0  0  0  0  0  0  0  0
  149.5981  143.5126  160.6053 H   0  0  0  0  0  0  0  0  0  0  0  0
  149.2016  145.6129  161.8735 H   0  0  0  0  0  0  0  0  0  0  0  0
  147.6837  144.7933  161.5328 H   0  0  0  0  0  0  0  0  0  0  0  0
  148.1485  146.2076  160.5922 H   0  0  0  0  0  0  0  0  0  0  0  0
  150.2709  146.1192  159.2457 H   0  0  0  0  0  0  0  0  0  0  0  0
  152.1744  145.9993  160.4545 H   0  0  0  0  0  0  0  0  0  0  0  0
  151.5718  144.5965  161.3279 H   0  0  0  0  0  0  0  0  0  0  0  0
  153.7573  144.3849  159.6966 H   0  0  0  0  0  0  0  0  0  0  0  0
  152.5621  143.0846  159.7834 H   0  0  0  0  0  0  0  0  0  0  0  0
  152.6179  145.3575  157.7446 H   0  0  0  0  0  0  0  0  0  0  0  0
  152.5734  143.6192  157.4078 H   0  0  0  0  0  0  0  0  0  0  0  0
  1  2  1  0  0  0  0
  1 20  1  0  0  0  0
  1 21  1  0  0  0  0
  1 22  1  0  0  0  0
  2  3  1  0  0  0  0
  2 23  1  0  0  0  0
  2 24  1  0  0  0  0
  3  4  1  0  0  0  0
  3 25  1  0  0  0  0
  3 26  1  0  0  0  0
  4 19  1  0  0  0  0
  4  5  2  0  0  0  0
  5  6  1  0  0  0  0
  6  7  2  0  0  0  0
  7  8  1  0  0  0  0
  7 19  1  0  0  0  0
  8  9  1  0  0  0  0
  9 10  2  0  0  0  0
  9 11  1  0  0  0  0
 11 12  1  0  0  0  0
 11 27  1  0  0  0  0
 12 13  1  0  0  0  0
 12 14  1  0  0  0  0
 12 28  1  0  0  0  0
 13 29  1  0  0  0  0
 13 30  1  0  0  0  0
 13 31  1  0  0  0  0
 14 18  1  0  0  0  0
 14 15  1  0  0  0  0
 14 32  1  0  0  0  0
 15 16  1  0  0  0  0
 15 33  1  0  0  0  0
 15 34  1  0  0  0  0
 16 17  1  0  0  0  0
 16 35  1  0  0  0  0
 16 36  1  0  0  0  0
 17 18  1  0  0  0  0
 17 37  1  0  0  0  0
 17 38  1  0  0  0  0
M  CHG  1   8  -1
M  END
> <s_m_source_file>
AV-unprocessed.smi

> <i_m_source_file_index>
1251

> <i_lp_mmshare_version>
43012

> <i_f3d_flags>
0

> <s_epik_input>
W0NIM11bQ0gyXVtDSDJdYzFubmMoczEpW05IXUMoPU8pW05IXVtDQEhdKFtDSDNdKVtDQEBIXTJbQ0gyXVtDSDJdW0NIMl1PMg==

> <s_epik_cmdline>
J2VwaWtfcHl0aG9uJywgJy1waCcsICc3LjAnLCAnLXRuJywgJzgnLCAnLW1hJywgJzIwMCcsICctbWV0YWxfYmluZGluZycsICctaW1hZScsICc8aW5maWxlLm1hZT4nLCAnLW9tYWUnLCAnPG91dGZpbGUubWFlPic=

> <r_lp_tautomer_probability>
1

> <r_epik_Ionization_Penalty>
4.22551

> <r_epik_Ionization_Penalty_Charging>
4.21437

> <r_epik_Ionization_Penalty_Neutral>
0.0111434

> <r_epik_State_Penalty>
4.21389

> <r_epik_Charging_Adjusted_Penalty>
8.42826

> <i_epik_Tot_Q>
-1

> <i_epik_Tot_abs_Q>
1

> <r_epik_Metal_State_Penalty>
0.69377

> <b_epik_Metal_Only>
1

> <s_lp_Force_Field>
OPLS_2005

> <r_lp_Energy>
12.7313

> <b_lp_Chiralities_Consistent>
1

> <s_lp_Variant>
AV-unprocessed.smi:1251-7

> <Gold.Version>
5.8.1

> <Gold.Id.Protein>
6NUR|6NUR_protein|mol2

> <Gold.PLP.Fitness>
39.8436

> <Gold.PLP.PLP>
-35.7846

> <Gold.PLP.part.hbond>
-3.0000

> <Gold.PLP.part.metal>
0.0000

> <Gold.PLP.part.buried>
-2.7671

> <Gold.PLP.part.nonpolar>
-31.9395

> <Gold.PLP.part.repulsive>
0.9234

> <Gold.PLP.ligand.clash>
0.0000

> <Gold.PLP.ligand.torsion>
1.3071

> <Gold.PLP.Chemscore.Hbond>
2.1866

> <Gold.PLP.Chemscore.CHOScore>
0.0000

> <Gold.PLP.Chemscore.Metal>
0.0000

> <Gold.Chemscore.Hbonds>
donor molecule, donor type, donor heavy atom, donor atom, acceptor molecule, acceptor atom, score
      L1  H    11    27       P1  8029  0.39
      P1  H  6933  6944       L1    10  0.89
      P1  H  6934  6946       L1    10  0.90

> <Gold.PLP.Chemscore.Internal.Correction>
0.1135

> <Gold.Rescore>
     Score         DG    S(hbond)    S(metal)    S(lipo)     H(rot)  DE(clash)    DE(int)     intcor
     16.42     -18.11       1.64        0.00      94.86       1.55       0.30       1.39       ----

> <Gold.Chemscore.Fitness>
16.4194

> <Gold.Chemscore.DG>
-18.1097

> <Gold.Chemscore.ZeroCoef>
-5.4800

> <Gold.Chemscore.Hbond>
1.6441

> <Gold.Chemscore.Metal>
0.0000

> <Gold.Chemscore.Lipo>
94.8569

> <Gold.Chemscore.Internal_Hbond>
0.0000

> <Gold.Chemscore.DEClash>
0.2969

> <Gold.Chemscore.DEInternal>
1.3935

> <Gold.Chemscore.Rot>
1.5469

> <Gold.Chemscore.Internal.Correction>
   9.000000E+99

> <Gold.Chemscore.Hbonds>
donor molecule, donor type, donor heavy atom, donor atom, acceptor molecule, acceptor atom, score
      L1  H    11    27       P1  8029  0.07
      P1  H  6933  6944       L1    10  0.67
      P1  H  6934  6946       L1    10  0.80

> <Gold.Chemscore.Hbond.Weighted>
-5.4915

> <Gold.Chemscore.Metal.Weighted>
-0.0000

> <Gold.Chemscore.Lipo.Weighted>
-11.0983

> <Gold.Chemscore.Internal_Hbond.Weighted>
0.0000

> <Gold.Chemscore.DEClash.Weighted>
0.2969

> <Gold.Chemscore.DEInternal.Weighted>
1.3935

> <Gold.Chemscore.Rot.Weighted>
3.9600

> <Gold.Chemscore.Internal.Correction.Weighted>
   9.000000E+99

> <Gold.Protein.RotatedTorsions>
[ 6907 6896 6895 6894 ] final    1.32 input  -60.11 | X-H torsion
[ 7974 7965 7964 7962 ] final   56.16 input  175.53 | X-H torsion
[ 8008 7997 7996 7995 ] final  140.85 input   59.86 | X-H torsion
[ 10167 10162 10161 10158 ] final  -89.77 input  -65.29 | X-H torsion
[ 10718 10713 10712 10709 ] final -105.86 input   66.30 | X-H torsion
[ 10763 10752 10751 10750 ] final -165.03 input  -60.55 | X-H torsion
[ 11005 11000 10999 10996 ] final  114.99 input  -57.11 | X-H torsion

> <Gold.Protein.ActiveResidues>
 VAL166  LYS551  ARG553  GLY616  TRP617  ASP618  TYR619  PRO620  LYS621  CYS622 
 ASP623  PHE694  ASN695  SER759  ASP760  ASP761  ALA762  ILE779  LEU786  VAL792 
 PHE793  MET794  SER795  GLU796  ALA797  LYS798  CYS799  TRP800  GLU811  SER814 

> <Gold.Protein.RotatedAtoms>
  151.5907  135.1053  160.0037 H   0  0  0  0  0  0  0  0  0  0  0  0  # atno 6907 bound_to 6896
  152.4308  133.7270  159.6576 H   0  0  0  0  0  0  0  0  0  0  0  0  # atno 6908 bound_to 6896
  150.8200  133.8198  159.3166 H   0  0  0  0  0  0  0  0  0  0  0  0  # atno 6909 bound_to 6896
  145.9428  139.3903  143.0353 H   0  0  0  0  0  0  0  0  0  0  0  0  # atno 7974 bound_to 7965
  156.2974  140.2330  156.4469 H   0  0  0  0  0  0  0  0  0  0  0  0  # atno 8008 bound_to 7997
  154.8136  140.0441  157.1381 H   0  0  0  0  0  0  0  0  0  0  0  0  # atno 8009 bound_to 7997
  154.9395  140.3027  155.5131 H   0  0  0  0  0  0  0  0  0  0  0  0  # atno 8010 bound_to 7997
  140.3615  143.2839  151.9609 H   0  0  0  0  0  0  0  0  0  0  0  0  # atno 10167 bound_to 10162
  156.0364  130.5584  150.7599 H   0  0  0  0  0  0  0  0  0  0  0  0  # atno 10718 bound_to 10713
  154.6972  135.2981  154.9395 H   0  0  0  0  0  0  0  0  0  0  0  0  # atno 10763 bound_to 10752
  154.0339  135.6666  153.4787 H   0  0  0  0  0  0  0  0  0  0  0  0  # atno 10764 bound_to 10752
  153.0654  135.5091  154.8096 H   0  0  0  0  0  0  0  0  0  0  0  0  # atno 10765 bound_to 10752
  139.8996  134.9577  156.6977 H   0  0  0  0  0  0  0  0  0  0  0  0  # atno 11005 bound_to 11000
  145.8277  140.9647  143.0865 LP  0  0  0  0  0  0  0  0  0  0  0  0  # atno 17320 bound_to 7965
  144.6782  140.0123  143.7484 LP  0  0  0  0  0  0  0  0  0  0  0  0  # atno 17321 bound_to 7965
  139.4813  144.5988  151.7642 LP  0  0  0  0  0  0  0  0  0  0  0  0  # atno 17342 bound_to 10162
  140.5122  144.1007  150.5998 LP  0  0  0  0  0  0  0  0  0  0  0  0  # atno 17343 bound_to 10162
  157.5121  131.0926  151.0185 LP  0  0  0  0  0  0  0  0  0  0  0  0  # atno 17370 bound_to 10713
  157.0538  130.5797  149.5374 LP  0  0  0  0  0  0  0  0  0  0  0  0  # atno 17371 bound_to 10713
  140.7175  133.9169  155.8125 LP  0  0  0  0  0  0  0  0  0  0  0  0  # atno 17394 bound_to 11000
  141.0253  134.0832  157.4075 LP  0  0  0  0  0  0  0  0  0  0  0  0  # atno 17395 bound_to 11000

$$$$
