AV-unprocessed.smi:2140|AV-procd|sdf|8717|dock10
  -GOLD-   2272011483D 1   1.00000     0.00000
 Structure written by MMmdl.
 40 41  0  0  0  0  0  0  0  0  2 V2000
  147.8101  139.9577  153.9615 C   0  0  0  0  0  0  0  0  0  0  0  0
  147.7221  138.4133  154.0288 C   0  0  1  0  0  0  0  0  0  0  0  0
  146.8807  137.8758  152.8396 C   0  0  0  0  0  0  0  0  0  0  0  0
  145.4726  138.2562  152.9145 N   0  0  0  0  0  0  0  0  0  0  0  0
  144.4729  137.4244  153.2403 C   0  0  0  0  0  0  0  0  0  0  0  0
  144.6438  136.2339  153.5025 O   0  0  0  0  0  0  0  0  0  0  0  0
  143.2873  138.0567  153.2253 N   0  0  0  0  0  0  0  0  0  0  0  0
  142.0040  137.5388  153.5499 C   0  0  0  0  0  0  0  0  0  0  0  0
  140.7949  138.2660  153.4261 C   0  0  0  0  0  0  0  0  0  0  0  0
  139.5831  137.6315  153.7605 C   0  0  0  0  0  0  0  0  0  0  0  0
  139.6223  136.2939  154.1992 C   0  0  0  0  0  0  0  0  0  0  0  0
  140.7653  135.5849  154.3093 N   0  0  0  0  0  0  0  0  0  0  0  0
  141.9233  136.1993  153.9861 C   0  0  0  0  0  0  0  0  0  0  0  0
  149.0617  137.7394  154.0671 N   0  3  0  0  0  0  0  0  0  0  0  0
  150.2218  138.6308  154.3473 C   0  0  0  0  0  0  0  0  0  0  0  0
  151.5438  137.8433  154.3389 C   0  0  0  0  0  0  0  0  0  0  0  0
  151.4811  136.7813  155.2787 O   0  0  0  0  0  0  0  0  0  0  0  0
  150.4477  135.8626  154.9567 C   0  0  0  0  0  0  0  0  0  0  0  0
  149.0901  136.5822  155.0036 C   0  0  0  0  0  0  0  0  0  0  0  0
  146.8233  140.4170  153.9062 H   0  0  0  0  0  0  0  0  0  0  0  0
  148.3719  140.2871  153.0869 H   0  0  0  0  0  0  0  0  0  0  0  0
  148.2791  140.3800  154.8501 H   0  0  0  0  0  0  0  0  0  0  0  0
  147.2109  138.1711  154.9620 H   0  0  0  0  0  0  0  0  0  0  0  0
  147.2810  138.2626  151.9019 H   0  0  0  0  0  0  0  0  0  0  0  0
  146.9284  136.7907  152.7602 H   0  0  0  0  0  0  0  0  0  0  0  0
  145.2457  139.2178  152.7058 H   0  0  0  0  0  0  0  0  0  0  0  0
  143.2964  139.0131  152.9021 H   0  0  0  0  0  0  0  0  0  0  0  0
  140.7690  139.2841  153.0704 H   0  0  0  0  0  0  0  0  0  0  0  0
  138.6435  138.1577  153.6780 H   0  0  0  0  0  0  0  0  0  0  0  0
  138.7108  135.7783  154.4624 H   0  0  0  0  0  0  0  0  0  0  0  0
  142.8173  135.6005  154.0835 H   0  0  0  0  0  0  0  0  0  0  0  0
  150.3042  139.4116  153.5922 H   0  0  0  0  0  0  0  0  0  0  0  0
  150.0839  139.1199  155.3130 H   0  0  0  0  0  0  0  0  0  0  0  0
  151.7574  137.4519  153.3428 H   0  0  0  0  0  0  0  0  0  0  0  0
  152.3724  138.4999  154.6053 H   0  0  0  0  0  0  0  0  0  0  0  0
  150.6238  135.4210  153.9743 H   0  0  0  0  0  0  0  0  0  0  0  0
  150.4643  135.0469  155.6798 H   0  0  0  0  0  0  0  0  0  0  0  0
  148.8947  136.9309  156.0190 H   0  0  0  0  0  0  0  0  0  0  0  0
  148.3111  135.8605  154.7650 H   0  0  0  0  0  0  0  0  0  0  0  0
  149.2186  137.3708  153.1397 H   0  0  0  0  0  0  0  0  0  0  0  0
  1  2  1  0  0  0  0
  1 20  1  0  0  0  0
  1 21  1  0  0  0  0
  1 22  1  0  0  0  0
  2  3  1  0  0  0  0
  2 14  1  0  0  0  0
  2 23  1  0  0  0  0
  3  4  1  0  0  0  0
  3 24  1  0  0  0  0
  3 25  1  0  0  0  0
  4  5  1  0  0  0  0
  4 26  1  0  0  0  0
  5  6  2  0  0  0  0
  5  7  1  0  0  0  0
  7  8  1  0  0  0  0
  7 27  1  0  0  0  0
  8 13  1  0  0  0  0
  8  9  2  0  0  0  0
  9 10  1  0  0  0  0
  9 28  1  0  0  0  0
 10 11  2  0  0  0  0
 10 29  1  0  0  0  0
 11 12  1  0  0  0  0
 11 30  1  0  0  0  0
 12 13  2  0  0  0  0
 13 31  1  0  0  0  0
 14 19  1  0  0  0  0
 14 15  1  0  0  0  0
 14 40  1  0  0  0  0
 15 16  1  0  0  0  0
 15 32  1  0  0  0  0
 15 33  1  0  0  0  0
 16 17  1  0  0  0  0
 16 34  1  0  0  0  0
 16 35  1  0  0  0  0
 17 18  1  0  0  0  0
 18 19  1  0  0  0  0
 18 36  1  0  0  0  0
 18 37  1  0  0  0  0
 19 38  1  0  0  0  0
 19 39  1  0  0  0  0
M  CHG  1  14   1
M  END
> <s_m_source_file>
AV-unprocessed.smi

> <i_m_source_file_index>
2140

> <i_lp_mmshare_version>
43012

> <i_f3d_flags>
0

> <s_epik_input>
W0NIMl0xW0NIMl1PW0NIMl1bQ0gyXU4xW0NASF0oW0NIM10pW0NIMl1bTkhdQyg9TylbTkhdYzJbY0hdW2NIXVtjSF1uW2NIXTI=

> <s_epik_cmdline>
J2VwaWtfcHl0aG9uJywgJy1waCcsICc3LjAnLCAnLXRuJywgJzgnLCAnLW1hJywgJzIwMCcsICctbWV0YWxfYmluZGluZycsICctaW1hZScsICc8aW5maWxlLm1hZT4nLCAnLW9tYWUnLCAnPG91dGZpbGUubWFlPic=

> <r_epik_Ionization_Penalty>
0.60672

> <r_epik_Ionization_Penalty_Charging>
0.602531

> <r_epik_Ionization_Penalty_Neutral>
0.00418997

> <r_epik_State_Penalty>
0.607459

> <r_epik_Charging_Adjusted_Penalty>
1.20999

> <i_epik_Tot_Q>
1

> <i_epik_Tot_abs_Q>
1

> <r_epik_Metal_State_Penalty>
0.604586

> <b_epik_Metal_Only>
0

> <s_lp_Force_Field>
OPLS_2005

> <r_lp_Energy>
23.4588

> <b_lp_Chiralities_Consistent>
1

> <s_lp_Variant>
AV-unprocessed.smi:2140-4

> <Gold.Version>
5.8.1

> <Gold.Id.Protein>
6NUR|6NUR_protein|mol2

> <Gold.PLP.Fitness>
43.8014

> <Gold.PLP.PLP>
-28.9878

> <Gold.PLP.part.hbond>
-4.9314

> <Gold.PLP.part.metal>
0.0000

> <Gold.PLP.part.buried>
-2.3216

> <Gold.PLP.part.nonpolar>
-23.4332

> <Gold.PLP.part.repulsive>
0.3091

> <Gold.PLP.ligand.clash>
0.0000

> <Gold.PLP.ligand.torsion>
1.3017

> <Gold.PLP.Chemscore.Hbond>
5.7908

> <Gold.PLP.Chemscore.CHOScore>
0.0000

> <Gold.PLP.Chemscore.Metal>
0.0000

> <Gold.Chemscore.Hbonds>
donor molecule, donor type, donor heavy atom, donor atom, acceptor molecule, acceptor atom, score
      L1  H     4    26       P1 10175  0.83
      L1  H     7    27       P1 10175  0.98
      L1  H    14    40       P1  7948  2.00
      P1  H 10752 10765       L1    17  0.81
      P1  H 11000 11005       L1    12  0.94

> <Gold.PLP.Chemscore.Internal.Correction>
0.0448

> <Gold.Rescore>
     Score         DG    S(hbond)    S(metal)    S(lipo)     H(rot)  DE(clash)    DE(int)     intcor
     19.79     -22.41       3.69        0.00      72.73       1.52       0.11       2.52       ----

> <Gold.Chemscore.Fitness>
19.7878

> <Gold.Chemscore.DG>
-22.4132

> <Gold.Chemscore.ZeroCoef>
-5.4800

> <Gold.Chemscore.Hbond>
3.6855

> <Gold.Chemscore.Metal>
0.0000

> <Gold.Chemscore.Lipo>
72.7303

> <Gold.Chemscore.Internal_Hbond>
0.0000

> <Gold.Chemscore.DEClash>
0.1078

> <Gold.Chemscore.DEInternal>
2.5175

> <Gold.Chemscore.Rot>
1.5179

> <Gold.Chemscore.Internal.Correction>
   9.000000E+99

> <Gold.Chemscore.Hbonds>
donor molecule, donor type, donor heavy atom, donor atom, acceptor molecule, acceptor atom, score
      L1  H     4    26       P1 10175  0.79
      L1  H     7    27       P1 10175  0.92
      L1  H    14    40       P1  7948  0.97
      P1  H 10752 10765       L1    17  0.08
      P1  H 11000 11005       L1    12  0.27

> <Gold.Chemscore.Hbond.Weighted>
-12.3096

> <Gold.Chemscore.Metal.Weighted>
-0.0000

> <Gold.Chemscore.Lipo.Weighted>
-8.5094

> <Gold.Chemscore.Internal_Hbond.Weighted>
0.0000

> <Gold.Chemscore.DEClash.Weighted>
0.1078

> <Gold.Chemscore.DEInternal.Weighted>
2.5175

> <Gold.Chemscore.Rot.Weighted>
3.8859

> <Gold.Chemscore.Internal.Correction.Weighted>
   9.000000E+99

> <Gold.Protein.RotatedTorsions>
[ 6907 6896 6895 6894 ] final -120.90 input  -60.11 | X-H torsion
[ 7974 7965 7964 7962 ] final   90.11 input  175.53 | X-H torsion
[ 8008 7997 7996 7995 ] final  128.13 input   59.86 | X-H torsion
[ 10167 10162 10161 10158 ] final -125.47 input  -65.29 | X-H torsion
[ 10718 10713 10712 10709 ] final  -37.92 input   66.30 | X-H torsion
[ 10763 10752 10751 10750 ] final -159.14 input  -60.55 | X-H torsion
[ 11005 11000 10999 10996 ] final   32.76 input  -57.11 | X-H torsion

> <Gold.Protein.ActiveResidues>
 VAL166  LYS551  ARG553  GLY616  TRP617  ASP618  TYR619  PRO620  LYS621  CYS622 
 ASP623  PHE694  ASN695  SER759  ASP760  ASP761  ALA762  ILE779  LEU786  VAL792 
 PHE793  MET794  SER795  GLU796  ALA797  LYS798  CYS799  TRP800  GLU811  SER814 

> <Gold.Protein.RotatedAtoms>
  150.8435  133.7899  159.3051 H   0  0  0  0  0  0  0  0  0  0  0  0  # atno 6907 bound_to 6896
  151.5593  135.1064  159.9978 H   0  0  0  0  0  0  0  0  0  0  0  0  # atno 6908 bound_to 6896
  152.4493  133.7556  159.6774 H   0  0  0  0  0  0  0  0  0  0  0  0  # atno 6909 bound_to 6896
  145.5233  139.2280  143.2659 H   0  0  0  0  0  0  0  0  0  0  0  0  # atno 7974 bound_to 7965
  156.2908  140.2652  156.2386 H   0  0  0  0  0  0  0  0  0  0  0  0  # atno 8008 bound_to 7997
  155.0000  140.0388  157.2374 H   0  0  0  0  0  0  0  0  0  0  0  0  # atno 8009 bound_to 7997
  154.7610  140.2760  155.6219 H   0  0  0  0  0  0  0  0  0  0  0  0  # atno 8010 bound_to 7997
  139.9818  143.5735  152.2375 H   0  0  0  0  0  0  0  0  0  0  0  0  # atno 10167 bound_to 10162
  156.3097  130.4251  149.8063 H   0  0  0  0  0  0  0  0  0  0  0  0  # atno 10718 bound_to 10713
  154.7499  135.3089  154.8577 H   0  0  0  0  0  0  0  0  0  0  0  0  # atno 10763 bound_to 10752
  153.9367  135.6779  153.4749 H   0  0  0  0  0  0  0  0  0  0  0  0  # atno 10764 bound_to 10752
  153.1095  135.4873  154.8938 H   0  0  0  0  0  0  0  0  0  0  0  0  # atno 10765 bound_to 10752
  140.2701  134.3092  155.7830 H   0  0  0  0  0  0  0  0  0  0  0  0  # atno 11005 bound_to 11000
  146.2092  140.6046  142.9067 LP  0  0  0  0  0  0  0  0  0  0  0  0  # atno 17320 bound_to 7965
  144.7664  140.5540  143.6700 LP  0  0  0  0  0  0  0  0  0  0  0  0  # atno 17321 bound_to 7965
  139.6404  144.7654  151.2350 LP  0  0  0  0  0  0  0  0  0  0  0  0  # atno 17342 bound_to 10162
  140.7486  143.6326  150.8409 LP  0  0  0  0  0  0  0  0  0  0  0  0  # atno 17343 bound_to 10162
  156.5411  130.8300  151.3269 LP  0  0  0  0  0  0  0  0  0  0  0  0  # atno 17370 bound_to 10713
  157.7388  130.9820  150.2273 LP  0  0  0  0  0  0  0  0  0  0  0  0  # atno 17371 bound_to 10713
  141.2178  133.7462  156.9321 LP  0  0  0  0  0  0  0  0  0  0  0  0  # atno 17394 bound_to 11000
  140.1381  134.9312  157.2429 LP  0  0  0  0  0  0  0  0  0  0  0  0  # atno 17395 bound_to 11000

$$$$
