AV-unprocessed.smi:49|AV-procd|sdf|480|dock2
  -GOLD-   2262016343D 1   1.00000     0.00000
 Structure written by MMmdl.
 28 29  0  0  0  0  0  0  0  0  2 V2000
  152.7042  143.4243  158.9681 C   0  0  0  0  0  0  0  0  0  0  0  0
  151.5914  143.7689  157.9725 C   0  0  0  0  0  0  0  0  0  0  0  0
  151.1608  142.5909  157.1618 C   0  0  0  0  0  0  0  0  0  0  0  0
  150.2577  142.6978  156.1764 N   0  0  0  0  0  0  0  0  0  0  0  0
  150.1447  141.4376  155.7317 C   0  0  0  0  0  0  0  0  0  0  0  0
  149.2277  141.0872  154.5979 C   0  0  1  0  0  0  0  0  0  0  0  0
  148.1537  140.0492  154.9311 C   0  0  0  0  0  0  0  0  0  0  0  0
  147.0015  140.4762  154.0267 C   0  0  1  0  0  0  0  0  0  0  0  0
  145.7558  140.0030  154.4929 O   0  0  0  0  0  0  0  0  0  0  0  0
  147.0854  142.0067  154.0510 C   0  0  0  0  0  0  0  0  0  0  0  0
  148.5081  142.3367  154.2715 N   0  3  0  0  0  0  0  0  0  0  0  0
  150.9314  140.5800  156.3942 N   0  0  0  0  0  0  0  0  0  0  0  0
  151.5946  141.3401  157.3414 N   0  0  0  0  0  0  0  0  0  0  0  0
  149.8020  140.7768  153.7235 H   0  0  0  0  0  0  0  0  0  0  0  0
  147.1746  140.1117  153.0131 H   0  0  0  0  0  0  0  0  0  0  0  0
  149.7829  143.5273  155.8505 H   0  0  0  0  0  0  0  0  0  0  0  0
  152.9976  144.3037  159.5416 H   0  0  0  0  0  0  0  0  0  0  0  0
  153.5906  143.0519  158.4536 H   0  0  0  0  0  0  0  0  0  0  0  0
  152.3796  142.6589  159.6734 H   0  0  0  0  0  0  0  0  0  0  0  0
  150.7282  144.1711  158.5045 H   0  0  0  0  0  0  0  0  0  0  0  0
  151.9309  144.5534  157.2952 H   0  0  0  0  0  0  0  0  0  0  0  0
  148.4836  139.0225  154.7700 H   0  0  0  0  0  0  0  0  0  0  0  0
  147.8508  140.1455  155.9756 H   0  0  0  0  0  0  0  0  0  0  0  0
  145.1639  139.9286  153.7594 H   0  0  0  0  0  0  0  0  0  0  0  0
  146.7026  142.4611  153.1370 H   0  0  0  0  0  0  0  0  0  0  0  0
  146.5177  142.4111  154.8905 H   0  0  0  0  0  0  0  0  0  0  0  0
  148.5790  142.9763  155.0509 H   0  0  0  0  0  0  0  0  0  0  0  0
  148.9103  142.7582  153.4467 H   0  0  0  0  0  0  0  0  0  0  0  0
  1  2  1  0  0  0  0
  1 17  1  0  0  0  0
  1 18  1  0  0  0  0
  1 19  1  0  0  0  0
  2 20  1  0  0  0  0
  2 21  1  0  0  0  0
  2  3  1  0  0  0  0
  3  4  1  0  0  0  0
  3 13  2  0  0  0  0
  4 16  1  0  0  0  0
  4  5  1  0  0  0  0
  5 12  2  0  0  0  0
  5  6  1  0  0  0  0
  6 14  1  0  0  0  0
  6 11  1  0  0  0  0
  6  7  1  0  0  0  0
  7  8  1  0  0  0  0
  7 22  1  0  0  0  0
  7 23  1  0  0  0  0
  8 15  1  0  0  0  0
  8  9  1  0  0  0  0
  8 10  1  0  0  0  0
  9 24  1  0  0  0  0
 10 11  1  0  0  0  0
 10 25  1  0  0  0  0
 10 26  1  0  0  0  0
 11 27  1  0  0  0  0
 11 28  1  0  0  0  0
 12 13  1  0  0  0  0
M  CHG  1  11   1
M  END
> <s_m_source_file>
AV-unprocessed.smi

> <i_m_source_file_index>
49

> <i_lp_mmshare_version>
43012

> <i_f3d_flags>
0

> <s_epik_input>
W0NIM11bQ0gyXWMxbmMobltuSF0xKVtDQEBIXTJbQ0gyXVtDQEBIXShbT0hdKVtDSDJdW05IXTI=

> <s_epik_cmdline>
J2VwaWtfcHl0aG9uJywgJy1waCcsICc3LjAnLCAnLXRuJywgJzgnLCAnLW1hJywgJzIwMCcsICctbWV0YWxfYmluZGluZycsICctaW1hZScsICc8aW5maWxlLm1hZT4nLCAnLW9tYWUnLCAnPG91dGZpbGUubWFlPic=

> <r_lp_tautomer_probability>
0.0517155

> <r_epik_Ionization_Penalty>
0.939819

> <r_epik_Ionization_Penalty_Charging>
0.0688988

> <r_epik_Ionization_Penalty_Neutral>
0.87092

> <r_epik_State_Penalty>
2.1224

> <r_epik_Charging_Adjusted_Penalty>
2.1913

> <i_epik_Tot_Q>
1

> <i_epik_Tot_abs_Q>
1

> <r_epik_Metal_State_Penalty>
2.39725

> <b_epik_Metal_Only>
0

> <s_lp_Force_Field>
OPLS_2005

> <r_lp_Energy>
21.0642

> <b_lp_Chiralities_Consistent>
1

> <s_lp_Variant>
AV-unprocessed.smi:49-18

> <Gold.Version>
5.8.1

> <Gold.Id.Protein>
6NUR|6NUR_protein|mol2

> <Gold.PLP.Fitness>
37.3862

> <Gold.PLP.PLP>
-25.4649

> <Gold.PLP.part.hbond>
-2.9617

> <Gold.PLP.part.metal>
0.0000

> <Gold.PLP.part.buried>
-5.3724

> <Gold.PLP.part.nonpolar>
-19.9666

> <Gold.PLP.part.repulsive>
2.4155

> <Gold.PLP.ligand.clash>
0.0000

> <Gold.PLP.ligand.torsion>
0.0456

> <Gold.PLP.Chemscore.Hbond>
4.0000

> <Gold.PLP.Chemscore.CHOScore>
0.0000

> <Gold.PLP.Chemscore.Metal>
0.0000

> <Gold.Chemscore.Hbonds>
donor molecule, donor type, donor heavy atom, donor atom, acceptor molecule, acceptor atom, score
      L1  H     4    16       P1  8028  0.93
      L1  H     9    24       P1 10175  0.99
      L1  H    11    27       P1  8028  1.89

> <Gold.PLP.Chemscore.Internal.Correction>
0.0125

> <Gold.Rescore>
     Score         DG    S(hbond)    S(metal)    S(lipo)     H(rot)  DE(clash)    DE(int)     intcor
     15.03     -16.46       2.95        0.00      50.96       1.89       1.42       0.02       ----

> <Gold.Chemscore.Fitness>
15.0251

> <Gold.Chemscore.DG>
-16.4597

> <Gold.Chemscore.ZeroCoef>
-5.4800

> <Gold.Chemscore.Hbond>
2.9494

> <Gold.Chemscore.Metal>
0.0000

> <Gold.Chemscore.Lipo>
50.9640

> <Gold.Chemscore.Internal_Hbond>
0.0000

> <Gold.Chemscore.DEClash>
1.4155

> <Gold.Chemscore.DEInternal>
0.0191

> <Gold.Chemscore.Rot>
1.8883

> <Gold.Chemscore.Internal.Correction>
   9.000000E+99

> <Gold.Chemscore.Hbonds>
donor molecule, donor type, donor heavy atom, donor atom, acceptor molecule, acceptor atom, score
      L1  H     4    16       P1  8028  0.89
      L1  H     9    24       P1 10175  0.91
      L1  H    11    27       P1  8028  0.91

> <Gold.Chemscore.Hbond.Weighted>
-9.8509

> <Gold.Chemscore.Metal.Weighted>
-0.0000

> <Gold.Chemscore.Lipo.Weighted>
-5.9628

> <Gold.Chemscore.Internal_Hbond.Weighted>
0.0000

> <Gold.Chemscore.DEClash.Weighted>
1.4155

> <Gold.Chemscore.DEInternal.Weighted>
0.0191

> <Gold.Chemscore.Rot.Weighted>
4.8340

> <Gold.Chemscore.Internal.Correction.Weighted>
   9.000000E+99

> <Gold.Protein.RotatedTorsions>
[ 6907 6896 6895 6894 ] final   53.29 input  -60.11 | X-H torsion
[ 7974 7965 7964 7962 ] final  -32.08 input  175.53 | X-H torsion
[ 8008 7997 7996 7995 ] final -163.15 input   59.86 | X-H torsion
[ 10167 10162 10161 10158 ] final  -81.31 input  -65.29 | X-H torsion
[ 10718 10713 10712 10709 ] final  -68.61 input   66.30 | X-H torsion
[ 10763 10752 10751 10750 ] final  -80.87 input  -60.55 | X-H torsion
[ 11005 11000 10999 10996 ] final    5.82 input  -57.11 | X-H torsion

> <Gold.Protein.ActiveResidues>
 VAL166  LYS551  ARG553  GLY616  TRP617  ASP618  TYR619  PRO620  LYS621  CYS622 
 ASP623  PHE694  ASN695  SER759  ASP760  ASP761  ALA762  ILE779  LEU786  VAL792 
 PHE793  MET794  SER795  GLU796  ALA797  LYS798  CYS799  TRP800  GLU811  SER814 

> <Gold.Protein.RotatedAtoms>
  152.3322  134.7245  160.0286 H   0  0  0  0  0  0  0  0  0  0  0  0  # atno 6907 bound_to 6896
  151.7658  133.3332  159.3438 H   0  0  0  0  0  0  0  0  0  0  0  0  # atno 6908 bound_to 6896
  150.7429  134.5996  159.6074 H   0  0  0  0  0  0  0  0  0  0  0  0  # atno 6909 bound_to 6896
  146.1018  140.5747  142.8817 H   0  0  0  0  0  0  0  0  0  0  0  0  # atno 7974 bound_to 7965
  155.8172  140.0914  157.1870 H   0  0  0  0  0  0  0  0  0  0  0  0  # atno 8008 bound_to 7997
  154.3979  140.1443  156.3516 H   0  0  0  0  0  0  0  0  0  0  0  0  # atno 8009 bound_to 7997
  155.8304  140.3443  155.5571 H   0  0  0  0  0  0  0  0  0  0  0  0  # atno 8010 bound_to 7997
  140.4423  143.2510  151.8607 H   0  0  0  0  0  0  0  0  0  0  0  0  # atno 10167 bound_to 10162
  156.0497  130.4298  150.2026 H   0  0  0  0  0  0  0  0  0  0  0  0  # atno 10718 bound_to 10713
  154.5566  135.5646  153.6969 H   0  0  0  0  0  0  0  0  0  0  0  0  # atno 10763 bound_to 10752
  153.0005  135.6263  154.2302 H   0  0  0  0  0  0  0  0  0  0  0  0  # atno 10764 bound_to 10752
  154.2238  135.2868  155.2895 H   0  0  0  0  0  0  0  0  0  0  0  0  # atno 10765 bound_to 10752
  140.5664  134.0144  155.7991 H   0  0  0  0  0  0  0  0  0  0  0  0  # atno 11005 bound_to 11000
  144.7439  140.5015  143.6850 LP  0  0  0  0  0  0  0  0  0  0  0  0  # atno 17320 bound_to 7965
  145.5839  139.1491  143.3220 LP  0  0  0  0  0  0  0  0  0  0  0  0  # atno 17321 bound_to 7965
  139.4790  144.5214  151.8795 LP  0  0  0  0  0  0  0  0  0  0  0  0  # atno 17342 bound_to 10162
  140.4304  144.2124  150.5888 LP  0  0  0  0  0  0  0  0  0  0  0  0  # atno 17343 bound_to 10162
  157.0111  130.9951  151.3365 LP  0  0  0  0  0  0  0  0  0  0  0  0  # atno 17370 bound_to 10713
  157.5410  130.8119  149.8028 LP  0  0  0  0  0  0  0  0  0  0  0  0  # atno 17371 bound_to 10713
  141.1083  133.9658  157.2956 LP  0  0  0  0  0  0  0  0  0  0  0  0  # atno 17394 bound_to 11000
  139.9383  135.0194  156.8626 LP  0  0  0  0  0  0  0  0  0  0  0  0  # atno 17395 bound_to 11000

$$$$
