AV-unprocessed.smi:702|AV-procd|sdf|3420|dock6
  -GOLD-   22720 0403D 1   1.00000     0.00000
 Structure written by MMmdl.
 51 53  0  0  0  0  0  0  0  0  3 V2000
  144.6896  136.0559  151.2436 C   0  0  0  0  0  0  0  0  0  0  0  0
  145.5375  135.5611  152.4376 C   0  0  2  0  0  0  0  0  0  0  0  0
  146.5995  136.5405  152.6891 N   0  0  0  0  0  0  0  0  0  0  0  0
  146.4590  137.7409  153.2711 C   0  0  0  0  0  0  0  0  0  0  0  0
  145.3933  138.1584  153.7212 O   0  0  0  0  0  0  0  0  0  0  0  0
  147.6250  138.4109  153.2826 N   0  0  0  0  0  0  0  0  0  0  0  0
  147.8975  139.7268  153.7499 C   0  0  0  0  0  0  0  0  0  0  0  0
  146.8934  140.7026  153.5596 C   0  0  0  0  0  0  0  0  0  0  0  0
  147.1133  142.0247  153.9966 C   0  0  0  0  0  0  0  0  0  0  0  0
  148.2829  142.3516  154.5862 N   0  3  0  0  0  0  0  0  0  0  0  0
  149.2773  141.4589  154.7787 C   0  0  0  0  0  0  0  0  0  0  0  0
  149.1155  140.1216  154.3612 C   0  0  0  0  0  0  0  0  0  0  0  0
  146.1324  134.1069  152.3271 C   0  0  0  0  0  0  0  0  0  0  0  0
  147.3626  133.9824  153.2023 N   0  3  0  0  0  0  0  0  0  0  0  0
  147.1531  134.2860  154.6492 C   0  0  0  0  0  0  0  0  0  0  0  0
  148.4970  134.3303  155.3938 C   0  0  0  0  0  0  0  0  0  0  0  0
  149.1606  133.0834  155.2521 O   0  0  0  0  0  0  0  0  0  0  0  0
  149.4464  132.7960  153.8915 C   0  0  0  0  0  0  0  0  0  0  0  0
  148.1361  132.7078  153.0908 C   0  0  0  0  0  0  0  0  0  0  0  0
  145.0736  133.0272  152.6992 C   0  0  0  0  0  0  0  0  0  0  0  0
  144.6300  132.3741  151.3885 C   0  0  0  0  0  0  0  0  0  0  0  0
  145.8723  132.4383  150.5085 C   0  0  0  0  0  0  0  0  0  0  0  0
  146.4713  133.8079  150.8310 C   0  0  0  0  0  0  0  0  0  0  0  0
  143.8588  135.3863  151.0257 H   0  0  0  0  0  0  0  0  0  0  0  0
  145.2631  136.1829  150.3269 H   0  0  0  0  0  0  0  0  0  0  0  0
  144.2504  137.0279  151.4713 H   0  0  0  0  0  0  0  0  0  0  0  0
  144.8243  135.5841  153.2588 H   0  0  0  0  0  0  0  0  0  0  0  0
  147.5181  136.2922  152.3508 H   0  0  0  0  0  0  0  0  0  0  0  0
  148.3989  137.9500  152.8264 H   0  0  0  0  0  0  0  0  0  0  0  0
  145.9564  140.4432  153.0878 H   0  0  0  0  0  0  0  0  0  0  0  0
  146.3943  142.8243  153.8923 H   0  0  0  0  0  0  0  0  0  0  0  0
  150.1697  141.8392  155.2542 H   0  0  0  0  0  0  0  0  0  0  0  0
  149.9330  139.4344  154.5128 H   0  0  0  0  0  0  0  0  0  0  0  0
  146.6668  135.2431  154.8090 H   0  0  0  0  0  0  0  0  0  0  0  0
  146.5117  133.5324  155.1066 H   0  0  0  0  0  0  0  0  0  0  0  0
  149.1248  135.1398  155.0173 H   0  0  0  0  0  0  0  0  0  0  0  0
  148.3326  134.5220  156.4541 H   0  0  0  0  0  0  0  0  0  0  0  0
  150.1070  133.5587  153.4756 H   0  0  0  0  0  0  0  0  0  0  0  0
  149.9827  131.8483  153.8382 H   0  0  0  0  0  0  0  0  0  0  0  0
  147.5463  131.8694  153.4610 H   0  0  0  0  0  0  0  0  0  0  0  0
  148.4062  132.4658  152.0662 H   0  0  0  0  0  0  0  0  0  0  0  0
  145.4976  132.2428  153.3241 H   0  0  0  0  0  0  0  0  0  0  0  0
  144.2312  133.4276  153.2638 H   0  0  0  0  0  0  0  0  0  0  0  0
  144.2683  131.3552  151.5297 H   0  0  0  0  0  0  0  0  0  0  0  0
  143.8247  132.9516  150.9335 H   0  0  0  0  0  0  0  0  0  0  0  0
  146.5670  131.6456  150.7882 H   0  0  0  0  0  0  0  0  0  0  0  0
  145.6420  132.3203  149.4492 H   0  0  0  0  0  0  0  0  0  0  0  0
  145.9974  134.5224  150.1627 H   0  0  0  0  0  0  0  0  0  0  0  0
  147.5275  133.8870  150.5786 H   0  0  0  0  0  0  0  0  0  0  0  0
  147.9880  134.6995  152.8639 H   0  0  0  0  0  0  0  0  0  0  0  0
  148.4226  143.3141  154.8957 H   0  0  0  0  0  0  0  0  0  0  0  0
  1  2  1  0  0  0  0
  1 24  1  0  0  0  0
  1 25  1  0  0  0  0
  1 26  1  0  0  0  0
  2  3  1  0  0  0  0
  2 13  1  0  0  0  0
  2 27  1  0  0  0  0
  3  4  1  0  0  0  0
  3 28  1  0  0  0  0
  4  5  2  0  0  0  0
  4  6  1  0  0  0  0
  6  7  1  0  0  0  0
  6 29  1  0  0  0  0
  7 12  1  0  0  0  0
  7  8  2  0  0  0  0
  8  9  1  0  0  0  0
  8 30  1  0  0  0  0
  9 10  2  0  0  0  0
  9 31  1  0  0  0  0
 10 11  1  0  0  0  0
 10 51  1  0  0  0  0
 11 12  2  0  0  0  0
 11 32  1  0  0  0  0
 12 33  1  0  0  0  0
 13 23  1  0  0  0  0
 13 14  1  0  0  0  0
 13 20  1  0  0  0  0
 14 19  1  0  0  0  0
 14 15  1  0  0  0  0
 14 50  1  0  0  0  0
 15 16  1  0  0  0  0
 15 34  1  0  0  0  0
 15 35  1  0  0  0  0
 16 17  1  0  0  0  0
 16 36  1  0  0  0  0
 16 37  1  0  0  0  0
 17 18  1  0  0  0  0
 18 19  1  0  0  0  0
 18 38  1  0  0  0  0
 18 39  1  0  0  0  0
 19 40  1  0  0  0  0
 19 41  1  0  0  0  0
 20 21  1  0  0  0  0
 20 42  1  0  0  0  0
 20 43  1  0  0  0  0
 21 22  1  0  0  0  0
 21 44  1  0  0  0  0
 21 45  1  0  0  0  0
 22 23  1  0  0  0  0
 22 46  1  0  0  0  0
 22 47  1  0  0  0  0
 23 48  1  0  0  0  0
 23 49  1  0  0  0  0
M  CHG  1  10   1
M  CHG  1  14   1
M  END
> <s_m_source_file>
AV-unprocessed.smi

> <i_m_source_file_index>
702

> <i_lp_mmshare_version>
43012

> <i_f3d_flags>
0

> <s_epik_input>
W0NIMl0xW0NIMl1PW0NIMl1bQ0gyXU4xQzIoW0NIMl1bQ0gyXVtDSDJdW0NIMl0yKVtDQEhdKFtDSDNdKVtOSF1DKD1PKVtOSF1jM1tjSF1bY0hdbltjSF1bY0hdMw==

> <s_epik_cmdline>
J2VwaWtfcHl0aG9uJywgJy1waCcsICc3LjAnLCAnLXRuJywgJzgnLCAnLW1hJywgJzIwMCcsICctbWV0YWxfYmluZGluZycsICctaW1hZScsICc8aW5maWxlLm1hZT4nLCAnLW9tYWUnLCAnPG91dGZpbGUubWFlPic=

> <r_epik_Ionization_Penalty>
1.42147

> <r_epik_Ionization_Penalty_Charging>
1.42145

> <r_epik_Ionization_Penalty_Neutral>
1.94713e-05

> <r_epik_State_Penalty>
1.44789

> <r_epik_Charging_Adjusted_Penalty>
2.86934

> <i_epik_Tot_Q>
2

> <i_epik_Tot_abs_Q>
2

> <r_epik_Metal_State_Penalty>
1.5401

> <b_epik_Metal_Only>
0

> <s_lp_Force_Field>
OPLS_2005

> <r_lp_Energy>
70.747

> <b_lp_Chiralities_Consistent>
1

> <s_lp_Variant>
AV-unprocessed.smi:702-5

> <Gold.Version>
5.8.1

> <Gold.Id.Protein>
6NUR|6NUR_protein|mol2

> <Gold.PLP.Fitness>
52.5593

> <Gold.PLP.PLP>
-37.8533

> <Gold.PLP.part.hbond>
-3.9070

> <Gold.PLP.part.metal>
0.0000

> <Gold.PLP.part.buried>
-4.9488

> <Gold.PLP.part.nonpolar>
-30.1354

> <Gold.PLP.part.repulsive>
0.4450

> <Gold.PLP.ligand.clash>
0.0000

> <Gold.PLP.ligand.torsion>
1.4573

> <Gold.PLP.Chemscore.Hbond>
5.8223

> <Gold.PLP.Chemscore.CHOScore>
0.0000

> <Gold.PLP.Chemscore.Metal>
0.0000

> <Gold.Chemscore.Hbonds>
donor molecule, donor type, donor heavy atom, donor atom, acceptor molecule, acceptor atom, score
      L1  H     3    28       P1  7948  0.94
      L1  H     6    29       P1  7948  0.90
      L1  H    10    51       P1  8028  2.00
      L1  H    14    50       P1  7948  1.98

> <Gold.PLP.Chemscore.Internal.Correction>
0.1539

> <Gold.Rescore>
     Score         DG    S(hbond)    S(metal)    S(lipo)     H(rot)  DE(clash)    DE(int)     intcor
     21.45     -24.47       3.47        0.00      95.68       1.48       0.37       2.65       ----

> <Gold.Chemscore.Fitness>
21.4485

> <Gold.Chemscore.DG>
-24.4661

> <Gold.Chemscore.ZeroCoef>
-5.4800

> <Gold.Chemscore.Hbond>
3.4663

> <Gold.Chemscore.Metal>
0.0000

> <Gold.Chemscore.Lipo>
95.6761

> <Gold.Chemscore.Internal_Hbond>
0.0000

> <Gold.Chemscore.DEClash>
0.3724

> <Gold.Chemscore.DEInternal>
2.6452

> <Gold.Chemscore.Rot>
1.4787

> <Gold.Chemscore.Internal.Correction>
   9.000000E+99

> <Gold.Chemscore.Hbonds>
donor molecule, donor type, donor heavy atom, donor atom, acceptor molecule, acceptor atom, score
      L1  H     3    28       P1  7948  0.90
      L1  H     6    29       P1  7948  0.82
      L1  H    10    51       P1  8028  0.99
      L1  H    14    50       P1  7948  0.76

> <Gold.Chemscore.Hbond.Weighted>
-11.5774

> <Gold.Chemscore.Metal.Weighted>
-0.0000

> <Gold.Chemscore.Lipo.Weighted>
-11.1941

> <Gold.Chemscore.Internal_Hbond.Weighted>
0.0000

> <Gold.Chemscore.DEClash.Weighted>
0.3724

> <Gold.Chemscore.DEInternal.Weighted>
2.6452

> <Gold.Chemscore.Rot.Weighted>
3.7854

> <Gold.Chemscore.Internal.Correction.Weighted>
   9.000000E+99

> <Gold.Protein.RotatedTorsions>
[ 6907 6896 6895 6894 ] final  -43.73 input  -60.11 | X-H torsion
[ 7974 7965 7964 7962 ] final  101.33 input  175.53 | X-H torsion
[ 8008 7997 7996 7995 ] final  -39.43 input   59.86 | X-H torsion
[ 10167 10162 10161 10158 ] final  -16.78 input  -65.29 | X-H torsion
[ 10718 10713 10712 10709 ] final  -18.17 input   66.30 | X-H torsion
[ 10763 10752 10751 10750 ] final -173.70 input  -60.55 | X-H torsion
[ 11005 11000 10999 10996 ] final -176.77 input  -57.11 | X-H torsion

> <Gold.Protein.ActiveResidues>
 VAL166  LYS551  ARG553  GLY616  TRP617  ASP618  TYR619  PRO620  LYS621  CYS622 
 ASP623  PHE694  ASN695  SER759  ASP760  ASP761  ALA762  ILE779  LEU786  VAL792 
 PHE793  MET794  SER795  GLU796  ALA797  LYS798  CYS799  TRP800  GLU811  SER814 

> <Gold.Protein.RotatedAtoms>
  150.9406  134.8816  159.7609 H   0  0  0  0  0  0  0  0  0  0  0  0  # atno 6907 bound_to 6896
  152.5078  134.3947  159.9406 H   0  0  0  0  0  0  0  0  0  0  0  0  # atno 6908 bound_to 6896
  151.3968  133.3730  159.2762 H   0  0  0  0  0  0  0  0  0  0  0  0  # atno 6909 bound_to 6896
  145.3738  139.2393  143.3441 H   0  0  0  0  0  0  0  0  0  0  0  0  # atno 7974 bound_to 7965
  154.4023  140.1552  156.2862 H   0  0  0  0  0  0  0  0  0  0  0  0  # atno 8008 bound_to 7997
  155.8826  140.3443  155.5877 H   0  0  0  0  0  0  0  0  0  0  0  0  # atno 8009 bound_to 7997
  155.7650  140.0822  157.2127 H   0  0  0  0  0  0  0  0  0  0  0  0  # atno 8010 bound_to 7997
  140.7238  143.5081  150.9784 H   0  0  0  0  0  0  0  0  0  0  0  0  # atno 10167 bound_to 10162
  156.5632  130.4731  149.6397 H   0  0  0  0  0  0  0  0  0  0  0  0  # atno 10718 bound_to 10713
  154.6049  135.2858  155.0496 H   0  0  0  0  0  0  0  0  0  0  0  0  # atno 10763 bound_to 10752
  154.1747  135.6466  153.5022 H   0  0  0  0  0  0  0  0  0  0  0  0  # atno 10764 bound_to 10752
  153.0171  135.5409  154.6781 H   0  0  0  0  0  0  0  0  0  0  0  0  # atno 10765 bound_to 10752
  140.4484  134.6366  157.4790 H   0  0  0  0  0  0  0  0  0  0  0  0  # atno 11005 bound_to 11000
  146.2873  140.4393  142.8753 LP  0  0  0  0  0  0  0  0  0  0  0  0  # atno 17320 bound_to 7965
  144.8557  140.7067  143.6139 LP  0  0  0  0  0  0  0  0  0  0  0  0  # atno 17321 bound_to 7965
  139.8794  143.7091  152.3158 LP  0  0  0  0  0  0  0  0  0  0  0  0  # atno 17342 bound_to 10162
  139.7368  144.7569  151.0715 LP  0  0  0  0  0  0  0  0  0  0  0  0  # atno 17343 bound_to 10162
  156.2780  130.7055  151.1871 LP  0  0  0  0  0  0  0  0  0  0  0  0  # atno 17370 bound_to 10713
  157.7364  131.0563  150.5416 LP  0  0  0  0  0  0  0  0  0  0  0  0  # atno 17371 bound_to 10713
  140.0023  134.6817  155.9510 LP  0  0  0  0  0  0  0  0  0  0  0  0  # atno 17394 bound_to 11000
  141.1675  133.6537  156.4531 LP  0  0  0  0  0  0  0  0  0  0  0  0  # atno 17395 bound_to 11000

$$$$
