AV-unprocessed.smi:3284|AV-procd|sdf|12573|dock2
  -GOLD-   2272018493D 1   1.00000     0.00000
 Structure written by MMmdl.
 44 45  0  0  0  0  0  0  0  0  2 V2000
  152.2676  144.8103  158.6397 C   0  0  0  0  0  0  0  0  0  0  0  0
  152.4725  143.9137  159.8495 C   0  0  0  0  0  0  0  0  0  0  0  0
  152.0772  144.3337  161.0665 C   0  0  0  0  0  0  0  0  0  0  0  0
  152.2984  143.5635  162.3477 C   0  0  0  0  0  0  0  0  0  0  0  0
  153.4277  142.5433  162.1869 C   0  0  0  0  0  0  0  0  0  0  0  0
  153.2371  141.6875  160.9239 C   0  0  2  0  0  0  0  0  0  0  0  0
  154.3473  140.6206  160.8570 C   0  0  0  0  0  0  0  0  0  0  0  0
  153.1592  142.5505  159.6260 C   0  0  1  0  0  0  0  0  0  0  0  0
  152.5067  141.7291  158.4824 C   0  0  0  0  0  0  0  0  0  0  0  0
  151.0312  141.7059  158.5544 N   0  3  0  0  0  0  0  0  0  0  0  0
  150.3917  140.9003  157.4967 C   0  0  0  0  0  0  0  0  0  0  0  0
  150.9591  141.2488  156.1148 C   0  0  0  0  0  0  0  0  0  0  0  0
  151.4799  140.0433  155.3960 C   0  0  0  0  0  0  0  0  0  0  0  0
  152.7620  139.6922  155.3875 N   0  0  0  0  0  0  0  0  0  0  0  0
  152.8122  138.5496  154.5958 C   0  0  0  0  0  0  0  0  0  0  0  0
  151.5490  138.2530  154.1440 C   0  0  0  0  0  0  0  0  0  0  0  0
  150.7023  139.2250  154.6605 N   0  0  0  0  0  0  0  0  0  0  0  0
  149.2725  139.3143  154.4352 C   0  0  0  0  0  0  0  0  0  0  0  0
  153.1973  144.9163  158.0804 H   0  0  0  0  0  0  0  0  0  0  0  0
  151.9472  145.8096  158.9374 H   0  0  0  0  0  0  0  0  0  0  0  0
  151.4989  144.4070  157.9806 H   0  0  0  0  0  0  0  0  0  0  0  0
  151.5786  145.2864  161.1726 H   0  0  0  0  0  0  0  0  0  0  0  0
  152.5456  144.2626  163.1469 H   0  0  0  0  0  0  0  0  0  0  0  0
  151.3660  143.0722  162.6271 H   0  0  0  0  0  0  0  0  0  0  0  0
  154.3846  143.0649  162.1331 H   0  0  0  0  0  0  0  0  0  0  0  0
  153.4710  141.9106  163.0741 H   0  0  0  0  0  0  0  0  0  0  0  0
  152.2850  141.1664  161.0398 H   0  0  0  0  0  0  0  0  0  0  0  0
  155.3283  141.0791  160.7277 H   0  0  0  0  0  0  0  0  0  0  0  0
  154.2014  139.9166  160.0390 H   0  0  0  0  0  0  0  0  0  0  0  0
  154.3792  140.0336  161.7754 H   0  0  0  0  0  0  0  0  0  0  0  0
  154.1839  142.7869  159.3353 H   0  0  0  0  0  0  0  0  0  0  0  0
  152.7689  142.1384  157.5082 H   0  0  0  0  0  0  0  0  0  0  0  0
  152.8900  140.7078  158.4973 H   0  0  0  0  0  0  0  0  0  0  0  0
  150.7636  141.3267  159.4516 H   0  0  0  0  0  0  0  0  0  0  0  0
  150.5466  139.8414  157.7083 H   0  0  0  0  0  0  0  0  0  0  0  0
  149.3155  141.0787  157.5117 H   0  0  0  0  0  0  0  0  0  0  0  0
  150.1812  141.7039  155.5003 H   0  0  0  0  0  0  0  0  0  0  0  0
  151.7501  141.9940  156.2036 H   0  0  0  0  0  0  0  0  0  0  0  0
  153.7444  138.0359  154.4126 H   0  0  0  0  0  0  0  0  0  0  0  0
  151.1937  137.4528  153.5113 H   0  0  0  0  0  0  0  0  0  0  0  0
  148.9659  138.5920  153.6780 H   0  0  0  0  0  0  0  0  0  0  0  0
  149.0109  140.3149  154.0905 H   0  0  0  0  0  0  0  0  0  0  0  0
  148.7401  139.1011  155.3623 H   0  0  0  0  0  0  0  0  0  0  0  0
  150.6909  142.6547  158.4901 H   0  0  0  0  0  0  0  0  0  0  0  0
  1  2  1  0  0  0  0
  1 19  1  0  0  0  0
  1 20  1  0  0  0  0
  1 21  1  0  0  0  0
  2  8  1  0  0  0  0
  2  3  2  0  0  0  0
  3  4  1  0  0  0  0
  3 22  1  0  0  0  0
  4  5  1  0  0  0  0
  4 23  1  0  0  0  0
  4 24  1  0  0  0  0
  5  6  1  0  0  0  0
  5 25  1  0  0  0  0
  5 26  1  0  0  0  0
  6  7  1  0  0  0  0
  6  8  1  0  0  0  0
  6 27  1  0  0  0  0
  7 28  1  0  0  0  0
  7 29  1  0  0  0  0
  7 30  1  0  0  0  0
  8  9  1  0  0  0  0
  8 31  1  0  0  0  0
  9 10  1  0  0  0  0
  9 32  1  0  0  0  0
  9 33  1  0  0  0  0
 10 11  1  0  0  0  0
 10 34  1  0  0  0  0
 10 44  1  0  0  0  0
 11 12  1  0  0  0  0
 11 35  1  0  0  0  0
 11 36  1  0  0  0  0
 12 13  1  0  0  0  0
 12 37  1  0  0  0  0
 12 38  1  0  0  0  0
 13 17  1  0  0  0  0
 13 14  2  0  0  0  0
 14 15  1  0  0  0  0
 15 16  2  0  0  0  0
 15 39  1  0  0  0  0
 16 17  1  0  0  0  0
 16 40  1  0  0  0  0
 17 18  1  0  0  0  0
 18 41  1  0  0  0  0
 18 42  1  0  0  0  0
 18 43  1  0  0  0  0
M  CHG  1  10   1
M  END
> <s_m_source_file>
AV-unprocessed.smi

> <i_m_source_file_index>
3284

> <i_lp_mmshare_version>
43012

> <i_f3d_flags>
0

> <s_epik_input>
W0NIM11DMT1bQ0hdW0NIMl1bQ0gyXVtDQEBIXShbQ0gzXSlbQ0BIXTFbQ0gyXVtOSF1bQ0gyXVtDSDJdYzJuW2NIXVtjSF1uMltDSDNd

> <s_epik_cmdline>
J2VwaWtfcHl0aG9uJywgJy1waCcsICc3LjAnLCAnLXRuJywgJzgnLCAnLW1hJywgJzIwMCcsICctbWV0YWxfYmluZGluZycsICctaW1hZScsICc8aW5maWxlLm1hZT4nLCAnLW9tYWUnLCAnPG91dGZpbGUubWFlPic=

> <r_lp_tautomer_probability>
1

> <r_epik_Ionization_Penalty>
0.150779

> <r_epik_Ionization_Penalty_Charging>
0.150779

> <r_epik_Ionization_Penalty_Neutral>
1.39452e-13

> <r_epik_State_Penalty>
0.349447

> <r_epik_Charging_Adjusted_Penalty>
0.500226

> <i_epik_Tot_Q>
1

> <i_epik_Tot_abs_Q>
1

> <r_epik_Metal_State_Penalty>
0.000470967

> <b_epik_Metal_Only>
0

> <s_lp_Force_Field>
OPLS_2005

> <r_lp_Energy>
12.7039

> <b_lp_Chiralities_Consistent>
1

> <s_lp_Variant>
AV-unprocessed.smi:3284-2

> <Gold.Version>
5.8.1

> <Gold.Id.Protein>
6NUR|6NUR_protein|mol2

> <Gold.PLP.Fitness>
56.8342

> <Gold.PLP.PLP>
-52.5616

> <Gold.PLP.part.hbond>
-1.0000

> <Gold.PLP.part.metal>
0.0000

> <Gold.PLP.part.buried>
-3.3602

> <Gold.PLP.part.nonpolar>
-47.2769

> <Gold.PLP.part.repulsive>
0.1127

> <Gold.PLP.ligand.clash>
0.0000

> <Gold.PLP.ligand.torsion>
0.8916

> <Gold.PLP.Chemscore.Hbond>
1.0000

> <Gold.PLP.Chemscore.CHOScore>
1.0000

> <Gold.PLP.Chemscore.Metal>
0.0000

> <Gold.Chemscore.Hbonds>
donor molecule, donor type, donor heavy atom, donor atom, acceptor molecule, acceptor atom, score
      P1  H  7997  8008       L1    14  1.00
      L1  C    16    40       P1  7949  1.00

> <Gold.PLP.Chemscore.Internal.Correction>
0.0557

> <Gold.Rescore>
     Score         DG    S(hbond)    S(metal)    S(lipo)     H(rot)  DE(clash)    DE(int)     intcor
     20.22     -21.11       0.99        0.00     140.52       1.61       0.03       0.86       ----

> <Gold.Chemscore.Fitness>
20.2186

> <Gold.Chemscore.DG>
-21.1133

> <Gold.Chemscore.ZeroCoef>
-5.4800

> <Gold.Chemscore.Hbond>
0.9926

> <Gold.Chemscore.Metal>
0.0000

> <Gold.Chemscore.Lipo>
140.5209

> <Gold.Chemscore.Internal_Hbond>
0.0000

> <Gold.Chemscore.DEClash>
0.0334

> <Gold.Chemscore.DEInternal>
0.8613

> <Gold.Chemscore.Rot>
1.6105

> <Gold.Chemscore.Internal.Correction>
   9.000000E+99

> <Gold.Chemscore.Hbonds>
donor molecule, donor type, donor heavy atom, donor atom, acceptor molecule, acceptor atom, score
      P1  H  7997  8008       L1    14  0.91

> <Gold.Chemscore.Hbond.Weighted>
-3.3153

> <Gold.Chemscore.Metal.Weighted>
-0.0000

> <Gold.Chemscore.Lipo.Weighted>
-16.4409

> <Gold.Chemscore.Internal_Hbond.Weighted>
0.0000

> <Gold.Chemscore.DEClash.Weighted>
0.0334

> <Gold.Chemscore.DEInternal.Weighted>
0.8613

> <Gold.Chemscore.Rot.Weighted>
4.1230

> <Gold.Chemscore.Internal.Correction.Weighted>
   9.000000E+99

> <Gold.Protein.RotatedTorsions>
[ 6907 6896 6895 6894 ] final  -55.41 input  -60.11 | X-H torsion
[ 7974 7965 7964 7962 ] final   81.83 input  175.53 | X-H torsion
[ 8008 7997 7996 7995 ] final  -35.07 input   59.86 | X-H torsion
[ 10167 10162 10161 10158 ] final  159.40 input  -65.29 | X-H torsion
[ 10718 10713 10712 10709 ] final -165.61 input   66.30 | X-H torsion
[ 10763 10752 10751 10750 ] final -114.05 input  -60.55 | X-H torsion
[ 11005 11000 10999 10996 ] final  141.86 input  -57.11 | X-H torsion

> <Gold.Protein.ActiveResidues>
 VAL166  LYS551  ARG553  GLY616  TRP617  ASP618  TYR619  PRO620  LYS621  CYS622 
 ASP623  PHE694  ASN695  SER759  ASP760  ASP761  ALA762  ILE779  LEU786  VAL792 
 PHE793  MET794  SER795  GLU796  ALA797  LYS798  CYS799  TRP800  GLU811  SER814 

> <Gold.Protein.RotatedAtoms>
  150.8254  134.7482  159.6807 H   0  0  0  0  0  0  0  0  0  0  0  0  # atno 6907 bound_to 6896
  152.4365  134.5672  159.9921 H   0  0  0  0  0  0  0  0  0  0  0  0  # atno 6908 bound_to 6896
  151.5846  133.3336  159.3051 H   0  0  0  0  0  0  0  0  0  0  0  0  # atno 6909 bound_to 6896
  145.6330  139.2409  143.2074 H   0  0  0  0  0  0  0  0  0  0  0  0  # atno 7974 bound_to 7965
  154.4104  140.1667  156.2153 H   0  0  0  0  0  0  0  0  0  0  0  0  # atno 8008 bound_to 7997
  155.9410  140.3408  155.6304 H   0  0  0  0  0  0  0  0  0  0  0  0  # atno 8009 bound_to 7997
  155.6989  140.0743  157.2409 H   0  0  0  0  0  0  0  0  0  0  0  0  # atno 8010 bound_to 7997
  139.4832  144.4734  151.8545 H   0  0  0  0  0  0  0  0  0  0  0  0  # atno 10167 bound_to 10162
  156.6559  130.9026  151.3021 H   0  0  0  0  0  0  0  0  0  0  0  0  # atno 10718 bound_to 10713
  154.8423  135.4432  154.1445 H   0  0  0  0  0  0  0  0  0  0  0  0  # atno 10763 bound_to 10752
  153.2621  135.6937  153.7573 H   0  0  0  0  0  0  0  0  0  0  0  0  # atno 10764 bound_to 10752
  153.6846  135.3397  155.3162 H   0  0  0  0  0  0  0  0  0  0  0  0  # atno 10765 bound_to 10752
  140.0433  134.9294  157.0883 H   0  0  0  0  0  0  0  0  0  0  0  0  # atno 11005 bound_to 11000
  146.1341  140.7146  142.9398 LP  0  0  0  0  0  0  0  0  0  0  0  0  # atno 17320 bound_to 7965
  144.7186  140.4297  143.7025 LP  0  0  0  0  0  0  0  0  0  0  0  0  # atno 17321 bound_to 7965
  140.4204  144.2250  150.5887 LP  0  0  0  0  0  0  0  0  0  0  0  0  # atno 17342 bound_to 10162
  140.4879  143.2357  151.8861 LP  0  0  0  0  0  0  0  0  0  0  0  0  # atno 17343 bound_to 10162
  157.7126  130.9458  150.1141 LP  0  0  0  0  0  0  0  0  0  0  0  0  # atno 17370 bound_to 10713
  156.2048  130.3662  149.8743 LP  0  0  0  0  0  0  0  0  0  0  0  0  # atno 17371 bound_to 10713
  140.4034  134.2058  155.7163 LP  0  0  0  0  0  0  0  0  0  0  0  0  # atno 17394 bound_to 11000
  141.1894  133.8239  157.0958 LP  0  0  0  0  0  0  0  0  0  0  0  0  # atno 17395 bound_to 11000

$$$$
