AV-unprocessed.smi:3354|AV-procd|sdf|12957|dock1
  -GOLD-   2272019393D 1   1.00000     0.00000
 Structure written by MMmdl.
 38 40  0  0  0  0  0  0  0  0  1 V2000
  149.7849  140.8438  158.2335 C   0  0  0  0  0  0  0  0  0  0  0  0
  150.2223  141.4430  156.9110 C   0  0  2  0  0  0  0  0  0  0  0  0
  149.3149  141.3953  155.7039 C   0  0  0  0  0  0  0  0  0  0  0  0
  150.5963  140.5840  155.7186 C   0  0  2  0  0  0  0  0  0  0  0  0
  150.5651  139.1545  155.8388 N   0  0  0  0  0  0  0  0  0  0  0  0
  149.3390  138.3879  155.6612 C   0  0  0  0  0  0  0  0  0  0  0  0
  149.7435  136.9129  155.8309 C   0  0  1  0  0  0  0  0  0  0  0  0
  149.1682  136.0868  154.7725 N   0  0  0  0  0  0  0  0  0  0  0  0
  148.5459  134.9164  154.9702 C   0  0  0  0  0  0  0  0  0  0  0  0
  148.3922  134.4109  156.0819 O   0  0  0  0  0  0  0  0  0  0  0  0
  148.1435  134.3765  153.8069 N   0  0  0  0  0  0  0  0  0  0  0  0
  147.4473  133.1562  153.5921 C   0  0  0  0  0  0  0  0  0  0  0  0
  146.6761  132.8703  152.4393 C   0  0  0  0  0  0  0  0  0  0  0  0
  146.0477  131.6145  152.3367 C   0  0  0  0  0  0  0  0  0  0  0  0
  146.2179  130.6890  153.3845 C   0  0  0  0  0  0  0  0  0  0  0  0
  146.9611  130.9426  154.4821 N   0  0  0  0  0  0  0  0  0  0  0  0
  147.5615  132.1485  154.5732 C   0  0  0  0  0  0  0  0  0  0  0  0
  151.2800  136.9019  155.8156 C   0  0  0  0  0  0  0  0  0  0  0  0
  151.6512  138.3736  155.8582 C   0  0  0  0  0  0  0  0  0  0  0  0
  152.8182  138.7613  155.8960 O   0  0  0  0  0  0  0  0  0  0  0  0
  149.1333  139.9831  158.0812 H   0  0  0  0  0  0  0  0  0  0  0  0
  149.2419  141.5870  158.8177 H   0  0  0  0  0  0  0  0  0  0  0  0
  150.6572  140.5235  158.8038 H   0  0  0  0  0  0  0  0  0  0  0  0
  150.8107  142.3511  157.0290 H   0  0  0  0  0  0  0  0  0  0  0  0
  148.3589  140.8904  155.8214 H   0  0  0  0  0  0  0  0  0  0  0  0
  149.2897  142.2772  155.0672 H   0  0  0  0  0  0  0  0  0  0  0  0
  151.3926  140.9754  155.0873 H   0  0  0  0  0  0  0  0  0  0  0  0
  148.5847  138.6629  156.3984 H   0  0  0  0  0  0  0  0  0  0  0  0
  148.9327  138.5919  154.6689 H   0  0  0  0  0  0  0  0  0  0  0  0
  149.3920  136.5636  156.8039 H   0  0  0  0  0  0  0  0  0  0  0  0
  149.2574  136.4275  153.8264 H   0  0  0  0  0  0  0  0  0  0  0  0
  148.4166  134.8707  152.9700 H   0  0  0  0  0  0  0  0  0  0  0  0
  146.5657  133.5760  151.6309 H   0  0  0  0  0  0  0  0  0  0  0  0
  145.4516  131.3650  151.4715 H   0  0  0  0  0  0  0  0  0  0  0  0
  145.7502  129.7168  153.3363 H   0  0  0  0  0  0  0  0  0  0  0  0
  148.1502  132.3147  155.4638 H   0  0  0  0  0  0  0  0  0  0  0  0
  151.6910  136.3708  156.6747 H   0  0  0  0  0  0  0  0  0  0  0  0
  151.6853  136.4556  154.9065 H   0  0  0  0  0  0  0  0  0  0  0  0
  1  2  1  0  0  0  0
  1 21  1  0  0  0  0
  1 22  1  0  0  0  0
  1 23  1  0  0  0  0
  2  4  1  0  0  0  0
  2  3  1  0  0  0  0
  2 24  1  0  0  0  0
  3  4  1  0  0  0  0
  3 25  1  0  0  0  0
  3 26  1  0  0  0  0
  4  5  1  0  0  0  0
  4 27  1  0  0  0  0
  5 19  1  0  0  0  0
  5  6  1  0  0  0  0
  6  7  1  0  0  0  0
  6 28  1  0  0  0  0
  6 29  1  0  0  0  0
  7  8  1  0  0  0  0
  7 18  1  0  0  0  0
  7 30  1  0  0  0  0
  8  9  1  0  0  0  0
  8 31  1  0  0  0  0
  9 10  2  0  0  0  0
  9 11  1  0  0  0  0
 11 12  1  0  0  0  0
 11 32  1  0  0  0  0
 12 17  1  0  0  0  0
 12 13  2  0  0  0  0
 13 14  1  0  0  0  0
 13 33  1  0  0  0  0
 14 15  2  0  0  0  0
 14 34  1  0  0  0  0
 15 16  1  0  0  0  0
 15 35  1  0  0  0  0
 16 17  2  0  0  0  0
 17 36  1  0  0  0  0
 18 19  1  0  0  0  0
 18 37  1  0  0  0  0
 18 38  1  0  0  0  0
 19 20  2  0  0  0  0
M  END
> <s_m_source_file>
AV-unprocessed.smi

> <i_m_source_file_index>
3354

> <i_lp_mmshare_version>
43012

> <i_f3d_flags>
0

> <s_epik_input>
W0NIM11bQ0BASF0xW0NIMl1bQ0BIXTFOMltDSDJdW0NASF0oW0NIMl1DMj1PKVtOSF1DKD1PKVtOSF1jM1tjSF1bY0hdW2NIXW5bY0hdMw==

> <s_epik_cmdline>
J2VwaWtfcHl0aG9uJywgJy1waCcsICc3LjAnLCAnLXRuJywgJzgnLCAnLW1hJywgJzIwMCcsICctbWV0YWxfYmluZGluZycsICctaW1hZScsICc8aW5maWxlLm1hZT4nLCAnLW9tYWUnLCAnPG91dGZpbGUubWFlPic=

> <r_epik_Ionization_Penalty>
0.00456191

> <r_epik_Ionization_Penalty_Charging>
0

> <r_epik_Ionization_Penalty_Neutral>
0.00456191

> <r_epik_State_Penalty>
0.00327094

> <r_epik_Charging_Adjusted_Penalty>
0.00327094

> <i_epik_Tot_Q>
0

> <i_epik_Tot_abs_Q>
0

> <r_epik_Metal_State_Penalty>
-0

> <b_epik_Metal_Only>
0

> <s_lp_Force_Field>
OPLS_2005

> <r_lp_Energy>
41.3899

> <b_lp_Chiralities_Consistent>
1

> <s_lp_Variant>
AV-unprocessed.smi:3354-3

> <Gold.Version>
5.8.1

> <Gold.Id.Protein>
6NUR|6NUR_protein|mol2

> <Gold.PLP.Fitness>
41.3971

> <Gold.PLP.PLP>
-33.4206

> <Gold.PLP.part.hbond>
-4.0000

> <Gold.PLP.part.metal>
0.0000

> <Gold.PLP.part.buried>
-0.4383

> <Gold.PLP.part.nonpolar>
-28.9517

> <Gold.PLP.part.repulsive>
0.1530

> <Gold.PLP.ligand.clash>
0.0000

> <Gold.PLP.ligand.torsion>
0.5581

> <Gold.PLP.Chemscore.Hbond>
2.9406

> <Gold.PLP.Chemscore.CHOScore>
0.0000

> <Gold.PLP.Chemscore.Metal>
0.0000

> <Gold.Chemscore.Hbonds>
donor molecule, donor type, donor heavy atom, donor atom, acceptor molecule, acceptor atom, score
      L1  H     8    31       P1  7948  1.00
      L1  H    11    32       P1  7948  1.00
      P1  H  7997  8009       L1    20  0.80
      L1  C    15    35       P1 10956  0.12

> <Gold.PLP.Chemscore.Internal.Correction>
0.2708

> <Gold.Rescore>
     Score         DG    S(hbond)    S(metal)    S(lipo)     H(rot)  DE(clash)    DE(int)     intcor
     16.14     -17.82       2.73        0.00      54.56       1.24       0.04       1.64       ----

> <Gold.Chemscore.Fitness>
16.1426

> <Gold.Chemscore.DG>
-17.8184

> <Gold.Chemscore.ZeroCoef>
-5.4800

> <Gold.Chemscore.Hbond>
2.7304

> <Gold.Chemscore.Metal>
0.0000

> <Gold.Chemscore.Lipo>
54.5568

> <Gold.Chemscore.Internal_Hbond>
0.0000

> <Gold.Chemscore.DEClash>
0.0370

> <Gold.Chemscore.DEInternal>
1.6389

> <Gold.Chemscore.Rot>
1.2361

> <Gold.Chemscore.Internal.Correction>
   9.000000E+99

> <Gold.Chemscore.Hbonds>
donor molecule, donor type, donor heavy atom, donor atom, acceptor molecule, acceptor atom, score
      L1  H     8    31       P1  7948  0.88
      L1  H    11    32       P1  7948  0.60
      P1  H  7997  8009       L1    20  0.76

> <Gold.Chemscore.Hbond.Weighted>
-9.1196

> <Gold.Chemscore.Metal.Weighted>
-0.0000

> <Gold.Chemscore.Lipo.Weighted>
-6.3831

> <Gold.Chemscore.Internal_Hbond.Weighted>
0.0000

> <Gold.Chemscore.DEClash.Weighted>
0.0370

> <Gold.Chemscore.DEInternal.Weighted>
1.6389

> <Gold.Chemscore.Rot.Weighted>
3.1643

> <Gold.Chemscore.Internal.Correction.Weighted>
   9.000000E+99

> <Gold.Protein.RotatedTorsions>
[ 6907 6896 6895 6894 ] final  -52.81 input  -60.11 | X-H torsion
[ 7974 7965 7964 7962 ] final   62.98 input  175.53 | X-H torsion
[ 8008 7997 7996 7995 ] final -143.35 input   59.86 | X-H torsion
[ 10167 10162 10161 10158 ] final   17.08 input  -65.29 | X-H torsion
[ 10718 10713 10712 10709 ] final  -27.33 input   66.30 | X-H torsion
[ 10763 10752 10751 10750 ] final  -44.05 input  -60.55 | X-H torsion
[ 11005 11000 10999 10996 ] final   84.78 input  -57.11 | X-H torsion

> <Gold.Protein.ActiveResidues>
 VAL166  LYS551  ARG553  GLY616  TRP617  ASP618  TYR619  PRO620  LYS621  CYS622 
 ASP623  PHE694  ASN695  SER759  ASP760  ASP761  ALA762  ILE779  LEU786  VAL792 
 PHE793  MET794  SER795  GLU796  ALA797  LYS798  CYS799  TRP800  GLU811  SER814 

> <Gold.Protein.RotatedAtoms>
  150.8484  134.7800  159.6988 H   0  0  0  0  0  0  0  0  0  0  0  0  # atno 6907 bound_to 6896
  152.4555  134.5298  159.9817 H   0  0  0  0  0  0  0  0  0  0  0  0  # atno 6908 bound_to 6896
  151.5424  133.3392  159.2973 H   0  0  0  0  0  0  0  0  0  0  0  0  # atno 6909 bound_to 6896
  145.8672  139.3353  143.0784 H   0  0  0  0  0  0  0  0  0  0  0  0  # atno 7974 bound_to 7965
  155.5091  140.0582  157.2926 H   0  0  0  0  0  0  0  0  0  0  0  0  # atno 8008 bound_to 7997
  154.4558  140.1972  156.0332 H   0  0  0  0  0  0  0  0  0  0  0  0  # atno 8009 bound_to 7997
  156.0796  140.3249  155.7681 H   0  0  0  0  0  0  0  0  0  0  0  0  # atno 8010 bound_to 7997
  140.5752  143.9087  150.6744 H   0  0  0  0  0  0  0  0  0  0  0  0  # atno 10167 bound_to 10162
  156.4396  130.4461  149.7062 H   0  0  0  0  0  0  0  0  0  0  0  0  # atno 10718 bound_to 10713
  154.0057  135.6688  153.4762 H   0  0  0  0  0  0  0  0  0  0  0  0  # atno 10763 bound_to 10752
  153.0643  135.5010  154.8160 H   0  0  0  0  0  0  0  0  0  0  0  0  # atno 10764 bound_to 10752
  154.7026  135.3082  154.9281 H   0  0  0  0  0  0  0  0  0  0  0  0  # atno 10765 bound_to 10752
  139.8990  134.8240  156.2492 H   0  0  0  0  0  0  0  0  0  0  0  0  # atno 11005 bound_to 11000
  145.9180  140.9135  143.0420 LP  0  0  0  0  0  0  0  0  0  0  0  0  # atno 17320 bound_to 7965
  144.6726  140.1250  143.7447 LP  0  0  0  0  0  0  0  0  0  0  0  0  # atno 17321 bound_to 7965
  140.2572  143.3550  152.1354 LP  0  0  0  0  0  0  0  0  0  0  0  0  # atno 17342 bound_to 10162
  139.5138  144.6939  151.5685 LP  0  0  0  0  0  0  0  0  0  0  0  0  # atno 17343 bound_to 10162
  156.3932  130.7637  151.2640 LP  0  0  0  0  0  0  0  0  0  0  0  0  # atno 17370 bound_to 10713
  157.7506  131.0262  150.3950 LP  0  0  0  0  0  0  0  0  0  0  0  0  # atno 17371 bound_to 10713
  141.0235  133.7028  156.1308 LP  0  0  0  0  0  0  0  0  0  0  0  0  # atno 17394 bound_to 11000
  140.7200  134.4369  157.5575 LP  0  0  0  0  0  0  0  0  0  0  0  0  # atno 17395 bound_to 11000

$$$$
