AV-unprocessed.smi:2004|AV-procd|sdf|8122|dock1
  -GOLD-   2272010353D 1   1.00000     0.00000
 Structure written by MMmdl.
 39 41  0  0  0  0  0  0  0  0  1 V2000
  150.0936  140.4815  153.9548 O   0  0  0  0  0  0  0  0  0  0  0  0
  149.2162  141.2831  154.7219 C   0  0  1  0  0  0  0  0  0  0  0  0
  147.8433  141.2960  154.0328 C   0  0  0  0  0  0  0  0  0  0  0  0
  147.0230  142.2656  154.6635 O   0  0  0  0  0  0  0  0  0  0  0  0
  146.2127  142.9839  153.7477 C   0  0  0  0  0  0  0  0  0  0  0  0
  145.2985  143.9642  154.4569 C   0  0  0  0  0  0  0  0  0  0  0  0
  145.0178  143.8036  155.8305 C   0  0  0  0  0  0  0  0  0  0  0  0
  144.1575  144.7047  156.4879 C   0  0  0  0  0  0  0  0  0  0  0  0
  143.5704  145.7670  155.7736 C   0  0  0  0  0  0  0  0  0  0  0  0
  143.8413  145.9258  154.4007 C   0  0  0  0  0  0  0  0  0  0  0  0
  144.7014  145.0247  153.7427 C   0  0  0  0  0  0  0  0  0  0  0  0
  149.1386  140.7122  156.1512 C   0  0  0  0  0  0  0  0  0  0  0  0
  150.4270  140.7162  156.8206 N   0  0  0  0  0  0  0  0  0  0  0  0
  151.4353  139.8385  156.6525 C   0  0  0  0  0  0  0  0  0  0  0  0
  152.5372  140.0312  157.3721 N   0  0  0  0  0  0  0  0  0  0  0  0
  152.2056  141.1668  158.0915 C   0  0  0  0  0  0  0  0  0  0  0  0
  152.9487  141.8972  159.0464 C   0  0  0  0  0  0  0  0  0  0  0  0
  152.3955  143.0413  159.6591 C   0  0  0  0  0  0  0  0  0  0  0  0
  151.0944  143.4722  159.3274 C   0  0  0  0  0  0  0  0  0  0  0  0
  150.3349  142.7607  158.3789 C   0  0  0  0  0  0  0  0  0  0  0  0
  150.8904  141.6198  157.7700 C   0  0  0  0  0  0  0  0  0  0  0  0
  149.6519  140.2384  153.1552 H   0  0  0  0  0  0  0  0  0  0  0  0
  149.6118  142.2988  154.7659 H   0  0  0  0  0  0  0  0  0  0  0  0
  147.9401  141.4880  152.9625 H   0  0  0  0  0  0  0  0  0  0  0  0
  147.3665  140.3209  154.1450 H   0  0  0  0  0  0  0  0  0  0  0  0
  146.8469  143.5194  153.0391 H   0  0  0  0  0  0  0  0  0  0  0  0
  145.5943  142.2925  153.1734 H   0  0  0  0  0  0  0  0  0  0  0  0
  145.4623  142.9890  156.3837 H   0  0  0  0  0  0  0  0  0  0  0  0
  143.9475  144.5801  157.5400 H   0  0  0  0  0  0  0  0  0  0  0  0
  142.9105  146.4580  156.2773 H   0  0  0  0  0  0  0  0  0  0  0  0
  143.3886  146.7383  153.8515 H   0  0  0  0  0  0  0  0  0  0  0  0
  144.9015  145.1526  152.6889 H   0  0  0  0  0  0  0  0  0  0  0  0
  148.4435  141.2974  156.7543 H   0  0  0  0  0  0  0  0  0  0  0  0
  148.7542  139.6909  156.1349 H   0  0  0  0  0  0  0  0  0  0  0  0
  151.3566  139.0129  155.9601 H   0  0  0  0  0  0  0  0  0  0  0  0
  153.9463  141.5765  159.3077 H   0  0  0  0  0  0  0  0  0  0  0  0
  152.9731  143.5917  160.3873 H   0  0  0  0  0  0  0  0  0  0  0  0
  150.6799  144.3499  159.8017 H   0  0  0  0  0  0  0  0  0  0  0  0
  149.3384  143.0875  158.1215 H   0  0  0  0  0  0  0  0  0  0  0  0
  1  2  1  0  0  0  0
  1 22  1  0  0  0  0
  2  3  1  0  0  0  0
  2 12  1  0  0  0  0
  2 23  1  0  0  0  0
  3  4  1  0  0  0  0
  3 24  1  0  0  0  0
  3 25  1  0  0  0  0
  4  5  1  0  0  0  0
  5  6  1  0  0  0  0
  5 26  1  0  0  0  0
  5 27  1  0  0  0  0
  6 11  1  0  0  0  0
  6  7  2  0  0  0  0
  7  8  1  0  0  0  0
  7 28  1  0  0  0  0
  8  9  2  0  0  0  0
  8 29  1  0  0  0  0
  9 10  1  0  0  0  0
  9 30  1  0  0  0  0
 10 11  2  0  0  0  0
 10 31  1  0  0  0  0
 11 32  1  0  0  0  0
 12 13  1  0  0  0  0
 12 33  1  0  0  0  0
 12 34  1  0  0  0  0
 13 21  1  0  0  0  0
 13 14  1  0  0  0  0
 14 15  2  0  0  0  0
 14 35  1  0  0  0  0
 15 16  1  0  0  0  0
 16 21  2  0  0  0  0
 16 17  1  0  0  0  0
 17 18  2  0  0  0  0
 17 36  1  0  0  0  0
 18 19  1  0  0  0  0
 18 37  1  0  0  0  0
 19 20  2  0  0  0  0
 19 38  1  0  0  0  0
 20 21  1  0  0  0  0
 20 39  1  0  0  0  0
M  END
> <s_m_source_file>
AV-unprocessed.smi

> <i_m_source_file_index>
2004

> <i_lp_mmshare_version>
43012

> <i_f3d_flags>
0

> <s_epik_input>
W2NIXTFbY0hdW2NIXVtjSF1jKGMxMiluKFtjSF1uMilbQ0gyXVtDQEhdKFtPSF0pW0NIMl1PW0NIMl1jM1tjSF1bY0hdW2NIXVtjSF1bY0hdMw==

> <s_epik_cmdline>
J2VwaWtfcHl0aG9uJywgJy1waCcsICc3LjAnLCAnLXRuJywgJzgnLCAnLW1hJywgJzIwMCcsICctbWV0YWxfYmluZGluZycsICctaW1hZScsICc8aW5maWxlLm1hZT4nLCAnLW9tYWUnLCAnPG91dGZpbGUubWFlPic=

> <r_epik_Ionization_Penalty>
0.0713119

> <r_epik_Ionization_Penalty_Charging>
0

> <r_epik_Ionization_Penalty_Neutral>
0.0713119

> <r_epik_State_Penalty>
0.06259

> <r_epik_Charging_Adjusted_Penalty>
0.06259

> <i_epik_Tot_Q>
0

> <i_epik_Tot_abs_Q>
0

> <r_epik_Metal_State_Penalty>
6.60119e-05

> <b_epik_Metal_Only>
0

> <s_lp_Force_Field>
OPLS_2005

> <r_lp_Energy>
14.5219

> <b_lp_Chiralities_Consistent>
1

> <s_lp_Variant>
AV-unprocessed.smi:2004-2

> <Gold.Version>
5.8.1

> <Gold.Id.Protein>
6NUR|6NUR_protein|mol2

> <Gold.PLP.Fitness>
52.5421

> <Gold.PLP.PLP>
-45.7228

> <Gold.PLP.part.hbond>
-2.8081

> <Gold.PLP.part.metal>
0.0000

> <Gold.PLP.part.buried>
-7.4269

> <Gold.PLP.part.nonpolar>
-34.9689

> <Gold.PLP.part.repulsive>
0.1543

> <Gold.PLP.ligand.clash>
0.0000

> <Gold.PLP.ligand.torsion>
0.8385

> <Gold.PLP.Chemscore.Hbond>
2.7520

> <Gold.PLP.Chemscore.CHOScore>
0.0000

> <Gold.PLP.Chemscore.Metal>
0.0000

> <Gold.Chemscore.Hbonds>
donor molecule, donor type, donor heavy atom, donor atom, acceptor molecule, acceptor atom, score
      L1  H     1    22       P1  7957  1.00
      P1  H  7989  7998       L1     1  0.74
      P1  H  7997  8008       L1    15  1.00

> <Gold.PLP.Chemscore.Internal.Correction>
0.2404

> <Gold.Rescore>
     Score         DG    S(hbond)    S(metal)    S(lipo)     H(rot)  DE(clash)    DE(int)     intcor
     19.65     -20.45       2.40        0.00     110.52       2.33       0.23       0.57       ----

> <Gold.Chemscore.Fitness>
19.6520

> <Gold.Chemscore.DG>
-20.4523

> <Gold.Chemscore.ZeroCoef>
-5.4800

> <Gold.Chemscore.Hbond>
2.3961

> <Gold.Chemscore.Metal>
0.0000

> <Gold.Chemscore.Lipo>
110.5206

> <Gold.Chemscore.Internal_Hbond>
0.0000

> <Gold.Chemscore.DEClash>
0.2308

> <Gold.Chemscore.DEInternal>
0.5695

> <Gold.Chemscore.Rot>
2.3288

> <Gold.Chemscore.Internal.Correction>
   9.000000E+99

> <Gold.Chemscore.Hbonds>
donor molecule, donor type, donor heavy atom, donor atom, acceptor molecule, acceptor atom, score
      L1  H     1    22       P1  7957  0.92
      P1  H  7989  7998       L1     1  0.33
      P1  H  7997  8008       L1    15  0.76

> <Gold.Chemscore.Hbond.Weighted>
-8.0030

> <Gold.Chemscore.Metal.Weighted>
-0.0000

> <Gold.Chemscore.Lipo.Weighted>
-12.9309

> <Gold.Chemscore.Internal_Hbond.Weighted>
0.0000

> <Gold.Chemscore.DEClash.Weighted>
0.2308

> <Gold.Chemscore.DEInternal.Weighted>
0.5695

> <Gold.Chemscore.Rot.Weighted>
5.9616

> <Gold.Chemscore.Internal.Correction.Weighted>
   9.000000E+99

> <Gold.Protein.RotatedTorsions>
[ 6907 6896 6895 6894 ] final    1.32 input  -60.11 | X-H torsion
[ 7974 7965 7964 7962 ] final   22.06 input  175.53 | X-H torsion
[ 8008 7997 7996 7995 ] final  -68.25 input   59.86 | X-H torsion
[ 10167 10162 10161 10158 ] final  127.83 input  -65.29 | X-H torsion
[ 10718 10713 10712 10709 ] final  172.55 input   66.30 | X-H torsion
[ 10763 10752 10751 10750 ] final -136.57 input  -60.55 | X-H torsion
[ 11005 11000 10999 10996 ] final   34.34 input  -57.11 | X-H torsion

> <Gold.Protein.ActiveResidues>
 VAL166  LYS551  ARG553  GLY616  TRP617  ASP618  TYR619  PRO620  LYS621  CYS622 
 ASP623  PHE694  ASN695  SER759  ASP760  ASP761  ALA762  ILE779  LEU786  VAL792 
 PHE793  MET794  SER795  GLU796  ALA797  LYS798  CYS799  TRP800  GLU811  SER814 

> <Gold.Protein.RotatedAtoms>
  151.5908  135.1053  160.0038 H   0  0  0  0  0  0  0  0  0  0  0  0  # atno 6907 bound_to 6896
  152.4307  133.7269  159.6576 H   0  0  0  0  0  0  0  0  0  0  0  0  # atno 6908 bound_to 6896
  150.8199  133.8199  159.3166 H   0  0  0  0  0  0  0  0  0  0  0  0  # atno 6909 bound_to 6896
  146.2045  139.7938  142.8736 H   0  0  0  0  0  0  0  0  0  0  0  0  # atno 7974 bound_to 7965
  154.4855  140.0876  156.7476 H   0  0  0  0  0  0  0  0  0  0  0  0  # atno 8008 bound_to 7997
  155.4361  140.3452  155.4267 H   0  0  0  0  0  0  0  0  0  0  0  0  # atno 8009 bound_to 7997
  156.1255  140.1486  156.9131 H   0  0  0  0  0  0  0  0  0  0  0  0  # atno 8010 bound_to 7997
  139.5558  144.6847  151.4187 H   0  0  0  0  0  0  0  0  0  0  0  0  # atno 10167 bound_to 10162
  156.9773  131.0108  151.2890 H   0  0  0  0  0  0  0  0  0  0  0  0  # atno 10718 bound_to 10713
  154.8681  135.3668  154.5083 H   0  0  0  0  0  0  0  0  0  0  0  0  # atno 10763 bound_to 10752
  153.5720  135.7020  153.5505 H   0  0  0  0  0  0  0  0  0  0  0  0  # atno 10764 bound_to 10752
  153.3534  135.4066  155.1626 H   0  0  0  0  0  0  0  0  0  0  0  0  # atno 10765 bound_to 10752
  140.2538  134.3272  155.7881 H   0  0  0  0  0  0  0  0  0  0  0  0  # atno 11005 bound_to 11000
  145.3369  141.0279  143.3415 LP  0  0  0  0  0  0  0  0  0  0  0  0  # atno 17320 bound_to 7965
  144.8760  139.4971  143.6745 LP  0  0  0  0  0  0  0  0  0  0  0  0  # atno 17321 bound_to 7965
  140.6830  143.8038  150.7147 LP  0  0  0  0  0  0  0  0  0  0  0  0  # atno 17342 bound_to 10162
  140.1497  143.4368  152.2139 LP  0  0  0  0  0  0  0  0  0  0  0  0  # atno 17343 bound_to 10162
  157.5551  130.8208  149.8194 LP  0  0  0  0  0  0  0  0  0  0  0  0  # atno 17370 bound_to 10713
  156.0258  130.3780  150.1826 LP  0  0  0  0  0  0  0  0  0  0  0  0  # atno 17371 bound_to 10713
  141.2198  133.7369  156.9079 LP  0  0  0  0  0  0  0  0  0  0  0  0  # atno 17394 bound_to 11000
  140.1531  134.9216  157.2619 LP  0  0  0  0  0  0  0  0  0  0  0  0  # atno 17395 bound_to 11000

$$$$
