AV-unprocessed.smi:1794|AV-procd|sdf|7236|dock2
  -GOLD-   22720 8483D 1   1.00000     0.00000
 Structure written by MMmdl.
 55 57  0  0  0  0  0  0  0  0  4 V2000
  146.2417  137.5143  158.8229 C   0  0  0  0  0  0  0  0  0  0  0  0
  146.6351  136.0155  158.9747 C   0  0  0  0  0  0  0  0  0  0  0  0
  145.6904  135.2084  158.0278 C   0  0  0  0  0  0  0  0  0  0  0  0
  148.1259  135.7565  158.5483 C   0  0  0  0  0  0  0  0  0  0  0  0
  148.6471  136.8175  157.6832 N   0  5  0  0  0  0  0  0  0  0  0  0
  149.4245  137.8477  158.1081 C   0  0  0  0  0  0  0  0  0  0  0  0
  150.2070  137.8616  159.0651 O   0  0  0  0  0  0  0  0  0  0  0  0
  149.2486  138.9496  157.3595 N   0  0  0  0  0  0  0  0  0  0  0  0
  149.8371  140.2354  157.5143 C   0  0  0  0  0  0  0  0  0  0  0  0
  150.9292  140.4377  158.3957 C   0  0  0  0  0  0  0  0  0  0  0  0
  151.4839  141.7227  158.5436 C   0  0  0  0  0  0  0  0  0  0  0  0
  150.9418  142.7861  157.8019 C   0  0  0  0  0  0  0  0  0  0  0  0
  149.9176  142.5568  156.9542 N   0  3  0  0  0  0  0  0  0  0  0  0
  149.3499  141.3401  156.7566 C   0  0  0  0  0  0  0  0  0  0  0  0
  148.2899  141.2533  155.8244 N   0  0  0  0  0  0  0  0  0  0  0  0
  146.9871  141.8333  156.1279 C   0  0  0  0  0  0  0  0  0  0  0  0
  146.2359  141.8351  154.7994 C   0  0  0  0  0  0  0  0  0  0  0  0
  147.3501  142.1037  153.7920 C   0  0  0  0  0  0  0  0  0  0  0  0
  148.5662  141.3953  154.3982 C   0  0  0  0  0  0  0  0  0  0  0  0
  146.4948  135.5687  160.4186 N   0  3  0  0  0  0  0  0  0  0  0  0
  146.4314  134.0913  160.6507 C   0  0  0  0  0  0  0  0  0  0  0  0
  146.0428  133.7850  162.1042 C   0  0  0  0  0  0  0  0  0  0  0  0
  147.0088  134.3576  162.9727 O   0  0  0  0  0  0  0  0  0  0  0  0
  147.0500  135.7712  162.8461 C   0  0  0  0  0  0  0  0  0  0  0  0
  147.4340  136.1706  161.4096 C   0  0  0  0  0  0  0  0  0  0  0  0
  146.2188  137.8287  157.7776 H   0  0  0  0  0  0  0  0  0  0  0  0
  146.9179  138.1982  159.3394 H   0  0  0  0  0  0  0  0  0  0  0  0
  145.2402  137.6926  159.2157 H   0  0  0  0  0  0  0  0  0  0  0  0
  145.7913  135.4993  156.9800 H   0  0  0  0  0  0  0  0  0  0  0  0
  144.6407  135.3863  158.2630 H   0  0  0  0  0  0  0  0  0  0  0  0
  145.8597  134.1306  158.0759 H   0  0  0  0  0  0  0  0  0  0  0  0
  148.7354  135.6530  159.4464 H   0  0  0  0  0  0  0  0  0  0  0  0
  148.1826  134.7855  158.0544 H   0  0  0  0  0  0  0  0  0  0  0  0
  148.5170  138.8848  156.6673 H   0  0  0  0  0  0  0  0  0  0  0  0
  151.3529  139.6194  158.9586 H   0  0  0  0  0  0  0  0  0  0  0  0
  152.3119  141.8882  159.2174 H   0  0  0  0  0  0  0  0  0  0  0  0
  151.2988  143.8044  157.8525 H   0  0  0  0  0  0  0  0  0  0  0  0
  146.4613  141.2564  156.8895 H   0  0  0  0  0  0  0  0  0  0  0  0
  147.1016  142.8570  156.4869 H   0  0  0  0  0  0  0  0  0  0  0  0
  145.7981  140.8526  154.6163 H   0  0  0  0  0  0  0  0  0  0  0  0
  145.4364  142.5759  154.7631 H   0  0  0  0  0  0  0  0  0  0  0  0
  147.1118  141.7511  152.7881 H   0  0  0  0  0  0  0  0  0  0  0  0
  147.5411  143.1762  153.7350 H   0  0  0  0  0  0  0  0  0  0  0  0
  149.4842  141.9539  154.2101 H   0  0  0  0  0  0  0  0  0  0  0  0
  148.6748  140.4018  153.9614 H   0  0  0  0  0  0  0  0  0  0  0  0
  145.7090  133.6115  159.9909 H   0  0  0  0  0  0  0  0  0  0  0  0
  147.4007  133.6362  160.4435 H   0  0  0  0  0  0  0  0  0  0  0  0
  145.0460  134.1653  162.3336 H   0  0  0  0  0  0  0  0  0  0  0  0
  146.0192  132.7074  162.2671 H   0  0  0  0  0  0  0  0  0  0  0  0
  146.0844  136.1987  163.1211 H   0  0  0  0  0  0  0  0  0  0  0  0
  147.7816  136.1653  163.5517 H   0  0  0  0  0  0  0  0  0  0  0  0
  148.4542  135.8540  161.1880 H   0  0  0  0  0  0  0  0  0  0  0  0
  147.4127  137.2585  161.3772 H   0  0  0  0  0  0  0  0  0  0  0  0
  145.5878  135.9222  160.6886 H   0  0  0  0  0  0  0  0  0  0  0  0
  149.5526  143.3466  156.4221 H   0  0  0  0  0  0  0  0  0  0  0  0
  1  2  1  0  0  0  0
  1 26  1  0  0  0  0
  1 27  1  0  0  0  0
  1 28  1  0  0  0  0
  2  3  1  0  0  0  0
  2  4  1  0  0  0  0
  2 20  1  0  0  0  0
  3 29  1  0  0  0  0
  3 30  1  0  0  0  0
  3 31  1  0  0  0  0
  4  5  1  0  0  0  0
  4 32  1  0  0  0  0
  4 33  1  0  0  0  0
  5  6  1  0  0  0  0
  6  7  2  0  0  0  0
  6  8  1  0  0  0  0
  8  9  1  0  0  0  0
  8 34  1  0  0  0  0
  9 14  1  0  0  0  0
  9 10  2  0  0  0  0
 10 11  1  0  0  0  0
 10 35  1  0  0  0  0
 11 12  2  0  0  0  0
 11 36  1  0  0  0  0
 12 13  1  0  0  0  0
 12 37  1  0  0  0  0
 13 14  2  0  0  0  0
 13 55  1  0  0  0  0
 14 15  1  0  0  0  0
 15 19  1  0  0  0  0
 15 16  1  0  0  0  0
 16 17  1  0  0  0  0
 16 38  1  0  0  0  0
 16 39  1  0  0  0  0
 17 18  1  0  0  0  0
 17 40  1  0  0  0  0
 17 41  1  0  0  0  0
 18 19  1  0  0  0  0
 18 42  1  0  0  0  0
 18 43  1  0  0  0  0
 19 44  1  0  0  0  0
 19 45  1  0  0  0  0
 20 25  1  0  0  0  0
 20 21  1  0  0  0  0
 20 54  1  0  0  0  0
 21 22  1  0  0  0  0
 21 46  1  0  0  0  0
 21 47  1  0  0  0  0
 22 23  1  0  0  0  0
 22 48  1  0  0  0  0
 22 49  1  0  0  0  0
 23 24  1  0  0  0  0
 24 25  1  0  0  0  0
 24 50  1  0  0  0  0
 24 51  1  0  0  0  0
 25 52  1  0  0  0  0
 25 53  1  0  0  0  0
M  CHG  1   5  -1
M  CHG  1  13   1
M  CHG  1  20   1
M  END
> <s_m_source_file>
AV-unprocessed.smi

> <i_m_source_file_index>
1794

> <i_lp_mmshare_version>
43012

> <i_f3d_flags>
0

> <s_epik_input>
W0NIMl0xW0NIMl1PW0NIMl1bQ0gyXU4xQyhbQ0gzXSkoW0NIM10pW0NIMl1bTkhdQyg9TylbTkhdYzJbY0hdW2NIXVtjSF1uYzJOM1tDSDJdW0NIMl1bQ0gyXVtDSDJdMw==

> <s_epik_cmdline>
J2VwaWtfcHl0aG9uJywgJy1waCcsICc3LjAnLCAnLXRuJywgJzgnLCAnLW1hJywgJzIwMCcsICctbWV0YWxfYmluZGluZycsICctaW1hZScsICc8aW5maWxlLm1hZT4nLCAnLW9tYWUnLCAnPG91dGZpbGUubWFlPic=

> <r_lp_tautomer_probability>
0.999994

> <r_epik_Ionization_Penalty>
8.57565

> <r_epik_Ionization_Penalty_Charging>
8.57565

> <r_epik_Ionization_Penalty_Neutral>
3.55275e-06

> <r_epik_State_Penalty>
8.56988

> <r_epik_Charging_Adjusted_Penalty>
17.1455

> <i_epik_Tot_Q>
1

> <i_epik_Tot_abs_Q>
3

> <r_epik_Metal_State_Penalty>
4.56715

> <b_epik_Metal_Only>
1

> <s_lp_Force_Field>
OPLS_2005

> <r_lp_Energy>
59.2957

> <b_lp_Chiralities_Consistent>
1

> <s_lp_Variant>
AV-unprocessed.smi:1794-5

> <Gold.Version>
5.8.1

> <Gold.Id.Protein>
6NUR|6NUR_protein|mol2

> <Gold.PLP.Fitness>
42.3862

> <Gold.PLP.PLP>
-38.7506

> <Gold.PLP.part.hbond>
-2.8350

> <Gold.PLP.part.metal>
0.0000

> <Gold.PLP.part.buried>
-7.7931

> <Gold.PLP.part.nonpolar>
-29.3136

> <Gold.PLP.part.repulsive>
0.2327

> <Gold.PLP.ligand.clash>
0.0000

> <Gold.PLP.ligand.torsion>
1.5994

> <Gold.PLP.Chemscore.Hbond>
2.0000

> <Gold.PLP.Chemscore.CHOScore>
0.0000

> <Gold.PLP.Chemscore.Metal>
0.0000

> <Gold.Chemscore.Hbonds>
donor molecule, donor type, donor heavy atom, donor atom, acceptor molecule, acceptor atom, score
      L1  H    13    55       P1  8028  2.00

> <Gold.PLP.Chemscore.Internal.Correction>
0.8343

> <Gold.Rescore>
     Score         DG    S(hbond)    S(metal)    S(lipo)     H(rot)  DE(clash)    DE(int)     intcor
     12.27     -14.98       1.00        0.00      87.73       1.60       0.09       2.62       ----

> <Gold.Chemscore.Fitness>
12.2682

> <Gold.Chemscore.DG>
-14.9767

> <Gold.Chemscore.ZeroCoef>
-5.4800

> <Gold.Chemscore.Hbond>
0.9999

> <Gold.Chemscore.Metal>
0.0000

> <Gold.Chemscore.Lipo>
87.7272

> <Gold.Chemscore.Internal_Hbond>
0.0000

> <Gold.Chemscore.DEClash>
0.0853

> <Gold.Chemscore.DEInternal>
2.6231

> <Gold.Chemscore.Rot>
1.6044

> <Gold.Chemscore.Internal.Correction>
   9.000000E+99

> <Gold.Chemscore.Hbonds>
donor molecule, donor type, donor heavy atom, donor atom, acceptor molecule, acceptor atom, score
      L1  H    13    55       P1  8028  1.00

> <Gold.Chemscore.Hbond.Weighted>
-3.3398

> <Gold.Chemscore.Metal.Weighted>
-0.0000

> <Gold.Chemscore.Lipo.Weighted>
-10.2641

> <Gold.Chemscore.Internal_Hbond.Weighted>
0.0000

> <Gold.Chemscore.DEClash.Weighted>
0.0853

> <Gold.Chemscore.DEInternal.Weighted>
2.6231

> <Gold.Chemscore.Rot.Weighted>
4.1072

> <Gold.Chemscore.Internal.Correction.Weighted>
   9.000000E+99

> <Gold.Protein.RotatedTorsions>
[ 6907 6896 6895 6894 ] final   79.48 input  -60.11 | X-H torsion
[ 7974 7965 7964 7962 ] final -145.69 input  175.53 | X-H torsion
[ 8008 7997 7996 7995 ] final  173.55 input   59.86 | X-H torsion
[ 10167 10162 10161 10158 ] final  172.85 input  -65.29 | X-H torsion
[ 10718 10713 10712 10709 ] final   37.10 input   66.30 | X-H torsion
[ 10763 10752 10751 10750 ] final  157.30 input  -60.55 | X-H torsion
[ 11005 11000 10999 10996 ] final  -98.76 input  -57.11 | X-H torsion

> <Gold.Protein.ActiveResidues>
 VAL166  LYS551  ARG553  GLY616  TRP617  ASP618  TYR619  PRO620  LYS621  CYS622 
 ASP623  PHE694  ASN695  SER759  ASP760  ASP761  ALA762  ILE779  LEU786  VAL792 
 PHE793  MET794  SER795  GLU796  ALA797  LYS798  CYS799  TRP800  GLU811  SER814 

> <Gold.Protein.RotatedAtoms>
  152.5200  134.3504  159.9248 H   0  0  0  0  0  0  0  0  0  0  0  0  # atno 6907 bound_to 6896
  151.3455  133.3939  159.2683 H   0  0  0  0  0  0  0  0  0  0  0  0  # atno 6908 bound_to 6896
  150.9769  134.9150  159.7879 H   0  0  0  0  0  0  0  0  0  0  0  0  # atno 6909 bound_to 6896
  144.8210  140.5551  143.5578 H   0  0  0  0  0  0  0  0  0  0  0  0  # atno 7974 bound_to 7965
  156.1064  140.1457  156.9399 H   0  0  0  0  0  0  0  0  0  0  0  0  # atno 8008 bound_to 7997
  154.4736  140.0901  156.7252 H   0  0  0  0  0  0  0  0  0  0  0  0  # atno 8009 bound_to 7997
  155.4673  140.3440  155.4323 H   0  0  0  0  0  0  0  0  0  0  0  0  # atno 8010 bound_to 7997
  139.5089  144.3328  152.0095 H   0  0  0  0  0  0  0  0  0  0  0  0  # atno 10167 bound_to 10162
  157.3428  130.7557  149.6924 H   0  0  0  0  0  0  0  0  0  0  0  0  # atno 10718 bound_to 10713
  154.1981  135.2791  155.3000 H   0  0  0  0  0  0  0  0  0  0  0  0  # atno 10763 bound_to 10752
  154.5876  135.5570  153.7250 H   0  0  0  0  0  0  0  0  0  0  0  0  # atno 10764 bound_to 10752
  153.0095  135.6360  154.2120 H   0  0  0  0  0  0  0  0  0  0  0  0  # atno 10765 bound_to 10752
  141.1333  133.8269  157.0882 H   0  0  0  0  0  0  0  0  0  0  0  0  # atno 11005 bound_to 11000
  145.5105  139.1479  143.3607 LP  0  0  0  0  0  0  0  0  0  0  0  0  # atno 17320 bound_to 7965
  146.2515  140.5246  142.8891 LP  0  0  0  0  0  0  0  0  0  0  0  0  # atno 17321 bound_to 7965
  140.2767  144.3905  150.6133 LP  0  0  0  0  0  0  0  0  0  0  0  0  # atno 17342 bound_to 10162
  140.6048  143.2167  151.7001 LP  0  0  0  0  0  0  0  0  0  0  0  0  # atno 17343 bound_to 10162
  155.9710  130.4163  150.4222 LP  0  0  0  0  0  0  0  0  0  0  0  0  # atno 17370 bound_to 10713
  157.2273  131.0496  151.2512 LP  0  0  0  0  0  0  0  0  0  0  0  0  # atno 17371 bound_to 10713
  140.0409  134.9855  157.0960 LP  0  0  0  0  0  0  0  0  0  0  0  0  # atno 17394 bound_to 11000
  140.4137  134.1954  155.7163 LP  0  0  0  0  0  0  0  0  0  0  0  0  # atno 17395 bound_to 11000

$$$$
