AV-unprocessed.smi:102|AV-procd|sdf|961|dock8
  -GOLD-   2262017503D 1   1.00000     0.00000
 Structure written by MMmdl.
 43 44  0  0  0  0  0  0  0  0  2 V2000
  147.6298  134.8679  160.6119 C   0  0  0  0  0  0  0  0  0  0  0  0
  147.1967  136.3222  160.4856 C   0  0  0  0  0  0  0  0  0  0  0  0
  147.6983  137.2039  161.1830 O   0  0  0  0  0  0  0  0  0  0  0  0
  146.2408  136.4925  159.5548 O   0  0  0  0  0  0  0  0  0  0  0  0
  145.7881  137.7964  159.2150 C   0  0  0  0  0  0  0  0  0  0  0  0
  146.4516  138.2803  157.9169 C   0  0  2  0  0  0  0  0  0  0  0  0
  147.7486  138.8038  158.1816 O   0  0  0  0  0  0  0  0  0  0  0  0
  148.1227  139.6911  157.1672 C   0  0  1  0  0  0  0  0  0  0  0  0
  149.2168  139.0628  156.3242 N   0  0  0  0  0  0  0  0  0  0  0  0
  149.4639  137.6997  156.3553 C   0  0  0  0  0  0  0  0  0  0  0  0
  150.4305  137.1480  155.5938 C   0  0  0  0  0  0  0  0  0  0  0  0
  150.6465  135.8223  155.6443 F   0  0  0  0  0  0  0  0  0  0  0  0
  151.2354  137.9977  154.7181 C   0  0  0  0  0  0  0  0  0  0  0  0
  152.1152  137.4880  154.0259 O   0  0  0  0  0  0  0  0  0  0  0  0
  150.9701  139.3361  154.7077 N   0  5  0  0  0  0  0  0  0  0  0  0
  149.9909  139.8989  155.4746 C   0  0  0  0  0  0  0  0  0  0  0  0
  149.7334  141.1027  155.4637 O   0  0  0  0  0  0  0  0  0  0  0  0
  146.8460  140.0170  156.3565 C   0  0  1  0  0  0  0  0  0  0  0  0
  146.8435  139.3236  155.1066 O   0  0  0  0  0  0  0  0  0  0  0  0
  147.2713  139.9244  153.9830 C   0  0  0  0  0  0  0  0  0  0  0  0
  147.1206  139.0330  152.7579 C   0  0  0  0  0  0  0  0  0  0  0  0
  147.7339  141.0618  153.8964 O   0  0  0  0  0  0  0  0  0  0  0  0
  145.7595  139.4826  157.2847 C   0  0  1  0  0  0  0  0  0  0  0  0
  144.5613  139.1194  156.6080 O   0  0  0  0  0  0  0  0  0  0  0  0
  143.7985  140.0643  156.0316 C   0  0  0  0  0  0  0  0  0  0  0  0
  142.4831  139.5062  155.5054 C   0  0  0  0  0  0  0  0  0  0  0  0
  144.0876  141.2544  155.9079 O   0  0  0  0  0  0  0  0  0  0  0  0
  146.7876  134.2470  160.9169 H   0  0  0  0  0  0  0  0  0  0  0  0
  148.4211  134.7679  161.3551 H   0  0  0  0  0  0  0  0  0  0  0  0
  148.0049  134.5005  159.6566 H   0  0  0  0  0  0  0  0  0  0  0  0
  144.7112  137.7264  159.0601 H   0  0  0  0  0  0  0  0  0  0  0  0
  145.9388  138.5067  160.0292 H   0  0  0  0  0  0  0  0  0  0  0  0
  146.5189  137.4683  157.1903 H   0  0  0  0  0  0  0  0  0  0  0  0
  148.5766  140.5655  157.6365 H   0  0  0  0  0  0  0  0  0  0  0  0
  148.8816  137.0518  156.9924 H   0  0  0  0  0  0  0  0  0  0  0  0
  146.7726  141.0973  156.2248 H   0  0  0  0  0  0  0  0  0  0  0  0
  146.2750  138.3552  152.8764 H   0  0  0  0  0  0  0  0  0  0  0  0
  148.0232  138.4386  152.6148 H   0  0  0  0  0  0  0  0  0  0  0  0
  146.9568  139.6368  151.8651 H   0  0  0  0  0  0  0  0  0  0  0  0
  145.5574  140.2149  158.0685 H   0  0  0  0  0  0  0  0  0  0  0  0
  141.9700  138.9422  156.2846 H   0  0  0  0  0  0  0  0  0  0  0  0
  142.6675  138.8432  154.6599 H   0  0  0  0  0  0  0  0  0  0  0  0
  141.8290  140.3135  155.1756 H   0  0  0  0  0  0  0  0  0  0  0  0
  1  2  1  0  0  0  0
  1 28  1  0  0  0  0
  1 29  1  0  0  0  0
  1 30  1  0  0  0  0
  2  3  2  0  0  0  0
  2  4  1  0  0  0  0
  4  5  1  0  0  0  0
  5  6  1  0  0  0  0
  5 31  1  0  0  0  0
  5 32  1  0  0  0  0
  6 23  1  0  0  0  0
  6  7  1  0  0  0  0
  6 33  1  0  0  0  0
  7  8  1  0  0  0  0
  8  9  1  0  0  0  0
  8 18  1  0  0  0  0
  8 34  1  0  0  0  0
  9 16  1  0  0  0  0
  9 10  1  0  0  0  0
 10 11  2  0  0  0  0
 10 35  1  0  0  0  0
 11 12  1  0  0  0  0
 11 13  1  0  0  0  0
 13 14  2  0  0  0  0
 13 15  1  0  0  0  0
 15 16  1  0  0  0  0
 16 17  2  0  0  0  0
 18 19  1  0  0  0  0
 18 23  1  0  0  0  0
 18 36  1  0  0  0  0
 19 20  1  0  0  0  0
 20 21  1  0  0  0  0
 20 22  2  0  0  0  0
 21 37  1  0  0  0  0
 21 38  1  0  0  0  0
 21 39  1  0  0  0  0
 23 24  1  0  0  0  0
 23 40  1  0  0  0  0
 24 25  1  0  0  0  0
 25 26  1  0  0  0  0
 25 27  2  0  0  0  0
 26 41  1  0  0  0  0
 26 42  1  0  0  0  0
 26 43  1  0  0  0  0
M  CHG  1  15  -1
M  END
> <s_m_source_file>
AV-unprocessed.smi

> <i_m_source_file_index>
102

> <i_lp_mmshare_version>
43012

> <i_f3d_flags>
0

> <s_epik_input>
W0NIM11DKD1PKU9bQ0gyXVtDQEBIXTFPW0NASF0oW0NAQEhdKE9DKD1PKVtDSDNdKVtDQEhdMU9DKD1PKVtDSDNdKW4yW2NIXWMoRiljKD1PKVtuSF1jMj1P

> <s_epik_cmdline>
J2VwaWtfcHl0aG9uJywgJy1waCcsICc3LjAnLCAnLXRuJywgJzgnLCAnLW1hJywgJzIwMCcsICctbWV0YWxfYmluZGluZycsICctaW1hZScsICc8aW5maWxlLm1hZT4nLCAnLW9tYWUnLCAnPG91dGZpbGUubWFlPic=

> <r_epik_Ionization_Penalty>
1.40304

> <r_epik_Ionization_Penalty_Charging>
1.43915e-08

> <r_epik_Ionization_Penalty_Neutral>
1.40304

> <r_epik_State_Penalty>
1.48536

> <r_epik_Charging_Adjusted_Penalty>
1.48536

> <i_epik_Tot_Q>
-1

> <i_epik_Tot_abs_Q>
1

> <r_epik_Metal_State_Penalty>
0.00663881

> <b_epik_Metal_Only>
0

> <s_epik_Chemistry_Notes>
This compound has an ester and may undergo hydrolysis at high or low pH. This compound contains an acetal/aminal-like group ( X-CH(R)-Y where X, Y are N, S, or O) that may be acid/base labile, releasing an aldehyde.

> <s_lp_Force_Field>
OPLS_2005

> <r_lp_Energy>
23.8996

> <b_lp_Chiralities_Consistent>
1

> <s_lp_Variant>
AV-unprocessed.smi:102-17

> <Gold.Version>
5.8.1

> <Gold.Id.Protein>
6NUR|6NUR_protein|mol2

> <Gold.PLP.Fitness>
31.7661

> <Gold.PLP.PLP>
-22.7921

> <Gold.PLP.part.hbond>
-4.8014

> <Gold.PLP.part.metal>
0.0000

> <Gold.PLP.part.buried>
-4.5369

> <Gold.PLP.part.nonpolar>
-14.8182

> <Gold.PLP.part.repulsive>
1.1048

> <Gold.PLP.ligand.clash>
0.0000

> <Gold.PLP.ligand.torsion>
1.4303

> <Gold.PLP.Chemscore.Hbond>
3.7040

> <Gold.PLP.Chemscore.CHOScore>
0.0000

> <Gold.PLP.Chemscore.Metal>
0.0000

> <Gold.Chemscore.Hbonds>
donor molecule, donor type, donor heavy atom, donor atom, acceptor molecule, acceptor atom, score
      P1  H  6931  6943       L1     3  0.93
      P1  H  6934  6947       L1     3  0.85
      P1  H  7989  7998       L1    15  0.93
      P1  H 10752 10765       L1    14  0.90

> <Gold.PLP.Chemscore.Internal.Correction>
0.7226

> <Gold.Rescore>
     Score         DG    S(hbond)    S(metal)    S(lipo)     H(rot)  DE(clash)    DE(int)     intcor
      5.30      -8.41       3.16        0.00      22.24       4.00       0.06       3.05       ----

> <Gold.Chemscore.Fitness>
5.2972

> <Gold.Chemscore.DG>
-8.4112

> <Gold.Chemscore.ZeroCoef>
-5.4800

> <Gold.Chemscore.Hbond>
3.1605

> <Gold.Chemscore.Metal>
0.0000

> <Gold.Chemscore.Lipo>
22.2448

> <Gold.Chemscore.Internal_Hbond>
0.0000

> <Gold.Chemscore.DEClash>
0.0613

> <Gold.Chemscore.DEInternal>
3.0528

> <Gold.Chemscore.Rot>
3.9951

> <Gold.Chemscore.Internal.Correction>
   9.000000E+99

> <Gold.Chemscore.Hbonds>
donor molecule, donor type, donor heavy atom, donor atom, acceptor molecule, acceptor atom, score
      P1  H  6931  6943       L1     3  0.91
      P1  H  6934  6947       L1     3  0.83
      P1  H  7989  7998       L1    15  0.44
      P1  H 10752 10765       L1    14  0.86

> <Gold.Chemscore.Hbond.Weighted>
-10.5560

> <Gold.Chemscore.Metal.Weighted>
-0.0000

> <Gold.Chemscore.Lipo.Weighted>
-2.6026

> <Gold.Chemscore.Internal_Hbond.Weighted>
0.0000

> <Gold.Chemscore.DEClash.Weighted>
0.0613

> <Gold.Chemscore.DEInternal.Weighted>
3.0528

> <Gold.Chemscore.Rot.Weighted>
10.2274

> <Gold.Chemscore.Internal.Correction.Weighted>
   9.000000E+99

> <Gold.Protein.RotatedTorsions>
[ 6907 6896 6895 6894 ] final  -33.75 input  -60.11 | X-H torsion
[ 7974 7965 7964 7962 ] final   59.35 input  175.53 | X-H torsion
[ 8008 7997 7996 7995 ] final  123.14 input   59.86 | X-H torsion
[ 10167 10162 10161 10158 ] final  149.77 input  -65.29 | X-H torsion
[ 10718 10713 10712 10709 ] final  -88.21 input   66.30 | X-H torsion
[ 10763 10752 10751 10750 ] final  146.41 input  -60.55 | X-H torsion
[ 11005 11000 10999 10996 ] final -147.52 input  -57.11 | X-H torsion

> <Gold.Protein.ActiveResidues>
 VAL166  LYS551  ARG553  GLY616  TRP617  ASP618  TYR619  PRO620  LYS621  CYS622 
 ASP623  PHE694  ASN695  SER759  ASP760  ASP761  ALA762  ILE779  LEU786  VAL792 
 PHE793  MET794  SER795  GLU796  ALA797  LYS798  CYS799  TRP800  GLU811  SER814 

> <Gold.Protein.RotatedAtoms>
  151.0616  134.9740  159.8262 H   0  0  0  0  0  0  0  0  0  0  0  0  # atno 6907 bound_to 6896
  152.5396  134.2411  159.8872 H   0  0  0  0  0  0  0  0  0  0  0  0  # atno 6908 bound_to 6896
  151.2431  133.4346  159.2642 H   0  0  0  0  0  0  0  0  0  0  0  0  # atno 6909 bound_to 6896
  145.9081  139.3632  143.0552 H   0  0  0  0  0  0  0  0  0  0  0  0  # atno 7974 bound_to 7965
  156.2755  140.2769  156.1580 H   0  0  0  0  0  0  0  0  0  0  0  0  # atno 8008 bound_to 7997
  155.0783  140.0387  157.2649 H   0  0  0  0  0  0  0  0  0  0  0  0  # atno 8009 bound_to 7997
  154.6984  140.2644  155.6749 H   0  0  0  0  0  0  0  0  0  0  0  0  # atno 8010 bound_to 7997
  139.4857  144.5575  151.7291 H   0  0  0  0  0  0  0  0  0  0  0  0  # atno 10167 bound_to 10162
  155.9984  130.4827  150.4984 H   0  0  0  0  0  0  0  0  0  0  0  0  # atno 10718 bound_to 10713
  154.0214  135.2905  155.3380 H   0  0  0  0  0  0  0  0  0  0  0  0  # atno 10763 bound_to 10752
  154.7044  135.5175  153.8576 H   0  0  0  0  0  0  0  0  0  0  0  0  # atno 10764 bound_to 10752
  153.0679  135.6637  154.0436 H   0  0  0  0  0  0  0  0  0  0  0  0  # atno 10765 bound_to 10752
  140.7707  134.3192  157.5075 H   0  0  0  0  0  0  0  0  0  0  0  0  # atno 11005 bound_to 11000
  145.8707  140.9422  143.0652 LP  0  0  0  0  0  0  0  0  0  0  0  0  # atno 17320 bound_to 7965
  144.6741  140.0650  143.7475 LP  0  0  0  0  0  0  0  0  0  0  0  0  # atno 17321 bound_to 7965
  140.5139  144.0983  150.6003 LP  0  0  0  0  0  0  0  0  0  0  0  0  # atno 17342 bound_to 10162
  140.3918  143.2748  152.0051 LP  0  0  0  0  0  0  0  0  0  0  0  0  # atno 17343 bound_to 10162
  157.2971  131.0638  151.2094 LP  0  0  0  0  0  0  0  0  0  0  0  0  # atno 17370 bound_to 10713
  157.3086  130.6878  149.6203 LP  0  0  0  0  0  0  0  0  0  0  0  0  # atno 17371 bound_to 10713
  139.8756  134.9259  156.3387 LP  0  0  0  0  0  0  0  0  0  0  0  0  # atno 17394 bound_to 11000
  140.9576  133.7410  156.0357 LP  0  0  0  0  0  0  0  0  0  0  0  0  # atno 17395 bound_to 11000

$$$$
