#       Name:                AV-unprocessed.smi:288
#       Creating user name   scv26
#       Creation time:       Thu Mar 26 22:04:21 2020


#       File generated by GOLD software.
#

@<TRIPOS>MOLECULE
AV-unprocessed.smi:288
    41    42     1
SMALL
NO_CHARGES


@<TRIPOS>ATOM
      1 ****        -0.0453  -1.3181   3.3242 O.2            1 S1                 0.0000
      2 ****        -0.2296  -0.6727   2.2908 C.2            1 S1                 0.0000
      3 ****        -0.9528   0.5930   2.2522 C.2            1 S1                 0.0000
      4 ****        -1.4644   1.0996   3.3870 F              1 S1                 0.0000
      5 ****        -1.1130   1.2724   1.0959 C.2            1 S1                 0.0000
      6 ****        -0.6083   0.8323  -0.1191 N.am           1 S1                 0.0000
      7 ****        -0.8080   1.5854  -1.4200 C.3            1 S1                 0.0000
      8 ****        -1.5927   2.8963  -1.3114 C.3            1 S1                 0.0000
      9 ****        -2.0481   3.0460  -2.7440 C.3            1 S1                 0.0000
     10 ****        -2.3919   1.6012  -3.1038 C.3            1 S1                 0.0000
     11 ****        -1.5585   0.7832  -2.2832 O.3            1 S1                 0.0000
     12 ****         0.1202  -0.3780  -0.1690 C.2            1 S1                 0.0000
     13 ****         0.6140  -0.7734  -1.2278 O.2            1 S1                 0.0000
     14 ****         0.2670  -1.1029   1.0366 N.am           1 S1                 0.0000
     15 ****         1.0066  -2.3541   0.9954 C.3            1 S1                 0.0000
     16 ****         2.5030  -2.1917   1.3449 C.3            1 S1                 0.0000
     17 ****         3.2173  -1.9279   0.1526 O.3            1 S1                 0.0000
     18 ****         3.0987  -3.4618   1.9836 C.3            1 S1                 0.0000
     19 ****         4.3958  -3.2858   2.2372 F              1 S1                 0.0000
     20 ****         2.4856  -3.7050   3.1422 F              1 S1                 0.0000
     21 ****         2.9378  -4.5189   1.1863 F              1 S1                 0.0000
     22 ****        -1.6463   2.2065   1.1613 H              1 S1                 0.0000
     23 ****         0.1946   1.7444  -1.8225 H              1 S1                 0.0000
     24 ****        -2.4745   2.7772  -0.6818 H              1 S1                 0.0000
     25 ****        -0.9713   3.7141  -0.9458 H              1 S1                 0.0000
     26 ****        -2.8920   3.7266  -2.8595 H              1 S1                 0.0000
     27 ****        -1.2265   3.4072  -3.3645 H              1 S1                 0.0000
     28 ****        -3.4336   1.3827  -2.8657 H              1 S1                 0.0000
     29 ****        -2.2352   1.3919  -4.1622 H              1 S1                 0.0000
     30 ****         0.5083  -3.0282   1.6940 H              1 S1                 0.0000
     31 ****         0.8508  -2.8250   0.0231 H              1 S1                 0.0000
     32 ****         2.6487  -1.3555   2.0300 H              1 S1                 0.0000
     33 ****         2.8445  -1.1625  -0.2576 H              1 S1                 0.0000
     34 ****         0.4692  -2.1750   3.2935 LP             1 S1                 0.0000
     35 ****        -0.4103  -0.9849   4.1936 LP             1 S1                 0.0000
     36 ****        -2.1291   0.1617  -1.7464 LP             1 S1                 0.0000
     37 ****        -0.9410   0.2518  -2.8631 LP             1 S1                 0.0000
     38 ****         0.5011  -0.2360  -2.0636 LP             1 S1                 0.0000
     39 ****         1.1273  -1.6313  -1.2505 LP             1 S1                 0.0000
     40 ****         3.1437  -2.7110  -0.4649 LP             1 S1                 0.0000
     41 ****         4.1799  -1.7610   0.3661 LP             1 S1                 0.0000
@<TRIPOS>BOND
    1    1    2 2     
    2    2   14 am    
    3    2    3 1     
    4    3    4 1     
    5    3    5 2     
    6    5    6 1     
    7    5   22 1     
    8    6    7 1     
    9    6   12 am    
   10    7   11 1     
   11    7    8 1     
   12    7   23 1     
   13    8    9 1     
   14    8   24 1     
   15    8   25 1     
   16    9   10 1     
   17    9   26 1     
   18    9   27 1     
   19   10   11 1     
   20   10   28 1     
   21   10   29 1     
   22   12   13 2     
   23   12   14 am    
   24   14   15 1     
   25   15   16 1     
   26   15   30 1     
   27   15   31 1     
   28   16   17 1     
   29   16   18 1     
   30   16   32 1     
   31   17   33 1     
   32   18   19 1     
   33   18   20 1     
   34   18   21 1     
   35    1   34 1     
   36    1   35 1     
   37   11   36 1     
   38   11   37 1     
   39   13   38 1     
   40   13   39 1     
   41   17   40 1     
   42   17   41 1     
@<TRIPOS>SUBSTRUCTURE
      1 S1             1
@<TRIPOS>SET
LONE_PAIRS      STATIC     ATOMS    <user>   **** ""
8 34 35 36 37 38 39 40 41
DONOR_HYDROGENS      STATIC     ATOMS    <user>   **** ""
1 33
ATOM$BLUE        STATIC     ATOMS    COLORGROUP SYSTEM
8 34 35 36 37 38 39 40 41
ATOM$RED        STATIC     ATOMS    COLORGROUP SYSTEM
1 33
