AV-unprocessed.smi:582|AV-procd|sdf|2996|dock5
  -GOLD-   2262023503D 1   1.00000     0.00000
 Structure written by MMmdl.
 27 28  0  0  0  0  0  0  0  0  3 V2000
  150.9812  132.6456  157.4847 O   0  0  0  0  0  0  0  0  0  0  0  0
  150.7758  133.5200  156.6140 C   0  0  0  0  0  0  0  0  0  0  0  0
  151.3422  134.6351  156.6320 O   0  5  0  0  0  0  0  0  0  0  0  0
  149.8111  133.2197  155.5022 C   0  0  0  0  0  0  0  0  0  0  0  0
  149.1932  131.9515  155.3982 C   0  0  0  0  0  0  0  0  0  0  0  0
  148.2924  131.6985  154.3433 C   0  0  0  0  0  0  0  0  0  0  0  0
  148.0203  132.7195  153.4042 C   0  0  0  0  0  0  0  0  0  0  0  0
  147.1427  132.5611  152.3241 N   0  0  0  0  0  0  0  0  0  0  0  0
  146.4701  131.2684  152.3194 C   0  0  0  0  0  0  0  0  0  0  0  0
  145.6082  131.1290  151.0530 C   0  0  0  0  0  0  0  0  0  0  0  0
  144.6943  132.2192  150.9774 O   0  0  0  0  0  0  0  0  0  0  0  0
  145.3627  133.4753  150.9040 C   0  0  0  0  0  0  0  0  0  0  0  0
  146.2173  133.6759  152.1671 C   0  0  0  0  0  0  0  0  0  0  0  0
  148.6297  133.9174  153.5363 N   0  3  0  0  0  0  0  0  0  0  0  0
  149.4984  134.1993  154.5323 C   0  0  0  0  0  0  0  0  0  0  0  0
  149.4024  131.1722  156.1169 H   0  0  0  0  0  0  0  0  0  0  0  0
  147.8203  130.7307  154.2616 H   0  0  0  0  0  0  0  0  0  0  0  0
  147.2091  130.4669  152.3591 H   0  0  0  0  0  0  0  0  0  0  0  0
  145.8416  131.1740  153.2060 H   0  0  0  0  0  0  0  0  0  0  0  0
  146.2322  131.1001  150.1582 H   0  0  0  0  0  0  0  0  0  0  0  0
  145.0467  130.1951  151.0803 H   0  0  0  0  0  0  0  0  0  0  0  0
  145.9793  133.5199  150.0049 H   0  0  0  0  0  0  0  0  0  0  0  0
  144.6202  134.2690  150.8213 H   0  0  0  0  0  0  0  0  0  0  0  0
  145.5702  133.7480  153.0423 H   0  0  0  0  0  0  0  0  0  0  0  0
  146.7741  134.6114  152.0975 H   0  0  0  0  0  0  0  0  0  0  0  0
  149.9139  135.1969  154.5204 H   0  0  0  0  0  0  0  0  0  0  0  0
  148.4253  134.6458  152.8522 H   0  0  0  0  0  0  0  0  0  0  0  0
  1  2  2  0  0  0  0
  2  3  1  0  0  0  0
  2  4  1  0  0  0  0
  4 15  1  0  0  0  0
  4  5  2  0  0  0  0
  5  6  1  0  0  0  0
  5 16  1  0  0  0  0
  6  7  2  0  0  0  0
  6 17  1  0  0  0  0
  7  8  1  0  0  0  0
  7 14  1  0  0  0  0
  8 13  1  0  0  0  0
  8  9  1  0  0  0  0
  9 10  1  0  0  0  0
  9 18  1  0  0  0  0
  9 19  1  0  0  0  0
 10 11  1  0  0  0  0
 10 20  1  0  0  0  0
 10 21  1  0  0  0  0
 11 12  1  0  0  0  0
 12 13  1  0  0  0  0
 12 22  1  0  0  0  0
 12 23  1  0  0  0  0
 13 24  1  0  0  0  0
 13 25  1  0  0  0  0
 14 15  2  0  0  0  0
 14 27  1  0  0  0  0
 15 26  1  0  0  0  0
M  CHG  1   3  -1
M  CHG  1  14   1
M  END
> <s_m_source_file>
AV-unprocessed.smi

> <i_m_source_file_index>
582

> <i_lp_mmshare_version>
43012

> <i_f3d_flags>
0

> <s_epik_input>
Tz1DKFtPSF0pYzFbY0hdW2NIXWMobltjSF0xKU4yW0NIMl1bQ0gyXU9bQ0gyXVtDSDJdMg==

> <s_epik_cmdline>
J2VwaWtfcHl0aG9uJywgJy1waCcsICc3LjAnLCAnLXRuJywgJzgnLCAnLW1hJywgJzIwMCcsICctbWV0YWxfYmluZGluZycsICctaW1hZScsICc8aW5maWxlLm1hZT4nLCAnLW9tYWUnLCAnPG91dGZpbGUubWFlPic=

> <r_epik_Ionization_Penalty>
2.51473

> <r_epik_Ionization_Penalty_Charging>
2.51473

> <r_epik_Ionization_Penalty_Neutral>
3.18713e-12

> <r_epik_State_Penalty>
2.68069

> <r_epik_Charging_Adjusted_Penalty>
5.19543

> <i_epik_Tot_Q>
0

> <i_epik_Tot_abs_Q>
2

> <r_epik_Metal_State_Penalty>
6.76699

> <b_epik_Metal_Only>
0

> <s_lp_Force_Field>
OPLS_2005

> <r_lp_Energy>
18.1108

> <b_lp_Chiralities_Consistent>
1

> <s_lp_Variant>
AV-unprocessed.smi:582-2

> <Gold.Version>
5.8.1

> <Gold.Id.Protein>
6NUR|6NUR_protein|mol2

> <Gold.PLP.Fitness>
35.6460

> <Gold.PLP.PLP>
-23.9046

> <Gold.PLP.part.hbond>
-2.1349

> <Gold.PLP.part.metal>
0.0000

> <Gold.PLP.part.buried>
-3.6813

> <Gold.PLP.part.nonpolar>
-18.4639

> <Gold.PLP.part.repulsive>
0.2786

> <Gold.PLP.ligand.clash>
0.0000

> <Gold.PLP.ligand.torsion>
0.1765

> <Gold.PLP.Chemscore.Hbond>
4.0000

> <Gold.PLP.Chemscore.CHOScore>
0.0000

> <Gold.PLP.Chemscore.Metal>
0.0000

> <Gold.Chemscore.Hbonds>
donor molecule, donor type, donor heavy atom, donor atom, acceptor molecule, acceptor atom, score
      L1  H    14    27       P1  7948  2.00
      P1  H  6896  6907       L1     1  2.00

> <Gold.PLP.Chemscore.Internal.Correction>
0.0944

> <Gold.Rescore>
     Score         DG    S(hbond)    S(metal)    S(lipo)     H(rot)  DE(clash)    DE(int)     intcor
     13.70     -14.03       1.66        0.00      47.50       1.00       0.13       0.20       ----

> <Gold.Chemscore.Fitness>
13.6980

> <Gold.Chemscore.DG>
-14.0298

> <Gold.Chemscore.ZeroCoef>
-5.4800

> <Gold.Chemscore.Hbond>
1.6624

> <Gold.Chemscore.Metal>
0.0000

> <Gold.Chemscore.Lipo>
47.4994

> <Gold.Chemscore.Internal_Hbond>
0.0000

> <Gold.Chemscore.DEClash>
0.1343

> <Gold.Chemscore.DEInternal>
0.1975

> <Gold.Chemscore.Rot>
1.0000

> <Gold.Chemscore.Internal.Correction>
   9.000000E+99

> <Gold.Chemscore.Hbonds>
donor molecule, donor type, donor heavy atom, donor atom, acceptor molecule, acceptor atom, score
      L1  H    14    27       P1  7948  0.33
      P1  H  6896  6907       L1     1  0.78

> <Gold.Chemscore.Hbond.Weighted>
-5.5524

> <Gold.Chemscore.Metal.Weighted>
-0.0000

> <Gold.Chemscore.Lipo.Weighted>
-5.5574

> <Gold.Chemscore.Internal_Hbond.Weighted>
0.0000

> <Gold.Chemscore.DEClash.Weighted>
0.1343

> <Gold.Chemscore.DEInternal.Weighted>
0.1975

> <Gold.Chemscore.Rot.Weighted>
2.5600

> <Gold.Chemscore.Internal.Correction.Weighted>
   9.000000E+99

> <Gold.Protein.RotatedTorsions>
[ 6907 6896 6895 6894 ] final -150.51 input  -60.11 | X-H torsion
[ 7974 7965 7964 7962 ] final  -22.98 input  175.53 | X-H torsion
[ 8008 7997 7996 7995 ] final -156.44 input   59.86 | X-H torsion
[ 10167 10162 10161 10158 ] final  179.22 input  -65.29 | X-H torsion
[ 10718 10713 10712 10709 ] final   54.95 input   66.30 | X-H torsion
[ 10763 10752 10751 10750 ] final  153.12 input  -60.55 | X-H torsion
[ 11005 11000 10999 10996 ] final -147.75 input  -57.11 | X-H torsion

> <Gold.Protein.ActiveResidues>
 VAL166  LYS551  ARG553  GLY616  TRP617  ASP618  TYR619  PRO620  LYS621  CYS622 
 ASP623  PHE694  ASN695  SER759  ASP760  ASP761  ALA762  ILE779  LEU786  VAL792 
 PHE793  MET794  SER795  GLU796  ALA797  LYS798  CYS799  TRP800  GLU811  SER814 

> <Gold.Protein.RotatedAtoms>
  151.1995  133.4619  159.2595 H   0  0  0  0  0  0  0  0  0  0  0  0  # atno 6907 bound_to 6896
  151.1083  135.0012  159.8492 H   0  0  0  0  0  0  0  0  0  0  0  0  # atno 6908 bound_to 6896
  152.5448  134.1917  159.8729 H   0  0  0  0  0  0  0  0  0  0  0  0  # atno 6909 bound_to 6896
  146.1644  140.4553  142.8558 H   0  0  0  0  0  0  0  0  0  0  0  0  # atno 7974 bound_to 7965
  155.7171  140.0785  157.2346 H   0  0  0  0  0  0  0  0  0  0  0  0  # atno 8008 bound_to 7997
  154.4050  140.1619  156.2415 H   0  0  0  0  0  0  0  0  0  0  0  0  # atno 8009 bound_to 7997
  155.9230  140.3396  155.6190 H   0  0  0  0  0  0  0  0  0  0  0  0  # atno 8010 bound_to 7997
  139.5327  144.2587  152.0725 H   0  0  0  0  0  0  0  0  0  0  0  0  # atno 10167 bound_to 10162
  157.5302  130.8625  149.8677 H   0  0  0  0  0  0  0  0  0  0  0  0  # atno 10718 bound_to 10713
  154.1311  135.2826  155.3185 H   0  0  0  0  0  0  0  0  0  0  0  0  # atno 10763 bound_to 10752
  154.6355  135.5420  153.7732 H   0  0  0  0  0  0  0  0  0  0  0  0  # atno 10764 bound_to 10752
  153.0281  135.6473  154.1461 H   0  0  0  0  0  0  0  0  0  0  0  0  # atno 10765 bound_to 10752
  140.7684  134.3218  157.5082 H   0  0  0  0  0  0  0  0  0  0  0  0  # atno 11005 bound_to 11000
  144.8071  140.6319  143.6440 LP  0  0  0  0  0  0  0  0  0  0  0  0  # atno 17320 bound_to 7965
  145.4506  139.1524  143.3920 LP  0  0  0  0  0  0  0  0  0  0  0  0  # atno 17321 bound_to 7965
  140.2053  144.4617  150.6411 LP  0  0  0  0  0  0  0  0  0  0  0  0  # atno 17342 bound_to 10162
  140.6515  143.2226  151.6066 LP  0  0  0  0  0  0  0  0  0  0  0  0  # atno 17343 bound_to 10162
  156.0417  130.3737  150.1420 LP  0  0  0  0  0  0  0  0  0  0  0  0  # atno 17370 bound_to 10713
  156.9605  130.9803  151.3480 LP  0  0  0  0  0  0  0  0  0  0  0  0  # atno 17371 bound_to 10713
  139.8759  134.9245  156.3352 LP  0  0  0  0  0  0  0  0  0  0  0  0  # atno 17394 bound_to 11000
  140.9597  133.7396  156.0384 LP  0  0  0  0  0  0  0  0  0  0  0  0  # atno 17395 bound_to 11000

$$$$
