AV-unprocessed.smi:1194|AV-procd|sdf|4990|dock5
  -GOLD-   22720 3593D 1   1.00000     0.00000
 Structure written by MMmdl.
 47 48  0  0  0  0  0  0  0  0  1 V2000
  144.4860  145.4883  153.3121 C   0  0  0  0  0  0  0  0  0  0  0  0
  144.5222  144.3072  154.2876 C   0  0  0  0  0  0  0  0  0  0  0  0
  145.7647  143.4186  154.0869 C   0  0  0  0  0  0  0  0  0  0  0  0
  145.8388  142.2185  155.0492 C   0  0  0  0  0  0  0  0  0  0  0  0
  144.8711  141.9933  155.7782 O   0  0  0  0  0  0  0  0  0  0  0  0
  146.9653  141.4575  155.0852 N   0  0  0  0  0  0  0  0  0  0  0  0
  148.1358  141.6708  154.2053 C   0  0  0  0  0  0  0  0  0  0  0  0
  148.4335  140.4022  153.3885 C   0  0  0  0  0  0  0  0  0  0  0  0
  148.6066  139.1814  154.3022 C   0  0  0  0  0  0  0  0  0  0  0  0
  147.3893  139.0341  155.2274 C   0  0  0  0  0  0  0  0  0  0  0  0
  147.1008  140.3234  156.0363 C   0  0  1  0  0  0  0  0  0  0  0  0
  148.1255  140.5883  157.1630 C   0  0  0  0  0  0  0  0  0  0  0  0
  147.7637  140.6410  158.3383 O   0  0  0  0  0  0  0  0  0  0  0  0
  149.4000  140.7722  156.7881 N   0  0  0  0  0  0  0  0  0  0  0  0
  150.5264  141.0515  157.6680 C   0  0  0  0  0  0  0  0  0  0  0  0
  151.0630  142.4761  157.4392 C   0  0  0  0  0  0  0  0  0  0  0  0
  151.3346  143.2349  158.7286 C   0  0  0  0  0  0  0  0  0  0  0  0
  152.2511  142.7415  159.6798 C   0  0  0  0  0  0  0  0  0  0  0  0
  152.4493  143.4666  160.8707 C   0  0  0  0  0  0  0  0  0  0  0  0
  151.7236  144.6597  161.0583 C   0  0  0  0  0  0  0  0  0  0  0  0
  150.8481  145.1447  160.1522 N   0  0  0  0  0  0  0  0  0  0  0  0
  150.6615  144.4423  159.0146 C   0  0  0  0  0  0  0  0  0  0  0  0
  143.5968  146.0982  153.4732 H   0  0  0  0  0  0  0  0  0  0  0  0
  144.4719  145.1444  152.2775 H   0  0  0  0  0  0  0  0  0  0  0  0
  145.3576  146.1310  153.4411 H   0  0  0  0  0  0  0  0  0  0  0  0
  144.5024  144.6942  155.3075 H   0  0  0  0  0  0  0  0  0  0  0  0
  143.6159  143.7133  154.1621 H   0  0  0  0  0  0  0  0  0  0  0  0
  145.7858  143.0492  153.0609 H   0  0  0  0  0  0  0  0  0  0  0  0
  146.6503  144.0373  154.2284 H   0  0  0  0  0  0  0  0  0  0  0  0
  148.0267  142.4965  153.5057 H   0  0  0  0  0  0  0  0  0  0  0  0
  149.0038  141.9277  154.8132 H   0  0  0  0  0  0  0  0  0  0  0  0
  147.6168  140.2219  152.6881 H   0  0  0  0  0  0  0  0  0  0  0  0
  149.3313  140.5469  152.7869 H   0  0  0  0  0  0  0  0  0  0  0  0
  148.7335  138.2794  153.7029 H   0  0  0  0  0  0  0  0  0  0  0  0
  149.5160  139.2897  154.8945 H   0  0  0  0  0  0  0  0  0  0  0  0
  146.5130  138.7947  154.6231 H   0  0  0  0  0  0  0  0  0  0  0  0
  147.5280  138.1803  155.8916 H   0  0  0  0  0  0  0  0  0  0  0  0
  146.1662  140.1347  156.5657 H   0  0  0  0  0  0  0  0  0  0  0  0
  149.6061  140.7240  155.8006 H   0  0  0  0  0  0  0  0  0  0  0  0
  150.1773  140.9496  158.6960 H   0  0  0  0  0  0  0  0  0  0  0  0
  151.3290  140.3251  157.5305 H   0  0  0  0  0  0  0  0  0  0  0  0
  151.9787  142.4378  156.8483 H   0  0  0  0  0  0  0  0  0  0  0  0
  150.3424  143.0404  156.8454 H   0  0  0  0  0  0  0  0  0  0  0  0
  152.7863  141.8197  159.5049 H   0  0  0  0  0  0  0  0  0  0  0  0
  153.1390  143.1155  161.6239 H   0  0  0  0  0  0  0  0  0  0  0  0
  151.8481  145.2397  161.9606 H   0  0  0  0  0  0  0  0  0  0  0  0
  149.9442  144.8519  158.3186 H   0  0  0  0  0  0  0  0  0  0  0  0
  1  2  1  0  0  0  0
  1 23  1  0  0  0  0
  1 24  1  0  0  0  0
  1 25  1  0  0  0  0
  2  3  1  0  0  0  0
  2 26  1  0  0  0  0
  2 27  1  0  0  0  0
  3  4  1  0  0  0  0
  3 28  1  0  0  0  0
  3 29  1  0  0  0  0
  4  5  2  0  0  0  0
  4  6  1  0  0  0  0
  6 11  1  0  0  0  0
  6  7  1  0  0  0  0
  7  8  1  0  0  0  0
  7 30  1  0  0  0  0
  7 31  1  0  0  0  0
  8  9  1  0  0  0  0
  8 32  1  0  0  0  0
  8 33  1  0  0  0  0
  9 10  1  0  0  0  0
  9 34  1  0  0  0  0
  9 35  1  0  0  0  0
 10 11  1  0  0  0  0
 10 36  1  0  0  0  0
 10 37  1  0  0  0  0
 11 12  1  0  0  0  0
 11 38  1  0  0  0  0
 12 13  2  0  0  0  0
 12 14  1  0  0  0  0
 14 15  1  0  0  0  0
 14 39  1  0  0  0  0
 15 16  1  0  0  0  0
 15 40  1  0  0  0  0
 15 41  1  0  0  0  0
 16 17  1  0  0  0  0
 16 42  1  0  0  0  0
 16 43  1  0  0  0  0
 17 22  1  0  0  0  0
 17 18  2  0  0  0  0
 18 19  1  0  0  0  0
 18 44  1  0  0  0  0
 19 20  2  0  0  0  0
 19 45  1  0  0  0  0
 20 21  1  0  0  0  0
 20 46  1  0  0  0  0
 21 22  2  0  0  0  0
 22 47  1  0  0  0  0
M  END
> <s_m_source_file>
AV-unprocessed.smi

> <i_m_source_file_index>
1194

> <i_lp_mmshare_version>
43012

> <i_f3d_flags>
0

> <s_epik_input>
W0NIM11bQ0gyXVtDSDJdQyg9TylOMVtDSDJdW0NIMl1bQ0gyXVtDSDJdW0NASF0xQyg9TylbTkhdW0NIMl1bQ0gyXWMyW2NIXVtjSF1bY0hdbltjSF0y

> <s_epik_cmdline>
J2VwaWtfcHl0aG9uJywgJy1waCcsICc3LjAnLCAnLXRuJywgJzgnLCAnLW1hJywgJzIwMCcsICctbWV0YWxfYmluZGluZycsICctaW1hZScsICc8aW5maWxlLm1hZT4nLCAnLW9tYWUnLCAnPG91dGZpbGUubWFlPic=

> <r_epik_Ionization_Penalty>
0.0130932

> <r_epik_Ionization_Penalty_Charging>
0

> <r_epik_Ionization_Penalty_Neutral>
0.0130932

> <r_epik_State_Penalty>
0.0101714

> <r_epik_Charging_Adjusted_Penalty>
0.0101714

> <i_epik_Tot_Q>
0

> <i_epik_Tot_abs_Q>
0

> <r_epik_Metal_State_Penalty>
0.00995056

> <b_epik_Metal_Only>
0

> <s_lp_Force_Field>
OPLS_2005

> <r_lp_Energy>
24.5515

> <b_lp_Chiralities_Consistent>
1

> <s_lp_Variant>
AV-unprocessed.smi:1194-1

> <Gold.Version>
5.8.1

> <Gold.Id.Protein>
6NUR|6NUR_protein|mol2

> <Gold.PLP.Fitness>
44.1343

> <Gold.PLP.PLP>
-41.9271

> <Gold.PLP.part.hbond>
-1.2669

> <Gold.PLP.part.metal>
0.0000

> <Gold.PLP.part.buried>
-1.0001

> <Gold.PLP.part.nonpolar>
-39.3009

> <Gold.PLP.part.repulsive>
0.3400

> <Gold.PLP.ligand.clash>
0.0000

> <Gold.PLP.ligand.torsion>
0.4223

> <Gold.PLP.Chemscore.Hbond>
0.0000

> <Gold.PLP.Chemscore.CHOScore>
0.9845

> <Gold.PLP.Chemscore.Metal>
0.0000

> <Gold.Chemscore.Hbonds>
donor molecule, donor type, donor heavy atom, donor atom, acceptor molecule, acceptor atom, score
      L1  C    22    47       P1  8028  0.09
      L1  C    22    47       P1  8029  0.98

> <Gold.PLP.Chemscore.Internal.Correction>
0.0984

> <Gold.Rescore>
     Score         DG    S(hbond)    S(metal)    S(lipo)     H(rot)  DE(clash)    DE(int)     intcor
     11.62     -15.50       0.00        0.00     122.43       1.68       1.79       2.09       ----

> <Gold.Chemscore.Fitness>
11.6235

> <Gold.Chemscore.DG>
-15.4973

> <Gold.Chemscore.ZeroCoef>
-5.4800

> <Gold.Chemscore.Hbond>
0.0000

> <Gold.Chemscore.Metal>
0.0000

> <Gold.Chemscore.Lipo>
122.4286

> <Gold.Chemscore.Internal_Hbond>
0.0000

> <Gold.Chemscore.DEClash>
1.7868

> <Gold.Chemscore.DEInternal>
2.0871

> <Gold.Chemscore.Rot>
1.6823

> <Gold.Chemscore.Internal.Correction>
   9.000000E+99

> <Gold.Chemscore.Hbond.Weighted>
-0.0000

> <Gold.Chemscore.Metal.Weighted>
-0.0000

> <Gold.Chemscore.Lipo.Weighted>
-14.3241

> <Gold.Chemscore.Internal_Hbond.Weighted>
0.0000

> <Gold.Chemscore.DEClash.Weighted>
1.7868

> <Gold.Chemscore.DEInternal.Weighted>
2.0871

> <Gold.Chemscore.Rot.Weighted>
4.3068

> <Gold.Chemscore.Internal.Correction.Weighted>
   9.000000E+99

> <Gold.Protein.RotatedTorsions>
[ 6907 6896 6895 6894 ] final   73.52 input  -60.11 | X-H torsion
[ 7974 7965 7964 7962 ] final  120.27 input  175.53 | X-H torsion
[ 8008 7997 7996 7995 ] final  -80.41 input   59.86 | X-H torsion
[ 10167 10162 10161 10158 ] final -142.80 input  -65.29 | X-H torsion
[ 10718 10713 10712 10709 ] final -115.34 input   66.30 | X-H torsion
[ 10763 10752 10751 10750 ] final  -42.01 input  -60.55 | X-H torsion
[ 11005 11000 10999 10996 ] final   -7.13 input  -57.11 | X-H torsion

> <Gold.Protein.ActiveResidues>
 VAL166  LYS551  ARG553  GLY616  TRP617  ASP618  TYR619  PRO620  LYS621  CYS622 
 ASP623  PHE694  ASN695  SER759  ASP760  ASP761  ALA762  ILE779  LEU786  VAL792 
 PHE793  MET794  SER795  GLU796  ALA797  LYS798  CYS799  TRP800  GLU811  SER814 

> <Gold.Protein.RotatedAtoms>
  152.4928  134.4409  159.9542 H   0  0  0  0  0  0  0  0  0  0  0  0  # atno 6907 bound_to 6896
  151.4393  133.3642  159.2787 H   0  0  0  0  0  0  0  0  0  0  0  0  # atno 6908 bound_to 6896
  150.9099  134.8539  159.7478 H   0  0  0  0  0  0  0  0  0  0  0  0  # atno 6909 bound_to 6896
  145.1332  139.3314  143.4654 H   0  0  0  0  0  0  0  0  0  0  0  0  # atno 7974 bound_to 7965
  154.5880  140.0663  156.9199 H   0  0  0  0  0  0  0  0  0  0  0  0  # atno 8008 bound_to 7997
  155.2345  140.3340  155.4281 H   0  0  0  0  0  0  0  0  0  0  0  0  # atno 8009 bound_to 7997
  156.2236  140.1809  156.7401 H   0  0  0  0  0  0  0  0  0  0  0  0  # atno 8010 bound_to 7997
  139.8054  143.7776  152.2661 H   0  0  0  0  0  0  0  0  0  0  0  0  # atno 10167 bound_to 10162
  156.0889  130.6075  150.8893 H   0  0  0  0  0  0  0  0  0  0  0  0  # atno 10718 bound_to 10713
  153.9719  135.6727  153.4747 H   0  0  0  0  0  0  0  0  0  0  0  0  # atno 10763 bound_to 10752
  153.0789  135.4934  154.8458 H   0  0  0  0  0  0  0  0  0  0  0  0  # atno 10764 bound_to 10752
  154.7214  135.3118  154.9002 H   0  0  0  0  0  0  0  0  0  0  0  0  # atno 10765 bound_to 10752
  140.7094  133.8921  155.8740 H   0  0  0  0  0  0  0  0  0  0  0  0  # atno 11005 bound_to 11000
  146.3512  140.1340  142.8596 LP  0  0  0  0  0  0  0  0  0  0  0  0  # atno 17320 bound_to 7965
  145.0612  140.9089  143.4937 LP  0  0  0  0  0  0  0  0  0  0  0  0  # atno 17321 bound_to 7965
  139.7908  144.7411  150.9957 LP  0  0  0  0  0  0  0  0  0  0  0  0  # atno 17342 bound_to 10162
  140.7819  143.4444  151.0505 LP  0  0  0  0  0  0  0  0  0  0  0  0  # atno 17343 bound_to 10162
  157.6032  131.0940  150.8923 LP  0  0  0  0  0  0  0  0  0  0  0  0  # atno 17370 bound_to 10713
  156.9077  130.5269  149.5281 LP  0  0  0  0  0  0  0  0  0  0  0  0  # atno 17371 bound_to 10713
  141.0097  134.1037  157.4234 LP  0  0  0  0  0  0  0  0  0  0  0  0  # atno 17394 bound_to 11000
  139.8875  135.0091  156.6567 LP  0  0  0  0  0  0  0  0  0  0  0  0  # atno 17395 bound_to 11000

$$$$
