AV-unprocessed.smi:651|AV-procd|sdf|3190|dock6
  -GOLD-   22720 0113D 1   1.00000     0.00000
 Structure written by MMmdl.
 39 40  0  0  0  0  0  0  0  0  2 V2000
  151.4438  143.2303  157.5236 C   0  0  0  0  0  0  0  0  0  0  0  0
  151.1095  142.0285  156.6653 C   0  0  0  0  0  0  0  0  0  0  0  0
  151.8306  140.8187  156.7536 C   0  0  0  0  0  0  0  0  0  0  0  0
  151.4623  139.7358  155.9282 C   0  0  0  0  0  0  0  0  0  0  0  0
  150.3804  139.8835  155.0320 C   0  0  0  0  0  0  0  0  0  0  0  0
  149.9551  138.7318  154.1350 C   0  0  0  0  0  0  0  0  0  0  0  0
  150.7680  137.4580  154.3971 C   0  0  0  0  0  0  0  0  0  0  0  0
  151.9968  137.4549  154.3086 O   0  0  0  0  0  0  0  0  0  0  0  0
  150.0556  136.3725  154.7340 N   0  0  0  0  0  0  0  0  0  0  0  0
  150.6189  135.0560  155.0407 C   0  0  2  0  0  0  0  0  0  0  0  0
  149.7842  133.9325  154.3950 C   0  0  0  0  0  0  0  0  0  0  0  0
  149.6051  132.8414  155.4571 C   0  0  0  0  0  0  0  0  0  0  0  0
  150.5872  133.1893  156.5776 C   0  0  0  0  0  0  0  0  0  0  0  0
  150.7186  134.7196  156.5546 C   0  0  2  0  0  0  0  0  0  0  0  0
  149.6444  135.3758  157.4492 C   0  0  0  0  0  0  0  0  0  0  0  0
  148.3687  135.1496  157.1257 N   0  0  0  0  0  0  0  0  0  0  0  0
  149.9560  136.0663  158.4182 O   0  0  0  0  0  0  0  0  0  0  0  0
  149.6967  141.1178  154.9874 C   0  0  0  0  0  0  0  0  0  0  0  0
  150.0799  142.1306  155.7950 N   0  3  0  0  0  0  0  0  0  0  0  0
  152.4989  143.2280  157.7989 H   0  0  0  0  0  0  0  0  0  0  0  0
  150.8505  143.2167  158.4381 H   0  0  0  0  0  0  0  0  0  0  0  0
  151.2352  144.1592  156.9916 H   0  0  0  0  0  0  0  0  0  0  0  0
  152.6540  140.7184  157.4457 H   0  0  0  0  0  0  0  0  0  0  0  0
  152.0021  138.8017  155.9867 H   0  0  0  0  0  0  0  0  0  0  0  0
  148.8967  138.5198  154.2929 H   0  0  0  0  0  0  0  0  0  0  0  0
  150.0677  139.0227  153.0896 H   0  0  0  0  0  0  0  0  0  0  0  0
  149.0511  136.4605  154.7925 H   0  0  0  0  0  0  0  0  0  0  0  0
  151.6239  135.0031  154.6172 H   0  0  0  0  0  0  0  0  0  0  0  0
  148.8082  134.2857  154.0586 H   0  0  0  0  0  0  0  0  0  0  0  0
  150.3001  133.5384  153.5187 H   0  0  0  0  0  0  0  0  0  0  0  0
  148.5839  132.8653  155.8394 H   0  0  0  0  0  0  0  0  0  0  0  0
  149.7775  131.8420  155.0567 H   0  0  0  0  0  0  0  0  0  0  0  0
  150.2613  132.7968  157.5422 H   0  0  0  0  0  0  0  0  0  0  0  0
  151.5586  132.7418  156.3632 H   0  0  0  0  0  0  0  0  0  0  0  0
  151.7004  135.0122  156.9313 H   0  0  0  0  0  0  0  0  0  0  0  0
  147.6281  135.5473  157.6851 H   0  0  0  0  0  0  0  0  0  0  0  0
  148.1495  134.5716  156.3272 H   0  0  0  0  0  0  0  0  0  0  0  0
  148.8568  141.3225  154.3393 H   0  0  0  0  0  0  0  0  0  0  0  0
  149.5682  143.0118  155.7469 H   0  0  0  0  0  0  0  0  0  0  0  0
  1  2  1  0  0  0  0
  1 20  1  0  0  0  0
  1 21  1  0  0  0  0
  1 22  1  0  0  0  0
  2 19  1  0  0  0  0
  2  3  2  0  0  0  0
  3  4  1  0  0  0  0
  3 23  1  0  0  0  0
  4  5  2  0  0  0  0
  4 24  1  0  0  0  0
  5  6  1  0  0  0  0
  5 18  1  0  0  0  0
  6  7  1  0  0  0  0
  6 25  1  0  0  0  0
  6 26  1  0  0  0  0
  7  8  2  0  0  0  0
  7  9  1  0  0  0  0
  9 10  1  0  0  0  0
  9 27  1  0  0  0  0
 10 14  1  0  0  0  0
 10 11  1  0  0  0  0
 10 28  1  0  0  0  0
 11 12  1  0  0  0  0
 11 29  1  0  0  0  0
 11 30  1  0  0  0  0
 12 13  1  0  0  0  0
 12 31  1  0  0  0  0
 12 32  1  0  0  0  0
 13 14  1  0  0  0  0
 13 33  1  0  0  0  0
 13 34  1  0  0  0  0
 14 15  1  0  0  0  0
 14 35  1  0  0  0  0
 15 16  1  0  0  0  0
 15 17  2  0  0  0  0
 16 36  1  0  0  0  0
 16 37  1  0  0  0  0
 18 19  2  0  0  0  0
 18 38  1  0  0  0  0
 19 39  1  0  0  0  0
M  CHG  1  19   1
M  END
> <s_m_source_file>
AV-unprocessed.smi

> <i_m_source_file_index>
651

> <i_lp_mmshare_version>
43012

> <i_f3d_flags>
0

> <s_epik_input>
W0NIM11jMVtjSF1bY0hdYyhbY0hdbjEpW0NIMl1DKD1PKVtOSF1bQ0BASF0yW0NIMl1bQ0gyXVtDSDJdW0NASF0yQyg9TylbTkgyXQ==

> <s_epik_cmdline>
J2VwaWtfcHl0aG9uJywgJy1waCcsICc3LjAnLCAnLXRuJywgJzgnLCAnLW1hJywgJzIwMCcsICctbWV0YWxfYmluZGluZycsICctaW1hZScsICc8aW5maWxlLm1hZT4nLCAnLW9tYWUnLCAnPG91dGZpbGUubWFlPic=

> <r_epik_Ionization_Penalty>
2.14971

> <r_epik_Ionization_Penalty_Charging>
2.14971

> <r_epik_Ionization_Penalty_Neutral>
1.65229e-07

> <r_epik_State_Penalty>
2.28946

> <r_epik_Charging_Adjusted_Penalty>
4.43917

> <i_epik_Tot_Q>
1

> <i_epik_Tot_abs_Q>
1

> <r_epik_Metal_State_Penalty>
2.30508

> <b_epik_Metal_Only>
0

> <s_lp_Force_Field>
OPLS_2005

> <r_lp_Energy>
19.6238

> <b_lp_Chiralities_Consistent>
1

> <s_lp_Variant>
AV-unprocessed.smi:651-7

> <Gold.Version>
5.8.1

> <Gold.Id.Protein>
6NUR|6NUR_protein|mol2

> <Gold.PLP.Fitness>
45.8012

> <Gold.PLP.PLP>
-34.6851

> <Gold.PLP.part.hbond>
-4.0000

> <Gold.PLP.part.metal>
0.0000

> <Gold.PLP.part.buried>
-3.5270

> <Gold.PLP.part.nonpolar>
-27.1929

> <Gold.PLP.part.repulsive>
0.3623

> <Gold.PLP.ligand.clash>
0.0000

> <Gold.PLP.ligand.torsion>
0.2959

> <Gold.PLP.Chemscore.Hbond>
3.8960

> <Gold.PLP.Chemscore.CHOScore>
0.0000

> <Gold.PLP.Chemscore.Metal>
0.0000

> <Gold.Chemscore.Hbonds>
donor molecule, donor type, donor heavy atom, donor atom, acceptor molecule, acceptor atom, score
      L1  H    19    39       P1  8028  2.00
      P1  H  6896  6907       L1    17  1.00
      P1  H 10752 10763       L1     8  0.88

> <Gold.PLP.Chemscore.Internal.Correction>
0.0199

> <Gold.Rescore>
     Score         DG    S(hbond)    S(metal)    S(lipo)     H(rot)  DE(clash)    DE(int)     intcor
     17.13     -18.80       2.79        0.00      78.88       2.04       0.08       1.58       ----

> <Gold.Chemscore.Fitness>
17.1350

> <Gold.Chemscore.DG>
-18.7995

> <Gold.Chemscore.ZeroCoef>
-5.4800

> <Gold.Chemscore.Hbond>
2.7874

> <Gold.Chemscore.Metal>
0.0000

> <Gold.Chemscore.Lipo>
78.8767

> <Gold.Chemscore.Internal_Hbond>
0.0000

> <Gold.Chemscore.DEClash>
0.0844

> <Gold.Chemscore.DEInternal>
1.5802

> <Gold.Chemscore.Rot>
2.0386

> <Gold.Chemscore.Internal.Correction>
   9.000000E+99

> <Gold.Chemscore.Hbonds>
donor molecule, donor type, donor heavy atom, donor atom, acceptor molecule, acceptor atom, score
      L1  H    19    39       P1  8028  1.00
      P1  H  6896  6907       L1    17  0.38
      P1  H 10752 10763       L1     8  0.77

> <Gold.Chemscore.Hbond.Weighted>
-9.3097

> <Gold.Chemscore.Metal.Weighted>
-0.0000

> <Gold.Chemscore.Lipo.Weighted>
-9.2286

> <Gold.Chemscore.Internal_Hbond.Weighted>
0.0000

> <Gold.Chemscore.DEClash.Weighted>
0.0844

> <Gold.Chemscore.DEInternal.Weighted>
1.5802

> <Gold.Chemscore.Rot.Weighted>
5.2188

> <Gold.Chemscore.Internal.Correction.Weighted>
   9.000000E+99

> <Gold.Protein.RotatedTorsions>
[ 6907 6896 6895 6894 ] final  -56.70 input  -60.11 | X-H torsion
[ 7974 7965 7964 7962 ] final   73.12 input  175.53 | X-H torsion
[ 8008 7997 7996 7995 ] final   80.09 input   59.86 | X-H torsion
[ 10167 10162 10161 10158 ] final -150.16 input  -65.29 | X-H torsion
[ 10718 10713 10712 10709 ] final  -66.11 input   66.30 | X-H torsion
[ 10763 10752 10751 10750 ] final   44.19 input  -60.55 | X-H torsion
[ 11005 11000 10999 10996 ] final  -81.27 input  -57.11 | X-H torsion

> <Gold.Protein.ActiveResidues>
 VAL166  LYS551  ARG553  GLY616  TRP617  ASP618  TYR619  PRO620  LYS621  CYS622 
 ASP623  PHE694  ASN695  SER759  ASP760  ASP761  ALA762  ILE779  LEU786  VAL792 
 PHE793  MET794  SER795  GLU796  ALA797  LYS798  CYS799  TRP800  GLU811  SER814 

> <Gold.Protein.RotatedAtoms>
  150.8146  134.7321  159.6718 H   0  0  0  0  0  0  0  0  0  0  0  0  # atno 6907 bound_to 6896
  152.4265  134.5855  159.9969 H   0  0  0  0  0  0  0  0  0  0  0  0  # atno 6908 bound_to 6896
  151.6055  133.3315  159.3092 H   0  0  0  0  0  0  0  0  0  0  0  0  # atno 6909 bound_to 6896
  145.7448  139.2735  143.1465 H   0  0  0  0  0  0  0  0  0  0  0  0  # atno 7974 bound_to 7965
  155.8788  140.3445  155.5873 H   0  0  0  0  0  0  0  0  0  0  0  0  # atno 8008 bound_to 7997
  155.7744  140.0850  157.2110 H   0  0  0  0  0  0  0  0  0  0  0  0  # atno 8009 bound_to 7997
  154.4023  140.1512  156.2966 H   0  0  0  0  0  0  0  0  0  0  0  0  # atno 8010 bound_to 7997
  139.7379  143.8707  152.2554 H   0  0  0  0  0  0  0  0  0  0  0  0  # atno 10167 bound_to 10162
  156.0631  130.4257  150.1661 H   0  0  0  0  0  0  0  0  0  0  0  0  # atno 10718 bound_to 10713
  152.9846  135.6078  154.3234 H   0  0  0  0  0  0  0  0  0  0  0  0  # atno 10763 bound_to 10752
  154.2942  135.2774  155.2642 H   0  0  0  0  0  0  0  0  0  0  0  0  # atno 10764 bound_to 10752
  154.4924  135.5888  153.6526 H   0  0  0  0  0  0  0  0  0  0  0  0  # atno 10765 bound_to 10752
  141.1667  133.7189  156.8397 H   0  0  0  0  0  0  0  0  0  0  0  0  # atno 11005 bound_to 11000
  146.0413  140.8162  142.9827 LP  0  0  0  0  0  0  0  0  0  0  0  0  # atno 17320 bound_to 7965
  144.6862  140.2915  143.7277 LP  0  0  0  0  0  0  0  0  0  0  0  0  # atno 17321 bound_to 7965
  139.8649  144.7098  150.9055 LP  0  0  0  0  0  0  0  0  0  0  0  0  # atno 17342 bound_to 10162
  140.7781  143.3786  151.1518 LP  0  0  0  0  0  0  0  0  0  0  0  0  # atno 17343 bound_to 10162
  156.9726  130.9839  151.3455 LP  0  0  0  0  0  0  0  0  0  0  0  0  # atno 17370 bound_to 10713
  157.5654  130.8274  149.8320 LP  0  0  0  0  0  0  0  0  0  0  0  0  # atno 17371 bound_to 10713
  140.1992  134.8909  157.3149 LP  0  0  0  0  0  0  0  0  0  0  0  0  # atno 17394 bound_to 11000
  140.2206  134.4028  155.7568 LP  0  0  0  0  0  0  0  0  0  0  0  0  # atno 17395 bound_to 11000

$$$$
