AV-unprocessed.smi:3201|AV-procd|sdf|12239|dock10
  -GOLD-   2272018 73D 1   1.00000     0.00000
 Structure written by MMmdl.
 41 43  0  0  0  0  0  0  0  0  2 V2000
  153.0368  142.2140  159.4362 C   0  0  0  0  0  0  0  0  0  0  0  0
  152.1125  143.3885  159.4119 C   0  0  0  0  0  0  0  0  0  0  0  0
  151.4022  143.9468  158.3831 C   0  0  0  0  0  0  0  0  0  0  0  0
  151.3417  143.5321  156.9386 C   0  0  0  0  0  0  0  0  0  0  0  0
  150.7362  142.1313  156.7808 C   0  0  0  0  0  0  0  0  0  0  0  0
  149.2652  142.1999  156.6674 N   0  3  0  0  0  0  0  0  0  0  0  0
  148.6555  141.1315  155.8449 C   0  0  2  0  0  0  0  0  0  0  0  0
  149.2342  141.1244  154.4122 C   0  0  0  0  0  0  0  0  0  0  0  0
  147.9812  141.2782  153.5309 C   0  0  1  0  0  0  0  0  0  0  0  0
  147.1365  139.9930  153.6045 C   0  0  0  0  0  0  0  0  0  0  0  0
  146.5391  140.0611  155.0227 C   0  0  0  0  0  0  0  0  0  0  0  0
  147.1467  141.3595  155.5868 C   0  0  2  0  0  0  0  0  0  0  0  0
  147.1467  142.2539  154.3505 C   0  0  0  0  0  0  0  0  0  0  0  0
  150.7187  145.0343  158.9968 C   0  0  0  0  0  0  0  0  0  0  0  0
  150.9810  145.1430  160.2868 N   0  0  0  0  0  0  0  0  0  0  0  0
  151.8351  144.1312  160.5445 N   0  0  0  0  0  0  0  0  0  0  0  0
  152.3370  143.9496  161.8928 C   0  0  0  0  0  0  0  0  0  0  0  0
  153.2117  141.8272  158.4327 H   0  0  0  0  0  0  0  0  0  0  0  0
  152.6196  141.4066  160.0382 H   0  0  0  0  0  0  0  0  0  0  0  0
  154.0028  142.4883  159.8605 H   0  0  0  0  0  0  0  0  0  0  0  0
  150.7553  144.2478  156.3609 H   0  0  0  0  0  0  0  0  0  0  0  0
  152.3392  143.5447  156.4975 H   0  0  0  0  0  0  0  0  0  0  0  0
  151.1421  141.6490  155.8905 H   0  0  0  0  0  0  0  0  0  0  0  0
  151.0109  141.5122  157.6348 H   0  0  0  0  0  0  0  0  0  0  0  0
  148.8578  142.1702  157.5911 H   0  0  0  0  0  0  0  0  0  0  0  0
  148.8337  140.1697  156.3288 H   0  0  0  0  0  0  0  0  0  0  0  0
  149.9156  141.9610  154.2488 H   0  0  0  0  0  0  0  0  0  0  0  0
  149.7818  140.2072  154.1922 H   0  0  0  0  0  0  0  0  0  0  0  0
  148.1998  141.6008  152.5124 H   0  0  0  0  0  0  0  0  0  0  0  0
  146.3444  140.0034  152.8547 H   0  0  0  0  0  0  0  0  0  0  0  0
  147.7349  139.0950  153.4468 H   0  0  0  0  0  0  0  0  0  0  0  0
  145.4516  140.1315  154.9754 H   0  0  0  0  0  0  0  0  0  0  0  0
  146.7895  139.1865  155.6244 H   0  0  0  0  0  0  0  0  0  0  0  0
  146.5912  141.7536  156.4377 H   0  0  0  0  0  0  0  0  0  0  0  0
  147.6356  143.2167  154.5085 H   0  0  0  0  0  0  0  0  0  0  0  0
  146.1502  142.4229  153.9380 H   0  0  0  0  0  0  0  0  0  0  0  0
  150.0440  145.7456  158.5436 H   0  0  0  0  0  0  0  0  0  0  0  0
  152.1603  142.9235  162.2160 H   0  0  0  0  0  0  0  0  0  0  0  0
  151.8356  144.6270  162.5857 H   0  0  0  0  0  0  0  0  0  0  0  0
  153.4082  144.1510  161.9145 H   0  0  0  0  0  0  0  0  0  0  0  0
  149.0349  143.0872  156.2433 H   0  0  0  0  0  0  0  0  0  0  0  0
  1  2  1  0  0  0  0
  1 18  1  0  0  0  0
  1 19  1  0  0  0  0
  1 20  1  0  0  0  0
  2 16  1  0  0  0  0
  2  3  2  0  0  0  0
  3  4  1  0  0  0  0
  3 14  1  0  0  0  0
  4  5  1  0  0  0  0
  4 21  1  0  0  0  0
  4 22  1  0  0  0  0
  5  6  1  0  0  0  0
  5 23  1  0  0  0  0
  5 24  1  0  0  0  0
  6  7  1  0  0  0  0
  6 25  1  0  0  0  0
  6 41  1  0  0  0  0
  7 12  1  0  0  0  0
  7  8  1  0  0  0  0
  7 26  1  0  0  0  0
  8  9  1  0  0  0  0
  8 27  1  0  0  0  0
  8 28  1  0  0  0  0
  9 13  1  0  0  0  0
  9 10  1  0  0  0  0
  9 29  1  0  0  0  0
 10 11  1  0  0  0  0
 10 30  1  0  0  0  0
 10 31  1  0  0  0  0
 11 12  1  0  0  0  0
 11 32  1  0  0  0  0
 11 33  1  0  0  0  0
 12 13  1  0  0  0  0
 12 34  1  0  0  0  0
 13 35  1  0  0  0  0
 13 36  1  0  0  0  0
 14 15  2  0  0  0  0
 14 37  1  0  0  0  0
 15 16  1  0  0  0  0
 16 17  1  0  0  0  0
 17 38  1  0  0  0  0
 17 39  1  0  0  0  0
 17 40  1  0  0  0  0
M  CHG  1   6   1
M  END
> <s_m_source_file>
AV-unprocessed.smi

> <i_m_source_file_index>
3201

> <i_lp_mmshare_version>
43012

> <i_f3d_flags>
0

> <s_epik_input>
W0NIM11uMW5bY0hdYyhjMVtDSDNdKVtDSDJdW0NIMl1bTkhdW0NASF0oW0NIMl1bQ0BIXTIzKVtDQEhdKFtDSDJdMylbQ0gyXVtDSDJdMg==

> <s_epik_cmdline>
J2VwaWtfcHl0aG9uJywgJy1waCcsICc3LjAnLCAnLXRuJywgJzgnLCAnLW1hJywgJzIwMCcsICctbWV0YWxfYmluZGluZycsICctaW1hZScsICc8aW5maWxlLm1hZT4nLCAnLW9tYWUnLCAnPG91dGZpbGUubWFlPic=

> <r_lp_tautomer_probability>
1

> <r_epik_Ionization_Penalty>
0.000331174

> <r_epik_Ionization_Penalty_Charging>
0.000242709

> <r_epik_Ionization_Penalty_Neutral>
8.84659e-05

> <r_epik_State_Penalty>
-0

> <r_epik_Charging_Adjusted_Penalty>
0.000242709

> <i_epik_Tot_Q>
1

> <i_epik_Tot_abs_Q>
1

> <r_epik_Metal_State_Penalty>
-0

> <b_epik_Metal_Only>
0

> <s_lp_Force_Field>
OPLS_2005

> <r_lp_Energy>
49.8246

> <b_lp_Chiralities_Consistent>
1

> <s_lp_Variant>
AV-unprocessed.smi:3201-3

> <Gold.Version>
5.8.1

> <Gold.Id.Protein>
6NUR|6NUR_protein|mol2

> <Gold.PLP.Fitness>
48.3489

> <Gold.PLP.PLP>
-40.1343

> <Gold.PLP.part.hbond>
-1.0000

> <Gold.PLP.part.metal>
0.0000

> <Gold.PLP.part.buried>
-1.9898

> <Gold.PLP.part.nonpolar>
-36.2211

> <Gold.PLP.part.repulsive>
0.2122

> <Gold.PLP.ligand.clash>
0.0000

> <Gold.PLP.ligand.torsion>
0.3953

> <Gold.PLP.Chemscore.Hbond>
2.0000

> <Gold.PLP.Chemscore.CHOScore>
0.9946

> <Gold.PLP.Chemscore.Metal>
0.0000

> <Gold.Chemscore.Hbonds>
donor molecule, donor type, donor heavy atom, donor atom, acceptor molecule, acceptor atom, score
      L1  H     6    41       P1  8028  2.00
      L1  C    14    37       P1  8029  1.00

> <Gold.PLP.Chemscore.Internal.Correction>
0.0215

> <Gold.Rescore>
     Score         DG    S(hbond)    S(metal)    S(lipo)     H(rot)  DE(clash)    DE(int)     intcor
     18.23     -18.95       1.00        0.00     116.34       1.36       0.38       0.35       ----

> <Gold.Chemscore.Fitness>
18.2311

> <Gold.Chemscore.DG>
-18.9537

> <Gold.Chemscore.ZeroCoef>
-5.4800

> <Gold.Chemscore.Hbond>
1.0000

> <Gold.Chemscore.Metal>
0.0000

> <Gold.Chemscore.Lipo>
116.3441

> <Gold.Chemscore.Internal_Hbond>
0.0000

> <Gold.Chemscore.DEClash>
0.3764

> <Gold.Chemscore.DEInternal>
0.3462

> <Gold.Chemscore.Rot>
1.3588

> <Gold.Chemscore.Internal.Correction>
   9.000000E+99

> <Gold.Chemscore.Hbonds>
donor molecule, donor type, donor heavy atom, donor atom, acceptor molecule, acceptor atom, score
      L1  H     6    41       P1  8028  1.00

> <Gold.Chemscore.Hbond.Weighted>
-3.3400

> <Gold.Chemscore.Metal.Weighted>
-0.0000

> <Gold.Chemscore.Lipo.Weighted>
-13.6123

> <Gold.Chemscore.Internal_Hbond.Weighted>
0.0000

> <Gold.Chemscore.DEClash.Weighted>
0.3764

> <Gold.Chemscore.DEInternal.Weighted>
0.3462

> <Gold.Chemscore.Rot.Weighted>
3.4786

> <Gold.Chemscore.Internal.Correction.Weighted>
   9.000000E+99

> <Gold.Protein.RotatedTorsions>
[ 6907 6896 6895 6894 ] final  172.86 input  -60.11 | X-H torsion
[ 7974 7965 7964 7962 ] final  -23.76 input  175.53 | X-H torsion
[ 8008 7997 7996 7995 ] final   28.53 input   59.86 | X-H torsion
[ 10167 10162 10161 10158 ] final   94.38 input  -65.29 | X-H torsion
[ 10718 10713 10712 10709 ] final  159.52 input   66.30 | X-H torsion
[ 10763 10752 10751 10750 ] final  121.67 input  -60.55 | X-H torsion
[ 11005 11000 10999 10996 ] final -128.28 input  -57.11 | X-H torsion

> <Gold.Protein.ActiveResidues>
 VAL166  LYS551  ARG553  GLY616  TRP617  ASP618  TYR619  PRO620  LYS621  CYS622 
 ASP623  PHE694  ASN695  SER759  ASP760  ASP761  ALA762  ILE779  LEU786  VAL792 
 PHE793  MET794  SER795  GLU796  ALA797  LYS798  CYS799  TRP800  GLU811  SER814 

> <Gold.Protein.RotatedAtoms>
  151.7776  133.3346  159.3461 H   0  0  0  0  0  0  0  0  0  0  0  0  # atno 6907 bound_to 6896
  150.7438  134.5961  159.6022 H   0  0  0  0  0  0  0  0  0  0  0  0  # atno 6908 bound_to 6896
  152.3298  134.7275  160.0344 H   0  0  0  0  0  0  0  0  0  0  0  0  # atno 6909 bound_to 6896
  146.1597  140.4659  142.8577 H   0  0  0  0  0  0  0  0  0  0  0  0  # atno 7974 bound_to 7965
  155.0602  140.3189  155.4663 H   0  0  0  0  0  0  0  0  0  0  0  0  # atno 8008 bound_to 7997
  156.2815  140.2130  156.5673 H   0  0  0  0  0  0  0  0  0  0  0  0  # atno 8009 bound_to 7997
  154.7139  140.0495  157.0563 H   0  0  0  0  0  0  0  0  0  0  0  0  # atno 8010 bound_to 7997
  139.8089  144.6782  150.9666 H   0  0  0  0  0  0  0  0  0  0  0  0  # atno 10167 bound_to 10162
  157.1631  131.0592  151.2222 H   0  0  0  0  0  0  0  0  0  0  0  0  # atno 10718 bound_to 10713
  153.6176  135.3419  155.3000 H   0  0  0  0  0  0  0  0  0  0  0  0  # atno 10763 bound_to 10752
  154.8606  135.4265  154.2242 H   0  0  0  0  0  0  0  0  0  0  0  0  # atno 10764 bound_to 10752
  153.3107  135.7031  153.7191 H   0  0  0  0  0  0  0  0  0  0  0  0  # atno 10765 bound_to 10752
  140.9529  134.1041  157.4044 H   0  0  0  0  0  0  0  0  0  0  0  0  # atno 11005 bound_to 11000
  144.8010  140.6212  143.6478 LP  0  0  0  0  0  0  0  0  0  0  0  0  # atno 17320 bound_to 7965
  145.4620  139.1512  143.3861 LP  0  0  0  0  0  0  0  0  0  0  0  0  # atno 17321 bound_to 7965
  140.7818  143.4205  151.0849 LP  0  0  0  0  0  0  0  0  0  0  0  0  # atno 17342 bound_to 10162
  139.7873  143.8269  152.3147 LP  0  0  0  0  0  0  0  0  0  0  0  0  # atno 17343 bound_to 10162
  157.4114  130.7387  149.6842 LP  0  0  0  0  0  0  0  0  0  0  0  0  # atno 17370 bound_to 10713
  155.9750  130.4094  150.3878 LP  0  0  0  0  0  0  0  0  0  0  0  0  # atno 17371 bound_to 10713
  139.8853  135.0071  156.6426 LP  0  0  0  0  0  0  0  0  0  0  0  0  # atno 17394 bound_to 11000
  140.7577  133.8844  155.8394 LP  0  0  0  0  0  0  0  0  0  0  0  0  # atno 17395 bound_to 11000

$$$$
