#       Name:                AV-unprocessed.smi:249
#       Creating user name   scv26
#       Creation time:       Thu Mar 26 21:03:56 2020


#       File generated by GOLD software.
#

@<TRIPOS>MOLECULE
AV-unprocessed.smi:249
    72    75     1
SMALL
NO_CHARGES


@<TRIPOS>ATOM
      1 ****        -3.3686  -5.5240   1.7146 C.3            1 S1                 0.0000
      2 ****        -4.1505  -4.4619   0.9291 C.3            1 S1                 0.0000
      3 ****        -3.4495  -3.1524   0.9040 N.4            1 S1                 1.0000
      4 ****        -3.5749  -2.3842   2.1721 C.3            1 S1                 0.0000
      5 ****        -2.6571  -1.1520   2.1609 C.3            1 S1                 0.0000
      6 ****        -2.9504  -0.2452   0.9475 C.3            1 S1                 0.0000
      7 ****        -2.1401   0.9795   0.9134 N.3            1 S1                 0.0000
      8 ****        -2.5542   2.0424   0.0055 C.3            1 S1                 0.0000
      9 ****        -0.7981   0.8533   1.0387 C.ar           1 S1                 0.0000
     10 ****        -0.2804   0.9230   2.2905 N.ar           1 S1                 0.0000
     11 ****         1.0368   0.8014   2.4785 C.ar           1 S1                 0.0000
     12 ****         1.9951   0.6109   1.5696 N.ar           1 S1                 0.0000
     13 ****         1.4794   0.5522   0.3083 C.ar           1 S1                 0.0000
     14 ****         0.1052   0.6622  -0.0455 C.ar           1 S1                 0.0000
     15 ****        -0.0400   0.5386  -1.4222 N.2            1 S1                 0.0000
     16 ****         1.1777   0.3624  -1.8569 C.2            1 S1                 0.0000
     17 ****         2.1548   0.3771  -0.8869 N.pl3          1 S1                 0.0000
     18 ****         3.5816   0.1950  -1.0909 C.3            1 S1                 0.0000
     19 ****         4.4570   1.4080  -0.6792 C.3            1 S1                 0.0000
     20 ****         5.9418   0.9776  -0.6478 C.3            1 S1                 0.0000
     21 ****         6.4212   0.6670  -1.9405 O.3            1 S1                 0.0000
     22 ****         4.2298   2.6893  -1.5338 C.3            1 S1                 0.0000
     23 ****         2.8858   3.3803  -1.3546 C.3            1 S1                 0.0000
     24 ****         3.1485   4.8011  -1.8484 C.3            1 S1                 0.0000
     25 ****         4.5468   5.0194  -1.7099 O.3            1 S1                 0.0000
     26 ****         5.1630   3.8529  -1.1826 C.3            1 S1                 0.0000
     27 ****        -2.8442  -1.0838  -0.3449 C.3            1 S1                 0.0000
     28 ****        -3.7507  -2.3308  -0.3056 C.3            1 S1                 0.0000
     29 ****        -5.2467  -1.9776  -0.4520 C.3            1 S1                 0.0000
     30 ****        -3.8717  -6.4895   1.6576 H              1 S1                 0.0000
     31 ****        -3.2761  -5.2693   2.7699 H              1 S1                 0.0000
     32 ****        -2.3641  -5.6522   1.3100 H              1 S1                 0.0000
     33 ****        -4.2712  -4.8282  -0.0912 H              1 S1                 0.0000
     34 ****        -5.1550  -4.3439   1.3380 H              1 S1                 0.0000
     35 ****        -4.6113  -2.0871   2.3347 H              1 S1                 0.0000
     36 ****        -3.3005  -3.0129   3.0182 H              1 S1                 0.0000
     37 ****        -2.7847  -0.5910   3.0872 H              1 S1                 0.0000
     38 ****        -1.6214  -1.4937   2.1422 H              1 S1                 0.0000
     39 ****        -3.9820   0.0948   1.0432 H              1 S1                 0.0000
     40 ****        -1.9509   2.9390   0.1542 H              1 S1                 0.0000
     41 ****        -3.5953   2.3085   0.1891 H              1 S1                 0.0000
     42 ****        -2.4622   1.7382  -1.0369 H              1 S1                 0.0000
     43 ****         1.3709   0.8667   3.5035 H              1 S1                 0.0000
     44 ****         1.3993   0.2289  -2.9059 H              1 S1                 0.0000
     45 ****         3.8739  -0.6856  -0.5176 H              1 S1                 0.0000
     46 ****         3.7539  -0.0534  -2.1389 H              1 S1                 0.0000
     47 ****         4.2063   1.6609   0.3511 H              1 S1                 0.0000
     48 ****         6.5697   1.7565  -0.2157 H              1 S1                 0.0000
     49 ****         6.0692   0.1014  -0.0113 H              1 S1                 0.0000
     50 ****         7.3239   0.3964  -1.8696 H              1 S1                 0.0000
     51 ****         4.3602   2.4504  -2.5906 H              1 S1                 0.0000
     52 ****         2.0774   2.9123  -1.9134 H              1 S1                 0.0000
     53 ****         2.6053   3.3994  -0.3003 H              1 S1                 0.0000
     54 ****         2.8865   4.8985  -2.9023 H              1 S1                 0.0000
     55 ****         2.5756   5.5400  -1.2877 H              1 S1                 0.0000
     56 ****         5.2482   3.9664  -0.1008 H              1 S1                 0.0000
     57 ****         6.1661   3.7282  -1.5907 H              1 S1                 0.0000
     58 ****        -3.0913  -0.4807  -1.2188 H              1 S1                 0.0000
     59 ****        -1.8140  -1.4126  -0.4831 H              1 S1                 0.0000
     60 ****        -3.4826  -2.9347  -1.1739 H              1 S1                 0.0000
     61 ****        -5.4163  -1.3919  -1.3558 H              1 S1                 0.0000
     62 ****        -5.6213  -1.3914   0.3865 H              1 S1                 0.0000
     63 ****        -5.8658  -2.8708  -0.5329 H              1 S1                 0.0000
     64 ****        -2.4690  -3.3805   0.8203 H              1 S1                 0.0000
     65 ****        -2.4151   1.3292   1.8090 LP             1 S1                 0.0000
     66 ****        -0.8855   1.0656   3.0738 LP             1 S1                 0.0000
     67 ****         2.9675   0.5225   1.7857 LP             1 S1                 0.0000
     68 ****        -0.8841   0.5761  -1.9570 LP             1 S1                 0.0000
     69 ****         6.3564   1.4744  -2.5270 LP             1 S1                 0.0000
     70 ****         5.8769  -0.0745  -2.3327 LP             1 S1                 0.0000
     71 ****         4.7036   5.7877  -1.0893 LP             1 S1                 0.0000
     72 ****         4.9410   5.2281  -2.6049 LP             1 S1                 0.0000
@<TRIPOS>BOND
    1    1    2 1     
    2    1   30 1     
    3    1   31 1     
    4    1   32 1     
    5    2    3 1     
    6    2   33 1     
    7    2   34 1     
    8    3   28 1     
    9    3    4 1     
   10    3   64 1     
   11    4    5 1     
   12    4   35 1     
   13    4   36 1     
   14    5    6 1     
   15    5   37 1     
   16    5   38 1     
   17    6    7 1     
   18    6   27 1     
   19    6   39 1     
   20    7    8 1     
   21    7    9 1     
   22    8   40 1     
   23    8   41 1     
   24    8   42 1     
   25    9   14 ar    
   26    9   10 ar    
   27   10   11 ar    
   28   11   12 ar    
   29   11   43 1     
   30   12   13 ar    
   31   13   17 1     
   32   13   14 ar    
   33   14   15 1     
   34   15   16 2     
   35   16   17 1     
   36   16   44 1     
   37   17   18 1     
   38   18   19 1     
   39   18   45 1     
   40   18   46 1     
   41   19   20 1     
   42   19   22 1     
   43   19   47 1     
   44   20   21 1     
   45   20   48 1     
   46   20   49 1     
   47   21   50 1     
   48   22   26 1     
   49   22   23 1     
   50   22   51 1     
   51   23   24 1     
   52   23   52 1     
   53   23   53 1     
   54   24   25 1     
   55   24   54 1     
   56   24   55 1     
   57   25   26 1     
   58   26   56 1     
   59   26   57 1     
   60   27   28 1     
   61   27   58 1     
   62   27   59 1     
   63   28   29 1     
   64   28   60 1     
   65   29   61 1     
   66   29   62 1     
   67   29   63 1     
   68    7   65 1     
   69   10   66 1     
   70   12   67 1     
   71   15   68 1     
   72   21   69 1     
   73   21   70 1     
   74   25   71 1     
   75   25   72 1     
@<TRIPOS>SUBSTRUCTURE
      1 S1             1
@<TRIPOS>SET
LONE_PAIRS      STATIC     ATOMS    <user>   **** ""
8 65 66 67 68 69 70 71 72
DONOR_HYDROGENS      STATIC     ATOMS    <user>   **** ""
2 64 50
ATOM$BLUE        STATIC     ATOMS    COLORGROUP SYSTEM
8 65 66 67 68 69 70 71 72
ATOM$RED        STATIC     ATOMS    COLORGROUP SYSTEM
2 64 50
