AV-unprocessed.smi:21|AV-procd|sdf|131|dock6
  -GOLD-   2262015323D 1   1.00000     0.00000
 Structure written by MMmdl.
 62 65  0  0  0  0  0  0  0  0  2 V2000
  148.5092  144.9163  160.3892 C   0  0  0  0  0  0  0  0  0  0  0  0
  148.9890  143.7321  159.7720 O   0  0  0  0  0  0  0  0  0  0  0  0
  150.3941  143.5509  159.8933 C   0  0  1  0  0  0  0  0  0  0  0  0
  150.7957  142.2948  159.1307 C   0  0  0  0  0  0  0  0  0  0  0  0
  150.8706  142.7569  157.6705 C   0  0  2  0  0  0  0  0  0  0  0  0
  151.7680  141.8652  156.7743 C   0  0  0  0  0  0  0  0  0  0  0  0
  151.0058  140.9200  155.9587 N   0  0  0  0  0  0  0  0  0  0  0  0
  150.1218  141.4632  154.9276 C   0  0  0  0  0  0  0  0  0  0  0  0
  151.3313  139.5926  155.9193 C   0  0  0  0  0  0  0  0  0  0  0  0
  151.2277  138.9444  154.7267 N   0  0  0  0  0  0  0  0  0  0  0  0
  151.5431  137.6526  154.6119 C   0  0  0  0  0  0  0  0  0  0  0  0
  151.9806  136.8175  155.5525 N   0  0  0  0  0  0  0  0  0  0  0  0
  152.0826  137.4445  156.7577 C   0  0  0  0  0  0  0  0  0  0  0  0
  151.7813  138.8122  157.0320 C   0  0  0  0  0  0  0  0  0  0  0  0
  152.0121  139.0655  158.3819 N   0  0  0  0  0  0  0  0  0  0  0  0
  152.4264  137.9288  158.8679 C   0  0  0  0  0  0  0  0  0  0  0  0
  152.4855  136.8960  157.9630 N   0  0  0  0  0  0  0  0  0  0  0  0
  152.9258  135.5362  158.2251 C   0  0  0  0  0  0  0  0  0  0  0  0
  154.2575  135.4291  159.0134 C   0  0  2  0  0  0  0  0  0  0  0  0
  155.3450  134.8961  158.0480 C   0  0  0  0  0  0  0  0  0  0  0  0
  155.3625  135.6076  156.8279 O   0  0  0  0  0  0  0  0  0  0  0  0
  154.1310  134.5529  160.2974 C   0  0  1  0  0  0  0  0  0  0  0  0
  153.1146  135.0347  161.3211 C   0  0  0  0  0  0  0  0  0  0  0  0
  152.9126  133.7983  162.1842 C   0  0  0  0  0  0  0  0  0  0  0  0
  152.9487  132.7169  161.2662 O   0  0  0  0  0  0  0  0  0  0  0  0
  153.6399  133.1115  160.0844 C   0  0  0  0  0  0  0  0  0  0  0  0
  151.2336  144.2029  157.7237 N   0  3  2  0  0  0  0  0  0  0  0  0
  152.4845  144.6249  157.0499 C   0  0  0  0  0  0  0  0  0  0  0  0
  151.1555  144.6440  159.1363 C   0  0  0  0  0  0  0  0  0  0  0  0
  150.6878  143.4828  160.9422 H   0  0  0  0  0  0  0  0  0  0  0  0
  149.8547  142.7425  157.2749 H   0  0  0  0  0  0  0  0  0  0  0  0
  147.4327  144.9943  160.2381 H   0  0  0  0  0  0  0  0  0  0  0  0
  148.9706  145.8099  159.9693 H   0  0  0  0  0  0  0  0  0  0  0  0
  148.6947  144.9006  161.4638 H   0  0  0  0  0  0  0  0  0  0  0  0
  151.7795  141.9660  159.4689 H   0  0  0  0  0  0  0  0  0  0  0  0
  150.1001  141.4681  159.2792 H   0  0  0  0  0  0  0  0  0  0  0  0
  152.4065  142.4593  156.1239 H   0  0  0  0  0  0  0  0  0  0  0  0
  152.4575  141.3009  157.4026 H   0  0  0  0  0  0  0  0  0  0  0  0
  149.1651  140.9396  154.9253 H   0  0  0  0  0  0  0  0  0  0  0  0
  150.5732  141.3649  153.9397 H   0  0  0  0  0  0  0  0  0  0  0  0
  149.9151  142.5203  155.0944 H   0  0  0  0  0  0  0  0  0  0  0  0
  151.4298  137.2283  153.6251 H   0  0  0  0  0  0  0  0  0  0  0  0
  152.6966  137.8101  159.9072 H   0  0  0  0  0  0  0  0  0  0  0  0
  152.1364  134.9984  158.7512 H   0  0  0  0  0  0  0  0  0  0  0  0
  153.0237  135.0522  157.2527 H   0  0  0  0  0  0  0  0  0  0  0  0
  154.5501  136.4386  159.3067 H   0  0  0  0  0  0  0  0  0  0  0  0
  156.3311  134.9325  158.5122 H   0  0  0  0  0  0  0  0  0  0  0  0
  155.1594  133.8532  157.7898 H   0  0  0  0  0  0  0  0  0  0  0  0
  156.2368  135.5712  156.4708 H   0  0  0  0  0  0  0  0  0  0  0  0
  155.1029  134.5116  160.7923 H   0  0  0  0  0  0  0  0  0  0  0  0
  153.4594  135.8904  161.9020 H   0  0  0  0  0  0  0  0  0  0  0  0
  152.1764  135.3029  160.8332 H   0  0  0  0  0  0  0  0  0  0  0  0
  153.7337  133.6890  162.8938 H   0  0  0  0  0  0  0  0  0  0  0  0
  151.9770  133.8207  162.7432 H   0  0  0  0  0  0  0  0  0  0  0  0
  152.9396  133.0517  159.2510 H   0  0  0  0  0  0  0  0  0  0  0  0
  154.4607  132.4226  159.8895 H   0  0  0  0  0  0  0  0  0  0  0  0
  153.3547  144.1209  157.4717 H   0  0  0  0  0  0  0  0  0  0  0  0
  152.6288  145.6990  157.1697 H   0  0  0  0  0  0  0  0  0  0  0  0
  152.4435  144.4238  155.9794 H   0  0  0  0  0  0  0  0  0  0  0  0
  150.7013  145.6310  159.2194 H   0  0  0  0  0  0  0  0  0  0  0  0
  152.1630  144.7152  159.5499 H   0  0  0  0  0  0  0  0  0  0  0  0
  150.4849  144.6789  157.2402 H   0  0  0  0  0  0  0  0  0  0  0  0
  1  2  1  0  0  0  0
  1 32  1  0  0  0  0
  1 33  1  0  0  0  0
  1 34  1  0  0  0  0
  2  3  1  0  0  0  0
  3 30  1  0  0  0  0
  3 29  1  0  0  0  0
  3  4  1  0  0  0  0
  4  5  1  0  0  0  0
  4 35  1  0  0  0  0
  4 36  1  0  0  0  0
  5 31  1  0  0  0  0
  5  6  1  0  0  0  0
  5 27  1  0  0  0  0
  6  7  1  0  0  0  0
  6 37  1  0  0  0  0
  6 38  1  0  0  0  0
  7  8  1  0  0  0  0
  7  9  1  0  0  0  0
  8 39  1  0  0  0  0
  8 40  1  0  0  0  0
  8 41  1  0  0  0  0
  9 14  1  0  0  0  0
  9 10  2  0  0  0  0
 10 11  1  0  0  0  0
 11 12  2  0  0  0  0
 11 42  1  0  0  0  0
 12 13  1  0  0  0  0
 13 17  1  0  0  0  0
 13 14  2  0  0  0  0
 14 15  1  0  0  0  0
 15 16  2  0  0  0  0
 16 17  1  0  0  0  0
 16 43  1  0  0  0  0
 17 18  1  0  0  0  0
 18 19  1  0  0  0  0
 18 44  1  0  0  0  0
 18 45  1  0  0  0  0
 19 20  1  0  0  0  0
 19 22  1  0  0  0  0
 19 46  1  0  0  0  0
 20 21  1  0  0  0  0
 20 47  1  0  0  0  0
 20 48  1  0  0  0  0
 21 49  1  0  0  0  0
 22 26  1  0  0  0  0
 22 23  1  0  0  0  0
 22 50  1  0  0  0  0
 23 24  1  0  0  0  0
 23 51  1  0  0  0  0
 23 52  1  0  0  0  0
 24 25  1  0  0  0  0
 24 53  1  0  0  0  0
 24 54  1  0  0  0  0
 25 26  1  0  0  0  0
 26 55  1  0  0  0  0
 26 56  1  0  0  0  0
 27 28  1  0  0  0  0
 27 29  1  0  0  0  0
 27 62  1  0  0  0  0
 28 57  1  0  0  0  0
 28 58  1  0  0  0  0
 28 59  1  0  0  0  0
 29 60  1  0  0  0  0
 29 61  1  0  0  0  0
M  CHG  1  27   1
M  END
> <s_m_source_file>
AV-unprocessed.smi

> <i_m_source_file_index>
21

> <i_lp_mmshare_version>
43012

> <i_f3d_flags>
0

> <s_epik_input>
W0NIM11PW0NASF0xW0NIMl1bQ0BIXShOKFtDSDNdKVtDSDJdMSlbQ0gyXU4oW0NIM10pYyhuW2NIXW4yKWMoYzIzKW5bY0hdbjNbQ0gyXVtDQEhdKFtDSDJdW09IXSlbQ0BASF00W0NIMl1bQ0gyXU9bQ0gyXTQ=

> <s_epik_cmdline>
J2VwaWtfcHl0aG9uJywgJy1waCcsICc3LjAnLCAnLXRuJywgJzgnLCAnLW1hJywgJzIwMCcsICctbWV0YWxfYmluZGluZycsICctaW1hZScsICc8aW5maWxlLm1hZT4nLCAnLW9tYWUnLCAnPG91dGZpbGUubWFlPic=

> <r_lp_tautomer_probability>
1

> <r_epik_Ionization_Penalty>
0.0157465

> <r_epik_Ionization_Penalty_Charging>
0.015354

> <r_epik_Ionization_Penalty_Neutral>
0.000392529

> <r_epik_State_Penalty>
0.0120612

> <r_epik_Charging_Adjusted_Penalty>
0.0274152

> <i_epik_Tot_Q>
1

> <i_epik_Tot_abs_Q>
1

> <r_epik_Metal_State_Penalty>
0.0121253

> <b_epik_Metal_Only>
0

> <s_lp_Force_Field>
OPLS_2005

> <r_lp_Energy>
62.3844

> <b_lp_Chiralities_Consistent>
1

> <s_lp_Variant>
AV-unprocessed.smi:21-11

> <Gold.Version>
5.8.1

> <Gold.Id.Protein>
6NUR|6NUR_protein|mol2

> <Gold.PLP.Fitness>
48.4568

> <Gold.PLP.PLP>
-36.3638

> <Gold.PLP.part.hbond>
-4.0527

> <Gold.PLP.part.metal>
0.0000

> <Gold.PLP.part.buried>
-8.7652

> <Gold.PLP.part.nonpolar>
-22.7750

> <Gold.PLP.part.repulsive>
0.3330

> <Gold.PLP.ligand.clash>
0.0000

> <Gold.PLP.ligand.torsion>
1.9510

> <Gold.PLP.Chemscore.Hbond>
4.0633

> <Gold.PLP.Chemscore.CHOScore>
0.9879

> <Gold.PLP.Chemscore.Metal>
0.0000

> <Gold.Chemscore.Hbonds>
donor molecule, donor type, donor heavy atom, donor atom, acceptor molecule, acceptor atom, score
      L1  H    27    62       P1  8028  1.11
      P1  H  6933  6944       L1     2  0.18
      P1  H  7989  7998       L1    10  0.20
      P1  H 10752 10763       L1    21  0.32
      P1  H 10752 10765       L1    12  1.00
      L1  C    11    42       P1  7949  1.00

> <Gold.PLP.Chemscore.Internal.Correction>
0.8413

> <Gold.Rescore>
     Score         DG    S(hbond)    S(metal)    S(lipo)     H(rot)  DE(clash)    DE(int)     intcor
      9.85     -15.07       1.85        0.00      96.32       3.08       3.39       1.82       ----

> <Gold.Chemscore.Fitness>
9.8493

> <Gold.Chemscore.DG>
-15.0680

> <Gold.Chemscore.ZeroCoef>
-5.4800

> <Gold.Chemscore.Hbond>
1.8543

> <Gold.Chemscore.Metal>
0.0000

> <Gold.Chemscore.Lipo>
96.3154

> <Gold.Chemscore.Internal_Hbond>
0.0000

> <Gold.Chemscore.DEClash>
3.3942

> <Gold.Chemscore.DEInternal>
1.8245

> <Gold.Chemscore.Rot>
3.0758

> <Gold.Chemscore.Internal.Correction>
   9.000000E+99

> <Gold.Chemscore.Hbonds>
donor molecule, donor type, donor heavy atom, donor atom, acceptor molecule, acceptor atom, score
      L1  H    27    62       P1  8028  0.30
      P1  H  7989  7998       L1    10  0.02
      P1  H 10752 10763       L1    21  0.01
      P1  H 10752 10765       L1    12  0.73

> <Gold.Chemscore.Hbond.Weighted>
-6.1933

> <Gold.Chemscore.Metal.Weighted>
-0.0000

> <Gold.Chemscore.Lipo.Weighted>
-11.2689

> <Gold.Chemscore.Internal_Hbond.Weighted>
0.0000

> <Gold.Chemscore.DEClash.Weighted>
3.3942

> <Gold.Chemscore.DEInternal.Weighted>
1.8245

> <Gold.Chemscore.Rot.Weighted>
7.8741

> <Gold.Chemscore.Internal.Correction.Weighted>
   9.000000E+99

> <Gold.Protein.RotatedTorsions>
[ 6907 6896 6895 6894 ] final   -2.08 input  -60.11 | X-H torsion
[ 7974 7965 7964 7962 ] final   93.01 input  175.53 | X-H torsion
[ 8008 7997 7996 7995 ] final  154.80 input   59.86 | X-H torsion
[ 10167 10162 10161 10158 ] final  -21.68 input  -65.29 | X-H torsion
[ 10718 10713 10712 10709 ] final   70.12 input   66.30 | X-H torsion
[ 10763 10752 10751 10750 ] final -165.39 input  -60.55 | X-H torsion
[ 11005 11000 10999 10996 ] final  -68.32 input  -57.11 | X-H torsion

> <Gold.Protein.ActiveResidues>
 VAL166  LYS551  ARG553  GLY616  TRP617  ASP618  TYR619  PRO620  LYS621  CYS622 
 ASP623  PHE694  ASN695  SER759  ASP760  ASP761  ALA762  ILE779  LEU786  VAL792 
 PHE793  MET794  SER795  GLU796  ALA797  LYS798  CYS799  TRP800  GLU811  SER814 

> <Gold.Protein.RotatedAtoms>
  151.5356  135.1068  159.9913 H   0  0  0  0  0  0  0  0  0  0  0  0  # atno 6907 bound_to 6896
  152.4558  133.7717  159.6813 H   0  0  0  0  0  0  0  0  0  0  0  0  # atno 6908 bound_to 6896
  150.8502  133.7733  159.3053 H   0  0  0  0  0  0  0  0  0  0  0  0  # atno 6909 bound_to 6896
  145.4846  139.2277  143.2864 H   0  0  0  0  0  0  0  0  0  0  0  0  # atno 7974 bound_to 7965
  156.2512  140.1957  156.6702 H   0  0  0  0  0  0  0  0  0  0  0  0  # atno 8008 bound_to 7997
  154.6398  140.0585  156.9858 H   0  0  0  0  0  0  0  0  0  0  0  0  # atno 8009 bound_to 7997
  155.1580  140.3257  155.4420 H   0  0  0  0  0  0  0  0  0  0  0  0  # atno 8010 bound_to 7997
  140.7283  143.4605  151.0386 H   0  0  0  0  0  0  0  0  0  0  0  0  # atno 10167 bound_to 10162
  157.6383  130.9461  150.0607 H   0  0  0  0  0  0  0  0  0  0  0  0  # atno 10718 bound_to 10713
  154.6936  135.2975  154.9443 H   0  0  0  0  0  0  0  0  0  0  0  0  # atno 10763 bound_to 10752
  154.0398  135.6659  153.4793 H   0  0  0  0  0  0  0  0  0  0  0  0  # atno 10764 bound_to 10752
  153.0630  135.5104  154.8042 H   0  0  0  0  0  0  0  0  0  0  0  0  # atno 10765 bound_to 10752
  141.1529  133.6738  156.6428 H   0  0  0  0  0  0  0  0  0  0  0  0  # atno 11005 bound_to 11000
  146.2321  140.5635  142.8971 LP  0  0  0  0  0  0  0  0  0  0  0  0  # atno 17320 bound_to 7965
  144.7869  140.5954  143.6568 LP  0  0  0  0  0  0  0  0  0  0  0  0  # atno 17321 bound_to 7965
  139.8289  143.7718  152.3179 LP  0  0  0  0  0  0  0  0  0  0  0  0  # atno 17342 bound_to 10162
  139.7826  144.7439  151.0066 LP  0  0  0  0  0  0  0  0  0  0  0  0  # atno 17343 bound_to 10162
  156.1641  130.3644  149.9258 LP  0  0  0  0  0  0  0  0  0  0  0  0  # atno 17370 bound_to 10713
  156.7249  130.9021  151.3621 LP  0  0  0  0  0  0  0  0  0  0  0  0  # atno 17371 bound_to 10713
  140.3380  134.7873  157.4376 LP  0  0  0  0  0  0  0  0  0  0  0  0  # atno 17394 bound_to 11000
  140.0961  134.5535  155.8397 LP  0  0  0  0  0  0  0  0  0  0  0  0  # atno 17395 bound_to 11000

$$$$
