AV-unprocessed.smi:2110|AV-procd|sdf|8608|dock5
  -GOLD-   2272011353D 1   1.00000     0.00000
 Structure written by MMmdl.
 46 47  0  0  0  0  0  0  0  0  1 V2000
  155.7732  136.8631  159.2955 C   0  0  0  0  0  0  0  0  0  0  0  0
  154.3345  137.0171  159.8145 C   0  0  0  0  0  0  0  0  0  0  0  0
  154.2092  138.0346  160.8769 N   0  0  0  0  0  0  0  0  0  0  0  0
  153.7822  137.5595  162.2074 C   0  0  0  0  0  0  0  0  0  0  0  0
  154.6862  136.4515  162.7675 C   0  0  0  0  0  0  0  0  0  0  0  0
  154.9735  139.5869  160.7051 S   0  0  0  0  0  0  0  0  0  0  0  0
  156.1216  139.6644  161.6214 O   0  0  0  0  0  0  0  0  0  0  0  0
  155.1265  139.8970  159.2754 O   0  0  0  0  0  0  0  0  0  0  0  0
  153.7230  140.5872  161.3316 N   0  0  0  0  0  0  0  0  0  0  0  0
  153.7148  142.0287  161.0941 C   0  0  0  0  0  0  0  0  0  0  0  0
  152.9079  142.4624  159.8789 C   0  0  0  0  0  0  0  0  0  0  0  0
  152.6055  143.8264  159.7016 C   0  0  0  0  0  0  0  0  0  0  0  0
  151.8528  144.2086  158.5759 C   0  0  0  0  0  0  0  0  0  0  0  0
  151.4087  143.3328  157.6505 N   0  0  0  0  0  0  0  0  0  0  0  0
  151.6984  142.0173  157.8034 C   0  0  0  0  0  0  0  0  0  0  0  0
  151.2403  141.1096  156.8246 N   0  0  0  0  0  0  0  0  0  0  0  0
  152.2333  140.1502  156.3471 C   0  0  0  0  0  0  0  0  0  0  0  0
  151.5534  139.0387  155.5296 C   0  0  0  0  0  0  0  0  0  0  0  0
  150.7883  139.6143  154.4760 O   0  0  0  0  0  0  0  0  0  0  0  0
  149.7555  140.4599  154.9713 C   0  0  0  0  0  0  0  0  0  0  0  0
  150.3746  141.6227  155.7650 C   0  0  0  0  0  0  0  0  0  0  0  0
  152.4390  141.5436  158.9118 C   0  0  0  0  0  0  0  0  0  0  0  0
  155.8328  136.0471  158.5755 H   0  0  0  0  0  0  0  0  0  0  0  0
  156.4784  136.6453  160.0967 H   0  0  0  0  0  0  0  0  0  0  0  0
  156.1138  137.7646  158.7868 H   0  0  0  0  0  0  0  0  0  0  0  0
  153.6793  137.2944  158.9885 H   0  0  0  0  0  0  0  0  0  0  0  0
  153.9700  136.0568  160.1808 H   0  0  0  0  0  0  0  0  0  0  0  0
  153.7588  138.3985  162.9024 H   0  0  0  0  0  0  0  0  0  0  0  0
  152.7558  137.1971  162.1415 H   0  0  0  0  0  0  0  0  0  0  0  0
  154.3632  136.1686  163.7693 H   0  0  0  0  0  0  0  0  0  0  0  0
  155.7239  136.7738  162.8409 H   0  0  0  0  0  0  0  0  0  0  0  0
  154.6496  135.5525  162.1529 H   0  0  0  0  0  0  0  0  0  0  0  0
  152.8108  140.1430  161.4291 H   0  0  0  0  0  0  0  0  0  0  0  0
  153.3291  142.5295  161.9826 H   0  0  0  0  0  0  0  0  0  0  0  0
  154.7428  142.3668  160.9586 H   0  0  0  0  0  0  0  0  0  0  0  0
  152.9393  144.5663  160.4143 H   0  0  0  0  0  0  0  0  0  0  0  0
  151.6014  145.2460  158.4131 H   0  0  0  0  0  0  0  0  0  0  0  0
  152.9597  140.6766  155.7269 H   0  0  0  0  0  0  0  0  0  0  0  0
  152.7878  139.6983  157.1683 H   0  0  0  0  0  0  0  0  0  0  0  0
  152.3050  138.3762  155.1004 H   0  0  0  0  0  0  0  0  0  0  0  0
  150.9136  138.4246  156.1656 H   0  0  0  0  0  0  0  0  0  0  0  0
  149.1777  140.8451  154.1313 H   0  0  0  0  0  0  0  0  0  0  0  0
  149.0680  139.8853  155.5943 H   0  0  0  0  0  0  0  0  0  0  0  0
  149.5787  142.2349  156.1912 H   0  0  0  0  0  0  0  0  0  0  0  0
  150.9571  142.2605  155.0985 H   0  0  0  0  0  0  0  0  0  0  0  0
  152.6280  140.4868  159.0189 H   0  0  0  0  0  0  0  0  0  0  0  0
  1  2  1  0  0  0  0
  1 23  1  0  0  0  0
  1 24  1  0  0  0  0
  1 25  1  0  0  0  0
  2  3  1  0  0  0  0
  2 26  1  0  0  0  0
  2 27  1  0  0  0  0
  3  4  1  0  0  0  0
  3  6  1  0  0  0  0
  4  5  1  0  0  0  0
  4 28  1  0  0  0  0
  4 29  1  0  0  0  0
  5 30  1  0  0  0  0
  5 31  1  0  0  0  0
  5 32  1  0  0  0  0
  6  7  2  0  0  0  0
  6  8  2  0  0  0  0
  6  9  1  0  0  0  0
  9 10  1  0  0  0  0
  9 33  1  0  0  0  0
 10 11  1  0  0  0  0
 10 34  1  0  0  0  0
 10 35  1  0  0  0  0
 11 22  1  0  0  0  0
 11 12  2  0  0  0  0
 12 13  1  0  0  0  0
 12 36  1  0  0  0  0
 13 14  2  0  0  0  0
 13 37  1  0  0  0  0
 14 15  1  0  0  0  0
 15 16  1  0  0  0  0
 15 22  2  0  0  0  0
 16 21  1  0  0  0  0
 16 17  1  0  0  0  0
 17 18  1  0  0  0  0
 17 38  1  0  0  0  0
 17 39  1  0  0  0  0
 18 19  1  0  0  0  0
 18 40  1  0  0  0  0
 18 41  1  0  0  0  0
 19 20  1  0  0  0  0
 20 21  1  0  0  0  0
 20 42  1  0  0  0  0
 20 43  1  0  0  0  0
 21 44  1  0  0  0  0
 21 45  1  0  0  0  0
 22 46  1  0  0  0  0
M  END
> <s_m_source_file>
AV-unprocessed.smi

> <i_m_source_file_index>
2110

> <i_lp_mmshare_version>
43012

> <i_f3d_flags>
0

> <s_epik_input>
W0NIM11bQ0gyXU4oW0NIMl1bQ0gzXSlTKD1PKSg9TylbTkhdW0NIMl1jMVtjSF1bY0hdbmMoW2NIXTEpTjJbQ0gyXVtDSDJdT1tDSDJdW0NIMl0y

> <s_epik_cmdline>
J2VwaWtfcHl0aG9uJywgJy1waCcsICc3LjAnLCAnLXRuJywgJzgnLCAnLW1hJywgJzIwMCcsICctbWV0YWxfYmluZGluZycsICctaW1hZScsICc8aW5maWxlLm1hZT4nLCAnLW9tYWUnLCAnPG91dGZpbGUubWFlPic=

> <r_lp_tautomer_probability>
1

> <r_epik_Ionization_Penalty>
0.0503757

> <r_epik_Ionization_Penalty_Charging>
0

> <r_epik_Ionization_Penalty_Neutral>
0.0503757

> <r_epik_State_Penalty>
0.0467666

> <r_epik_Charging_Adjusted_Penalty>
0.0467666

> <i_epik_Tot_Q>
0

> <i_epik_Tot_abs_Q>
0

> <r_epik_Metal_State_Penalty>
0.311919

> <b_epik_Metal_Only>
0

> <s_lp_Force_Field>
OPLS_2005

> <r_lp_Energy>
13.6867

> <b_lp_Chiralities_Consistent>
1

> <s_lp_Variant>
AV-unprocessed.smi:2110-1

> <Gold.Version>
5.8.1

> <Gold.Id.Protein>
6NUR|6NUR_protein|mol2

> <Gold.PLP.Fitness>
46.7578

> <Gold.PLP.PLP>
-41.8927

> <Gold.PLP.part.hbond>
-2.0000

> <Gold.PLP.part.metal>
0.0000

> <Gold.PLP.part.buried>
-4.9712

> <Gold.PLP.part.nonpolar>
-34.1115

> <Gold.PLP.part.repulsive>
0.3085

> <Gold.PLP.ligand.clash>
0.0000

> <Gold.PLP.ligand.torsion>
2.3960

> <Gold.PLP.Chemscore.Hbond>
2.0000

> <Gold.PLP.Chemscore.CHOScore>
0.0000

> <Gold.PLP.Chemscore.Metal>
0.0000

> <Gold.Chemscore.Hbonds>
donor molecule, donor type, donor heavy atom, donor atom, acceptor molecule, acceptor atom, score
      P1  H  7989  7998       L1    19  0.85
      P1  H  7997  8008       L1     8  1.00

> <Gold.PLP.Chemscore.Internal.Correction>
3.6570

> <Gold.Rescore>
     Score         DG    S(hbond)    S(metal)    S(lipo)     H(rot)  DE(clash)    DE(int)     intcor
     16.69     -19.49       1.83        0.00     105.09       1.72       0.20       2.61       ----

> <Gold.Chemscore.Fitness>
16.6853

> <Gold.Chemscore.DG>
-19.4877

> <Gold.Chemscore.ZeroCoef>
-5.4800

> <Gold.Chemscore.Hbond>
1.8291

> <Gold.Chemscore.Metal>
0.0000

> <Gold.Chemscore.Lipo>
105.0926

> <Gold.Chemscore.Internal_Hbond>
0.0000

> <Gold.Chemscore.DEClash>
0.1951

> <Gold.Chemscore.DEInternal>
2.6072

> <Gold.Chemscore.Rot>
1.7177

> <Gold.Chemscore.Internal.Correction>
   9.000000E+99

> <Gold.Chemscore.Hbonds>
donor molecule, donor type, donor heavy atom, donor atom, acceptor molecule, acceptor atom, score
      P1  H  7989  7998       L1    19  0.14
      P1  H  7997  8008       L1     8  0.95

> <Gold.Chemscore.Hbond.Weighted>
-6.1092

> <Gold.Chemscore.Metal.Weighted>
-0.0000

> <Gold.Chemscore.Lipo.Weighted>
-12.2958

> <Gold.Chemscore.Internal_Hbond.Weighted>
0.0000

> <Gold.Chemscore.DEClash.Weighted>
0.1951

> <Gold.Chemscore.DEInternal.Weighted>
2.6072

> <Gold.Chemscore.Rot.Weighted>
4.3974

> <Gold.Chemscore.Internal.Correction.Weighted>
   9.000000E+99

> <Gold.Protein.RotatedTorsions>
[ 6907 6896 6895 6894 ] final   14.59 input  -60.11 | X-H torsion
[ 7974 7965 7964 7962 ] final   32.25 input  175.53 | X-H torsion
[ 8008 7997 7996 7995 ] final -140.85 input   59.86 | X-H torsion
[ 10167 10162 10161 10158 ] final  -90.69 input  -65.29 | X-H torsion
[ 10718 10713 10712 10709 ] final  -40.17 input   66.30 | X-H torsion
[ 10763 10752 10751 10750 ] final  -71.33 input  -60.55 | X-H torsion
[ 11005 11000 10999 10996 ] final   58.23 input  -57.11 | X-H torsion

> <Gold.Protein.ActiveResidues>
 VAL166  LYS551  ARG553  GLY616  TRP617  ASP618  TYR619  PRO620  LYS621  CYS622 
 ASP623  PHE694  ASN695  SER759  ASP760  ASP761  ALA762  ILE779  LEU786  VAL792 
 PHE793  MET794  SER795  GLU796  ALA797  LYS798  CYS799  TRP800  GLU811  SER814 

> <Gold.Protein.RotatedAtoms>
  151.8047  135.0698  160.0404 H   0  0  0  0  0  0  0  0  0  0  0  0  # atno 6907 bound_to 6896
  152.3064  133.5703  159.5660 H   0  0  0  0  0  0  0  0  0  0  0  0  # atno 6908 bound_to 6896
  150.7298  134.0133  159.3719 H   0  0  0  0  0  0  0  0  0  0  0  0  # atno 6909 bound_to 6896
  146.1498  139.6551  142.9106 H   0  0  0  0  0  0  0  0  0  0  0  0  # atno 7974 bound_to 7965
  155.4682  140.0551  157.2983 H   0  0  0  0  0  0  0  0  0  0  0  0  # atno 8008 bound_to 7997
  154.4709  140.2040  155.9951 H   0  0  0  0  0  0  0  0  0  0  0  0  # atno 8009 bound_to 7997
  156.1054  140.3212  155.8004 H   0  0  0  0  0  0  0  0  0  0  0  0  # atno 8010 bound_to 7997
  140.3524  143.2884  151.9710 H   0  0  0  0  0  0  0  0  0  0  0  0  # atno 10167 bound_to 10162
  156.2843  130.4221  149.8304 H   0  0  0  0  0  0  0  0  0  0  0  0  # atno 10718 bound_to 10713
  154.4303  135.5965  153.6064 H   0  0  0  0  0  0  0  0  0  0  0  0  # atno 10763 bound_to 10752
  152.9798  135.5973  154.3847 H   0  0  0  0  0  0  0  0  0  0  0  0  # atno 10764 bound_to 10752
  154.3684  135.2841  155.2259 H   0  0  0  0  0  0  0  0  0  0  0  0  # atno 10765 bound_to 10752
  140.0393  134.5897  155.9403 H   0  0  0  0  0  0  0  0  0  0  0  0  # atno 11005 bound_to 11000
  145.4849  141.0438  143.2625 LP  0  0  0  0  0  0  0  0  0  0  0  0  # atno 17320 bound_to 7965
  144.7891  139.6366  143.7121 LP  0  0  0  0  0  0  0  0  0  0  0  0  # atno 17321 bound_to 7965
  139.4824  144.6064  151.7513 LP  0  0  0  0  0  0  0  0  0  0  0  0  # atno 17342 bound_to 10162
  140.5206  144.0885  150.6021 LP  0  0  0  0  0  0  0  0  0  0  0  0  # atno 17343 bound_to 10162
  156.5740  130.8437  151.3364 LP  0  0  0  0  0  0  0  0  0  0  0  0  # atno 17370 bound_to 10713
  157.7324  130.9714  150.1925 LP  0  0  0  0  0  0  0  0  0  0  0  0  # atno 17371 bound_to 10713
  141.1874  133.6560  156.5282 LP  0  0  0  0  0  0  0  0  0  0  0  0  # atno 17394 bound_to 11000
  140.4095  134.7285  157.4828 LP  0  0  0  0  0  0  0  0  0  0  0  0  # atno 17395 bound_to 11000

$$$$
