AV-unprocessed.smi:1172|AV-procd|sdf|4943|dock7
  -GOLD-   22720 3533D 1   1.00000     0.00000
 Structure written by MMmdl.
 36 37  0  0  0  0  0  0  0  0  1 V2000
  148.3725  138.6658  152.6575 N   0  0  0  0  0  0  0  0  0  0  0  0
  148.2330  139.0710  153.9227 C   0  0  0  0  0  0  0  0  0  0  0  0
  147.9303  138.2989  154.8298 O   0  0  0  0  0  0  0  0  0  0  0  0
  148.4689  140.5547  154.2123 C   0  0  0  0  0  0  0  0  0  0  0  0
  149.6229  140.7428  155.0736 N   0  0  0  0  0  0  0  0  0  0  0  0
  149.8119  141.7022  156.0495 C   0  0  0  0  0  0  0  0  0  0  0  0
  151.0511  141.4607  156.5715 C   0  0  0  0  0  0  0  0  0  0  0  0
  151.7453  142.1452  157.6013 N   0  0  0  0  0  0  0  0  0  0  0  0
  152.2466  141.6331  158.7418 C   0  0  0  0  0  0  0  0  0  0  0  0
  152.1003  140.4550  159.0701 O   0  0  0  0  0  0  0  0  0  0  0  0
  152.8886  142.5379  159.5249 N   0  0  0  0  0  0  0  0  0  0  0  0
  153.6686  142.2386  160.7396 C   0  0  0  0  0  0  0  0  0  0  0  0
  152.8328  142.6262  161.9735 C   0  0  0  0  0  0  0  0  0  0  0  0
  152.4156  144.1076  161.9104 C   0  0  0  0  0  0  0  0  0  0  0  0
  151.7709  144.4570  160.5537 C   0  0  1  0  0  0  0  0  0  0  0  0
  151.5768  145.8526  160.4694 O   0  0  0  0  0  0  0  0  0  0  0  0
  152.6585  143.9826  159.3865 C   0  0  0  0  0  0  0  0  0  0  0  0
  151.5559  140.3377  155.8663 C   0  0  0  0  0  0  0  0  0  0  0  0
  150.6871  139.9083  154.9639 N   0  0  0  0  0  0  0  0  0  0  0  0
  148.2250  137.6942  152.4253 H   0  0  0  0  0  0  0  0  0  0  0  0
  148.6238  139.3282  151.9381 H   0  0  0  0  0  0  0  0  0  0  0  0
  148.6300  141.1066  153.2851 H   0  0  0  0  0  0  0  0  0  0  0  0
  147.5841  140.9807  154.6881 H   0  0  0  0  0  0  0  0  0  0  0  0
  149.0629  142.4481  156.2707 H   0  0  0  0  0  0  0  0  0  0  0  0
  151.8972  143.1313  157.4477 H   0  0  0  0  0  0  0  0  0  0  0  0
  153.9843  141.1986  160.8208 H   0  0  0  0  0  0  0  0  0  0  0  0
  154.5933  142.8173  160.7217 H   0  0  0  0  0  0  0  0  0  0  0  0
  151.9434  141.9966  162.0240 H   0  0  0  0  0  0  0  0  0  0  0  0
  153.3988  142.4370  162.8859 H   0  0  0  0  0  0  0  0  0  0  0  0
  151.7329  144.3414  162.7281 H   0  0  0  0  0  0  0  0  0  0  0  0
  153.3014  144.7267  162.0614 H   0  0  0  0  0  0  0  0  0  0  0  0
  150.7940  143.9763  160.4821 H   0  0  0  0  0  0  0  0  0  0  0  0
  152.0546  146.2662  161.1718 H   0  0  0  0  0  0  0  0  0  0  0  0
  153.6183  144.5018  159.4033 H   0  0  0  0  0  0  0  0  0  0  0  0
  152.2000  144.2448  158.4316 H   0  0  0  0  0  0  0  0  0  0  0  0
  152.5026  139.8296  155.9760 H   0  0  0  0  0  0  0  0  0  0  0  0
  1  2  1  0  0  0  0
  1 20  1  0  0  0  0
  1 21  1  0  0  0  0
  2  3  2  0  0  0  0
  2  4  1  0  0  0  0
  4  5  1  0  0  0  0
  4 22  1  0  0  0  0
  4 23  1  0  0  0  0
  5 19  1  0  0  0  0
  5  6  1  0  0  0  0
  6  7  2  0  0  0  0
  6 24  1  0  0  0  0
  7  8  1  0  0  0  0
  7 18  1  0  0  0  0
  8  9  1  0  0  0  0
  8 25  1  0  0  0  0
  9 10  2  0  0  0  0
  9 11  1  0  0  0  0
 11 17  1  0  0  0  0
 11 12  1  0  0  0  0
 12 13  1  0  0  0  0
 12 26  1  0  0  0  0
 12 27  1  0  0  0  0
 13 14  1  0  0  0  0
 13 28  1  0  0  0  0
 13 29  1  0  0  0  0
 14 15  1  0  0  0  0
 14 30  1  0  0  0  0
 14 31  1  0  0  0  0
 15 16  1  0  0  0  0
 15 17  1  0  0  0  0
 15 32  1  0  0  0  0
 16 33  1  0  0  0  0
 17 34  1  0  0  0  0
 17 35  1  0  0  0  0
 18 19  2  0  0  0  0
 18 36  1  0  0  0  0
M  END
> <s_m_source_file>
AV-unprocessed.smi

> <i_m_source_file_index>
1172

> <i_lp_mmshare_version>
43012

> <i_f3d_flags>
0

> <s_epik_input>
W05IMl1DKD1PKVtDSDJdbjFbY0hdYyhbY0hdbjEpW05IXUMoPU8pTjJbQ0gyXVtDSDJdW0NIMl1bQ0BASF0oW09IXSlbQ0gyXTI=

> <s_epik_cmdline>
J2VwaWtfcHl0aG9uJywgJy1waCcsICc3LjAnLCAnLXRuJywgJzgnLCAnLW1hJywgJzIwMCcsICctbWV0YWxfYmluZGluZycsICctaW1hZScsICc8aW5maWxlLm1hZT4nLCAnLW9tYWUnLCAnPG91dGZpbGUubWFlPic=

> <r_lp_tautomer_probability>
1

> <r_epik_Ionization_Penalty>
4.44977e-05

> <r_epik_Ionization_Penalty_Charging>
0

> <r_epik_Ionization_Penalty_Neutral>
4.44977e-05

> <r_epik_State_Penalty>
-0

> <r_epik_Charging_Adjusted_Penalty>
0

> <i_epik_Tot_Q>
0

> <i_epik_Tot_abs_Q>
0

> <r_epik_Metal_State_Penalty>
-0

> <b_epik_Metal_Only>
0

> <s_lp_Force_Field>
OPLS_2005

> <r_lp_Energy>
33.3056

> <b_lp_Chiralities_Consistent>
1

> <s_lp_Variant>
AV-unprocessed.smi:1172-1

> <Gold.Version>
5.8.1

> <Gold.Id.Protein>
6NUR|6NUR_protein|mol2

> <Gold.PLP.Fitness>
51.3520

> <Gold.PLP.PLP>
-44.4826

> <Gold.PLP.part.hbond>
-3.7651

> <Gold.PLP.part.metal>
0.0000

> <Gold.PLP.part.buried>
-4.4753

> <Gold.PLP.part.nonpolar>
-35.5439

> <Gold.PLP.part.repulsive>
0.2866

> <Gold.PLP.ligand.clash>
1.0945

> <Gold.PLP.ligand.torsion>
1.0119

> <Gold.PLP.Chemscore.Hbond>
2.3167

> <Gold.PLP.Chemscore.CHOScore>
1.0000

> <Gold.PLP.Chemscore.Metal>
0.0000

> <Gold.Chemscore.Hbonds>
donor molecule, donor type, donor heavy atom, donor atom, acceptor molecule, acceptor atom, score
      L1  H     1    20       P1  7948  0.90
      L1  H     1    21       P1  7957  0.73
      P1  H  7989  7998       L1    19  0.54
      L1  C     6    24       P1  8028  1.00

> <Gold.PLP.Chemscore.Internal.Correction>
0.0376

> <Gold.Rescore>
     Score         DG    S(hbond)    S(metal)    S(lipo)     H(rot)  DE(clash)    DE(int)     intcor
     15.04     -16.25       1.89        0.00      86.29       2.20       0.10       1.11       ----

> <Gold.Chemscore.Fitness>
15.0385

> <Gold.Chemscore.DG>
-16.2491

> <Gold.Chemscore.ZeroCoef>
-5.4800

> <Gold.Chemscore.Hbond>
1.8853

> <Gold.Chemscore.Metal>
0.0000

> <Gold.Chemscore.Lipo>
86.2867

> <Gold.Chemscore.Internal_Hbond>
0.0000

> <Gold.Chemscore.DEClash>
0.1006

> <Gold.Chemscore.DEInternal>
1.1100

> <Gold.Chemscore.Rot>
2.1966

> <Gold.Chemscore.Internal.Correction>
   9.000000E+99

> <Gold.Chemscore.Hbonds>
donor molecule, donor type, donor heavy atom, donor atom, acceptor molecule, acceptor atom, score
      L1  H     1    20       P1  7948  0.88
      L1  H     1    21       P1  7957  0.70
      P1  H  7989  7998       L1    19  0.01

> <Gold.Chemscore.Hbond.Weighted>
-6.2968

> <Gold.Chemscore.Metal.Weighted>
-0.0000

> <Gold.Chemscore.Lipo.Weighted>
-10.0955

> <Gold.Chemscore.Internal_Hbond.Weighted>
0.0000

> <Gold.Chemscore.DEClash.Weighted>
0.1006

> <Gold.Chemscore.DEInternal.Weighted>
1.1100

> <Gold.Chemscore.Rot.Weighted>
5.6232

> <Gold.Chemscore.Internal.Correction.Weighted>
   9.000000E+99

> <Gold.Protein.RotatedTorsions>
[ 6907 6896 6895 6894 ] final   78.59 input  -60.11 | X-H torsion
[ 7974 7965 7964 7962 ] final  140.96 input  175.53 | X-H torsion
[ 8008 7997 7996 7995 ] final  -38.59 input   59.86 | X-H torsion
[ 10167 10162 10161 10158 ] final -171.41 input  -65.29 | X-H torsion
[ 10718 10713 10712 10709 ] final   34.22 input   66.30 | X-H torsion
[ 10763 10752 10751 10750 ] final   59.71 input  -60.55 | X-H torsion
[ 11005 11000 10999 10996 ] final  -17.98 input  -57.11 | X-H torsion

> <Gold.Protein.ActiveResidues>
 VAL166  LYS551  ARG553  GLY616  TRP617  ASP618  TYR619  PRO620  LYS621  CYS622 
 ASP623  PHE694  ASN695  SER759  ASP760  ASP761  ALA762  ILE779  LEU786  VAL792 
 PHE793  MET794  SER795  GLU796  ALA797  LYS798  CYS799  TRP800  GLU811  SER814 

> <Gold.Protein.RotatedAtoms>
  152.5165  134.3641  159.9294 H   0  0  0  0  0  0  0  0  0  0  0  0  # atno 6907 bound_to 6896
  151.3594  133.3889  159.2696 H   0  0  0  0  0  0  0  0  0  0  0  0  # atno 6908 bound_to 6896
  150.9664  134.9063  159.7820 H   0  0  0  0  0  0  0  0  0  0  0  0  # atno 6909 bound_to 6896
  144.9139  139.5256  143.5695 H   0  0  0  0  0  0  0  0  0  0  0  0  # atno 7974 bound_to 7965
  154.4034  140.1574  156.2725 H   0  0  0  0  0  0  0  0  0  0  0  0  # atno 8008 bound_to 7997
  155.8940  140.3437  155.5955 H   0  0  0  0  0  0  0  0  0  0  0  0  # atno 8009 bound_to 7997
  155.7525  140.0807  157.2185 H   0  0  0  0  0  0  0  0  0  0  0  0  # atno 8010 bound_to 7997
  139.5804  144.1437  152.1507 H   0  0  0  0  0  0  0  0  0  0  0  0  # atno 10167 bound_to 10162
  157.3076  130.7382  149.6705 H   0  0  0  0  0  0  0  0  0  0  0  0  # atno 10718 bound_to 10713
  152.9901  135.5562  154.5756 H   0  0  0  0  0  0  0  0  0  0  0  0  # atno 10763 bound_to 10752
  154.5148  135.2804  155.1314 H   0  0  0  0  0  0  0  0  0  0  0  0  # atno 10764 bound_to 10752
  154.2692  135.6366  153.5356 H   0  0  0  0  0  0  0  0  0  0  0  0  # atno 10765 bound_to 10752
  140.8223  133.8059  155.9672 H   0  0  0  0  0  0  0  0  0  0  0  0  # atno 11005 bound_to 11000
  146.3172  139.7967  142.8974 LP  0  0  0  0  0  0  0  0  0  0  0  0  # atno 17320 bound_to 7965
  145.3408  141.0287  143.3393 LP  0  0  0  0  0  0  0  0  0  0  0  0  # atno 17321 bound_to 7965
  140.0989  144.5557  150.7003 LP  0  0  0  0  0  0  0  0  0  0  0  0  # atno 17342 bound_to 10162
  140.7082  143.2484  151.4661 LP  0  0  0  0  0  0  0  0  0  0  0  0  # atno 17343 bound_to 10162
  155.9675  130.4261  150.4684 LP  0  0  0  0  0  0  0  0  0  0  0  0  # atno 17370 bound_to 10713
  157.2676  131.0580  151.2280 LP  0  0  0  0  0  0  0  0  0  0  0  0  # atno 17371 bound_to 10713
  140.9086  134.2289  157.4999 LP  0  0  0  0  0  0  0  0  0  0  0  0  # atno 17394 bound_to 11000
  139.8708  134.9740  156.4829 LP  0  0  0  0  0  0  0  0  0  0  0  0  # atno 17395 bound_to 11000

$$$$
