AV-unprocessed.smi:438|AV-procd|sdf|2576|dock5
  -GOLD-   2262022553D 1   1.00000     0.00000
 Structure written by MMmdl.
 48 49  0  0  0  0  0  0  0  0  1 V2000
  153.2762  141.7708  160.7663 C   0  0  0  0  0  0  0  0  0  0  0  0
  152.4734  141.7311  159.4791 C   0  0  0  0  0  0  0  0  0  0  0  0
  152.1211  140.5017  159.0431 N   0  0  0  0  0  0  0  0  0  0  0  0
  151.4213  140.4476  157.9106 C   0  0  0  0  0  0  0  0  0  0  0  0
  150.9927  138.8093  157.3541 S   0  0  0  0  0  0  0  0  0  0  0  0
  149.4001  138.5151  158.1998 C   0  0  0  0  0  0  0  0  0  0  0  0
  149.3101  137.2306  159.0344 C   0  0  0  0  0  0  0  0  0  0  0  0
  150.2615  136.4506  159.0431 O   0  0  0  0  0  0  0  0  0  0  0  0
  148.1775  137.0095  159.7204 N   0  0  0  0  0  0  0  0  0  0  0  0
  147.8844  135.8491  160.5613 C   0  0  1  0  0  0  0  0  0  0  0  0
  147.8958  136.2161  162.0630 C   0  0  0  0  0  0  0  0  0  0  0  0
  146.7153  137.1219  162.4484 C   0  0  0  0  0  0  0  0  0  0  0  0
  145.3740  136.4922  162.0453 C   0  0  0  0  0  0  0  0  0  0  0  0
  145.3481  136.1363  160.5503 C   0  0  0  0  0  0  0  0  0  0  0  0
  146.5269  135.2176  160.1635 C   0  0  1  0  0  0  0  0  0  0  0  0
  146.4659  134.8176  158.6791 C   0  0  0  0  0  0  0  0  0  0  0  0
  151.0172  141.4744  157.1609 N   0  0  0  0  0  0  0  0  0  0  0  0
  151.3624  142.7095  157.5814 C   0  0  0  0  0  0  0  0  0  0  0  0
  150.9611  143.7747  156.8290 O   0  0  0  0  0  0  0  0  0  0  0  0
  152.1164  142.9042  158.7656 C   0  0  0  0  0  0  0  0  0  0  0  0
  152.5110  144.2976  159.2364 C   0  0  0  0  0  0  0  0  0  0  0  0
  151.2886  145.1536  159.5931 C   0  0  0  0  0  0  0  0  0  0  0  0
  151.6475  146.1188  160.5571 O   0  0  0  0  0  0  0  0  0  0  0  0
  152.8121  142.4435  161.4874 H   0  0  0  0  0  0  0  0  0  0  0  0
  154.2898  142.1195  160.5694 H   0  0  0  0  0  0  0  0  0  0  0  0
  153.3435  140.7833  161.2246 H   0  0  0  0  0  0  0  0  0  0  0  0
  149.2142  139.3598  158.8632 H   0  0  0  0  0  0  0  0  0  0  0  0
  148.5964  138.5225  157.4630 H   0  0  0  0  0  0  0  0  0  0  0  0
  147.4490  137.7056  159.6507 H   0  0  0  0  0  0  0  0  0  0  0  0
  148.6668  135.1086  160.3848 H   0  0  0  0  0  0  0  0  0  0  0  0
  147.8461  135.3000  162.6528 H   0  0  0  0  0  0  0  0  0  0  0  0
  148.8357  136.6957  162.3378 H   0  0  0  0  0  0  0  0  0  0  0  0
  146.7279  137.3153  163.5211 H   0  0  0  0  0  0  0  0  0  0  0  0
  146.8276  138.0894  161.9622 H   0  0  0  0  0  0  0  0  0  0  0  0
  145.2017  135.5923  162.6369 H   0  0  0  0  0  0  0  0  0  0  0  0
  144.5576  137.1758  162.2787 H   0  0  0  0  0  0  0  0  0  0  0  0
  144.4025  135.6483  160.3114 H   0  0  0  0  0  0  0  0  0  0  0  0
  145.3767  137.0516  159.9576 H   0  0  0  0  0  0  0  0  0  0  0  0
  146.4206  134.2972  160.7397 H   0  0  0  0  0  0  0  0  0  0  0  0
  146.5069  135.6872  158.0227 H   0  0  0  0  0  0  0  0  0  0  0  0
  145.5416  134.2837  158.4575 H   0  0  0  0  0  0  0  0  0  0  0  0
  147.2955  134.1608  158.4159 H   0  0  0  0  0  0  0  0  0  0  0  0
  150.0475  143.7293  156.5931 H   0  0  0  0  0  0  0  0  0  0  0  0
  153.1819  144.2269  160.0926 H   0  0  0  0  0  0  0  0  0  0  0  0
  153.0925  144.7884  158.4549 H   0  0  0  0  0  0  0  0  0  0  0  0
  150.9016  145.6617  158.7092 H   0  0  0  0  0  0  0  0  0  0  0  0
  150.4848  144.5348  159.9927 H   0  0  0  0  0  0  0  0  0  0  0  0
  151.6837  145.6994  161.4032 H   0  0  0  0  0  0  0  0  0  0  0  0
  1  2  1  0  0  0  0
  1 24  1  0  0  0  0
  1 25  1  0  0  0  0
  1 26  1  0  0  0  0
  2 20  1  0  0  0  0
  2  3  2  0  0  0  0
  3  4  1  0  0  0  0
  4  5  1  0  0  0  0
  4 17  2  0  0  0  0
  5  6  1  0  0  0  0
  6  7  1  0  0  0  0
  6 27  1  0  0  0  0
  6 28  1  0  0  0  0
  7  8  2  0  0  0  0
  7  9  1  0  0  0  0
  9 10  1  0  0  0  0
  9 29  1  0  0  0  0
 10 15  1  0  0  0  0
 10 11  1  0  0  0  0
 10 30  1  0  0  0  0
 11 12  1  0  0  0  0
 11 31  1  0  0  0  0
 11 32  1  0  0  0  0
 12 13  1  0  0  0  0
 12 33  1  0  0  0  0
 12 34  1  0  0  0  0
 13 14  1  0  0  0  0
 13 35  1  0  0  0  0
 13 36  1  0  0  0  0
 14 15  1  0  0  0  0
 14 37  1  0  0  0  0
 14 38  1  0  0  0  0
 15 16  1  0  0  0  0
 15 39  1  0  0  0  0
 16 40  1  0  0  0  0
 16 41  1  0  0  0  0
 16 42  1  0  0  0  0
 17 18  1  0  0  0  0
 18 19  1  0  0  0  0
 18 20  2  0  0  0  0
 19 43  1  0  0  0  0
 20 21  1  0  0  0  0
 21 22  1  0  0  0  0
 21 44  1  0  0  0  0
 21 45  1  0  0  0  0
 22 23  1  0  0  0  0
 22 46  1  0  0  0  0
 22 47  1  0  0  0  0
 23 48  1  0  0  0  0
M  END
> <s_m_source_file>
AV-unprocessed.smi

> <i_m_source_file_index>
438

> <i_lp_mmshare_version>
43012

> <i_f3d_flags>
0

> <s_epik_input>
W09IXVtDSDJdW0NIMl1jMWMoW09IXSluYyhuYzFbQ0gzXSlTW0NIMl1DKD1PKVtOSF1bQ0BASF0yW0NIMl1bQ0gyXVtDSDJdW0NIMl1bQ0BIXTJbQ0gzXQ==

> <s_epik_cmdline>
J2VwaWtfcHl0aG9uJywgJy1waCcsICc3LjAnLCAnLXRuJywgJzgnLCAnLW1hJywgJzIwMCcsICctbWV0YWxfYmluZGluZycsICctaW1hZScsICc8aW5maWxlLm1hZT4nLCAnLW9tYWUnLCAnPG91dGZpbGUubWFlPic=

> <r_lp_tautomer_probability>
0.0660145

> <r_epik_Ionization_Penalty>
2.91405

> <r_epik_Ionization_Penalty_Charging>
0

> <r_epik_Ionization_Penalty_Neutral>
2.91405

> <r_epik_State_Penalty>
2.44767

> <r_epik_Charging_Adjusted_Penalty>
2.44767

> <i_epik_Tot_Q>
0

> <i_epik_Tot_abs_Q>
0

> <r_epik_Metal_State_Penalty>
3.04288

> <b_epik_Metal_Only>
0

> <s_lp_Force_Field>
OPLS_2005

> <r_lp_Energy>
-3.37475

> <b_lp_Chiralities_Consistent>
1

> <s_lp_Variant>
AV-unprocessed.smi:438-14

> <Gold.Version>
5.8.1

> <Gold.Id.Protein>
6NUR|6NUR_protein|mol2

> <Gold.PLP.Fitness>
49.3938

> <Gold.PLP.PLP>
-46.1860

> <Gold.PLP.part.hbond>
-4.9174

> <Gold.PLP.part.metal>
0.0000

> <Gold.PLP.part.buried>
-6.9405

> <Gold.PLP.part.nonpolar>
-34.0022

> <Gold.PLP.part.repulsive>
0.2612

> <Gold.PLP.ligand.clash>
0.0000

> <Gold.PLP.ligand.torsion>
1.0211

> <Gold.PLP.Chemscore.Hbond>
1.7200

> <Gold.PLP.Chemscore.CHOScore>
0.0000

> <Gold.PLP.Chemscore.Metal>
0.0000

> <Gold.Chemscore.Hbonds>
donor molecule, donor type, donor heavy atom, donor atom, acceptor molecule, acceptor atom, score
      L1  H    19    43       P1  8028  0.72
      P1  H  6896  6907       L1     8  1.00

> <Gold.PLP.Chemscore.Internal.Correction>
0.0900

> <Gold.Rescore>
     Score         DG    S(hbond)    S(metal)    S(lipo)     H(rot)  DE(clash)    DE(int)     intcor
     13.36     -14.81       1.68        0.00     106.98       3.44       0.29       1.15       ----

> <Gold.Chemscore.Fitness>
13.3645

> <Gold.Chemscore.DG>
-14.8083

> <Gold.Chemscore.ZeroCoef>
-5.4800

> <Gold.Chemscore.Hbond>
1.6791

> <Gold.Chemscore.Metal>
0.0000

> <Gold.Chemscore.Lipo>
106.9761

> <Gold.Chemscore.Internal_Hbond>
0.0000

> <Gold.Chemscore.DEClash>
0.2948

> <Gold.Chemscore.DEInternal>
1.1490

> <Gold.Chemscore.Rot>
3.4359

> <Gold.Chemscore.Internal.Correction>
   9.000000E+99

> <Gold.Chemscore.Hbonds>
donor molecule, donor type, donor heavy atom, donor atom, acceptor molecule, acceptor atom, score
      L1  H    19    43       P1  8028  0.72
      P1  H  6896  6907       L1     8  1.00

> <Gold.Chemscore.Hbond.Weighted>
-5.6081

> <Gold.Chemscore.Metal.Weighted>
-0.0000

> <Gold.Chemscore.Lipo.Weighted>
-12.5162

> <Gold.Chemscore.Internal_Hbond.Weighted>
0.0000

> <Gold.Chemscore.DEClash.Weighted>
0.2948

> <Gold.Chemscore.DEInternal.Weighted>
1.1490

> <Gold.Chemscore.Rot.Weighted>
8.7960

> <Gold.Chemscore.Internal.Correction.Weighted>
   9.000000E+99

> <Gold.Protein.RotatedTorsions>
[ 6907 6896 6895 6894 ] final  -39.14 input  -60.11 | X-H torsion
[ 7974 7965 7964 7962 ] final -174.74 input  175.53 | X-H torsion
[ 8008 7997 7996 7995 ] final  118.38 input   59.86 | X-H torsion
[ 10167 10162 10161 10158 ] final  121.24 input  -65.29 | X-H torsion
[ 10718 10713 10712 10709 ] final  -69.42 input   66.30 | X-H torsion
[ 10763 10752 10751 10750 ] final   18.54 input  -60.55 | X-H torsion
[ 11005 11000 10999 10996 ] final  -62.43 input  -57.11 | X-H torsion

> <Gold.Protein.ActiveResidues>
 VAL166  LYS551  ARG553  GLY616  TRP617  ASP618  TYR619  PRO620  LYS621  CYS622 
 ASP623  PHE694  ASN695  SER759  ASP760  ASP761  ALA762  ILE779  LEU786  VAL792 
 PHE793  MET794  SER795  GLU796  ALA797  LYS798  CYS799  TRP800  GLU811  SER814 

> <Gold.Protein.RotatedAtoms>
  150.9939  134.9267  159.7914 H   0  0  0  0  0  0  0  0  0  0  0  0  # atno 6907 bound_to 6896
  152.5259  134.3245  159.9170 H   0  0  0  0  0  0  0  0  0  0  0  0  # atno 6908 bound_to 6896
  151.3251  133.3982  159.2692 H   0  0  0  0  0  0  0  0  0  0  0  0  # atno 6909 bound_to 6896
  144.7130  140.1426  143.6390 H   0  0  0  0  0  0  0  0  0  0  0  0  # atno 7974 bound_to 7965
  156.2543  140.2876  156.0826 H   0  0  0  0  0  0  0  0  0  0  0  0  # atno 8008 bound_to 7997
  155.1550  140.0398  157.2847 H   0  0  0  0  0  0  0  0  0  0  0  0  # atno 8009 bound_to 7997
  154.6434  140.2527  155.7303 H   0  0  0  0  0  0  0  0  0  0  0  0  # atno 8010 bound_to 7997
  139.5932  144.7032  151.3240 H   0  0  0  0  0  0  0  0  0  0  0  0  # atno 10167 bound_to 10162
  156.0456  130.4312  150.2145 H   0  0  0  0  0  0  0  0  0  0  0  0  # atno 10718 bound_to 10713
  153.1241  135.6725  153.9287 H   0  0  0  0  0  0  0  0  0  0  0  0  # atno 10763 bound_to 10752
  153.8794  135.3060  155.3446 H   0  0  0  0  0  0  0  0  0  0  0  0  # atno 10764 bound_to 10752
  154.7648  135.4969  153.9613 H   0  0  0  0  0  0  0  0  0  0  0  0  # atno 10765 bound_to 10752
  141.1359  133.6640  156.5527 H   0  0  0  0  0  0  0  0  0  0  0  0  # atno 11005 bound_to 11000
  145.9189  139.2533  143.1393 LP  0  0  0  0  0  0  0  0  0  0  0  0  # atno 17320 bound_to 7965
  145.9641  140.8812  143.0196 LP  0  0  0  0  0  0  0  0  0  0  0  0  # atno 17321 bound_to 7965
  140.7190  143.7188  150.7712 LP  0  0  0  0  0  0  0  0  0  0  0  0  # atno 17342 bound_to 10162
  140.0748  143.5026  152.2561 LP  0  0  0  0  0  0  0  0  0  0  0  0  # atno 17343 bound_to 10162
  157.0235  130.9986  151.3333 LP  0  0  0  0  0  0  0  0  0  0  0  0  # atno 17370 bound_to 10713
  157.5328  130.8069  149.7936 LP  0  0  0  0  0  0  0  0  0  0  0  0  # atno 17371 bound_to 10713
  140.4051  134.7322  157.4803 LP  0  0  0  0  0  0  0  0  0  0  0  0  # atno 17394 bound_to 11000
  140.0468  134.6188  155.8911 LP  0  0  0  0  0  0  0  0  0  0  0  0  # atno 17395 bound_to 11000

$$$$
