AV-unprocessed.smi:512|AV-procd|sdf|2770|dock9
  -GOLD-   2262023233D 1   1.00000     0.00000
 Structure written by MMmdl.
 48 50  0  0  0  0  0  0  0  0  3 V2000
  151.0747  142.3028  157.9808 C   0  0  0  0  0  0  0  0  0  0  0  0
  149.7260  141.5796  157.9899 C   0  0  0  0  0  0  0  0  0  0  0  0
  149.5560  140.9086  156.7530 O   0  0  0  0  0  0  0  0  0  0  0  0
  149.7301  141.7658  155.6376 C   0  0  0  0  0  0  0  0  0  0  0  0
  149.5250  140.9536  154.3529 C   0  0  0  0  0  0  0  0  0  0  0  0
  149.4892  139.5185  154.6266 N   0  0  0  0  0  0  0  0  0  0  0  0
  148.4450  138.6577  154.4903 C   0  0  0  0  0  0  0  0  0  0  0  0
  147.2131  139.0612  153.9750 N   0  0  0  0  0  0  0  0  0  0  0  0
  146.9346  139.2729  152.5560 C   0  0  0  0  0  0  0  0  0  0  0  0
  146.1646  138.0833  151.9525 C   0  0  0  0  0  0  0  0  0  0  0  0
  144.9113  137.8246  152.7012 N   0  3  0  0  0  0  0  0  0  0  0  0
  144.1381  136.6937  152.1459 C   0  0  0  0  0  0  0  0  0  0  0  0
  145.1575  137.6885  154.1564 C   0  0  0  0  0  0  0  0  0  0  0  0
  145.9492  138.8967  154.6863 C   0  0  0  0  0  0  0  0  0  0  0  0
  148.6891  137.4125  154.9027 N   0  0  0  0  0  0  0  0  0  0  0  0
  150.0142  137.4751  155.3067 C   0  0  0  0  0  0  0  0  0  0  0  0
  150.5176  138.7288  155.1502 C   0  0  0  0  0  0  0  0  0  0  0  0
  151.8998  139.1116  155.5126 C   0  0  0  0  0  0  0  0  0  0  0  0
  152.3013  140.2626  155.3537 O   0  0  0  0  0  0  0  0  0  0  0  0
  152.6121  138.0561  156.0197 N   0  5  0  0  0  0  0  0  0  0  0  0
  152.1437  136.7715  156.1947 C   0  0  0  0  0  0  0  0  0  0  0  0
  152.8520  135.8793  156.6630 O   0  0  0  0  0  0  0  0  0  0  0  0
  150.8554  136.4629  155.8435 N   0  0  0  0  0  0  0  0  0  0  0  0
  150.3295  135.1063  156.0197 C   0  0  0  0  0  0  0  0  0  0  0  0
  151.2399  142.8303  158.9202 H   0  0  0  0  0  0  0  0  0  0  0  0
  151.1212  143.0337  157.1734 H   0  0  0  0  0  0  0  0  0  0  0  0
  151.8951  141.5982  157.8438 H   0  0  0  0  0  0  0  0  0  0  0  0
  149.6936  140.8649  158.8135 H   0  0  0  0  0  0  0  0  0  0  0  0
  148.9194  142.2980  158.1431 H   0  0  0  0  0  0  0  0  0  0  0  0
  149.0191  142.5916  155.6846 H   0  0  0  0  0  0  0  0  0  0  0  0
  150.7333  142.1946  155.6524 H   0  0  0  0  0  0  0  0  0  0  0  0
  148.6017  141.2733  153.8779 H   0  0  0  0  0  0  0  0  0  0  0  0
  150.3125  141.1620  153.6297 H   0  0  0  0  0  0  0  0  0  0  0  0
  146.3711  140.1985  152.4317 H   0  0  0  0  0  0  0  0  0  0  0  0
  147.8680  139.3952  152.0070 H   0  0  0  0  0  0  0  0  0  0  0  0
  145.9322  138.2850  150.9063 H   0  0  0  0  0  0  0  0  0  0  0  0
  146.7908  137.1896  151.9741 H   0  0  0  0  0  0  0  0  0  0  0  0
  144.6932  135.7587  152.2332 H   0  0  0  0  0  0  0  0  0  0  0  0
  143.9141  136.8620  151.0920 H   0  0  0  0  0  0  0  0  0  0  0  0
  143.1908  136.5799  152.6740 H   0  0  0  0  0  0  0  0  0  0  0  0
  144.2063  137.6085  154.6838 H   0  0  0  0  0  0  0  0  0  0  0  0
  145.7100  136.7675  154.3503 H   0  0  0  0  0  0  0  0  0  0  0  0
  146.1454  138.7738  155.7521 H   0  0  0  0  0  0  0  0  0  0  0  0
  145.3601  139.8093  154.5852 H   0  0  0  0  0  0  0  0  0  0  0  0
  150.3229  134.8354  157.0761 H   0  0  0  0  0  0  0  0  0  0  0  0
  150.9469  134.3829  155.4861 H   0  0  0  0  0  0  0  0  0  0  0  0
  149.3114  134.9982  155.6477 H   0  0  0  0  0  0  0  0  0  0  0  0
  144.3392  138.6493  152.5878 H   0  0  0  0  0  0  0  0  0  0  0  0
  1  2  1  0  0  0  0
  1 25  1  0  0  0  0
  1 26  1  0  0  0  0
  1 27  1  0  0  0  0
  2  3  1  0  0  0  0
  2 28  1  0  0  0  0
  2 29  1  0  0  0  0
  3  4  1  0  0  0  0
  4  5  1  0  0  0  0
  4 30  1  0  0  0  0
  4 31  1  0  0  0  0
  5  6  1  0  0  0  0
  5 32  1  0  0  0  0
  5 33  1  0  0  0  0
  6 17  1  0  0  0  0
  6  7  1  0  0  0  0
  7  8  1  0  0  0  0
  7 15  2  0  0  0  0
  8 14  1  0  0  0  0
  8  9  1  0  0  0  0
  9 10  1  0  0  0  0
  9 34  1  0  0  0  0
  9 35  1  0  0  0  0
 10 11  1  0  0  0  0
 10 36  1  0  0  0  0
 10 37  1  0  0  0  0
 11 12  1  0  0  0  0
 11 13  1  0  0  0  0
 11 48  1  0  0  0  0
 12 38  1  0  0  0  0
 12 39  1  0  0  0  0
 12 40  1  0  0  0  0
 13 14  1  0  0  0  0
 13 41  1  0  0  0  0
 13 42  1  0  0  0  0
 14 43  1  0  0  0  0
 14 44  1  0  0  0  0
 15 16  1  0  0  0  0
 16 23  1  0  0  0  0
 16 17  2  0  0  0  0
 17 18  1  0  0  0  0
 18 19  2  0  0  0  0
 18 20  1  0  0  0  0
 20 21  1  0  0  0  0
 21 22  2  0  0  0  0
 21 23  1  0  0  0  0
 23 24  1  0  0  0  0
 24 45  1  0  0  0  0
 24 46  1  0  0  0  0
 24 47  1  0  0  0  0
M  CHG  1  11   1
M  CHG  1  20  -1
M  END
> <s_m_source_file>
AV-unprocessed.smi

> <i_m_source_file_index>
512

> <i_lp_mmshare_version>
43012

> <i_f3d_flags>
0

> <s_epik_input>
W0NIM11uMWMoPU8pW25IXWMoPU8pYyhjMTIpbihbQ0gyXVtDSDJdT1tDSDJdW0NIM10pYyhuMilOM1tDSDJdW0NIMl1OKFtDSDNdKVtDSDJdW0NIMl0z

> <s_epik_cmdline>
J2VwaWtfcHl0aG9uJywgJy1waCcsICc3LjAnLCAnLXRuJywgJzgnLCAnLW1hJywgJzIwMCcsICctbWV0YWxfYmluZGluZycsICctaW1hZScsICc8aW5maWxlLm1hZT4nLCAnLW9tYWUnLCAnPG91dGZpbGUubWFlPic=

> <r_epik_Ionization_Penalty>
5.9926

> <r_epik_Ionization_Penalty_Charging>
0.122107

> <r_epik_Ionization_Penalty_Neutral>
5.87049

> <r_epik_State_Penalty>
5.92685

> <r_epik_Charging_Adjusted_Penalty>
6.04896

> <i_epik_Tot_Q>
0

> <i_epik_Tot_abs_Q>
2

> <r_epik_Metal_State_Penalty>
1.88919

> <b_epik_Metal_Only>
1

> <s_lp_Force_Field>
OPLS_2005

> <r_lp_Energy>
50.2729

> <b_lp_Chiralities_Consistent>
1

> <s_lp_Variant>
AV-unprocessed.smi:512-3

> <Gold.Version>
5.8.1

> <Gold.Id.Protein>
6NUR|6NUR_protein|mol2

> <Gold.PLP.Fitness>
40.4889

> <Gold.PLP.PLP>
-30.2116

> <Gold.PLP.part.hbond>
-4.0371

> <Gold.PLP.part.metal>
0.0000

> <Gold.PLP.part.buried>
4.0844

> <Gold.PLP.part.nonpolar>
-30.0536

> <Gold.PLP.part.repulsive>
0.1918

> <Gold.PLP.ligand.clash>
0.0000

> <Gold.PLP.ligand.torsion>
1.5985

> <Gold.PLP.Chemscore.Hbond>
4.2905

> <Gold.PLP.Chemscore.CHOScore>
0.0000

> <Gold.PLP.Chemscore.Metal>
0.0000

> <Gold.Chemscore.Hbonds>
donor molecule, donor type, donor heavy atom, donor atom, acceptor molecule, acceptor atom, score
      L1  H    11    48       P1 10175  2.00
      P1  H  7989  7998       L1    19  0.59
      P1  H  7997  8010       L1    19  0.59
      P1  H 10752 10764       L1    22  1.00

> <Gold.PLP.Chemscore.Internal.Correction>
0.6027

> <Gold.Rescore>
     Score         DG    S(hbond)    S(metal)    S(lipo)     H(rot)  DE(clash)    DE(int)     intcor
     12.76     -16.07       2.30        0.00      60.55       1.63       1.66       1.65       ----

> <Gold.Chemscore.Fitness>
12.7630

> <Gold.Chemscore.DG>
-16.0746

> <Gold.Chemscore.ZeroCoef>
-5.4800

> <Gold.Chemscore.Hbond>
2.3024

> <Gold.Chemscore.Metal>
0.0000

> <Gold.Chemscore.Lipo>
60.5519

> <Gold.Chemscore.Internal_Hbond>
0.0000

> <Gold.Chemscore.DEClash>
1.6593

> <Gold.Chemscore.DEInternal>
1.6523

> <Gold.Chemscore.Rot>
1.6328

> <Gold.Chemscore.Internal.Correction>
   9.000000E+99

> <Gold.Chemscore.Hbonds>
donor molecule, donor type, donor heavy atom, donor atom, acceptor molecule, acceptor atom, score
      L1  H    11    48       P1 10175  1.00
      P1  H  7989  7998       L1    19  0.36
      P1  H  7997  8010       L1    19  0.26
      P1  H 10752 10764       L1    22  0.29

> <Gold.Chemscore.Hbond.Weighted>
-7.6900

> <Gold.Chemscore.Metal.Weighted>
-0.0000

> <Gold.Chemscore.Lipo.Weighted>
-7.0846

> <Gold.Chemscore.Internal_Hbond.Weighted>
0.0000

> <Gold.Chemscore.DEClash.Weighted>
1.6593

> <Gold.Chemscore.DEInternal.Weighted>
1.6523

> <Gold.Chemscore.Rot.Weighted>
4.1800

> <Gold.Chemscore.Internal.Correction.Weighted>
   9.000000E+99

> <Gold.Protein.RotatedTorsions>
[ 6907 6896 6895 6894 ] final   76.37 input  -60.11 | X-H torsion
[ 7974 7965 7964 7962 ] final  -46.01 input  175.53 | X-H torsion
[ 8008 7997 7996 7995 ] final   98.03 input   59.86 | X-H torsion
[ 10167 10162 10161 10158 ] final   63.69 input  -65.29 | X-H torsion
[ 10718 10713 10712 10709 ] final -179.00 input   66.30 | X-H torsion
[ 10763 10752 10751 10750 ] final    3.57 input  -60.55 | X-H torsion
[ 11005 11000 10999 10996 ] final -116.16 input  -57.11 | X-H torsion

> <Gold.Protein.ActiveResidues>
 VAL166  LYS551  ARG553  GLY616  TRP617  ASP618  TYR619  PRO620  LYS621  CYS622 
 ASP623  PHE694  ASN695  SER759  ASP760  ASP761  ALA762  ILE779  LEU786  VAL792 
 PHE793  MET794  SER795  GLU796  ALA797  LYS798  CYS799  TRP800  GLU811  SER814 

> <Gold.Protein.RotatedAtoms>
  152.5070  134.3979  159.9406 H   0  0  0  0  0  0  0  0  0  0  0  0  # atno 6907 bound_to 6896
  151.3942  133.3772  159.2732 H   0  0  0  0  0  0  0  0  0  0  0  0  # atno 6908 bound_to 6896
  150.9410  134.8840  159.7671 H   0  0  0  0  0  0  0  0  0  0  0  0  # atno 6909 bound_to 6896
  145.9763  140.7331  142.9385 H   0  0  0  0  0  0  0  0  0  0  0  0  # atno 7974 bound_to 7965
  156.0962  140.3250  155.7881 H   0  0  0  0  0  0  0  0  0  0  0  0  # atno 8008 bound_to 7997
  155.4913  140.0562  157.2970 H   0  0  0  0  0  0  0  0  0  0  0  0  # atno 8009 bound_to 7997
  154.4668  140.1993  156.0113 H   0  0  0  0  0  0  0  0  0  0  0  0  # atno 8010 bound_to 7997
  140.1303  144.4649  150.6869 H   0  0  0  0  0  0  0  0  0  0  0  0  # atno 10167 bound_to 10162
  156.8527  130.9724  151.3091 H   0  0  0  0  0  0  0  0  0  0  0  0  # atno 10718 bound_to 10713
  153.2817  135.6941  153.7379 H   0  0  0  0  0  0  0  0  0  0  0  0  # atno 10763 bound_to 10752
  153.6364  135.3401  155.3058 H   0  0  0  0  0  0  0  0  0  0  0  0  # atno 10764 bound_to 10752
  154.8497  135.4421  154.1872 H   0  0  0  0  0  0  0  0  0  0  0  0  # atno 10765 bound_to 10752
  141.0440  133.9791  157.2948 H   0  0  0  0  0  0  0  0  0  0  0  0  # atno 11005 bound_to 11000
  144.6849  140.2833  143.7289 LP  0  0  0  0  0  0  0  0  0  0  0  0  # atno 17320 bound_to 7965
  145.7834  139.1900  143.2144 LP  0  0  0  0  0  0  0  0  0  0  0  0  # atno 17321 bound_to 7965
  140.6821  143.2332  151.5357 LP  0  0  0  0  0  0  0  0  0  0  0  0  # atno 17342 bound_to 10162
  139.5523  144.2364  152.1552 LP  0  0  0  0  0  0  0  0  0  0  0  0  # atno 17343 bound_to 10162
  157.6294  130.8717  149.9248 LP  0  0  0  0  0  0  0  0  0  0  0  0  # atno 17370 bound_to 10713
  156.0819  130.3672  150.0563 LP  0  0  0  0  0  0  0  0  0  0  0  0  # atno 17371 bound_to 10713
  139.9297  135.0200  156.8359 LP  0  0  0  0  0  0  0  0  0  0  0  0  # atno 17394 bound_to 11000
  140.6181  134.0020  155.7606 LP  0  0  0  0  0  0  0  0  0  0  0  0  # atno 17395 bound_to 11000

$$$$
