AV-unprocessed.smi:38|AV-procd|sdf|335|dock2
  -GOLD-   2262016173D 1   1.00000     0.00000
 Structure written by MMmdl.
 28 29  0  0  0  0  0  0  0  0  1 V2000
  152.2785  140.1327  156.2741 O   0  0  0  0  0  0  0  0  0  0  0  0
  151.2018  140.0319  155.6892 C   0  0  0  0  0  0  0  0  0  0  0  0
  150.2076  140.9973  155.8745 N   0  0  0  0  0  0  0  0  0  0  0  0
  148.9503  140.9963  155.2669 C   0  0  0  0  0  0  0  0  0  0  0  0
  148.1601  141.9102  155.4981 O   0  0  0  0  0  0  0  0  0  0  0  0
  148.6583  139.9238  154.3940 N   0  0  0  0  0  0  0  0  0  0  0  0
  147.3128  139.8481  153.7089 C   0  0  1  0  0  0  0  0  0  0  0  0
  147.4762  139.6656  152.1966 C   0  0  0  0  0  0  0  0  0  0  0  0
  147.0772  138.2152  151.9967 C   0  0  2  0  0  0  0  0  0  0  0  0
  146.4995  138.0256  150.7212 O   0  0  0  0  0  0  0  0  0  0  0  0
  146.0747  137.9884  153.1316 C   0  0  1  0  0  0  0  0  0  0  0  0
  145.9364  136.5149  153.5439 C   0  0  0  0  0  0  0  0  0  0  0  0
  147.1892  136.0054  153.9479 O   0  0  0  0  0  0  0  0  0  0  0  0
  146.6283  138.7391  154.2078 O   0  0  0  0  0  0  0  0  0  0  0  0
  149.6167  138.9425  154.1796 C   0  0  0  0  0  0  0  0  0  0  0  0
  150.8334  138.9566  154.7731 C   0  0  0  0  0  0  0  0  0  0  0  0
  151.7087  137.9697  154.5161 F   0  0  0  0  0  0  0  0  0  0  0  0
  150.4170  141.7613  156.5003 H   0  0  0  0  0  0  0  0  0  0  0  0
  146.7505  140.7459  153.9681 H   0  0  0  0  0  0  0  0  0  0  0  0
  147.9463  137.5665  152.1118 H   0  0  0  0  0  0  0  0  0  0  0  0
  145.1088  138.4191  152.8593 H   0  0  0  0  0  0  0  0  0  0  0  0
  146.7783  140.3397  151.6970 H   0  0  0  0  0  0  0  0  0  0  0  0
  148.4871  139.8941  151.8566 H   0  0  0  0  0  0  0  0  0  0  0  0
  145.6520  138.4439  150.7077 H   0  0  0  0  0  0  0  0  0  0  0  0
  145.2590  136.4241  154.3933 H   0  0  0  0  0  0  0  0  0  0  0  0
  145.5232  135.9132  152.7338 H   0  0  0  0  0  0  0  0  0  0  0  0
  147.6841  135.7755  153.1764 H   0  0  0  0  0  0  0  0  0  0  0  0
  149.3919  138.1238  153.5123 H   0  0  0  0  0  0  0  0  0  0  0  0
  1  2  2  0  0  0  0
  2 16  1  0  0  0  0
  2  3  1  0  0  0  0
  3 18  1  0  0  0  0
  3  4  1  0  0  0  0
  4  5  2  0  0  0  0
  4  6  1  0  0  0  0
  6  7  1  0  0  0  0
  6 15  1  0  0  0  0
  7 19  1  0  0  0  0
  7 14  1  0  0  0  0
  7  8  1  0  0  0  0
  8  9  1  0  0  0  0
  8 22  1  0  0  0  0
  8 23  1  0  0  0  0
  9 20  1  0  0  0  0
  9 10  1  0  0  0  0
  9 11  1  0  0  0  0
 10 24  1  0  0  0  0
 11 21  1  0  0  0  0
 11 12  1  0  0  0  0
 11 14  1  0  0  0  0
 12 13  1  0  0  0  0
 12 25  1  0  0  0  0
 12 26  1  0  0  0  0
 13 27  1  0  0  0  0
 15 16  2  0  0  0  0
 15 28  1  0  0  0  0
 16 17  1  0  0  0  0
M  END
> <s_m_source_file>
AV-unprocessed.smi

> <i_m_source_file_index>
38

> <i_lp_mmshare_version>
43012

> <i_f3d_flags>
0

> <s_epik_input>
Tz1jMVtuSF1jKD1PKW4oW2NIXWMxRilbQ0BIXTJbQ0gyXVtDQEhdKFtPSF0pW0NASF0oTzIpW0NIMl1bT0hd

> <s_epik_cmdline>
J2VwaWtfcHl0aG9uJywgJy1waCcsICc3LjAnLCAnLXRuJywgJzgnLCAnLW1hJywgJzIwMCcsICctbWV0YWxfYmluZGluZycsICctaW1hZScsICc8aW5maWxlLm1hZT4nLCAnLW9tYWUnLCAnPG91dGZpbGUubWFlPic=

> <r_lp_tautomer_probability>
0.999537

> <r_epik_Ionization_Penalty>
0.0357432

> <r_epik_Ionization_Penalty_Charging>
0.0357431

> <r_epik_Ionization_Penalty_Neutral>
1.19946e-07

> <r_epik_State_Penalty>
0.0298169

> <r_epik_Charging_Adjusted_Penalty>
0.06556

> <i_epik_Tot_Q>
0

> <i_epik_Tot_abs_Q>
0

> <r_epik_Metal_State_Penalty>
2.348

> <b_epik_Metal_Only>
0

> <s_epik_Chemistry_Notes>
This compound contains an acetal/aminal-like group ( X-CH(R)-Y where X, Y are N, S, or O) that may be acid/base labile, releasing an aldehyde.

> <s_lp_Force_Field>
OPLS_2005

> <r_lp_Energy>
27.0042

> <b_lp_Chiralities_Consistent>
1

> <s_lp_Variant>
AV-unprocessed.smi:38-1

> <Gold.Version>
5.8.1

> <Gold.Id.Protein>
6NUR|6NUR_protein|mol2

> <Gold.PLP.Fitness>
37.4316

> <Gold.PLP.PLP>
-24.0823

> <Gold.PLP.part.hbond>
-4.3624

> <Gold.PLP.part.metal>
0.0000

> <Gold.PLP.part.buried>
5.4474

> <Gold.PLP.part.nonpolar>
-26.0184

> <Gold.PLP.part.repulsive>
1.5831

> <Gold.PLP.ligand.clash>
0.0000

> <Gold.PLP.ligand.torsion>
0.1088

> <Gold.PLP.Chemscore.Hbond>
3.5193

> <Gold.PLP.Chemscore.CHOScore>
1.0000

> <Gold.PLP.Chemscore.Metal>
0.0000

> <Gold.Chemscore.Hbonds>
donor molecule, donor type, donor heavy atom, donor atom, acceptor molecule, acceptor atom, score
      L1  H    10    24       P1 10171  0.94
      L1  H    13    27       P1  7948  1.00
      P1  H  7954  7966       L1    10  0.65
      P1  H  7997  8009       L1     1  0.93
      L1  C    15    28       P1  7948  1.00

> <Gold.PLP.Chemscore.Internal.Correction>
0.0092

> <Gold.Rescore>
     Score         DG    S(hbond)    S(metal)    S(lipo)     H(rot)  DE(clash)    DE(int)     intcor
     11.04     -11.51       2.75        0.00      36.83       2.91       0.38       0.08       ----

> <Gold.Chemscore.Fitness>
11.0422

> <Gold.Chemscore.DG>
-11.5070

> <Gold.Chemscore.ZeroCoef>
-5.4800

> <Gold.Chemscore.Hbond>
2.7480

> <Gold.Chemscore.Metal>
0.0000

> <Gold.Chemscore.Lipo>
36.8278

> <Gold.Chemscore.Internal_Hbond>
0.0000

> <Gold.Chemscore.DEClash>
0.3809

> <Gold.Chemscore.DEInternal>
0.0839

> <Gold.Chemscore.Rot>
2.9141

> <Gold.Chemscore.Internal.Correction>
   9.000000E+99

> <Gold.Chemscore.Hbonds>
donor molecule, donor type, donor heavy atom, donor atom, acceptor molecule, acceptor atom, score
      L1  H    10    24       P1 10171  0.89
      L1  H    13    27       P1  7948  0.95
      P1  H  7954  7966       L1    10  0.05
      P1  H  7997  8009       L1     1  0.87

> <Gold.Chemscore.Hbond.Weighted>
-9.1783

> <Gold.Chemscore.Metal.Weighted>
-0.0000

> <Gold.Chemscore.Lipo.Weighted>
-4.3089

> <Gold.Chemscore.Internal_Hbond.Weighted>
0.0000

> <Gold.Chemscore.DEClash.Weighted>
0.3809

> <Gold.Chemscore.DEInternal.Weighted>
0.0839

> <Gold.Chemscore.Rot.Weighted>
7.4601

> <Gold.Chemscore.Internal.Correction.Weighted>
   9.000000E+99

> <Gold.Protein.RotatedTorsions>
[ 6907 6896 6895 6894 ] final -133.94 input  -60.11 | X-H torsion
[ 7974 7965 7964 7962 ] final  -49.29 input  175.53 | X-H torsion
[ 8008 7997 7996 7995 ] final -154.86 input   59.86 | X-H torsion
[ 10167 10162 10161 10158 ] final -161.52 input  -65.29 | X-H torsion
[ 10718 10713 10712 10709 ] final    0.31 input   66.30 | X-H torsion
[ 10763 10752 10751 10750 ] final  115.47 input  -60.55 | X-H torsion
[ 11005 11000 10999 10996 ] final  -51.51 input  -57.11 | X-H torsion

> <Gold.Protein.ActiveResidues>
 VAL166  LYS551  ARG553  GLY616  TRP617  ASP618  TYR619  PRO620  LYS621  CYS622 
 ASP623  PHE694  ASN695  SER759  ASP760  ASP761  ALA762  ILE779  LEU786  VAL792 
 PHE793  MET794  SER795  GLU796  ALA797  LYS798  CYS799  TRP800  GLU811  SER814 

> <Gold.Protein.RotatedAtoms>
  150.9799  133.6256  159.2724 H   0  0  0  0  0  0  0  0  0  0  0  0  # atno 6907 bound_to 6896
  151.3515  135.0884  159.9414 H   0  0  0  0  0  0  0  0  0  0  0  0  # atno 6908 bound_to 6896
  152.5212  133.9391  159.7672 H   0  0  0  0  0  0  0  0  0  0  0  0  # atno 6909 bound_to 6896
  145.9421  140.7652  142.9547 H   0  0  0  0  0  0  0  0  0  0  0  0  # atno 7974 bound_to 7965
  155.6929  140.0757  157.2441 H   0  0  0  0  0  0  0  0  0  0  0  0  # atno 8008 bound_to 7997
  154.4085  140.1661  156.2159 H   0  0  0  0  0  0  0  0  0  0  0  0  # atno 8009 bound_to 7997
  155.9436  140.3382  155.6351 H   0  0  0  0  0  0  0  0  0  0  0  0  # atno 8010 bound_to 7997
  139.6459  144.0173  152.2127 H   0  0  0  0  0  0  0  0  0  0  0  0  # atno 10167 bound_to 10162
  156.8315  130.5490  149.5686 H   0  0  0  0  0  0  0  0  0  0  0  0  # atno 10718 bound_to 10713
  153.5227  135.3594  155.2639 H   0  0  0  0  0  0  0  0  0  0  0  0  # atno 10763 bound_to 10752
  154.8734  135.4049  154.3241 H   0  0  0  0  0  0  0  0  0  0  0  0  # atno 10764 bound_to 10752
  153.3915  135.7072  153.6558 H   0  0  0  0  0  0  0  0  0  0  0  0  # atno 10765 bound_to 10752
  141.0875  133.6639  156.3887 H   0  0  0  0  0  0  0  0  0  0  0  0  # atno 11005 bound_to 11000
  144.6781  140.2298  143.7356 LP  0  0  0  0  0  0  0  0  0  0  0  0  # atno 17320 bound_to 7965
  145.8285  139.2075  143.1896 LP  0  0  0  0  0  0  0  0  0  0  0  0  # atno 17321 bound_to 7965
  139.9874  144.6385  150.7845 LP  0  0  0  0  0  0  0  0  0  0  0  0  # atno 17342 bound_to 10162
  140.7514  143.2972  151.3173 LP  0  0  0  0  0  0  0  0  0  0  0  0  # atno 17343 bound_to 10162
  156.0931  130.5911  150.9768 LP  0  0  0  0  0  0  0  0  0  0  0  0  # atno 17370 bound_to 10713
  157.6404  131.0911  150.8263 LP  0  0  0  0  0  0  0  0  0  0  0  0  # atno 17371 bound_to 10713
  140.5330  134.6194  157.5356 LP  0  0  0  0  0  0  0  0  0  0  0  0  # atno 17394 bound_to 11000
  139.9695  134.7317  156.0070 LP  0  0  0  0  0  0  0  0  0  0  0  0  # atno 17395 bound_to 11000

$$$$
