AV-unprocessed.smi:313|AV-procd|sdf|2309|dock3
  -GOLD-   2262022203D 1   1.00000     0.00000
 Structure written by MMmdl.
 50 51  0  0  0  0  0  0  0  0  1 V2000
  146.9105  140.6231  154.8817 C   0  0  0  0  0  0  0  0  0  0  0  0
  147.9654  140.8877  153.7973 C   0  0  0  0  0  0  0  0  0  0  0  0
  148.1922  139.6943  152.8503 C   0  0  2  0  0  0  0  0  0  0  0  0
  146.8676  139.0153  152.4679 C   0  0  0  0  0  0  0  0  0  0  0  0
  149.0910  138.7235  153.4701 N   0  0  0  0  0  0  0  0  0  0  0  0
  150.1923  139.0196  154.1773 C   0  0  0  0  0  0  0  0  0  0  0  0
  150.5722  140.1730  154.3866 O   0  0  0  0  0  0  0  0  0  0  0  0
  150.9686  137.8219  154.7483 C   0  0  2  0  0  0  0  0  0  0  0  0
  152.3824  137.8396  154.1444 C   0  0  0  0  0  0  0  0  0  0  0  0
  150.3317  136.5613  154.3703 N   0  0  0  0  0  0  0  0  0  0  0  0
  150.5121  135.3836  154.9918 C   0  0  0  0  0  0  0  0  0  0  0  0
  151.2365  135.2390  155.9768 O   0  0  0  0  0  0  0  0  0  0  0  0
  149.7136  134.2346  154.4479 C   0  0  0  0  0  0  0  0  0  0  0  0
  150.1308  132.8957  154.6120 C   0  0  0  0  0  0  0  0  0  0  0  0
  149.3250  131.8590  154.1040 C   0  0  0  0  0  0  0  0  0  0  0  0
  148.1130  132.1824  153.4493 C   0  0  0  0  0  0  0  0  0  0  0  0
  147.2873  131.1580  152.9371 N   0  0  0  0  0  0  0  0  0  0  0  0
  146.6547  131.4422  151.6512 C   0  0  0  0  0  0  0  0  0  0  0  0
  145.5624  130.4019  151.3485 C   0  0  0  0  0  0  0  0  0  0  0  0
  146.1130  129.0909  151.4160 O   0  0  0  0  0  0  0  0  0  0  0  0
  146.6210  128.7965  152.7128 C   0  0  0  0  0  0  0  0  0  0  0  0
  147.7532  129.7778  153.0597 C   0  0  0  0  0  0  0  0  0  0  0  0
  147.7136  133.4688  153.2948 N   0  0  0  0  0  0  0  0  0  0  0  0
  148.4879  134.4596  153.7858 C   0  0  0  0  0  0  0  0  0  0  0  0
  146.8230  141.4780  155.5523 H   0  0  0  0  0  0  0  0  0  0  0  0
  147.1767  139.7546  155.4847 H   0  0  0  0  0  0  0  0  0  0  0  0
  145.9259  140.4424  154.4497 H   0  0  0  0  0  0  0  0  0  0  0  0
  147.6767  141.7679  153.2214 H   0  0  0  0  0  0  0  0  0  0  0  0
  148.9078  141.1411  154.2846 H   0  0  0  0  0  0  0  0  0  0  0  0
  148.6535  140.0772  151.9380 H   0  0  0  0  0  0  0  0  0  0  0  0
  146.1893  139.7211  151.9878 H   0  0  0  0  0  0  0  0  0  0  0  0
  146.3606  138.6112  153.3448 H   0  0  0  0  0  0  0  0  0  0  0  0
  147.0312  138.1936  151.7699 H   0  0  0  0  0  0  0  0  0  0  0  0
  148.8545  137.7489  153.3536 H   0  0  0  0  0  0  0  0  0  0  0  0
  151.0333  137.8956  155.8358 H   0  0  0  0  0  0  0  0  0  0  0  0
  152.9119  138.7580  154.4020 H   0  0  0  0  0  0  0  0  0  0  0  0
  152.3613  137.7613  153.0562 H   0  0  0  0  0  0  0  0  0  0  0  0
  152.9764  137.0070  154.5225 H   0  0  0  0  0  0  0  0  0  0  0  0
  149.6913  136.5928  153.5906 H   0  0  0  0  0  0  0  0  0  0  0  0
  151.0530  132.6537  155.1201 H   0  0  0  0  0  0  0  0  0  0  0  0
  149.6497  130.8351  154.2127 H   0  0  0  0  0  0  0  0  0  0  0  0
  146.2108  132.4363  151.6299 H   0  0  0  0  0  0  0  0  0  0  0  0
  147.4177  131.4190  150.8721 H   0  0  0  0  0  0  0  0  0  0  0  0
  144.7314  130.4959  152.0494 H   0  0  0  0  0  0  0  0  0  0  0  0
  145.1563  130.5648  150.3503 H   0  0  0  0  0  0  0  0  0  0  0  0
  145.8190  128.8506  153.4507 H   0  0  0  0  0  0  0  0  0  0  0  0
  146.9951  127.7728  152.7236 H   0  0  0  0  0  0  0  0  0  0  0  0
  148.5999  129.6213  152.3899 H   0  0  0  0  0  0  0  0  0  0  0  0
  148.0996  129.5847  154.0758 H   0  0  0  0  0  0  0  0  0  0  0  0
  148.1127  135.4618  153.6381 H   0  0  0  0  0  0  0  0  0  0  0  0
  1  2  1  0  0  0  0
  1 25  1  0  0  0  0
  1 26  1  0  0  0  0
  1 27  1  0  0  0  0
  2  3  1  0  0  0  0
  2 28  1  0  0  0  0
  2 29  1  0  0  0  0
  3  4  1  0  0  0  0
  3  5  1  0  0  0  0
  3 30  1  0  0  0  0
  4 31  1  0  0  0  0
  4 32  1  0  0  0  0
  4 33  1  0  0  0  0
  5  6  1  0  0  0  0
  5 34  1  0  0  0  0
  6  7  2  0  0  0  0
  6  8  1  0  0  0  0
  8  9  1  0  0  0  0
  8 10  1  0  0  0  0
  8 35  1  0  0  0  0
  9 36  1  0  0  0  0
  9 37  1  0  0  0  0
  9 38  1  0  0  0  0
 10 11  1  0  0  0  0
 10 39  1  0  0  0  0
 11 12  2  0  0  0  0
 11 13  1  0  0  0  0
 13 24  1  0  0  0  0
 13 14  2  0  0  0  0
 14 15  1  0  0  0  0
 14 40  1  0  0  0  0
 15 16  2  0  0  0  0
 15 41  1  0  0  0  0
 16 17  1  0  0  0  0
 16 23  1  0  0  0  0
 17 22  1  0  0  0  0
 17 18  1  0  0  0  0
 18 19  1  0  0  0  0
 18 42  1  0  0  0  0
 18 43  1  0  0  0  0
 19 20  1  0  0  0  0
 19 44  1  0  0  0  0
 19 45  1  0  0  0  0
 20 21  1  0  0  0  0
 21 22  1  0  0  0  0
 21 46  1  0  0  0  0
 21 47  1  0  0  0  0
 22 48  1  0  0  0  0
 22 49  1  0  0  0  0
 23 24  2  0  0  0  0
 24 50  1  0  0  0  0
M  END
> <s_m_source_file>
AV-unprocessed.smi

> <i_m_source_file_index>
313

> <i_lp_mmshare_version>
43012

> <i_f3d_flags>
0

> <s_epik_input>
W0NIM11bQ0gyXVtDQEhdKFtDSDNdKVtOSF1DKD1PKVtDQEhdKFtDSDNdKVtOSF1DKD1PKWMxW2NIXVtjSF1jKG5bY0hdMSlOMltDSDJdW0NIMl1PW0NIMl1bQ0gyXTI=

> <s_epik_cmdline>
J2VwaWtfcHl0aG9uJywgJy1waCcsICc3LjAnLCAnLXRuJywgJzgnLCAnLW1hJywgJzIwMCcsICctbWV0YWxfYmluZGluZycsICctaW1hZScsICc8aW5maWxlLm1hZT4nLCAnLW9tYWUnLCAnPG91dGZpbGUubWFlPic=

> <r_lp_tautomer_probability>
1

> <r_epik_Ionization_Penalty>
9.96442e-06

> <r_epik_Ionization_Penalty_Charging>
0

> <r_epik_Ionization_Penalty_Neutral>
9.96442e-06

> <r_epik_State_Penalty>
-0

> <r_epik_Charging_Adjusted_Penalty>
0

> <i_epik_Tot_Q>
0

> <i_epik_Tot_abs_Q>
0

> <r_epik_Metal_State_Penalty>
-0

> <b_epik_Metal_Only>
0

> <s_lp_Force_Field>
OPLS_2005

> <r_lp_Energy>
19.8546

> <b_lp_Chiralities_Consistent>
1

> <s_lp_Variant>
AV-unprocessed.smi:313-1

> <Gold.Version>
5.8.1

> <Gold.Id.Protein>
6NUR|6NUR_protein|mol2

> <Gold.PLP.Fitness>
46.1145

> <Gold.PLP.PLP>
-36.7784

> <Gold.PLP.part.hbond>
-5.7400

> <Gold.PLP.part.metal>
0.0000

> <Gold.PLP.part.buried>
6.4101

> <Gold.PLP.part.nonpolar>
-35.7232

> <Gold.PLP.part.repulsive>
0.6300

> <Gold.PLP.ligand.clash>
0.0000

> <Gold.PLP.ligand.torsion>
1.3308

> <Gold.PLP.Chemscore.Hbond>
3.3273

> <Gold.PLP.Chemscore.CHOScore>
0.5371

> <Gold.PLP.Chemscore.Metal>
0.0000

> <Gold.Chemscore.Hbonds>
donor molecule, donor type, donor heavy atom, donor atom, acceptor molecule, acceptor atom, score
      L1  H     5    34       P1  7948  0.61
      L1  H    10    39       P1  7948  1.00
      P1  H  7989  7998       L1     7  1.00
      P1  H 10752 10764       L1    12  0.74
      L1  C    24    50       P1  7948  0.55

> <Gold.PLP.Chemscore.Internal.Correction>
0.4046

> <Gold.Rescore>
     Score         DG    S(hbond)    S(metal)    S(lipo)     H(rot)  DE(clash)    DE(int)     intcor
     13.52     -19.10       2.18        0.00      93.42       1.79       2.95       2.63       ----

> <Gold.Chemscore.Fitness>
13.5168

> <Gold.Chemscore.DG>
-19.1020

> <Gold.Chemscore.ZeroCoef>
-5.4800

> <Gold.Chemscore.Hbond>
2.1769

> <Gold.Chemscore.Metal>
0.0000

> <Gold.Chemscore.Lipo>
93.4243

> <Gold.Chemscore.Internal_Hbond>
0.0000

> <Gold.Chemscore.DEClash>
2.9505

> <Gold.Chemscore.DEInternal>
2.6348

> <Gold.Chemscore.Rot>
1.7888

> <Gold.Chemscore.Internal.Correction>
   9.000000E+99

> <Gold.Chemscore.Hbonds>
donor molecule, donor type, donor heavy atom, donor atom, acceptor molecule, acceptor atom, score
      L1  H     5    34       P1  7948  0.60
      L1  H    10    39       P1  7948  0.55
      P1  H  7989  7998       L1     7  0.93
      P1  H 10752 10764       L1    12  0.16

> <Gold.Chemscore.Hbond.Weighted>
-7.2707

> <Gold.Chemscore.Metal.Weighted>
-0.0000

> <Gold.Chemscore.Lipo.Weighted>
-10.9306

> <Gold.Chemscore.Internal_Hbond.Weighted>
0.0000

> <Gold.Chemscore.DEClash.Weighted>
2.9505

> <Gold.Chemscore.DEInternal.Weighted>
2.6348

> <Gold.Chemscore.Rot.Weighted>
4.5793

> <Gold.Chemscore.Internal.Correction.Weighted>
   9.000000E+99

> <Gold.Protein.RotatedTorsions>
[ 6907 6896 6895 6894 ] final  -56.97 input  -60.11 | X-H torsion
[ 7974 7965 7964 7962 ] final   56.27 input  175.53 | X-H torsion
[ 8008 7997 7996 7995 ] final -113.51 input   59.86 | X-H torsion
[ 10167 10162 10161 10158 ] final  152.69 input  -65.29 | X-H torsion
[ 10718 10713 10712 10709 ] final   78.60 input   66.30 | X-H torsion
[ 10763 10752 10751 10750 ] final  -29.60 input  -60.55 | X-H torsion
[ 11005 11000 10999 10996 ] final  174.99 input  -57.11 | X-H torsion

> <Gold.Protein.ActiveResidues>
 VAL166  LYS551  ARG553  GLY616  TRP617  ASP618  TYR619  PRO620  LYS621  CYS622 
 ASP623  PHE694  ASN695  SER759  ASP760  ASP761  ALA762  ILE779  LEU786  VAL792 
 PHE793  MET794  SER795  GLU796  ALA797  LYS798  CYS799  TRP800  GLU811  SER814 

> <Gold.Protein.RotatedAtoms>
  150.8124  134.7286  159.6699 H   0  0  0  0  0  0  0  0  0  0  0  0  # atno 6907 bound_to 6896
  152.4243  134.5893  159.9979 H   0  0  0  0  0  0  0  0  0  0  0  0  # atno 6908 bound_to 6896
  151.6099  133.3311  159.3101 H   0  0  0  0  0  0  0  0  0  0  0  0  # atno 6909 bound_to 6896
  145.9415  139.3893  143.0360 H   0  0  0  0  0  0  0  0  0  0  0  0  # atno 7974 bound_to 7965
  155.0219  140.0393  157.2440 H   0  0  0  0  0  0  0  0  0  0  0  0  # atno 8008 bound_to 7997
  154.7370  140.2741  155.6382 H   0  0  0  0  0  0  0  0  0  0  0  0  # atno 8009 bound_to 7997
  156.2855  140.2673  156.2087 H   0  0  0  0  0  0  0  0  0  0  0  0  # atno 8010 bound_to 7997
  139.4831  144.5337  151.7681 H   0  0  0  0  0  0  0  0  0  0  0  0  # atno 10167 bound_to 10162
  157.6750  130.9875  150.1810 H   0  0  0  0  0  0  0  0  0  0  0  0  # atno 10718 bound_to 10713
  153.7673  135.6915  153.4913 H   0  0  0  0  0  0  0  0  0  0  0  0  # atno 10763 bound_to 10752
  153.1898  135.4475  155.0133 H   0  0  0  0  0  0  0  0  0  0  0  0  # atno 10764 bound_to 10752
  154.8131  135.3386  154.7185 H   0  0  0  0  0  0  0  0  0  0  0  0  # atno 10765 bound_to 10752
  140.3574  134.7143  157.4308 H   0  0  0  0  0  0  0  0  0  0  0  0  # atno 11005 bound_to 11000
  145.8293  140.9639  143.0857 LP  0  0  0  0  0  0  0  0  0  0  0  0  # atno 17320 bound_to 7965
  144.6780  140.0141  143.7484 LP  0  0  0  0  0  0  0  0  0  0  0  0  # atno 17321 bound_to 7965
  140.4866  144.1372  150.5942 LP  0  0  0  0  0  0  0  0  0  0  0  0  # atno 17342 bound_to 10162
  140.4218  143.2608  151.9706 LP  0  0  0  0  0  0  0  0  0  0  0  0  # atno 17343 bound_to 10162
  156.2542  130.3704  149.8199 LP  0  0  0  0  0  0  0  0  0  0  0  0  # atno 17370 bound_to 10713
  156.5963  130.8528  151.3421 LP  0  0  0  0  0  0  0  0  0  0  0  0  # atno 17371 bound_to 10713
  140.0654  134.5937  155.8701 LP  0  0  0  0  0  0  0  0  0  0  0  0  # atno 17394 bound_to 11000
  141.1994  133.6607  156.5844 LP  0  0  0  0  0  0  0  0  0  0  0  0  # atno 17395 bound_to 11000

$$$$
