AV-unprocessed.smi:3133|AV-procd|sdf|11939|dock1
  -GOLD-   2272017323D 1   1.00000     0.00000
 Structure written by MMmdl.
 32 33  0  0  0  0  0  0  0  0  1 V2000
  150.9459  138.3938  158.8989 C   0  0  0  0  0  0  0  0  0  0  0  0
  152.0370  139.0937  158.0631 C   0  0  2  0  0  0  0  0  0  0  0  0
  153.0289  139.8987  158.9206 C   0  0  0  0  0  0  0  0  0  0  0  0
  154.2379  139.6685  158.8695 O   0  0  0  0  0  0  0  0  0  0  0  0
  152.4986  140.8565  159.6984 N   0  0  0  0  0  0  0  0  0  0  0  0
  153.2543  141.7609  160.5569 C   0  0  0  0  0  0  0  0  0  0  0  0
  153.0049  143.2284  160.1741 C   0  0  1  0  0  0  0  0  0  0  0  0
  153.1480  143.5066  158.6795 C   0  0  0  0  0  0  0  0  0  0  0  0
  152.3283  144.7675  158.5281 C   0  0  0  0  0  0  0  0  0  0  0  0
  151.1672  144.5033  159.4833 C   0  0  0  0  0  0  0  0  0  0  0  0
  151.6702  143.6212  160.4841 O   0  0  0  0  0  0  0  0  0  0  0  0
  151.4667  139.9297  157.0130 N   0  0  0  0  0  0  0  0  0  0  0  0
  151.5099  139.7889  155.6862 C   0  0  0  0  0  0  0  0  0  0  0  0
  150.9111  140.7662  155.0205 N   0  0  0  0  0  0  0  0  0  0  0  0
  150.4982  141.5370  156.0702 C   0  0  0  0  0  0  0  0  0  0  0  0
  150.8134  141.0872  157.2846 N   0  0  0  0  0  0  0  0  0  0  0  0
  151.3853  137.7196  159.6349 H   0  0  0  0  0  0  0  0  0  0  0  0
  150.2921  137.7980  158.2616 H   0  0  0  0  0  0  0  0  0  0  0  0
  150.3213  139.1085  159.4364 H   0  0  0  0  0  0  0  0  0  0  0  0
  152.6136  138.3102  157.5687 H   0  0  0  0  0  0  0  0  0  0  0  0
  151.4968  140.9800  159.6800 H   0  0  0  0  0  0  0  0  0  0  0  0
  152.9267  141.5908  161.5828 H   0  0  0  0  0  0  0  0  0  0  0  0
  154.3208  141.5305  160.5332 H   0  0  0  0  0  0  0  0  0  0  0  0
  153.6849  143.8828  160.7226 H   0  0  0  0  0  0  0  0  0  0  0  0
  154.1852  143.6294  158.3665 H   0  0  0  0  0  0  0  0  0  0  0  0
  152.7050  142.7009  158.0920 H   0  0  0  0  0  0  0  0  0  0  0  0
  152.9046  145.6301  158.8655 H   0  0  0  0  0  0  0  0  0  0  0  0
  152.0048  144.9512  157.5032 H   0  0  0  0  0  0  0  0  0  0  0  0
  150.7773  145.4217  159.9234 H   0  0  0  0  0  0  0  0  0  0  0  0
  150.3493  144.0035  158.9632 H   0  0  0  0  0  0  0  0  0  0  0  0
  151.9922  138.9552  155.1970 H   0  0  0  0  0  0  0  0  0  0  0  0
  149.9538  142.4599  155.9346 H   0  0  0  0  0  0  0  0  0  0  0  0
  1  2  1  0  0  0  0
  1 17  1  0  0  0  0
  1 18  1  0  0  0  0
  1 19  1  0  0  0  0
  2  3  1  0  0  0  0
  2 12  1  0  0  0  0
  2 20  1  0  0  0  0
  3  4  2  0  0  0  0
  3  5  1  0  0  0  0
  5  6  1  0  0  0  0
  5 21  1  0  0  0  0
  6  7  1  0  0  0  0
  6 22  1  0  0  0  0
  6 23  1  0  0  0  0
  7 11  1  0  0  0  0
  7  8  1  0  0  0  0
  7 24  1  0  0  0  0
  8  9  1  0  0  0  0
  8 25  1  0  0  0  0
  8 26  1  0  0  0  0
  9 10  1  0  0  0  0
  9 27  1  0  0  0  0
  9 28  1  0  0  0  0
 10 11  1  0  0  0  0
 10 29  1  0  0  0  0
 10 30  1  0  0  0  0
 12 16  1  0  0  0  0
 12 13  1  0  0  0  0
 13 14  2  0  0  0  0
 13 31  1  0  0  0  0
 14 15  1  0  0  0  0
 15 16  2  0  0  0  0
 15 32  1  0  0  0  0
M  END
> <s_m_source_file>
AV-unprocessed.smi

> <i_m_source_file_index>
3133

> <i_lp_mmshare_version>
43012

> <i_f3d_flags>
0

> <s_epik_input>
bjFbY0hdbltjSF1uMVtDQEhdKFtDSDNdKUMoPU8pW05IXVtDSDJdW0NAQEhdMltDSDJdW0NIMl1bQ0gyXU8y

> <s_epik_cmdline>
J2VwaWtfcHl0aG9uJywgJy1waCcsICc3LjAnLCAnLXRuJywgJzgnLCAnLW1hJywgJzIwMCcsICctbWV0YWxfYmluZGluZycsICctaW1hZScsICc8aW5maWxlLm1hZT4nLCAnLW9tYWUnLCAnPG91dGZpbGUubWFlPic=

> <r_lp_tautomer_probability>
1

> <r_epik_Ionization_Penalty>
1.2027e-05

> <r_epik_Ionization_Penalty_Charging>
0

> <r_epik_Ionization_Penalty_Neutral>
1.2027e-05

> <r_epik_State_Penalty>
-0

> <r_epik_Charging_Adjusted_Penalty>
0

> <i_epik_Tot_Q>
0

> <i_epik_Tot_abs_Q>
0

> <r_epik_Metal_State_Penalty>
-0

> <b_epik_Metal_Only>
0

> <s_lp_Force_Field>
OPLS_2005

> <r_lp_Energy>
23.186

> <b_lp_Chiralities_Consistent>
1

> <s_lp_Variant>
AV-unprocessed.smi:3133-3

> <Gold.Version>
5.8.1

> <Gold.Id.Protein>
6NUR|6NUR_protein|mol2

> <Gold.PLP.Fitness>
43.2609

> <Gold.PLP.PLP>
-35.0302

> <Gold.PLP.part.hbond>
-2.4738

> <Gold.PLP.part.metal>
0.0000

> <Gold.PLP.part.buried>
-4.0418

> <Gold.PLP.part.nonpolar>
-28.7373

> <Gold.PLP.part.repulsive>
0.3419

> <Gold.PLP.ligand.clash>
0.0000

> <Gold.PLP.ligand.torsion>
0.2218

> <Gold.PLP.Chemscore.Hbond>
1.8480

> <Gold.PLP.Chemscore.CHOScore>
1.0000

> <Gold.PLP.Chemscore.Metal>
0.0000

> <Gold.Chemscore.Hbonds>
donor molecule, donor type, donor heavy atom, donor atom, acceptor molecule, acceptor atom, score
      P1  H  7989  7998       L1    14  0.85
      P1  H  7997  8009       L1     4  1.00
      L1  C    15    32       P1  8028  1.00

> <Gold.PLP.Chemscore.Internal.Correction>
0.1304

> <Gold.Rescore>
     Score         DG    S(hbond)    S(metal)    S(lipo)     H(rot)  DE(clash)    DE(int)     intcor
     14.08     -14.47       1.94        0.00      70.75       2.26       0.03       0.36       ----

> <Gold.Chemscore.Fitness>
14.0795

> <Gold.Chemscore.DG>
-14.4707

> <Gold.Chemscore.ZeroCoef>
-5.4800

> <Gold.Chemscore.Hbond>
1.9423

> <Gold.Chemscore.Metal>
0.0000

> <Gold.Chemscore.Lipo>
70.7539

> <Gold.Chemscore.Internal_Hbond>
0.0000

> <Gold.Chemscore.DEClash>
0.0264

> <Gold.Chemscore.DEInternal>
0.3648

> <Gold.Chemscore.Rot>
2.2558

> <Gold.Chemscore.Internal.Correction>
   9.000000E+99

> <Gold.Chemscore.Hbonds>
donor molecule, donor type, donor heavy atom, donor atom, acceptor molecule, acceptor atom, score
      P1  H  7989  7998       L1    14  0.55
      P1  H  7997  8009       L1     4  0.94

> <Gold.Chemscore.Hbond.Weighted>
-6.4872

> <Gold.Chemscore.Metal.Weighted>
-0.0000

> <Gold.Chemscore.Lipo.Weighted>
-8.2782

> <Gold.Chemscore.Internal_Hbond.Weighted>
0.0000

> <Gold.Chemscore.DEClash.Weighted>
0.0264

> <Gold.Chemscore.DEInternal.Weighted>
0.3648

> <Gold.Chemscore.Rot.Weighted>
5.7747

> <Gold.Chemscore.Internal.Correction.Weighted>
   9.000000E+99

> <Gold.Protein.RotatedTorsions>
[ 6907 6896 6895 6894 ] final -124.01 input  -60.11 | X-H torsion
[ 7974 7965 7964 7962 ] final  173.70 input  175.53 | X-H torsion
[ 8008 7997 7996 7995 ] final  122.77 input   59.86 | X-H torsion
[ 10167 10162 10161 10158 ] final  -16.49 input  -65.29 | X-H torsion
[ 10718 10713 10712 10709 ] final  144.15 input   66.30 | X-H torsion
[ 10763 10752 10751 10750 ] final  148.63 input  -60.55 | X-H torsion
[ 11005 11000 10999 10996 ] final -103.92 input  -57.11 | X-H torsion

> <Gold.Protein.ActiveResidues>
 VAL166  LYS551  ARG553  GLY616  TRP617  ASP618  TYR619  PRO620  LYS621  CYS622 
 ASP623  PHE694  ASN695  SER759  ASP760  ASP761  ALA762  ILE779  LEU786  VAL792 
 PHE793  MET794  SER795  GLU796  ALA797  LYS798  CYS799  TRP800  GLU811  SER814 

> <Gold.Protein.RotatedAtoms>
  150.8726  133.7484  159.2956 H   0  0  0  0  0  0  0  0  0  0  0  0  # atno 6907 bound_to 6896
  151.5091  135.1063  159.9858 H   0  0  0  0  0  0  0  0  0  0  0  0  # atno 6908 bound_to 6896
  152.4706  133.7975  159.6991 H   0  0  0  0  0  0  0  0  0  0  0  0  # atno 6909 bound_to 6896
  144.7238  139.9686  143.6436 H   0  0  0  0  0  0  0  0  0  0  0  0  # atno 7974 bound_to 7965
  156.2740  140.2778  156.1521 H   0  0  0  0  0  0  0  0  0  0  0  0  # atno 8008 bound_to 7997
  155.0842  140.0388  157.2666 H   0  0  0  0  0  0  0  0  0  0  0  0  # atno 8009 bound_to 7997
  154.6940  140.2635  155.6790 H   0  0  0  0  0  0  0  0  0  0  0  0  # atno 8010 bound_to 7997
  140.7234  143.5111  150.9749 H   0  0  0  0  0  0  0  0  0  0  0  0  # atno 10167 bound_to 10162
  157.3606  131.0964  151.0919 H   0  0  0  0  0  0  0  0  0  0  0  0  # atno 10718 bound_to 10713
  154.0579  135.2876  155.3330 H   0  0  0  0  0  0  0  0  0  0  0  0  # atno 10763 bound_to 10752
  154.6827  135.5257  153.8288 H   0  0  0  0  0  0  0  0  0  0  0  0  # atno 10764 bound_to 10752
  153.0534  135.6585  154.0770 H   0  0  0  0  0  0  0  0  0  0  0  0  # atno 10765 bound_to 10752
  141.1124  133.8680  157.1547 H   0  0  0  0  0  0  0  0  0  0  0  0  # atno 11005 bound_to 11000
  146.0580  139.3576  143.0598 LP  0  0  0  0  0  0  0  0  0  0  0  0  # atno 17320 bound_to 7965
  145.8129  140.9717  143.0939 LP  0  0  0  0  0  0  0  0  0  0  0  0  # atno 17321 bound_to 7965
  139.8825  143.7054  152.3155 LP  0  0  0  0  0  0  0  0  0  0  0  0  # atno 17342 bound_to 10162
  139.7342  144.7575  151.0754 LP  0  0  0  0  0  0  0  0  0  0  0  0  # atno 17343 bound_to 10162
  157.2060  130.6416  149.5756 LP  0  0  0  0  0  0  0  0  0  0  0  0  # atno 17370 bound_to 10713
  155.9737  130.4675  150.6328 LP  0  0  0  0  0  0  0  0  0  0  0  0  # atno 17371 bound_to 10713
  140.0025  135.0022  157.0221 LP  0  0  0  0  0  0  0  0  0  0  0  0  # atno 17394 bound_to 11000
  140.4740  134.1358  155.7207 LP  0  0  0  0  0  0  0  0  0  0  0  0  # atno 17395 bound_to 11000

$$$$
