#       Name:                AV-unprocessed.smi:2482
#       Creating user name   scv26
#       Creation time:       Fri Mar 27 13:42:23 2020


#       File generated by GOLD software.
#

@<TRIPOS>MOLECULE
AV-unprocessed.smi:2482
    40    41     1
SMALL
NO_CHARGES


@<TRIPOS>ATOM
      1 ****        -4.4196  -2.8878   2.1717 C.3            1 S1                 0.0000
      2 ****        -3.7457  -2.1162   1.0523 C.ar           1 S1                 0.0000
      3 ****        -4.5766  -1.4480   0.2237 N.ar           1 S1                 0.0000
      4 ****        -4.0258  -0.7509  -0.7896 C.ar           1 S1                 0.0000
      5 ****        -2.6385  -0.6865  -1.0188 C.ar           1 S1                 0.0000
      6 ****        -1.7564  -1.3737  -0.1553 C.ar           1 S1                 0.0000
      7 ****        -0.4305  -1.3261  -0.3655 N.pl3          1 S1                -1.0000
      8 ****         0.3123  -0.3539   0.2169 C.2            1 S1                 0.0000
      9 ****        -0.0619   0.5522   0.9647 O.2            1 S1                 0.0000
     10 ****         1.8052  -0.4797  -0.1615 C.3            1 S1                 0.0000
     11 ****         2.7227   0.5828   0.4891 C.3            1 S1                 0.0000
     12 ****         2.4808   1.9249  -0.0917 N.4            1 S1                 1.0000
     13 ****         3.2905   2.9805   0.5520 C.3            1 S1                 0.0000
     14 ****         2.6376   1.8981  -1.5634 C.3            1 S1                 0.0000
     15 ****         1.7168   0.8319  -2.1789 C.3            1 S1                 0.0000
     16 ****         1.9867  -0.4360  -1.5823 O.3            1 S1                 0.0000
     17 ****        -2.3377  -2.1141   0.9070 C.ar           1 S1                 0.0000
     18 ****        -1.3464  -3.0059   2.0153 Cl             1 S1                 0.0000
     19 ****        -4.0845  -2.5189   3.1414 H              1 S1                 0.0000
     20 ****        -4.1746  -3.9479   2.1016 H              1 S1                 0.0000
     21 ****        -5.5051  -2.7896   2.1304 H              1 S1                 0.0000
     22 ****        -4.7114  -0.2281  -1.4397 H              1 S1                 0.0000
     23 ****        -2.2570  -0.1115  -1.8500 H              1 S1                 0.0000
     24 ****         2.1373  -1.4622   0.1777 H              1 S1                 0.0000
     25 ****         2.5653   0.6117   1.5685 H              1 S1                 0.0000
     26 ****         3.7672   0.3069   0.3359 H              1 S1                 0.0000
     27 ****         4.3561   2.8056   0.3980 H              1 S1                 0.0000
     28 ****         3.0988   3.0099   1.6251 H              1 S1                 0.0000
     29 ****         3.0407   3.9595   0.1423 H              1 S1                 0.0000
     30 ****         2.3988   2.8778  -1.9790 H              1 S1                 0.0000
     31 ****         3.6773   1.6854  -1.8173 H              1 S1                 0.0000
     32 ****         0.6681   1.1081  -2.0627 H              1 S1                 0.0000
     33 ****         1.8988   0.7571  -3.2510 H              1 S1                 0.0000
     34 ****         1.5121   2.1455   0.0940 H              1 S1                 0.0000
     35 ****        -5.5674  -1.4697   0.3575 LP             1 S1                 0.0000
     36 ****         0.0080  -2.0077  -0.9514 LP             1 S1                 0.0000
     37 ****        -1.0283   0.6314   1.2095 LP             1 S1                 0.0000
     38 ****         0.6009   1.2078   1.3263 LP             1 S1                 0.0000
     39 ****         1.3754  -1.1111  -1.9954 LP             1 S1                 0.0000
     40 ****         2.9358  -0.6789  -1.7828 LP             1 S1                 0.0000
@<TRIPOS>BOND
    1    1    2 1     
    2    1   19 1     
    3    1   20 1     
    4    1   21 1     
    5    2   17 ar    
    6    2    3 ar    
    7    3    4 ar    
    8    4    5 ar    
    9    4   22 1     
   10    5    6 ar    
   11    5   23 1     
   12    6    7 1     
   13    6   17 ar    
   14    7    8 1     
   15    8    9 2     
   16    8   10 1     
   17   10   16 1     
   18   10   11 1     
   19   10   24 1     
   20   11   12 1     
   21   11   25 1     
   22   11   26 1     
   23   12   13 1     
   24   12   14 1     
   25   12   34 1     
   26   13   27 1     
   27   13   28 1     
   28   13   29 1     
   29   14   15 1     
   30   14   30 1     
   31   14   31 1     
   32   15   16 1     
   33   15   32 1     
   34   15   33 1     
   35   17   18 1     
   36    3   35 1     
   37    7   36 1     
   38    9   37 1     
   39    9   38 1     
   40   16   39 1     
   41   16   40 1     
@<TRIPOS>SUBSTRUCTURE
      1 S1             1
@<TRIPOS>SET
LONE_PAIRS      STATIC     ATOMS    <user>   **** ""
6 35 36 37 38 39 40
DONOR_HYDROGENS      STATIC     ATOMS    <user>   **** ""
1 34
ATOM$BLUE        STATIC     ATOMS    COLORGROUP SYSTEM
6 35 36 37 38 39 40
ATOM$RED        STATIC     ATOMS    COLORGROUP SYSTEM
1 34
