#       Name:                AV-unprocessed.smi:261
#       Creating user name   scv26
#       Creation time:       Thu Mar 26 21:17:17 2020


#       File generated by GOLD software.
#

@<TRIPOS>MOLECULE
AV-unprocessed.smi:261
    62    65     1
SMALL
NO_CHARGES


@<TRIPOS>ATOM
      1 ****        -6.3354   3.9705  -1.7006 C.3            1 S1                 0.0000
      2 ****        -4.9311   3.9627  -1.5033 O.3            1 S1                 0.0000
      3 ****        -4.4927   2.9689  -0.5883 C.3            1 S1                 0.0000
      4 ****        -4.5350   1.5509  -1.1653 C.3            1 S1                 0.0000
      5 ****        -3.4865   0.7742  -0.3503 C.3            1 S1                 0.0000
      6 ****        -4.1108   0.1191   0.8954 C.2            1 S1                 0.0000
      7 ****        -4.5533  -1.1327   0.7556 N.am           1 S1                 0.0000
      8 ****        -4.2043   0.7287   1.9600 O.2            1 S1                 0.0000
      9 ****        -2.5067   1.8026   0.0013 N.pl3          1 S1                 0.0000
     10 ****        -1.2082   1.5674   0.3402 C.ar           1 S1                 0.0000
     11 ****        -0.4075   2.6444   0.5596 N.ar           1 S1                 0.0000
     12 ****         0.8753   2.4885   0.8951 C.ar           1 S1                 0.0000
     13 ****         1.5596   1.3579   1.0655 N.ar           1 S1                 0.0000
     14 ****         0.7703   0.2679   0.8495 C.ar           1 S1                 0.0000
     15 ****        -0.6095   0.2777   0.4870 C.ar           1 S1                 0.0000
     16 ****        -1.0577  -1.0339   0.3590 N.2            1 S1                 0.0000
     17 ****        -0.0146  -1.7678   0.6300 C.2            1 S1                 0.0000
     18 ****         1.1280  -1.0663   0.9309 N.pl3          1 S1                 0.0000
     19 ****         2.4261  -1.6270   1.2643 C.3            1 S1                 0.0000
     20 ****         3.1505  -2.2101   0.0348 C.3            1 S1                 0.0000
     21 ****         3.3019  -1.2028  -0.9485 O.3            1 S1                 0.0000
     22 ****         4.5254  -2.8053   0.4023 C.3            1 S1                 0.0000
     23 ****         5.6591  -1.8046   0.6942 C.3            1 S1                 0.0000
     24 ****         6.7396  -2.1841  -0.3032 C.3            1 S1                 0.0000
     25 ****         6.4078  -3.6358  -0.6236 C.3            1 S1                 0.0000
     26 ****         4.9902  -3.6377  -0.6552 O.3            1 S1                 0.0000
     27 ****        -3.0093   3.1470  -0.2651 C.3            1 S1                 0.0000
     28 ****        -5.0669   3.0142   0.3393 H              1 S1                 0.0000
     29 ****        -3.0405   0.0117  -0.9896 H              1 S1                 0.0000
     30 ****        -6.6001   4.7683  -2.3942 H              1 S1                 0.0000
     31 ****        -6.8643   4.1517  -0.7642 H              1 S1                 0.0000
     32 ****        -6.6870   3.0301  -2.1258 H              1 S1                 0.0000
     33 ****        -5.5318   1.1094  -1.1243 H              1 S1                 0.0000
     34 ****        -4.2328   1.5727  -2.2135 H              1 S1                 0.0000
     35 ****        -4.9782  -1.6076   1.5386 H              1 S1                 0.0000
     36 ****        -4.4671  -1.5970  -0.1368 H              1 S1                 0.0000
     37 ****         1.4327   3.4007   1.0489 H              1 S1                 0.0000
     38 ****        -0.0487  -2.8475   0.6134 H              1 S1                 0.0000
     39 ****         3.0336  -0.8534   1.7354 H              1 S1                 0.0000
     40 ****         2.2755  -2.4025   2.0159 H              1 S1                 0.0000
     41 ****         2.5300  -3.0004  -0.3896 H              1 S1                 0.0000
     42 ****         3.7313  -1.5831  -1.6997 H              1 S1                 0.0000
     43 ****         4.4072  -3.4567   1.2700 H              1 S1                 0.0000
     44 ****         5.3649  -0.7595   0.5917 H              1 S1                 0.0000
     45 ****         6.0196  -1.9417   1.7145 H              1 S1                 0.0000
     46 ****         6.6408  -1.5775  -1.2045 H              1 S1                 0.0000
     47 ****         7.7493  -2.0528   0.0869 H              1 S1                 0.0000
     48 ****         6.8332  -3.9677  -1.5709 H              1 S1                 0.0000
     49 ****         6.7584  -4.3012   0.1671 H              1 S1                 0.0000
     50 ****        -2.4747   3.5610  -1.1216 H              1 S1                 0.0000
     51 ****        -2.8686   3.8159   0.5848 H              1 S1                 0.0000
     52 ****        -4.6556   4.8582  -1.1538 LP             1 S1                 0.0000
     53 ****        -4.4886   3.7984  -2.3849 LP             1 S1                 0.0000
     54 ****        -3.8712   1.6691   2.0286 LP             1 S1                 0.0000
     55 ****        -4.6133   0.2837   2.7567 LP             1 S1                 0.0000
     56 ****        -0.7847   3.5660   0.4683 LP             1 S1                 0.0000
     57 ****         2.5261   1.3147   1.3187 LP             1 S1                 0.0000
     58 ****        -1.9760  -1.3445   0.1136 LP             1 S1                 0.0000
     59 ****         3.8574  -0.4554  -0.5841 LP             1 S1                 0.0000
     60 ****         2.4040  -0.8520  -1.2141 LP             1 S1                 0.0000
     61 ****         4.6699  -3.2818  -1.5331 LP             1 S1                 0.0000
     62 ****         4.6492  -4.5693  -0.5288 LP             1 S1                 0.0000
@<TRIPOS>BOND
    1    1    2 1     
    2    1   30 1     
    3    1   31 1     
    4    1   32 1     
    5    2    3 1     
    6    3   28 1     
    7    3   27 1     
    8    3    4 1     
    9    4    5 1     
   10    4   33 1     
   11    4   34 1     
   12    5   29 1     
   13    5    6 1     
   14    5    9 1     
   15    6    7 am    
   16    6    8 2     
   17    7   35 1     
   18    7   36 1     
   19    9   10 1     
   20    9   27 1     
   21   10   15 ar    
   22   10   11 ar    
   23   11   12 ar    
   24   12   13 ar    
   25   12   37 1     
   26   13   14 ar    
   27   14   18 1     
   28   14   15 ar    
   29   15   16 1     
   30   16   17 2     
   31   17   18 1     
   32   17   38 1     
   33   18   19 1     
   34   19   20 1     
   35   19   39 1     
   36   19   40 1     
   37   20   21 1     
   38   20   22 1     
   39   20   41 1     
   40   21   42 1     
   41   22   26 1     
   42   22   23 1     
   43   22   43 1     
   44   23   24 1     
   45   23   44 1     
   46   23   45 1     
   47   24   25 1     
   48   24   46 1     
   49   24   47 1     
   50   25   26 1     
   51   25   48 1     
   52   25   49 1     
   53   27   50 1     
   54   27   51 1     
   55    2   52 1     
   56    2   53 1     
   57    8   54 1     
   58    8   55 1     
   59   11   56 1     
   60   13   57 1     
   61   16   58 1     
   62   21   59 1     
   63   21   60 1     
   64   26   61 1     
   65   26   62 1     
@<TRIPOS>SUBSTRUCTURE
      1 S1             1
@<TRIPOS>SET
LONE_PAIRS      STATIC     ATOMS    <user>   **** ""
11 52 53 54 55 56 57 58 59 60 61 62
DONOR_HYDROGENS      STATIC     ATOMS    <user>   **** ""
3 35 36 42
ATOM$BLUE        STATIC     ATOMS    COLORGROUP SYSTEM
11 52 53 54 55 56 57 58 59 60 61 62
ATOM$RED        STATIC     ATOMS    COLORGROUP SYSTEM
3 35 36 42
