AV-unprocessed.smi:224|AV-procd|sdf|1721|dock3
  -GOLD-   2262020203D 1   1.00000     0.00000
 Structure written by MMmdl.
 56 59  0  0  0  0  0  0  0  0  2 V2000
  143.5875  132.5923  148.0808 C   0  0  0  0  0  0  0  0  0  0  0  0
  143.8476  132.0856  149.5055 C   0  0  2  0  0  0  0  0  0  0  0  0
  142.8023  132.5608  150.3302 O   0  0  0  0  0  0  0  0  0  0  0  0
  145.2001  132.5862  150.0531 C   0  0  0  0  0  0  0  0  0  0  0  0
  145.1597  132.8564  151.5192 N   0  3  1  0  0  0  0  0  0  0  0  0
  145.8922  131.8026  152.2781 C   0  0  0  0  0  0  0  0  0  0  0  0
  145.8274  132.0270  153.7975 C   0  0  0  0  0  0  0  0  0  0  0  0
  146.2630  133.3742  154.1464 N   0  0  0  0  0  0  0  0  0  0  0  0
  147.5782  133.6130  154.3984 C   0  0  0  0  0  0  0  0  0  0  0  0
  148.5000  132.6442  154.1514 N   0  0  0  0  0  0  0  0  0  0  0  0
  149.7967  132.8658  154.3847 C   0  0  0  0  0  0  0  0  0  0  0  0
  150.3811  133.9653  154.8624 N   0  0  0  0  0  0  0  0  0  0  0  0
  149.4635  134.9378  155.1290 C   0  0  0  0  0  0  0  0  0  0  0  0
  148.0567  134.8473  154.9257 C   0  0  0  0  0  0  0  0  0  0  0  0
  147.4484  136.0338  155.3191 N   0  0  0  0  0  0  0  0  0  0  0  0
  148.4377  136.7845  155.7197 C   0  0  0  0  0  0  0  0  0  0  0  0
  149.6829  136.2014  155.6500 N   0  0  0  0  0  0  0  0  0  0  0  0
  150.9503  136.8064  156.0330 C   0  0  0  0  0  0  0  0  0  0  0  0
  151.4717  137.8539  155.0192 C   0  0  2  0  0  0  0  0  0  0  0  0
  152.0255  137.1763  153.9056 O   0  0  0  0  0  0  0  0  0  0  0  0
  152.5382  138.7710  155.6228 C   0  0  0  0  0  0  0  0  0  0  0  0
  151.8268  140.1124  155.7532 C   0  0  0  0  0  0  0  0  0  0  0  0
  150.9783  140.1241  154.6195 O   0  0  0  0  0  0  0  0  0  0  0  0
  150.3882  138.8355  154.5287 C   0  0  0  0  0  0  0  0  0  0  0  0
  145.5283  134.4204  153.4465 C   0  0  0  0  0  0  0  0  0  0  0  0
  145.5845  134.2394  151.9118 C   0  0  2  0  0  0  0  0  0  0  0  0
  144.7155  135.3425  151.2717 C   0  0  0  0  0  0  0  0  0  0  0  0
  144.3608  132.2457  147.3948 H   0  0  0  0  0  0  0  0  0  0  0  0
  143.5719  133.6822  148.0408 H   0  0  0  0  0  0  0  0  0  0  0  0
  142.6298  132.2316  147.7037 H   0  0  0  0  0  0  0  0  0  0  0  0
  143.8065  130.9971  149.4920 H   0  0  0  0  0  0  0  0  0  0  0  0
  142.4802  133.3773  149.9810 H   0  0  0  0  0  0  0  0  0  0  0  0
  145.9845  131.8560  149.8480 H   0  0  0  0  0  0  0  0  0  0  0  0
  145.4763  133.4669  149.4791 H   0  0  0  0  0  0  0  0  0  0  0  0
  145.4858  130.8173  152.0548 H   0  0  0  0  0  0  0  0  0  0  0  0
  146.9327  131.7875  151.9512 H   0  0  0  0  0  0  0  0  0  0  0  0
  144.8005  131.9025  154.1430 H   0  0  0  0  0  0  0  0  0  0  0  0
  146.4159  131.2753  154.3252 H   0  0  0  0  0  0  0  0  0  0  0  0
  150.4612  132.0454  154.1566 H   0  0  0  0  0  0  0  0  0  0  0  0
  148.2849  137.7892  156.0870 H   0  0  0  0  0  0  0  0  0  0  0  0
  150.8283  137.2667  157.0143 H   0  0  0  0  0  0  0  0  0  0  0  0
  151.6821  136.0081  156.1613 H   0  0  0  0  0  0  0  0  0  0  0  0
  152.1171  137.7940  153.1961 H   0  0  0  0  0  0  0  0  0  0  0  0
  152.9287  138.4156  156.5770 H   0  0  0  0  0  0  0  0  0  0  0  0
  153.3866  138.8851  154.9460 H   0  0  0  0  0  0  0  0  0  0  0  0
  151.2277  140.1527  156.6644 H   0  0  0  0  0  0  0  0  0  0  0  0
  152.5154  140.9577  155.7520 H   0  0  0  0  0  0  0  0  0  0  0  0
  150.0337  138.6284  153.5181 H   0  0  0  0  0  0  0  0  0  0  0  0
  149.5209  138.8271  155.1890 H   0  0  0  0  0  0  0  0  0  0  0  0
  144.4921  134.3842  153.7853 H   0  0  0  0  0  0  0  0  0  0  0  0
  145.8941  135.4115  153.7106 H   0  0  0  0  0  0  0  0  0  0  0  0
  146.6175  134.3791  151.5882 H   0  0  0  0  0  0  0  0  0  0  0  0
  144.9395  136.3142  151.7130 H   0  0  0  0  0  0  0  0  0  0  0  0
  143.6530  135.1519  151.4266 H   0  0  0  0  0  0  0  0  0  0  0  0
  144.8889  135.4554  150.2029 H   0  0  0  0  0  0  0  0  0  0  0  0
  144.1901  132.7887  151.7924 H   0  0  0  0  0  0  0  0  0  0  0  0
  1  2  1  0  0  0  0
  1 28  1  0  0  0  0
  1 29  1  0  0  0  0
  1 30  1  0  0  0  0
  2  3  1  0  0  0  0
  2  4  1  0  0  0  0
  2 31  1  0  0  0  0
  3 32  1  0  0  0  0
  4  5  1  0  0  0  0
  4 33  1  0  0  0  0
  4 34  1  0  0  0  0
  5 26  1  0  0  0  0
  5  6  1  0  0  0  0
  5 56  1  0  0  0  0
  6  7  1  0  0  0  0
  6 35  1  0  0  0  0
  6 36  1  0  0  0  0
  7  8  1  0  0  0  0
  7 37  1  0  0  0  0
  7 38  1  0  0  0  0
  8  9  1  0  0  0  0
  8 25  1  0  0  0  0
  9 14  1  0  0  0  0
  9 10  2  0  0  0  0
 10 11  1  0  0  0  0
 11 12  2  0  0  0  0
 11 39  1  0  0  0  0
 12 13  1  0  0  0  0
 13 17  1  0  0  0  0
 13 14  2  0  0  0  0
 14 15  1  0  0  0  0
 15 16  2  0  0  0  0
 16 17  1  0  0  0  0
 16 40  1  0  0  0  0
 17 18  1  0  0  0  0
 18 19  1  0  0  0  0
 18 41  1  0  0  0  0
 18 42  1  0  0  0  0
 19 24  1  0  0  0  0
 19 20  1  0  0  0  0
 19 21  1  0  0  0  0
 20 43  1  0  0  0  0
 21 22  1  0  0  0  0
 21 44  1  0  0  0  0
 21 45  1  0  0  0  0
 22 23  1  0  0  0  0
 22 46  1  0  0  0  0
 22 47  1  0  0  0  0
 23 24  1  0  0  0  0
 24 48  1  0  0  0  0
 24 49  1  0  0  0  0
 25 26  1  0  0  0  0
 25 50  1  0  0  0  0
 25 51  1  0  0  0  0
 26 27  1  0  0  0  0
 26 52  1  0  0  0  0
 27 53  1  0  0  0  0
 27 54  1  0  0  0  0
 27 55  1  0  0  0  0
M  CHG  1   5   1
M  END
> <s_m_source_file>
AV-unprocessed.smi

> <i_m_source_file_index>
224

> <i_lp_mmshare_version>
43012

> <i_f3d_flags>
0

> <s_epik_input>
W0NIM11bQ0BIXShbT0hdKVtDSDJdTjFbQ0gyXVtDSDJdTihbQ0gyXVtDQEhdMVtDSDNdKWMobltjSF1uMiljKGMyMyluW2NIXW4zW0NIMl1bQ0BAXTQoW09IXSlbQ0gyXVtDSDJdT1tDSDJdNA==

> <s_epik_cmdline>
J2VwaWtfcHl0aG9uJywgJy1waCcsICc3LjAnLCAnLXRuJywgJzgnLCAnLW1hJywgJzIwMCcsICctbWV0YWxfYmluZGluZycsICctaW1hZScsICc8aW5maWxlLm1hZT4nLCAnLW9tYWUnLCAnPG91dGZpbGUubWFlPic=

> <r_lp_tautomer_probability>
1

> <r_epik_Ionization_Penalty>
0.00516958

> <r_epik_Ionization_Penalty_Charging>
0.00509693

> <r_epik_Ionization_Penalty_Neutral>
7.26542e-05

> <r_epik_State_Penalty>
-0

> <r_epik_Charging_Adjusted_Penalty>
0.00509693

> <i_epik_Tot_Q>
1

> <i_epik_Tot_abs_Q>
1

> <r_epik_Metal_State_Penalty>
-0

> <b_epik_Metal_Only>
0

> <s_lp_Force_Field>
OPLS_2005

> <r_lp_Energy>
50.3432

> <b_lp_Chiralities_Consistent>
1

> <s_lp_Variant>
AV-unprocessed.smi:224-15

> <Gold.Version>
5.8.1

> <Gold.Id.Protein>
6NUR|6NUR_protein|mol2

> <Gold.PLP.Fitness>
48.2251

> <Gold.PLP.PLP>
-42.2682

> <Gold.PLP.part.hbond>
-4.7842

> <Gold.PLP.part.metal>
0.0000

> <Gold.PLP.part.buried>
-5.6268

> <Gold.PLP.part.nonpolar>
-33.6516

> <Gold.PLP.part.repulsive>
0.4106

> <Gold.PLP.ligand.clash>
0.0000

> <Gold.PLP.ligand.torsion>
1.8001

> <Gold.PLP.Chemscore.Hbond>
2.9440

> <Gold.PLP.Chemscore.CHOScore>
0.0000

> <Gold.PLP.Chemscore.Metal>
0.0000

> <Gold.Chemscore.Hbonds>
donor molecule, donor type, donor heavy atom, donor atom, acceptor molecule, acceptor atom, score
      L1  H     3    32       P1 10186  0.94
      P1  H  7989  7998       L1    23  0.91
      P1  H 10752 10765       L1    20  1.00

> <Gold.PLP.Chemscore.Internal.Correction>
0.7252

> <Gold.Rescore>
     Score         DG    S(hbond)    S(metal)    S(lipo)     H(rot)  DE(clash)    DE(int)     intcor
     15.37     -17.14       2.88        0.00      90.93       3.36       0.14       1.63       ----

> <Gold.Chemscore.Fitness>
15.3698

> <Gold.Chemscore.DG>
-17.1410

> <Gold.Chemscore.ZeroCoef>
-5.4800

> <Gold.Chemscore.Hbond>
2.8822

> <Gold.Chemscore.Metal>
0.0000

> <Gold.Chemscore.Lipo>
90.9319

> <Gold.Chemscore.Internal_Hbond>
0.0000

> <Gold.Chemscore.DEClash>
0.1425

> <Gold.Chemscore.DEInternal>
1.6286

> <Gold.Chemscore.Rot>
3.3611

> <Gold.Chemscore.Internal.Correction>
   9.000000E+99

> <Gold.Chemscore.Hbonds>
donor molecule, donor type, donor heavy atom, donor atom, acceptor molecule, acceptor atom, score
      L1  H     3    32       P1 10186  0.91
      P1  H  7989  7998       L1    23  0.66
      P1  H 10752 10765       L1    20  0.95

> <Gold.Chemscore.Hbond.Weighted>
-9.6264

> <Gold.Chemscore.Metal.Weighted>
-0.0000

> <Gold.Chemscore.Lipo.Weighted>
-10.6390

> <Gold.Chemscore.Internal_Hbond.Weighted>
0.0000

> <Gold.Chemscore.DEClash.Weighted>
0.1425

> <Gold.Chemscore.DEInternal.Weighted>
1.6286

> <Gold.Chemscore.Rot.Weighted>
8.6045

> <Gold.Chemscore.Internal.Correction.Weighted>
   9.000000E+99

> <Gold.Protein.RotatedTorsions>
[ 6907 6896 6895 6894 ] final -173.20 input  -60.11 | X-H torsion
[ 7974 7965 7964 7962 ] final  -81.03 input  175.53 | X-H torsion
[ 8008 7997 7996 7995 ] final   92.94 input   59.86 | X-H torsion
[ 10167 10162 10161 10158 ] final    9.95 input  -65.29 | X-H torsion
[ 10718 10713 10712 10709 ] final -162.63 input   66.30 | X-H torsion
[ 10763 10752 10751 10750 ] final  151.69 input  -60.55 | X-H torsion
[ 11005 11000 10999 10996 ] final  -29.14 input  -57.11 | X-H torsion

> <Gold.Protein.ActiveResidues>
 VAL166  LYS551  ARG553  GLY616  TRP617  ASP618  TYR619  PRO620  LYS621  CYS622 
 ASP623  PHE694  ASN695  SER759  ASP760  ASP761  ALA762  ILE779  LEU786  VAL792 
 PHE793  MET794  SER795  GLU796  ALA797  LYS798  CYS799  TRP800  GLU811  SER814 

> <Gold.Protein.RotatedAtoms>
  151.5524  133.3415  159.2955 H   0  0  0  0  0  0  0  0  0  0  0  0  # atno 6907 bound_to 6896
  150.8471  134.7786  159.6990 H   0  0  0  0  0  0  0  0  0  0  0  0  # atno 6908 bound_to 6896
  152.4526  134.5369  159.9879 H   0  0  0  0  0  0  0  0  0  0  0  0  # atno 6909 bound_to 6896
  145.5520  140.9495  143.1494 H   0  0  0  0  0  0  0  0  0  0  0  0  # atno 7974 bound_to 7965
  156.0410  140.3319  155.7244 H   0  0  0  0  0  0  0  0  0  0  0  0  # atno 8008 bound_to 7997
  155.5744  140.0631  157.2816 H   0  0  0  0  0  0  0  0  0  0  0  0  # atno 8009 bound_to 7997
  154.4393  140.1855  156.0900 H   0  0  0  0  0  0  0  0  0  0  0  0  # atno 8010 bound_to 7997
  140.6224  143.8176  150.7191 H   0  0  0  0  0  0  0  0  0  0  0  0  # atno 10167 bound_to 10162
  156.6131  130.8859  151.2941 H   0  0  0  0  0  0  0  0  0  0  0  0  # atno 10718 bound_to 10713
  154.1078  135.2841  155.3237 H   0  0  0  0  0  0  0  0  0  0  0  0  # atno 10763 bound_to 10752
  154.6510  135.5369  153.7905 H   0  0  0  0  0  0  0  0  0  0  0  0  # atno 10764 bound_to 10752
  153.0356  135.6510  154.1239 H   0  0  0  0  0  0  0  0  0  0  0  0  # atno 10765 bound_to 10752
  140.9270  133.7362  156.0882 H   0  0  0  0  0  0  0  0  0  0  0  0  # atno 11005 bound_to 11000
  144.7524  139.7159  143.7267 LP  0  0  0  0  0  0  0  0  0  0  0  0  # atno 17320 bound_to 7965
  146.1910  139.5150  142.9805 LP  0  0  0  0  0  0  0  0  0  0  0  0  # atno 17321 bound_to 7965
  140.1769  143.4147  152.1961 LP  0  0  0  0  0  0  0  0  0  0  0  0  # atno 17342 bound_to 10162
  139.5450  144.7290  151.4612 LP  0  0  0  0  0  0  0  0  0  0  0  0  # atno 17343 bound_to 10162
  157.7248  130.9608  150.1590 LP  0  0  0  0  0  0  0  0  0  0  0  0  # atno 17370 bound_to 10713
  156.2373  130.3687  149.8377 LP  0  0  0  0  0  0  0  0  0  0  0  0  # atno 17371 bound_to 10713
  140.7913  134.3614  157.5464 LP  0  0  0  0  0  0  0  0  0  0  0  0  # atno 17394 bound_to 11000
  139.8787  134.9142  156.3101 LP  0  0  0  0  0  0  0  0  0  0  0  0  # atno 17395 bound_to 11000

$$$$
