AV-unprocessed.smi:2442|AV-procd|sdf|9626|dock6
  -GOLD-   2272013263D 1   1.00000     0.00000
 Structure written by MMmdl.
 46 47  0  0  0  0  0  0  0  0  1 V2000
  146.5529  130.2896  152.3669 C   0  0  0  0  0  0  0  0  0  0  0  0
  146.5489  131.6591  152.7371 O   0  0  0  0  0  0  0  0  0  0  0  0
  146.2440  132.5553  151.6744 C   0  0  1  0  0  0  0  0  0  0  0  0
  144.9775  132.0750  150.9335 C   0  0  0  0  0  0  0  0  0  0  0  0
  144.5179  133.0886  149.8752 C   0  0  0  0  0  0  0  0  0  0  0  0
  144.2842  134.4698  150.5019 C   0  0  0  0  0  0  0  0  0  0  0  0
  145.5472  134.9658  151.2201 C   0  0  0  0  0  0  0  0  0  0  0  0
  146.0313  133.9606  152.2832 C   0  0  2  0  0  0  0  0  0  0  0  0
  147.2794  134.4559  152.8596 N   0  0  0  0  0  0  0  0  0  0  0  0
  147.6149  134.3970  154.1555 C   0  0  0  0  0  0  0  0  0  0  0  0
  146.9104  133.8952  155.0318 O   0  0  0  0  0  0  0  0  0  0  0  0
  148.8053  134.9704  154.3842 N   0  0  0  0  0  0  0  0  0  0  0  0
  149.4268  135.1302  155.6966 C   0  0  0  0  0  0  0  0  0  0  0  0
  150.8802  135.6413  155.6062 C   0  0  0  0  0  0  0  0  0  0  0  0
  151.0068  137.1376  155.3425 C   0  0  0  0  0  0  0  0  0  0  0  0
  150.0813  137.7698  154.4842 C   0  0  0  0  0  0  0  0  0  0  0  0
  150.1924  139.1566  154.2679 C   0  0  0  0  0  0  0  0  0  0  0  0
  151.1470  139.9205  154.8370 N   0  0  0  0  0  0  0  0  0  0  0  0
  152.0341  139.3141  155.6534 C   0  0  0  0  0  0  0  0  0  0  0  0
  152.0166  137.9318  155.9411 C   0  0  0  0  0  0  0  0  0  0  0  0
  153.0586  137.3474  156.8775 C   0  0  0  0  0  0  0  0  0  0  0  0
  146.8263  129.6834  153.2305 H   0  0  0  0  0  0  0  0  0  0  0  0
  147.2829  130.0962  151.5799 H   0  0  0  0  0  0  0  0  0  0  0  0
  145.5725  129.9572  152.0263 H   0  0  0  0  0  0  0  0  0  0  0  0
  147.0789  132.6053  150.9723 H   0  0  0  0  0  0  0  0  0  0  0  0
  145.1556  131.1138  150.4523 H   0  0  0  0  0  0  0  0  0  0  0  0
  144.1739  131.9149  151.6536 H   0  0  0  0  0  0  0  0  0  0  0  0
  145.2701  133.1648  149.0890 H   0  0  0  0  0  0  0  0  0  0  0  0
  143.6032  132.7377  149.3970 H   0  0  0  0  0  0  0  0  0  0  0  0
  143.9894  135.1838  149.7323 H   0  0  0  0  0  0  0  0  0  0  0  0
  143.4560  134.4171  151.2099 H   0  0  0  0  0  0  0  0  0  0  0  0
  146.3345  135.1339  150.4835 H   0  0  0  0  0  0  0  0  0  0  0  0
  145.3480  135.9323  151.6851 H   0  0  0  0  0  0  0  0  0  0  0  0
  145.2610  133.8966  153.0546 H   0  0  0  0  0  0  0  0  0  0  0  0
  147.9309  134.8882  152.2216 H   0  0  0  0  0  0  0  0  0  0  0  0
  149.3073  135.3500  153.5950 H   0  0  0  0  0  0  0  0  0  0  0  0
  148.8277  135.7940  156.3204 H   0  0  0  0  0  0  0  0  0  0  0  0
  149.4146  134.1622  156.1975 H   0  0  0  0  0  0  0  0  0  0  0  0
  151.4202  135.3825  156.5168 H   0  0  0  0  0  0  0  0  0  0  0  0
  151.3939  135.1066  154.8063 H   0  0  0  0  0  0  0  0  0  0  0  0
  149.2914  137.2076  154.0085 H   0  0  0  0  0  0  0  0  0  0  0  0
  149.4932  139.6663  153.6217 H   0  0  0  0  0  0  0  0  0  0  0  0
  152.7829  139.9572  156.0917 H   0  0  0  0  0  0  0  0  0  0  0  0
  153.7997  138.0971  157.1556 H   0  0  0  0  0  0  0  0  0  0  0  0
  153.5873  136.5208  156.4035 H   0  0  0  0  0  0  0  0  0  0  0  0
  152.5923  136.9872  157.7938 H   0  0  0  0  0  0  0  0  0  0  0  0
  1  2  1  0  0  0  0
  1 22  1  0  0  0  0
  1 23  1  0  0  0  0
  1 24  1  0  0  0  0
  2  3  1  0  0  0  0
  3  8  1  0  0  0  0
  3  4  1  0  0  0  0
  3 25  1  0  0  0  0
  4  5  1  0  0  0  0
  4 26  1  0  0  0  0
  4 27  1  0  0  0  0
  5  6  1  0  0  0  0
  5 28  1  0  0  0  0
  5 29  1  0  0  0  0
  6  7  1  0  0  0  0
  6 30  1  0  0  0  0
  6 31  1  0  0  0  0
  7  8  1  0  0  0  0
  7 32  1  0  0  0  0
  7 33  1  0  0  0  0
  8  9  1  0  0  0  0
  8 34  1  0  0  0  0
  9 10  1  0  0  0  0
  9 35  1  0  0  0  0
 10 11  2  0  0  0  0
 10 12  1  0  0  0  0
 12 13  1  0  0  0  0
 12 36  1  0  0  0  0
 13 14  1  0  0  0  0
 13 37  1  0  0  0  0
 13 38  1  0  0  0  0
 14 15  1  0  0  0  0
 14 39  1  0  0  0  0
 14 40  1  0  0  0  0
 15 20  1  0  0  0  0
 15 16  2  0  0  0  0
 16 17  1  0  0  0  0
 16 41  1  0  0  0  0
 17 18  2  0  0  0  0
 17 42  1  0  0  0  0
 18 19  1  0  0  0  0
 19 20  2  0  0  0  0
 19 43  1  0  0  0  0
 20 21  1  0  0  0  0
 21 44  1  0  0  0  0
 21 45  1  0  0  0  0
 21 46  1  0  0  0  0
M  END
> <s_m_source_file>
AV-unprocessed.smi

> <i_m_source_file_index>
2442

> <i_lp_mmshare_version>
43012

> <i_f3d_flags>
0

> <s_epik_input>
W0NIM11PW0NAQEhdMVtDSDJdW0NIMl1bQ0gyXVtDSDJdW0NASF0xW05IXUMoPU8pW05IXVtDSDJdW0NIMl1jMltjSF1bY0hdbltjSF1jMltDSDNd

> <s_epik_cmdline>
J2VwaWtfcHl0aG9uJywgJy1waCcsICc3LjAnLCAnLXRuJywgJzgnLCAnLW1hJywgJzIwMCcsICctbWV0YWxfYmluZGluZycsICctaW1hZScsICc8aW5maWxlLm1hZT4nLCAnLW9tYWUnLCAnPG91dGZpbGUubWFlPic=

> <r_epik_Ionization_Penalty>
0.106136

> <r_epik_Ionization_Penalty_Charging>
0

> <r_epik_Ionization_Penalty_Neutral>
0.106136

> <r_epik_State_Penalty>
0.0959393

> <r_epik_Charging_Adjusted_Penalty>
0.0959393

> <i_epik_Tot_Q>
0

> <i_epik_Tot_abs_Q>
0

> <r_epik_Metal_State_Penalty>
0.0812517

> <b_epik_Metal_Only>
0

> <s_lp_Force_Field>
OPLS_2005

> <r_lp_Energy>
10.54

> <b_lp_Chiralities_Consistent>
1

> <s_lp_Variant>
AV-unprocessed.smi:2442-4

> <Gold.Version>
5.8.1

> <Gold.Id.Protein>
6NUR|6NUR_protein|mol2

> <Gold.PLP.Fitness>
43.9936

> <Gold.PLP.PLP>
-34.1275

> <Gold.PLP.part.hbond>
-3.0000

> <Gold.PLP.part.metal>
0.0000

> <Gold.PLP.part.buried>
-4.4780

> <Gold.PLP.part.nonpolar>
-27.6795

> <Gold.PLP.part.repulsive>
0.2437

> <Gold.PLP.ligand.clash>
0.0000

> <Gold.PLP.ligand.torsion>
0.7886

> <Gold.PLP.Chemscore.Hbond>
2.8080

> <Gold.PLP.Chemscore.CHOScore>
1.0000

> <Gold.PLP.Chemscore.Metal>
0.0000

> <Gold.Chemscore.Hbonds>
donor molecule, donor type, donor heavy atom, donor atom, acceptor molecule, acceptor atom, score
      L1  H     9    35       P1  7948  1.00
      L1  H    12    36       P1  7948  0.83
      P1  H  7989  7998       L1    18  1.00
      L1  C    17    42       P1  7957  0.98

> <Gold.PLP.Chemscore.Internal.Correction>
0.0192

> <Gold.Rescore>
     Score         DG    S(hbond)    S(metal)    S(lipo)     H(rot)  DE(clash)    DE(int)     intcor
     16.22     -17.72       1.57        0.00      95.67       1.64       0.09       1.41       ----

> <Gold.Chemscore.Fitness>
16.2198

> <Gold.Chemscore.DG>
-17.7207

> <Gold.Chemscore.ZeroCoef>
-5.4800

> <Gold.Chemscore.Hbond>
1.5691

> <Gold.Chemscore.Metal>
0.0000

> <Gold.Chemscore.Lipo>
95.6690

> <Gold.Chemscore.Internal_Hbond>
0.0000

> <Gold.Chemscore.DEClash>
0.0930

> <Gold.Chemscore.DEInternal>
1.4080

> <Gold.Chemscore.Rot>
1.6380

> <Gold.Chemscore.Internal.Correction>
   9.000000E+99

> <Gold.Chemscore.Hbonds>
donor molecule, donor type, donor heavy atom, donor atom, acceptor molecule, acceptor atom, score
      L1  H     9    35       P1  7948  0.62
      L1  H    12    36       P1  7948  0.24
      P1  H  7989  7998       L1    18  0.30

> <Gold.Chemscore.Hbond.Weighted>
-5.2408

> <Gold.Chemscore.Metal.Weighted>
-0.0000

> <Gold.Chemscore.Lipo.Weighted>
-11.1933

> <Gold.Chemscore.Internal_Hbond.Weighted>
0.0000

> <Gold.Chemscore.DEClash.Weighted>
0.0930

> <Gold.Chemscore.DEInternal.Weighted>
1.4080

> <Gold.Chemscore.Rot.Weighted>
4.1934

> <Gold.Chemscore.Internal.Correction.Weighted>
   9.000000E+99

> <Gold.Protein.RotatedTorsions>
[ 6907 6896 6895 6894 ] final  114.59 input  -60.11 | X-H torsion
[ 7974 7965 7964 7962 ] final  170.96 input  175.53 | X-H torsion
[ 8008 7997 7996 7995 ] final -118.51 input   59.86 | X-H torsion
[ 10167 10162 10161 10158 ] final   49.77 input  -65.29 | X-H torsion
[ 10718 10713 10712 10709 ] final    0.16 input   66.30 | X-H torsion
[ 10763 10752 10751 10750 ] final  168.87 input  -60.55 | X-H torsion
[ 11005 11000 10999 10996 ] final -108.07 input  -57.11 | X-H torsion

> <Gold.Protein.ActiveResidues>
 VAL166  LYS551  ARG553  GLY616  TRP617  ASP618  TYR619  PRO620  LYS621  CYS622 
 ASP623  PHE694  ASN695  SER759  ASP760  ASP761  ALA762  ILE779  LEU786  VAL792 
 PHE793  MET794  SER795  GLU796  ALA797  LYS798  CYS799  TRP800  GLU811  SER814 

> <Gold.Protein.RotatedAtoms>
  152.4793  133.8215  159.7055 H   0  0  0  0  0  0  0  0  0  0  0  0  # atno 6907 bound_to 6896
  150.8831  133.7335  159.2932 H   0  0  0  0  0  0  0  0  0  0  0  0  # atno 6908 bound_to 6896
  151.4832  135.1057  159.9835 H   0  0  0  0  0  0  0  0  0  0  0  0  # atno 6909 bound_to 6896
  144.7308  139.9279  143.6423 H   0  0  0  0  0  0  0  0  0  0  0  0  # atno 7974 bound_to 7965
  155.1008  140.0396  157.2696 H   0  0  0  0  0  0  0  0  0  0  0  0  # atno 8008 bound_to 7997
  154.6760  140.2622  155.6933 H   0  0  0  0  0  0  0  0  0  0  0  0  # atno 8009 bound_to 7997
  156.2676  140.2788  156.1286 H   0  0  0  0  0  0  0  0  0  0  0  0  # atno 8010 bound_to 7997
  140.2794  144.3174  150.6268 H   0  0  0  0  0  0  0  0  0  0  0  0  # atno 10167 bound_to 10162
  156.8292  130.5483  149.5688 H   0  0  0  0  0  0  0  0  0  0  0  0  # atno 10718 bound_to 10713
  154.3749  135.2753  155.2245 H   0  0  0  0  0  0  0  0  0  0  0  0  # atno 10763 bound_to 10752
  154.4377  135.5962  153.6112 H   0  0  0  0  0  0  0  0  0  0  0  0  # atno 10764 bound_to 10752
  152.9837  135.6011  154.3984 H   0  0  0  0  0  0  0  0  0  0  0  0  # atno 10765 bound_to 10752
  141.0921  133.9036  157.2050 H   0  0  0  0  0  0  0  0  0  0  0  0  # atno 11005 bound_to 11000
  146.0880  139.3869  143.0423 LP  0  0  0  0  0  0  0  0  0  0  0  0  # atno 17320 bound_to 7965
  145.7750  140.9880  143.1129 LP  0  0  0  0  0  0  0  0  0  0  0  0  # atno 17321 bound_to 7965
  140.5824  143.2172  151.7403 LP  0  0  0  0  0  0  0  0  0  0  0  0  # atno 17342 bound_to 10162
  139.4967  144.4060  152.0131 LP  0  0  0  0  0  0  0  0  0  0  0  0  # atno 17343 bound_to 10162
  156.0944  130.5921  150.9788 LP  0  0  0  0  0  0  0  0  0  0  0  0  # atno 17370 bound_to 10713
  157.6416  131.0909  150.8240 LP  0  0  0  0  0  0  0  0  0  0  0  0  # atno 17371 bound_to 10713
  139.9749  135.0117  156.9606 LP  0  0  0  0  0  0  0  0  0  0  0  0  # atno 17394 bound_to 11000
  140.5227  134.0891  155.7296 LP  0  0  0  0  0  0  0  0  0  0  0  0  # atno 17395 bound_to 11000

$$$$
