AV-unprocessed.smi:2171|AV-procd|sdf|8830|dock8
  -GOLD-   2272012 23D 1   1.00000     0.00000
 Structure written by MMmdl.
 39 41  0  0  0  0  0  0  0  0  2 V2000
  151.7326  136.6555  156.0205 O   0  0  0  0  0  0  0  0  0  0  0  0
  151.0892  137.2710  155.1713 C   0  0  0  0  0  0  0  0  0  0  0  0
  151.6391  138.5792  154.5956 C   0  0  0  0  0  0  0  0  0  0  0  0
  150.6851  139.6692  154.7155 N   0  0  0  0  0  0  0  0  0  0  0  0
  149.4589  139.8069  154.0983 C   0  0  0  0  0  0  0  0  0  0  0  0
  148.9268  140.9947  154.5110 C   0  0  0  0  0  0  0  0  0  0  0  0
  149.9122  141.5182  155.3940 C   0  0  0  0  0  0  0  0  0  0  0  0
  150.9627  140.7228  155.5150 N   0  0  0  0  0  0  0  0  0  0  0  0
  149.8928  136.8638  154.7166 N   0  0  0  0  0  0  0  0  0  0  0  0
  149.2181  135.6256  155.1004 C   0  0  2  0  0  0  0  0  0  0  0  0
  149.7910  134.3872  154.3844 C   0  0  0  0  0  0  0  0  0  0  0  0
  148.5635  133.5437  154.0251 C   0  0  0  0  0  0  0  0  0  0  0  0
  147.5317  134.5559  153.7715 N   0  3  1  0  0  0  0  0  0  0  0  0
  146.1291  134.1146  153.6339 C   0  0  0  0  0  0  0  0  0  0  0  0
  145.2782  135.3244  153.1913 C   0  0  0  0  0  0  0  0  0  0  0  0
  145.4757  136.5489  154.1140 C   0  0  0  0  0  0  0  0  0  0  0  0
  146.9701  136.8778  154.3226 C   0  0  0  0  0  0  0  0  0  0  0  0
  147.7022  135.6067  154.7900 C   0  0  2  0  0  0  0  0  0  0  0  0
  152.5560  138.8502  155.1202 H   0  0  0  0  0  0  0  0  0  0  0  0
  151.8975  138.4489  153.5433 H   0  0  0  0  0  0  0  0  0  0  0  0
  149.0718  139.0575  153.4235 H   0  0  0  0  0  0  0  0  0  0  0  0
  147.9772  141.4239  154.2273 H   0  0  0  0  0  0  0  0  0  0  0  0
  149.8954  142.4459  155.9469 H   0  0  0  0  0  0  0  0  0  0  0  0
  149.4354  137.4371  154.0223 H   0  0  0  0  0  0  0  0  0  0  0  0
  149.3477  135.4752  156.1742 H   0  0  0  0  0  0  0  0  0  0  0  0
  150.3042  134.6832  153.4677 H   0  0  0  0  0  0  0  0  0  0  0  0
  150.5068  133.8398  154.9986 H   0  0  0  0  0  0  0  0  0  0  0  0
  148.7309  132.9034  153.1586 H   0  0  0  0  0  0  0  0  0  0  0  0
  148.2676  132.9174  154.8683 H   0  0  0  0  0  0  0  0  0  0  0  0
  146.0644  133.3176  152.8924 H   0  0  0  0  0  0  0  0  0  0  0  0
  145.7680  133.7079  154.5796 H   0  0  0  0  0  0  0  0  0  0  0  0
  145.5536  135.6001  152.1724 H   0  0  0  0  0  0  0  0  0  0  0  0
  144.2241  135.0474  153.1586 H   0  0  0  0  0  0  0  0  0  0  0  0
  144.9555  137.4148  153.7038 H   0  0  0  0  0  0  0  0  0  0  0  0
  145.0146  136.3450  155.0814 H   0  0  0  0  0  0  0  0  0  0  0  0
  147.4051  137.2491  153.3937 H   0  0  0  0  0  0  0  0  0  0  0  0
  147.0708  137.6724  155.0626 H   0  0  0  0  0  0  0  0  0  0  0  0
  147.2114  135.2591  155.7019 H   0  0  0  0  0  0  0  0  0  0  0  0
  147.7844  134.9801  152.8905 H   0  0  0  0  0  0  0  0  0  0  0  0
  1  2  2  0  0  0  0
  2  3  1  0  0  0  0
  2  9  1  0  0  0  0
  3  4  1  0  0  0  0
  3 19  1  0  0  0  0
  3 20  1  0  0  0  0
  4  8  1  0  0  0  0
  4  5  1  0  0  0  0
  5  6  2  0  0  0  0
  5 21  1  0  0  0  0
  6  7  1  0  0  0  0
  6 22  1  0  0  0  0
  7  8  2  0  0  0  0
  7 23  1  0  0  0  0
  9 10  1  0  0  0  0
  9 24  1  0  0  0  0
 10 18  1  0  0  0  0
 10 11  1  0  0  0  0
 10 25  1  0  0  0  0
 11 12  1  0  0  0  0
 11 26  1  0  0  0  0
 11 27  1  0  0  0  0
 12 13  1  0  0  0  0
 12 28  1  0  0  0  0
 12 29  1  0  0  0  0
 13 18  1  0  0  0  0
 13 14  1  0  0  0  0
 13 39  1  0  0  0  0
 14 15  1  0  0  0  0
 14 30  1  0  0  0  0
 14 31  1  0  0  0  0
 15 16  1  0  0  0  0
 15 32  1  0  0  0  0
 15 33  1  0  0  0  0
 16 17  1  0  0  0  0
 16 34  1  0  0  0  0
 16 35  1  0  0  0  0
 17 18  1  0  0  0  0
 17 36  1  0  0  0  0
 17 37  1  0  0  0  0
 18 38  1  0  0  0  0
M  CHG  1  13   1
M  END
> <s_m_source_file>
AV-unprocessed.smi

> <i_m_source_file_index>
2171

> <i_lp_mmshare_version>
43012

> <i_f3d_flags>
0

> <s_epik_input>
bjFbY0hdW2NIXVtjSF1uMVtDSDJdQyg9TylbTkhdW0NASF0oW0NIMl1bQ0gyXTIpW0NAQEhdKE4yMylbQ0gyXVtDSDJdW0NIMl1bQ0gyXTM=

> <s_epik_cmdline>
J2VwaWtfcHl0aG9uJywgJy1waCcsICc3LjAnLCAnLXRuJywgJzgnLCAnLW1hJywgJzIwMCcsICctbWV0YWxfYmluZGluZycsICctaW1hZScsICc8aW5maWxlLm1hZT4nLCAnLW9tYWUnLCAnPG91dGZpbGUubWFlPic=

> <r_lp_tautomer_probability>
1

> <r_epik_Ionization_Penalty>
0.00204179

> <r_epik_Ionization_Penalty_Charging>
0.00203239

> <r_epik_Ionization_Penalty_Neutral>
9.40205e-06

> <r_epik_State_Penalty>
0.00138983

> <r_epik_Charging_Adjusted_Penalty>
0.00342221

> <i_epik_Tot_Q>
1

> <i_epik_Tot_abs_Q>
1

> <r_epik_Metal_State_Penalty>
-0

> <b_epik_Metal_Only>
0

> <s_lp_Force_Field>
OPLS_2005

> <r_lp_Energy>
41.8247

> <b_lp_Chiralities_Consistent>
1

> <s_lp_Variant>
AV-unprocessed.smi:2171-5

> <Gold.Version>
5.8.1

> <Gold.Id.Protein>
6NUR|6NUR_protein|mol2

> <Gold.PLP.Fitness>
39.0818

> <Gold.PLP.PLP>
-26.4548

> <Gold.PLP.part.hbond>
-3.9214

> <Gold.PLP.part.metal>
0.0000

> <Gold.PLP.part.buried>
1.3397

> <Gold.PLP.part.nonpolar>
-23.5385

> <Gold.PLP.part.repulsive>
0.0982

> <Gold.PLP.ligand.clash>
0.0000

> <Gold.PLP.ligand.torsion>
0.3246

> <Gold.PLP.Chemscore.Hbond>
3.0000

> <Gold.PLP.Chemscore.CHOScore>
1.4249

> <Gold.PLP.Chemscore.Metal>
0.0000

> <Gold.Chemscore.Hbonds>
donor molecule, donor type, donor heavy atom, donor atom, acceptor molecule, acceptor atom, score
      L1  H    13    39       P1  7948  1.98
      P1  H 10752 10763       L1     1  0.91
      L1  C     5    21       P1  7957  0.46
      L1  C     7    23       P1  8028  1.00

> <Gold.PLP.Chemscore.Internal.Correction>
0.0016

> <Gold.Rescore>
     Score         DG    S(hbond)    S(metal)    S(lipo)     H(rot)  DE(clash)    DE(int)     intcor
     14.06     -14.33       1.85        0.00      54.44       1.44       0.04       0.23       ----

> <Gold.Chemscore.Fitness>
14.0596

> <Gold.Chemscore.DG>
-14.3319

> <Gold.Chemscore.ZeroCoef>
-5.4800

> <Gold.Chemscore.Hbond>
1.8477

> <Gold.Chemscore.Metal>
0.0000

> <Gold.Chemscore.Lipo>
54.4415

> <Gold.Chemscore.Internal_Hbond>
0.0000

> <Gold.Chemscore.DEClash>
0.0399

> <Gold.Chemscore.DEInternal>
0.2325

> <Gold.Chemscore.Rot>
1.4410

> <Gold.Chemscore.Internal.Correction>
   9.000000E+99

> <Gold.Chemscore.Hbonds>
donor molecule, donor type, donor heavy atom, donor atom, acceptor molecule, acceptor atom, score
      L1  H    13    39       P1  7948  0.91
      P1  H 10752 10763       L1     1  0.53

> <Gold.Chemscore.Hbond.Weighted>
-6.1712

> <Gold.Chemscore.Metal.Weighted>
-0.0000

> <Gold.Chemscore.Lipo.Weighted>
-6.3697

> <Gold.Chemscore.Internal_Hbond.Weighted>
0.0000

> <Gold.Chemscore.DEClash.Weighted>
0.0399

> <Gold.Chemscore.DEInternal.Weighted>
0.2325

> <Gold.Chemscore.Rot.Weighted>
3.6889

> <Gold.Chemscore.Internal.Correction.Weighted>
   9.000000E+99

> <Gold.Protein.RotatedTorsions>
[ 6907 6896 6895 6894 ] final  -52.24 input  -60.11 | X-H torsion
[ 7974 7965 7964 7962 ] final  -67.69 input  175.53 | X-H torsion
[ 8008 7997 7996 7995 ] final  157.46 input   59.86 | X-H torsion
[ 10167 10162 10161 10158 ] final    5.34 input  -65.29 | X-H torsion
[ 10718 10713 10712 10709 ] final  -27.29 input   66.30 | X-H torsion
[ 10763 10752 10751 10750 ] final   85.71 input  -60.55 | X-H torsion
[ 11005 11000 10999 10996 ] final -153.67 input  -57.11 | X-H torsion

> <Gold.Protein.ActiveResidues>
 VAL166  LYS551  ARG553  GLY616  TRP617  ASP618  TYR619  PRO620  LYS621  CYS622 
 ASP623  PHE694  ASN695  SER759  ASP760  ASP761  ALA762  ILE779  LEU786  VAL792 
 PHE793  MET794  SER795  GLU796  ALA797  LYS798  CYS799  TRP800  GLU811  SER814 

> <Gold.Protein.RotatedAtoms>
  150.8536  134.7868  159.7027 H   0  0  0  0  0  0  0  0  0  0  0  0  # atno 6907 bound_to 6896
  152.4594  134.5215  159.9794 H   0  0  0  0  0  0  0  0  0  0  0  0  # atno 6908 bound_to 6896
  151.5332  133.3407  159.2957 H   0  0  0  0  0  0  0  0  0  0  0  0  # atno 6909 bound_to 6896
  145.7259  140.9018  143.0605 H   0  0  0  0  0  0  0  0  0  0  0  0  # atno 7974 bound_to 7965
  156.2363  140.1885  156.7111 H   0  0  0  0  0  0  0  0  0  0  0  0  # atno 8008 bound_to 7997
  154.6112  140.0622  156.9523 H   0  0  0  0  0  0  0  0  0  0  0  0  # atno 8009 bound_to 7997
  155.2013  140.3292  155.4345 H   0  0  0  0  0  0  0  0  0  0  0  0  # atno 8010 bound_to 7997
  140.6487  143.7599  150.7540 H   0  0  0  0  0  0  0  0  0  0  0  0  # atno 10167 bound_to 10162
  156.4401  130.4462  149.7058 H   0  0  0  0  0  0  0  0  0  0  0  0  # atno 10718 bound_to 10713
  153.1501  135.4607  154.9624 H   0  0  0  0  0  0  0  0  0  0  0  0  # atno 10763 bound_to 10752
  154.7818  135.3191  154.7976 H   0  0  0  0  0  0  0  0  0  0  0  0  # atno 10764 bound_to 10752
  153.8483  135.6924  153.4849 H   0  0  0  0  0  0  0  0  0  0  0  0  # atno 10765 bound_to 10752
  140.7057  134.3888  157.5204 H   0  0  0  0  0  0  0  0  0  0  0  0  # atno 11005 bound_to 11000
  144.6905  139.9266  143.7470 LP  0  0  0  0  0  0  0  0  0  0  0  0  # atno 17320 bound_to 7965
  146.0582  139.3577  143.0597 LP  0  0  0  0  0  0  0  0  0  0  0  0  # atno 17321 bound_to 7965
  140.1245  143.4582  152.2293 LP  0  0  0  0  0  0  0  0  0  0  0  0  # atno 17342 bound_to 10162
  139.5700  144.7457  151.3918 LP  0  0  0  0  0  0  0  0  0  0  0  0  # atno 17343 bound_to 10162
  156.3927  130.7635  151.2637 LP  0  0  0  0  0  0  0  0  0  0  0  0  # atno 17370 bound_to 10713
  157.7506  131.0263  150.3957 LP  0  0  0  0  0  0  0  0  0  0  0  0  # atno 17371 bound_to 10713
  139.8885  134.8855  156.2472 LP  0  0  0  0  0  0  0  0  0  0  0  0  # atno 17394 bound_to 11000
  141.0127  133.7086  156.1138 LP  0  0  0  0  0  0  0  0  0  0  0  0  # atno 17395 bound_to 11000

$$$$
