AV-unprocessed.smi:2520|AV-procd|sdf|9913|dock1
  -GOLD-   2272013553D 1   1.00000     0.00000
 Structure written by MMmdl.
 41 44  0  0  0  0  0  0  0  0  1 V2000
  145.9509  137.6472  154.3921 O   0  0  0  0  0  0  0  0  0  0  0  0
  146.7923  137.2193  153.6041 C   0  0  0  0  0  0  0  0  0  0  0  0
  147.9440  137.8875  153.3797 N   0  0  0  0  0  0  0  0  0  0  0  0
  148.4426  139.1099  153.9192 C   0  0  0  0  0  0  0  0  0  0  0  0
  147.4658  140.1073  154.1270 C   0  0  0  0  0  0  0  0  0  0  0  0
  147.8718  141.3411  154.6637 C   0  0  0  0  0  0  0  0  0  0  0  0
  149.2362  141.4959  154.9613 C   0  0  0  0  0  0  0  0  0  0  0  0
  150.1391  140.5145  154.7494 N   0  0  0  0  0  0  0  0  0  0  0  0
  149.7437  139.3439  154.2390 N   0  0  0  0  0  0  0  0  0  0  0  0
  146.6288  136.0766  152.9209 N   0  0  0  0  0  0  0  0  0  0  0  0
  145.4730  135.1824  153.0335 C   0  0  2  0  0  0  0  0  0  0  0  0
  145.4975  134.2928  154.2803 C   0  0  2  0  0  0  0  0  0  0  0  0
  146.1767  134.3371  155.6017 C   0  0  0  0  0  0  0  0  0  0  0  0
  146.5606  132.8358  155.6763 C   0  0  0  0  0  0  0  0  0  0  0  0
  146.2751  132.2857  154.3652 O   0  0  0  0  0  0  0  0  0  0  0  0
  146.4188  133.3873  153.4891 C   0  0  1  0  0  0  0  0  0  0  0  0
  145.6226  133.8285  152.2378 C   0  0  0  0  0  0  0  0  0  0  0  0
  144.3414  133.0342  151.9108 C   0  0  0  0  0  0  0  0  0  0  0  0
  144.3319  132.7323  150.4115 C   0  0  0  0  0  0  0  0  0  0  0  0
  145.7976  132.7814  150.0065 C   0  0  0  0  0  0  0  0  0  0  0  0
  146.3836  133.8656  150.9059 C   0  0  0  0  0  0  0  0  0  0  0  0
  148.5397  137.4676  152.6811 H   0  0  0  0  0  0  0  0  0  0  0  0
  146.4279  139.9346  153.8816 H   0  0  0  0  0  0  0  0  0  0  0  0
  147.1645  142.1375  154.8409 H   0  0  0  0  0  0  0  0  0  0  0  0
  149.6109  142.4200  155.3759 H   0  0  0  0  0  0  0  0  0  0  0  0
  147.3648  135.7945  152.2890 H   0  0  0  0  0  0  0  0  0  0  0  0
  144.5153  135.6770  152.8650 H   0  0  0  0  0  0  0  0  0  0  0  0
  144.5002  133.8591  154.4069 H   0  0  0  0  0  0  0  0  0  0  0  0
  147.0557  134.9828  155.5936 H   0  0  0  0  0  0  0  0  0  0  0  0
  145.5130  134.6436  156.4104 H   0  0  0  0  0  0  0  0  0  0  0  0
  147.6180  132.7178  155.9160 H   0  0  0  0  0  0  0  0  0  0  0  0
  145.9806  132.3035  156.4305 H   0  0  0  0  0  0  0  0  0  0  0  0
  147.4627  133.7171  153.4617 H   0  0  0  0  0  0  0  0  0  0  0  0
  144.3328  132.0929  152.4620 H   0  0  0  0  0  0  0  0  0  0  0  0
  143.4365  133.5706  152.1983 H   0  0  0  0  0  0  0  0  0  0  0  0
  143.8605  131.7778  150.1757 H   0  0  0  0  0  0  0  0  0  0  0  0
  143.7830  133.5142  149.8850 H   0  0  0  0  0  0  0  0  0  0  0  0
  146.2723  131.8240  150.2261 H   0  0  0  0  0  0  0  0  0  0  0  0
  145.9371  132.9909  148.9456 H   0  0  0  0  0  0  0  0  0  0  0  0
  146.2458  134.8353  150.4255 H   0  0  0  0  0  0  0  0  0  0  0  0
  147.4579  133.7296  151.0351 H   0  0  0  0  0  0  0  0  0  0  0  0
  1  2  2  0  0  0  0
  2  3  1  0  0  0  0
  2 10  1  0  0  0  0
  3  4  1  0  0  0  0
  3 22  1  0  0  0  0
  4  9  1  0  0  0  0
  4  5  2  0  0  0  0
  5  6  1  0  0  0  0
  5 23  1  0  0  0  0
  6  7  2  0  0  0  0
  6 24  1  0  0  0  0
  7  8  1  0  0  0  0
  7 25  1  0  0  0  0
  8  9  2  0  0  0  0
 10 11  1  0  0  0  0
 10 26  1  0  0  0  0
 11 17  1  0  0  0  0
 11 12  1  0  0  0  0
 11 27  1  0  0  0  0
 12 16  1  0  0  0  0
 12 13  1  0  0  0  0
 12 28  1  0  0  0  0
 13 14  1  0  0  0  0
 13 29  1  0  0  0  0
 13 30  1  0  0  0  0
 14 15  1  0  0  0  0
 14 31  1  0  0  0  0
 14 32  1  0  0  0  0
 15 16  1  0  0  0  0
 16 17  1  0  0  0  0
 16 33  1  0  0  0  0
 17 21  1  0  0  0  0
 17 18  1  0  0  0  0
 18 19  1  0  0  0  0
 18 34  1  0  0  0  0
 18 35  1  0  0  0  0
 19 20  1  0  0  0  0
 19 36  1  0  0  0  0
 19 37  1  0  0  0  0
 20 21  1  0  0  0  0
 20 38  1  0  0  0  0
 20 39  1  0  0  0  0
 21 40  1  0  0  0  0
 21 41  1  0  0  0  0
M  END
> <s_m_source_file>
AV-unprocessed.smi

> <i_m_source_file_index>
2520

> <i_lp_mmshare_version>
43012

> <i_f3d_flags>
0

> <s_epik_input>
bjFuW2NIXVtjSF1bY0hdYzFbTkhdQyg9TylbTkhdW0NAQEhdMltDQEBIXShbQ0gyXVtDSDJdTzMpW0NASF0zQzI0W0NIMl1bQ0gyXVtDSDJdW0NIMl00

> <s_epik_cmdline>
J2VwaWtfcHl0aG9uJywgJy1waCcsICc3LjAnLCAnLXRuJywgJzgnLCAnLW1hJywgJzIwMCcsICctbWV0YWxfYmluZGluZycsICctaW1hZScsICc8aW5maWxlLm1hZT4nLCAnLW9tYWUnLCAnPG91dGZpbGUubWFlPic=

> <r_lp_tautomer_probability>
1

> <r_epik_Ionization_Penalty>
0.00552561

> <r_epik_Ionization_Penalty_Charging>
0

> <r_epik_Ionization_Penalty_Neutral>
0.00552561

> <r_epik_State_Penalty>
-0

> <r_epik_Charging_Adjusted_Penalty>
0

> <i_epik_Tot_Q>
0

> <i_epik_Tot_abs_Q>
0

> <r_epik_Metal_State_Penalty>
-0

> <b_epik_Metal_Only>
0

> <s_lp_Force_Field>
OPLS_2005

> <r_lp_Energy>
86.2541

> <b_lp_Chiralities_Consistent>
1

> <s_lp_Variant>
AV-unprocessed.smi:2520-7

> <Gold.Version>
5.8.1

> <Gold.Id.Protein>
6NUR|6NUR_protein|mol2

> <Gold.PLP.Fitness>
36.9564

> <Gold.PLP.PLP>
-26.5774

> <Gold.PLP.part.hbond>
-2.8106

> <Gold.PLP.part.metal>
0.0000

> <Gold.PLP.part.buried>
-2.0999

> <Gold.PLP.part.nonpolar>
-21.5989

> <Gold.PLP.part.repulsive>
0.7695

> <Gold.PLP.ligand.clash>
0.0000

> <Gold.PLP.ligand.torsion>
0.4277

> <Gold.PLP.Chemscore.Hbond>
2.6536

> <Gold.PLP.Chemscore.CHOScore>
1.0000

> <Gold.PLP.Chemscore.Metal>
0.0000

> <Gold.Chemscore.Hbonds>
donor molecule, donor type, donor heavy atom, donor atom, acceptor molecule, acceptor atom, score
      L1  H     3    22       P1  7948  0.98
      L1  H    10    26       P1  7948  0.83
      P1  H  7989  7998       L1     8  0.84
      L1  C     7    25       P1  8028  1.00

> <Gold.PLP.Chemscore.Internal.Correction>
0.2735

> <Gold.Rescore>
     Score         DG    S(hbond)    S(metal)    S(lipo)     H(rot)  DE(clash)    DE(int)     intcor
     14.91     -16.64       1.92        0.00      62.44       1.00       0.05       1.68       ----

> <Gold.Chemscore.Fitness>
14.9129

> <Gold.Chemscore.DG>
-16.6426

> <Gold.Chemscore.ZeroCoef>
-5.4800

> <Gold.Chemscore.Hbond>
1.9213

> <Gold.Chemscore.Metal>
0.0000

> <Gold.Chemscore.Lipo>
62.4401

> <Gold.Chemscore.Internal_Hbond>
0.0000

> <Gold.Chemscore.DEClash>
0.0534

> <Gold.Chemscore.DEInternal>
1.6764

> <Gold.Chemscore.Rot>
1.0000

> <Gold.Chemscore.Internal.Correction>
   9.000000E+99

> <Gold.Chemscore.Hbonds>
donor molecule, donor type, donor heavy atom, donor atom, acceptor molecule, acceptor atom, score
      L1  H     3    22       P1  7948  0.88
      L1  H    10    26       P1  7948  0.81
      P1  H  7989  7998       L1     8  0.15

> <Gold.Chemscore.Hbond.Weighted>
-6.4171

> <Gold.Chemscore.Metal.Weighted>
-0.0000

> <Gold.Chemscore.Lipo.Weighted>
-7.3055

> <Gold.Chemscore.Internal_Hbond.Weighted>
0.0000

> <Gold.Chemscore.DEClash.Weighted>
0.0534

> <Gold.Chemscore.DEInternal.Weighted>
1.6764

> <Gold.Chemscore.Rot.Weighted>
2.5600

> <Gold.Chemscore.Internal.Correction.Weighted>
   9.000000E+99

> <Gold.Protein.RotatedTorsions>
[ 6907 6896 6895 6894 ] final  127.05 input  -60.11 | X-H torsion
[ 7974 7965 7964 7962 ] final   43.38 input  175.53 | X-H torsion
[ 8008 7997 7996 7995 ] final  142.41 input   59.86 | X-H torsion
[ 10167 10162 10161 10158 ] final -162.04 input  -65.29 | X-H torsion
[ 10718 10713 10712 10709 ] final -114.30 input   66.30 | X-H torsion
[ 10763 10752 10751 10750 ] final  -72.23 input  -60.55 | X-H torsion
[ 11005 11000 10999 10996 ] final  111.05 input  -57.11 | X-H torsion

> <Gold.Protein.ActiveResidues>
 VAL166  LYS551  ARG553  GLY616  TRP617  ASP618  TYR619  PRO620  LYS621  CYS622 
 ASP623  PHE694  ASN695  SER759  ASP760  ASP761  ALA762  ILE779  LEU786  VAL792 
 PHE793  MET794  SER795  GLU796  ALA797  LYS798  CYS799  TRP800  GLU811  SER814 

> <Gold.Protein.RotatedAtoms>
  152.3848  133.6595  159.6189 H   0  0  0  0  0  0  0  0  0  0  0  0  # atno 6907 bound_to 6896
  150.7770  133.9054  159.3362 H   0  0  0  0  0  0  0  0  0  0  0  0  # atno 6908 bound_to 6896
  151.6852  135.0956  160.0275 H   0  0  0  0  0  0  0  0  0  0  0  0  # atno 6909 bound_to 6896
  146.0660  139.5192  142.9628 H   0  0  0  0  0  0  0  0  0  0  0  0  # atno 7974 bound_to 7965
  156.2950  140.2289  156.4723 H   0  0  0  0  0  0  0  0  0  0  0  0  # atno 8008 bound_to 7997
  154.7924  140.0453  157.1232 H   0  0  0  0  0  0  0  0  0  0  0  0  # atno 8009 bound_to 7997
  154.9629  140.3056  155.5026 H   0  0  0  0  0  0  0  0  0  0  0  0  # atno 8010 bound_to 7997
  139.6421  144.0240  152.2100 H   0  0  0  0  0  0  0  0  0  0  0  0  # atno 10167 bound_to 10162
  156.0821  130.6019  150.8756 H   0  0  0  0  0  0  0  0  0  0  0  0  # atno 10718 bound_to 10713
  154.4429  135.5936  153.6141 H   0  0  0  0  0  0  0  0  0  0  0  0  # atno 10763 bound_to 10752
  152.9807  135.6002  154.3700 H   0  0  0  0  0  0  0  0  0  0  0  0  # atno 10764 bound_to 10752
  154.3552  135.2841  155.2329 H   0  0  0  0  0  0  0  0  0  0  0  0  # atno 10765 bound_to 10752
  139.8895  134.9499  156.6372 H   0  0  0  0  0  0  0  0  0  0  0  0  # atno 11005 bound_to 11000
  145.6477  141.0270  143.1777 LP  0  0  0  0  0  0  0  0  0  0  0  0  # atno 17320 bound_to 7965
  144.7202  139.8055  143.7384 LP  0  0  0  0  0  0  0  0  0  0  0  0  # atno 17321 bound_to 7965
  139.9932  144.6346  150.7795 LP  0  0  0  0  0  0  0  0  0  0  0  0  # atno 17342 bound_to 10162
  140.7496  143.2941  151.3250 LP  0  0  0  0  0  0  0  0  0  0  0  0  # atno 17343 bound_to 10162
  157.5942  131.0943  150.9069 LP  0  0  0  0  0  0  0  0  0  0  0  0  # atno 17370 bound_to 10713
  156.9239  130.5325  149.5279 LP  0  0  0  0  0  0  0  0  0  0  0  0  # atno 17371 bound_to 10713
  140.7621  133.8808  155.8426 LP  0  0  0  0  0  0  0  0  0  0  0  0  # atno 17394 bound_to 11000
  140.9913  134.1275  157.4405 LP  0  0  0  0  0  0  0  0  0  0  0  0  # atno 17395 bound_to 11000

$$$$
