AV-unprocessed.smi:1991|AV-procd|sdf|8067|dock10
  -GOLD-   2272010273D 1   1.00000     0.00000
 Structure written by MMmdl.
 44 45  0  0  0  0  0  0  0  0  1 V2000
  147.7515  135.1552  157.7434 C   0  0  0  0  0  0  0  0  0  0  0  0
  148.5072  135.9821  158.7945 C   0  0  2  0  0  0  0  0  0  0  0  0
  148.3445  135.3312  160.0520 O   0  0  0  0  0  0  0  0  0  0  0  0
  146.9984  135.1218  160.4674 C   0  0  0  0  0  0  0  0  0  0  0  0
  146.9898  134.5588  161.8936 C   0  0  0  0  0  0  0  0  0  0  0  0
  145.7307  134.3384  162.2703 F   0  0  0  0  0  0  0  0  0  0  0  0
  147.6584  133.4069  161.9385 F   0  0  0  0  0  0  0  0  0  0  0  0
  147.5417  135.4308  162.7369 F   0  0  0  0  0  0  0  0  0  0  0  0
  147.9806  137.4250  158.8621 C   0  0  0  0  0  0  0  0  0  0  0  0
  147.2937  137.7922  159.8155 O   0  0  0  0  0  0  0  0  0  0  0  0
  148.3204  138.2297  157.8428 N   0  0  0  0  0  0  0  0  0  0  0  0
  147.9314  139.6282  157.6920 C   0  0  0  0  0  0  0  0  0  0  0  0
  147.9544  140.0906  156.2375 C   0  0  0  0  0  0  0  0  0  0  0  0
  146.7814  140.6277  155.6630 C   0  0  0  0  0  0  0  0  0  0  0  0
  146.8008  141.0543  154.3230 C   0  0  0  0  0  0  0  0  0  0  0  0
  148.0020  140.9313  153.6023 C   0  0  0  0  0  0  0  0  0  0  0  0
  149.1333  140.4257  154.1351 N   0  0  0  0  0  0  0  0  0  0  0  0
  149.1179  140.0130  155.4262 C   0  0  0  0  0  0  0  0  0  0  0  0
  150.3141  139.4881  155.9401 N   0  0  0  0  0  0  0  0  0  0  0  0
  150.8467  140.2278  157.0773 C   0  0  0  0  0  0  0  0  0  0  0  0
  152.0664  139.4904  157.6560 C   0  0  0  0  0  0  0  0  0  0  0  0
  153.0363  139.2931  156.6308 O   0  0  0  0  0  0  0  0  0  0  0  0
  152.5289  138.5064  155.5564 C   0  0  0  0  0  0  0  0  0  0  0  0
  151.3209  139.2170  154.9221 C   0  0  0  0  0  0  0  0  0  0  0  0
  147.8120  135.6169  156.7570 H   0  0  0  0  0  0  0  0  0  0  0  0
  146.6968  135.0467  157.9997 H   0  0  0  0  0  0  0  0  0  0  0  0
  148.1737  134.1533  157.6641 H   0  0  0  0  0  0  0  0  0  0  0  0
  149.5647  135.9896  158.5234 H   0  0  0  0  0  0  0  0  0  0  0  0
  146.4492  136.0641  160.4415 H   0  0  0  0  0  0  0  0  0  0  0  0
  146.4875  134.4281  159.7988 H   0  0  0  0  0  0  0  0  0  0  0  0
  148.8907  137.8392  157.1070 H   0  0  0  0  0  0  0  0  0  0  0  0
  146.9316  139.8039  158.0915 H   0  0  0  0  0  0  0  0  0  0  0  0
  148.6001  140.2169  158.3180 H   0  0  0  0  0  0  0  0  0  0  0  0
  145.8735  140.7146  156.2412 H   0  0  0  0  0  0  0  0  0  0  0  0
  145.9166  141.4666  153.8600 H   0  0  0  0  0  0  0  0  0  0  0  0
  148.0568  141.2481  152.5713 H   0  0  0  0  0  0  0  0  0  0  0  0
  151.1359  141.2319  156.7635 H   0  0  0  0  0  0  0  0  0  0  0  0
  150.0760  140.3358  157.8416 H   0  0  0  0  0  0  0  0  0  0  0  0
  152.5127  140.0745  158.4609 H   0  0  0  0  0  0  0  0  0  0  0  0
  151.7735  138.5299  158.0832 H   0  0  0  0  0  0  0  0  0  0  0  0
  153.3156  138.3665  154.8150 H   0  0  0  0  0  0  0  0  0  0  0  0
  152.2509  137.5151  155.9178 H   0  0  0  0  0  0  0  0  0  0  0  0
  150.8924  138.5971  154.1336 H   0  0  0  0  0  0  0  0  0  0  0  0
  151.6407  140.1525  154.4611 H   0  0  0  0  0  0  0  0  0  0  0  0
  1  2  1  0  0  0  0
  1 25  1  0  0  0  0
  1 26  1  0  0  0  0
  1 27  1  0  0  0  0
  2  3  1  0  0  0  0
  2  9  1  0  0  0  0
  2 28  1  0  0  0  0
  3  4  1  0  0  0  0
  4  5  1  0  0  0  0
  4 29  1  0  0  0  0
  4 30  1  0  0  0  0
  5  6  1  0  0  0  0
  5  7  1  0  0  0  0
  5  8  1  0  0  0  0
  9 10  2  0  0  0  0
  9 11  1  0  0  0  0
 11 12  1  0  0  0  0
 11 31  1  0  0  0  0
 12 13  1  0  0  0  0
 12 32  1  0  0  0  0
 12 33  1  0  0  0  0
 13 18  1  0  0  0  0
 13 14  2  0  0  0  0
 14 15  1  0  0  0  0
 14 34  1  0  0  0  0
 15 16  2  0  0  0  0
 15 35  1  0  0  0  0
 16 17  1  0  0  0  0
 16 36  1  0  0  0  0
 17 18  2  0  0  0  0
 18 19  1  0  0  0  0
 19 24  1  0  0  0  0
 19 20  1  0  0  0  0
 20 21  1  0  0  0  0
 20 37  1  0  0  0  0
 20 38  1  0  0  0  0
 21 22  1  0  0  0  0
 21 39  1  0  0  0  0
 21 40  1  0  0  0  0
 22 23  1  0  0  0  0
 23 24  1  0  0  0  0
 23 41  1  0  0  0  0
 23 42  1  0  0  0  0
 24 43  1  0  0  0  0
 24 44  1  0  0  0  0
M  END
> <s_m_source_file>
AV-unprocessed.smi

> <i_m_source_file_index>
1991

> <i_lp_mmshare_version>
43012

> <i_f3d_flags>
0

> <s_epik_input>
RkMoRikoRilbQ0gyXU9bQ0BASF0oW0NIM10pQyg9TylbTkhdW0NIMl1jMVtjSF1bY0hdW2NIXW5jMU4yW0NIMl1bQ0gyXU9bQ0gyXVtDSDJdMg==

> <s_epik_cmdline>
J2VwaWtfcHl0aG9uJywgJy1waCcsICc3LjAnLCAnLXRuJywgJzgnLCAnLW1hJywgJzIwMCcsICctbWV0YWxfYmluZGluZycsICctaW1hZScsICc8aW5maWxlLm1hZT4nLCAnLW9tYWUnLCAnPG91dGZpbGUubWFlPic=

> <r_lp_tautomer_probability>
1

> <r_epik_Ionization_Penalty>
0.00436412

> <r_epik_Ionization_Penalty_Charging>
0

> <r_epik_Ionization_Penalty_Neutral>
0.00436412

> <r_epik_State_Penalty>
0.00314317

> <r_epik_Charging_Adjusted_Penalty>
0.00314317

> <i_epik_Tot_Q>
0

> <i_epik_Tot_abs_Q>
0

> <r_epik_Metal_State_Penalty>
-0

> <b_epik_Metal_Only>
0

> <s_lp_Force_Field>
OPLS_2005

> <r_lp_Energy>
21.8151

> <b_lp_Chiralities_Consistent>
1

> <s_lp_Variant>
AV-unprocessed.smi:1991-1

> <Gold.Version>
5.8.1

> <Gold.Id.Protein>
6NUR|6NUR_protein|mol2

> <Gold.PLP.Fitness>
41.3834

> <Gold.PLP.PLP>
-34.7308

> <Gold.PLP.part.hbond>
-1.9569

> <Gold.PLP.part.metal>
0.0000

> <Gold.PLP.part.buried>
-4.3511

> <Gold.PLP.part.nonpolar>
-29.5543

> <Gold.PLP.part.repulsive>
0.8081

> <Gold.PLP.ligand.clash>
0.0000

> <Gold.PLP.ligand.torsion>
0.6357

> <Gold.PLP.Chemscore.Hbond>
1.8160

> <Gold.PLP.Chemscore.CHOScore>
0.7538

> <Gold.PLP.Chemscore.Metal>
0.0000

> <Gold.Chemscore.Hbonds>
donor molecule, donor type, donor heavy atom, donor atom, acceptor molecule, acceptor atom, score
      P1  H  6934  6947       L1    10  0.82
      P1  H  7997  8008       L1    22  1.00
      L1  C    16    36       P1  7957  0.75

> <Gold.PLP.Chemscore.Internal.Correction>
0.2145

> <Gold.Rescore>
     Score         DG    S(hbond)    S(metal)    S(lipo)     H(rot)  DE(clash)    DE(int)     intcor
     10.27     -12.12       1.93        0.00      56.20       2.49       0.00       1.84       ----

> <Gold.Chemscore.Fitness>
10.2728

> <Gold.Chemscore.DG>
-12.1183

> <Gold.Chemscore.ZeroCoef>
-5.4800

> <Gold.Chemscore.Hbond>
1.9274

> <Gold.Chemscore.Metal>
0.0000

> <Gold.Chemscore.Lipo>
56.1957

> <Gold.Chemscore.Internal_Hbond>
0.0000

> <Gold.Chemscore.DEClash>
0.0009

> <Gold.Chemscore.DEInternal>
1.8446

> <Gold.Chemscore.Rot>
2.4899

> <Gold.Chemscore.Internal.Correction>
   9.000000E+99

> <Gold.Chemscore.Hbonds>
donor molecule, donor type, donor heavy atom, donor atom, acceptor molecule, acceptor atom, score
      P1  H  6934  6947       L1    10  0.81
      P1  H  7997  8008       L1    22  0.88

> <Gold.Chemscore.Hbond.Weighted>
-6.4376

> <Gold.Chemscore.Metal.Weighted>
-0.0000

> <Gold.Chemscore.Lipo.Weighted>
-6.5749

> <Gold.Chemscore.Internal_Hbond.Weighted>
0.0000

> <Gold.Chemscore.DEClash.Weighted>
0.0009

> <Gold.Chemscore.DEInternal.Weighted>
1.8446

> <Gold.Chemscore.Rot.Weighted>
6.3741

> <Gold.Chemscore.Internal.Correction.Weighted>
   9.000000E+99

> <Gold.Protein.RotatedTorsions>
[ 6907 6896 6895 6894 ] final   30.02 input  -60.11 | X-H torsion
[ 7974 7965 7964 7962 ] final  -63.65 input  175.53 | X-H torsion
[ 8008 7997 7996 7995 ] final  -38.90 input   59.86 | X-H torsion
[ 10167 10162 10161 10158 ] final  131.26 input  -65.29 | X-H torsion
[ 10718 10713 10712 10709 ] final -141.40 input   66.30 | X-H torsion
[ 10763 10752 10751 10750 ] final    1.69 input  -60.55 | X-H torsion
[ 11005 11000 10999 10996 ] final  165.99 input  -57.11 | X-H torsion

> <Gold.Protein.ActiveResidues>
 VAL166  LYS551  ARG553  GLY616  TRP617  ASP618  TYR619  PRO620  LYS621  CYS622 
 ASP623  PHE694  ASN695  SER759  ASP760  ASP761  ALA762  ILE779  LEU786  VAL792 
 PHE793  MET794  SER795  GLU796  ALA797  LYS798  CYS799  TRP800  GLU811  SER814 

> <Gold.Protein.RotatedAtoms>
  152.0399  134.9717  160.0573 H   0  0  0  0  0  0  0  0  0  0  0  0  # atno 6907 bound_to 6896
  152.1160  133.4322  159.4661 H   0  0  0  0  0  0  0  0  0  0  0  0  # atno 6908 bound_to 6896
  150.6846  134.2510  159.4554 H   0  0  0  0  0  0  0  0  0  0  0  0  # atno 6909 bound_to 6896
  145.7764  140.8785  143.0353 H   0  0  0  0  0  0  0  0  0  0  0  0  # atno 7974 bound_to 7965
  154.4030  140.1566  156.2775 H   0  0  0  0  0  0  0  0  0  0  0  0  # atno 8008 bound_to 7997
  155.8899  140.3439  155.5926 H   0  0  0  0  0  0  0  0  0  0  0  0  # atno 8009 bound_to 7997
  155.7570  140.0812  157.2164 H   0  0  0  0  0  0  0  0  0  0  0  0  # atno 8010 bound_to 7997
  139.5392  144.6714  151.4682 H   0  0  0  0  0  0  0  0  0  0  0  0  # atno 10167 bound_to 10162
  156.3336  130.7599  151.1722 H   0  0  0  0  0  0  0  0  0  0  0  0  # atno 10718 bound_to 10713
  153.3049  135.6958  153.7168 H   0  0  0  0  0  0  0  0  0  0  0  0  # atno 10763 bound_to 10752
  153.6068  135.3452  155.2965 H   0  0  0  0  0  0  0  0  0  0  0  0  # atno 10764 bound_to 10752
  154.8560  135.4354  154.2171 H   0  0  0  0  0  0  0  0  0  0  0  0  # atno 10765 bound_to 10752
  140.2618  134.7896  157.3597 H   0  0  0  0  0  0  0  0  0  0  0  0  # atno 11005 bound_to 11000
  144.6804  139.9928  143.7484 LP  0  0  0  0  0  0  0  0  0  0  0  0  # atno 17320 bound_to 7965
  146.0118  139.3176  143.0866 LP  0  0  0  0  0  0  0  0  0  0  0  0  # atno 17321 bound_to 7965
  140.6614  143.8491  150.6892 LP  0  0  0  0  0  0  0  0  0  0  0  0  # atno 17342 bound_to 10162
  140.1886  143.4055  152.1880 LP  0  0  0  0  0  0  0  0  0  0  0  0  # atno 17343 bound_to 10162
  157.7435  131.0474  150.4944 LP  0  0  0  0  0  0  0  0  0  0  0  0  # atno 17370 bound_to 10713
  156.5113  130.4140  149.6299 LP  0  0  0  0  0  0  0  0  0  0  0  0  # atno 17371 bound_to 10713
  140.1457  134.4914  155.7998 LP  0  0  0  0  0  0  0  0  0  0  0  0  # atno 17394 bound_to 11000
  141.2189  133.6842  156.7290 LP  0  0  0  0  0  0  0  0  0  0  0  0  # atno 17395 bound_to 11000

$$$$
