AV-unprocessed.smi:1777|AV-procd|sdf|7178|dock1
  -GOLD-   22720 8413D 1   1.00000     0.00000
 Structure written by MMmdl.
 38 39  0  0  0  0  0  0  0  0  2 V2000
  145.2648  138.2855  153.7549 O   0  0  0  0  0  0  0  0  0  0  0  0
  146.2354  137.7775  153.1938 C   0  0  0  0  0  0  0  0  0  0  0  0
  146.2019  136.5794  152.5925 N   0  0  0  0  0  0  0  0  0  0  0  0
  145.0317  135.7079  152.4918 C   0  0  0  0  0  0  0  0  0  0  0  0
  145.1023  134.7226  151.2983 C   0  0  0  0  0  0  0  0  0  0  0  0
  145.1180  135.5115  150.1217 O   0  0  0  0  0  0  0  0  0  0  0  0
  146.3593  133.8150  151.3216 C   0  0  0  0  0  0  0  0  0  0  0  0
  146.3523  132.7456  150.2140 C   0  0  0  0  0  0  0  0  0  0  0  0
  145.0701  131.9035  150.2535 C   0  0  0  0  0  0  0  0  0  0  0  0
  143.8266  132.7970  150.1542 C   0  0  0  0  0  0  0  0  0  0  0  0
  143.8160  133.8621  151.2649 C   0  0  0  0  0  0  0  0  0  0  0  0
  147.4617  138.3237  153.1231 N   0  0  0  0  0  0  0  0  0  0  0  0
  147.8939  139.5874  153.6098 C   0  0  0  0  0  0  0  0  0  0  0  0
  146.9940  140.6717  153.5095 C   0  0  0  0  0  0  0  0  0  0  0  0
  147.3747  141.9390  153.9962 C   0  0  0  0  0  0  0  0  0  0  0  0
  148.5894  142.1047  154.5625 N   0  3  0  0  0  0  0  0  0  0  0  0
  149.4772  141.0959  154.6943 C   0  0  0  0  0  0  0  0  0  0  0  0
  149.1525  139.8064  154.2262 C   0  0  0  0  0  0  0  0  0  0  0  0
  147.0517  136.2338  152.1713 H   0  0  0  0  0  0  0  0  0  0  0  0
  144.9053  135.1496  153.4211 H   0  0  0  0  0  0  0  0  0  0  0  0
  144.1445  136.3371  152.4092 H   0  0  0  0  0  0  0  0  0  0  0  0
  145.4340  134.9775  149.4088 H   0  0  0  0  0  0  0  0  0  0  0  0
  147.2676  134.4113  151.2298 H   0  0  0  0  0  0  0  0  0  0  0  0
  146.4202  133.3154  152.2893 H   0  0  0  0  0  0  0  0  0  0  0  0
  146.4458  133.2236  149.2381 H   0  0  0  0  0  0  0  0  0  0  0  0
  147.2228  132.0978  150.3215 H   0  0  0  0  0  0  0  0  0  0  0  0
  145.0747  131.1787  149.4388 H   0  0  0  0  0  0  0  0  0  0  0  0
  145.0367  131.3287  151.1799 H   0  0  0  0  0  0  0  0  0  0  0  0
  143.7968  133.2788  149.1762 H   0  0  0  0  0  0  0  0  0  0  0  0
  142.9261  132.1860  150.2211 H   0  0  0  0  0  0  0  0  0  0  0  0
  143.6996  133.3554  152.2241 H   0  0  0  0  0  0  0  0  0  0  0  0
  142.9370  134.4989  151.1545 H   0  0  0  0  0  0  0  0  0  0  0  0
  148.1817  137.7443  152.7167 H   0  0  0  0  0  0  0  0  0  0  0  0
  146.0212  140.5385  153.0580 H   0  0  0  0  0  0  0  0  0  0  0  0
  146.7486  142.8181  153.9515 H   0  0  0  0  0  0  0  0  0  0  0  0
  150.4123  141.3467  155.1739 H   0  0  0  0  0  0  0  0  0  0  0  0
  149.8683  139.0099  154.3605 H   0  0  0  0  0  0  0  0  0  0  0  0
  148.8453  143.0292  154.9104 H   0  0  0  0  0  0  0  0  0  0  0  0
  1  2  2  0  0  0  0
  2  3  1  0  0  0  0
  2 12  1  0  0  0  0
  3  4  1  0  0  0  0
  3 19  1  0  0  0  0
  4  5  1  0  0  0  0
  4 20  1  0  0  0  0
  4 21  1  0  0  0  0
  5 11  1  0  0  0  0
  5  6  1  0  0  0  0
  5  7  1  0  0  0  0
  6 22  1  0  0  0  0
  7  8  1  0  0  0  0
  7 23  1  0  0  0  0
  7 24  1  0  0  0  0
  8  9  1  0  0  0  0
  8 25  1  0  0  0  0
  8 26  1  0  0  0  0
  9 10  1  0  0  0  0
  9 27  1  0  0  0  0
  9 28  1  0  0  0  0
 10 11  1  0  0  0  0
 10 29  1  0  0  0  0
 10 30  1  0  0  0  0
 11 31  1  0  0  0  0
 11 32  1  0  0  0  0
 12 13  1  0  0  0  0
 12 33  1  0  0  0  0
 13 18  1  0  0  0  0
 13 14  2  0  0  0  0
 14 15  1  0  0  0  0
 14 34  1  0  0  0  0
 15 16  2  0  0  0  0
 15 35  1  0  0  0  0
 16 17  1  0  0  0  0
 16 38  1  0  0  0  0
 17 18  2  0  0  0  0
 17 36  1  0  0  0  0
 18 37  1  0  0  0  0
M  CHG  1  16   1
M  END
> <s_m_source_file>
AV-unprocessed.smi

> <i_m_source_file_index>
1777

> <i_lp_mmshare_version>
43012

> <i_f3d_flags>
0

> <s_epik_input>
W2NIXTFbY0hdbltjSF1bY0hdYzFbTkhdQyg9TylbTkhdW0NIMl1DMihbT0hdKVtDSDJdW0NIMl1bQ0gyXVtDSDJdW0NIMl0y

> <s_epik_cmdline>
J2VwaWtfcHl0aG9uJywgJy1waCcsICc3LjAnLCAnLXRuJywgJzgnLCAnLW1hJywgJzIwMCcsICctbWV0YWxfYmluZGluZycsICctaW1hZScsICc8aW5maWxlLm1hZT4nLCAnLW9tYWUnLCAnPG91dGZpbGUubWFlPic=

> <r_epik_Ionization_Penalty>
0.972463

> <r_epik_Ionization_Penalty_Charging>
0.972441

> <r_epik_Ionization_Penalty_Neutral>
2.25472e-05

> <r_epik_State_Penalty>
1.01855

> <r_epik_Charging_Adjusted_Penalty>
1.99099

> <i_epik_Tot_Q>
1

> <i_epik_Tot_abs_Q>
1

> <r_epik_Metal_State_Penalty>
1.12508

> <b_epik_Metal_Only>
0

> <s_lp_Force_Field>
OPLS_2005

> <r_lp_Energy>
24.5751

> <b_lp_Chiralities_Consistent>
1

> <s_lp_Variant>
AV-unprocessed.smi:1777-2

> <Gold.Version>
5.8.1

> <Gold.Id.Protein>
6NUR|6NUR_protein|mol2

> <Gold.PLP.Fitness>
49.5579

> <Gold.PLP.PLP>
-35.4743

> <Gold.PLP.part.hbond>
-4.0000

> <Gold.PLP.part.metal>
0.0000

> <Gold.PLP.part.buried>
-3.6497

> <Gold.PLP.part.nonpolar>
-28.4791

> <Gold.PLP.part.repulsive>
0.6122

> <Gold.PLP.ligand.clash>
0.0000

> <Gold.PLP.ligand.torsion>
0.4617

> <Gold.PLP.Chemscore.Hbond>
5.0000

> <Gold.PLP.Chemscore.CHOScore>
0.0000

> <Gold.PLP.Chemscore.Metal>
0.0000

> <Gold.Chemscore.Hbonds>
donor molecule, donor type, donor heavy atom, donor atom, acceptor molecule, acceptor atom, score
      L1  H     3    19       P1  7948  1.00
      L1  H     6    22       P1  7921  0.99
      L1  H    12    33       P1  7948  1.00
      L1  H    16    38       P1  8028  2.00

> <Gold.PLP.Chemscore.Internal.Correction>
0.0071

> <Gold.Rescore>
     Score         DG    S(hbond)    S(metal)    S(lipo)     H(rot)  DE(clash)    DE(int)     intcor
     22.35     -24.12       3.93        0.00      85.86       1.77       0.14       1.63       ----

> <Gold.Chemscore.Fitness>
22.3514

> <Gold.Chemscore.DG>
-24.1249

> <Gold.Chemscore.ZeroCoef>
-5.4800

> <Gold.Chemscore.Hbond>
3.9284

> <Gold.Chemscore.Metal>
0.0000

> <Gold.Chemscore.Lipo>
85.8645

> <Gold.Chemscore.Internal_Hbond>
0.0000

> <Gold.Chemscore.DEClash>
0.1389

> <Gold.Chemscore.DEInternal>
1.6346

> <Gold.Chemscore.Rot>
1.7664

> <Gold.Chemscore.Internal.Correction>
   9.000000E+99

> <Gold.Chemscore.Hbonds>
donor molecule, donor type, donor heavy atom, donor atom, acceptor molecule, acceptor atom, score
      L1  H     3    19       P1  7948  0.98
      L1  H     6    22       P1  7921  0.94
      L1  H    12    33       P1  7948  0.99
      L1  H    16    38       P1  8028  1.00

> <Gold.Chemscore.Hbond.Weighted>
-13.1207

> <Gold.Chemscore.Metal.Weighted>
-0.0000

> <Gold.Chemscore.Lipo.Weighted>
-10.0461

> <Gold.Chemscore.Internal_Hbond.Weighted>
0.0000

> <Gold.Chemscore.DEClash.Weighted>
0.1389

> <Gold.Chemscore.DEInternal.Weighted>
1.6346

> <Gold.Chemscore.Rot.Weighted>
4.5219

> <Gold.Chemscore.Internal.Correction.Weighted>
   9.000000E+99

> <Gold.Protein.RotatedTorsions>
[ 6907 6896 6895 6894 ] final  152.60 input  -60.11 | X-H torsion
[ 7974 7965 7964 7962 ] final  100.84 input  175.53 | X-H torsion
[ 8008 7997 7996 7995 ] final -137.55 input   59.86 | X-H torsion
[ 10167 10162 10161 10158 ] final -166.65 input  -65.29 | X-H torsion
[ 10718 10713 10712 10709 ] final   36.17 input   66.30 | X-H torsion
[ 10763 10752 10751 10750 ] final  -49.95 input  -60.55 | X-H torsion
[ 11005 11000 10999 10996 ] final  156.12 input  -57.11 | X-H torsion

> <Gold.Protein.ActiveResidues>
 VAL166  LYS551  ARG553  GLY616  TRP617  ASP618  TYR619  PRO620  LYS621  CYS622 
 ASP623  PHE694  ASN695  SER759  ASP760  ASP761  ALA762  ILE779  LEU786  VAL792 
 PHE793  MET794  SER795  GLU796  ALA797  LYS798  CYS799  TRP800  GLU811  SER814 

> <Gold.Protein.RotatedAtoms>
  152.0845  133.4169  159.4515 H   0  0  0  0  0  0  0  0  0  0  0  0  # atno 6907 bound_to 6896
  150.6862  134.2944  159.4689 H   0  0  0  0  0  0  0  0  0  0  0  0  # atno 6908 bound_to 6896
  152.0789  134.9484  160.0624 H   0  0  0  0  0  0  0  0  0  0  0  0  # atno 6909 bound_to 6896
  145.3802  139.2381  143.3408 H   0  0  0  0  0  0  0  0  0  0  0  0  # atno 7974 bound_to 7965
  155.4137  140.0514  157.3030 H   0  0  0  0  0  0  0  0  0  0  0  0  # atno 8008 bound_to 7997
  154.4934  140.2129  155.9458 H   0  0  0  0  0  0  0  0  0  0  0  0  # atno 8009 bound_to 7997
  156.1373  140.3161  155.8446 H   0  0  0  0  0  0  0  0  0  0  0  0  # atno 8010 bound_to 7997
  139.6101  144.0832  152.1833 H   0  0  0  0  0  0  0  0  0  0  0  0  # atno 10167 bound_to 10162
  157.3317  130.7501  149.6852 H   0  0  0  0  0  0  0  0  0  0  0  0  # atno 10718 bound_to 10713
  154.1024  135.6561  153.4870 H   0  0  0  0  0  0  0  0  0  0  0  0  # atno 10763 bound_to 10752
  153.0284  135.5228  154.7274 H   0  0  0  0  0  0  0  0  0  0  0  0  # atno 10764 bound_to 10752
  154.6429  135.2991  155.0050 H   0  0  0  0  0  0  0  0  0  0  0  0  # atno 10765 bound_to 10752
  140.1645  134.8586  157.2615 H   0  0  0  0  0  0  0  0  0  0  0  0  # atno 11005 bound_to 11000
  146.2845  140.4468  142.8763 LP  0  0  0  0  0  0  0  0  0  0  0  0  # atno 17320 bound_to 7965
  144.8513  140.7005  143.6166 LP  0  0  0  0  0  0  0  0  0  0  0  0  # atno 17321 bound_to 7965
  140.0449  144.5978  150.7381 LP  0  0  0  0  0  0  0  0  0  0  0  0  # atno 17342 bound_to 10162
  140.7313  143.2692  151.3942 LP  0  0  0  0  0  0  0  0  0  0  0  0  # atno 17343 bound_to 10162
  155.9696  130.4193  150.4370 LP  0  0  0  0  0  0  0  0  0  0  0  0  # atno 17370 bound_to 10713
  157.2403  131.0524  151.2440 LP  0  0  0  0  0  0  0  0  0  0  0  0  # atno 17371 bound_to 10713
  140.2450  134.3750  155.7465 LP  0  0  0  0  0  0  0  0  0  0  0  0  # atno 17394 bound_to 11000
  141.2212  133.7286  156.8848 LP  0  0  0  0  0  0  0  0  0  0  0  0  # atno 17395 bound_to 11000

$$$$
