AV-unprocessed.smi:3057|AV-procd|sdf|11665|dock10
  -GOLD-   2272017 73D 1   1.00000     0.00000
 Structure written by MMmdl.
 41 43  0  0  0  0  0  0  0  0  2 V2000
  143.8801  141.0547  160.8186 C   0  0  0  0  0  0  0  0  0  0  0  0
  144.2715  142.5418  160.9171 C   0  0  1  0  0  0  0  0  0  0  0  0
  144.0640  143.0859  162.3421 C   0  0  0  0  0  0  0  0  0  0  0  0
  145.4428  142.9590  163.0073 C   0  0  0  0  0  0  0  0  0  0  0  0
  146.3819  142.9433  161.8121 C   0  0  0  0  0  0  0  0  0  0  0  0
  147.5893  143.1632  161.8965 O   0  0  0  0  0  0  0  0  0  0  0  0
  145.6910  142.7286  160.6852 N   0  0  0  0  0  0  0  0  0  0  0  0
  146.1379  142.9949  159.3156 C   0  0  1  0  0  0  0  0  0  0  0  0
  146.9783  141.8223  158.7823 C   0  0  0  0  0  0  0  0  0  0  0  0
  146.6528  140.6560  159.0079 O   0  0  0  0  0  0  0  0  0  0  0  0
  148.0610  142.1542  158.0643 N   0  0  0  0  0  0  0  0  0  0  0  0
  148.9968  141.2010  157.4828 C   0  0  0  0  0  0  0  0  0  0  0  0
  150.1253  141.9362  156.7466 C   0  0  0  0  0  0  0  0  0  0  0  0
  150.9544  142.7989  157.6781 C   0  0  0  0  0  0  0  0  0  0  0  0
  151.8526  142.2462  158.6170 C   0  0  0  0  0  0  0  0  0  0  0  0
  152.5918  143.1089  159.4534 C   0  0  0  0  0  0  0  0  0  0  0  0
  152.4170  144.5034  159.3344 C   0  0  0  0  0  0  0  0  0  0  0  0
  151.5056  145.0010  158.3808 C   0  0  0  0  0  0  0  0  0  0  0  0
  150.8167  144.1425  157.5974 N   0  3  0  0  0  0  0  0  0  0  0  0
  144.8565  143.1630  158.4615 C   0  0  0  0  0  0  0  0  0  0  0  0
  143.4982  143.5129  159.6128 S   0  0  0  0  0  0  0  0  0  0  0  0
  144.4354  140.4473  161.5339 H   0  0  0  0  0  0  0  0  0  0  0  0
  144.0719  140.6499  159.8249 H   0  0  0  0  0  0  0  0  0  0  0  0
  142.8181  140.9176  161.0241 H   0  0  0  0  0  0  0  0  0  0  0  0
  143.7709  144.1365  162.3137 H   0  0  0  0  0  0  0  0  0  0  0  0
  143.2896  142.5481  162.8903 H   0  0  0  0  0  0  0  0  0  0  0  0
  145.6552  143.7872  163.6839 H   0  0  0  0  0  0  0  0  0  0  0  0
  145.5386  142.0201  163.5536 H   0  0  0  0  0  0  0  0  0  0  0  0
  146.7147  143.9219  159.3050 H   0  0  0  0  0  0  0  0  0  0  0  0
  148.2543  143.1350  157.9215 H   0  0  0  0  0  0  0  0  0  0  0  0
  149.4212  140.5659  158.2625 H   0  0  0  0  0  0  0  0  0  0  0  0
  148.4562  140.5493  156.7955 H   0  0  0  0  0  0  0  0  0  0  0  0
  150.7777  141.2178  156.2483 H   0  0  0  0  0  0  0  0  0  0  0  0
  149.7086  142.5695  155.9618 H   0  0  0  0  0  0  0  0  0  0  0  0
  151.9759  141.1757  158.6973 H   0  0  0  0  0  0  0  0  0  0  0  0
  153.2844  142.7058  160.1777 H   0  0  0  0  0  0  0  0  0  0  0  0
  152.9733  145.1810  159.9656 H   0  0  0  0  0  0  0  0  0  0  0  0
  151.3083  146.0512  158.2219 H   0  0  0  0  0  0  0  0  0  0  0  0
  144.9547  143.9627  157.7271 H   0  0  0  0  0  0  0  0  0  0  0  0
  144.6001  142.2502  157.9212 H   0  0  0  0  0  0  0  0  0  0  0  0
  150.1624  144.5247  156.9139 H   0  0  0  0  0  0  0  0  0  0  0  0
  1  2  1  0  0  0  0
  1 22  1  0  0  0  0
  1 23  1  0  0  0  0
  1 24  1  0  0  0  0
  2  7  1  0  0  0  0
  2 21  1  0  0  0  0
  2  3  1  0  0  0  0
  3  4  1  0  0  0  0
  3 25  1  0  0  0  0
  3 26  1  0  0  0  0
  4  5  1  0  0  0  0
  4 27  1  0  0  0  0
  4 28  1  0  0  0  0
  5  6  2  0  0  0  0
  5  7  1  0  0  0  0
  7  8  1  0  0  0  0
  8  9  1  0  0  0  0
  8 20  1  0  0  0  0
  8 29  1  0  0  0  0
  9 10  2  0  0  0  0
  9 11  1  0  0  0  0
 11 12  1  0  0  0  0
 11 30  1  0  0  0  0
 12 13  1  0  0  0  0
 12 31  1  0  0  0  0
 12 32  1  0  0  0  0
 13 14  1  0  0  0  0
 13 33  1  0  0  0  0
 13 34  1  0  0  0  0
 14 19  1  0  0  0  0
 14 15  2  0  0  0  0
 15 16  1  0  0  0  0
 15 35  1  0  0  0  0
 16 17  2  0  0  0  0
 16 36  1  0  0  0  0
 17 18  1  0  0  0  0
 17 37  1  0  0  0  0
 18 19  2  0  0  0  0
 18 38  1  0  0  0  0
 19 41  1  0  0  0  0
 20 21  1  0  0  0  0
 20 39  1  0  0  0  0
 20 40  1  0  0  0  0
M  CHG  1  19   1
M  END
> <s_m_source_file>
AV-unprocessed.smi

> <i_m_source_file_index>
3057

> <i_lp_mmshare_version>
43012

> <i_f3d_flags>
0

> <s_epik_input>
W0NIMl0xW0NIMl1DKD1PKU4oW0NAQF0xMltDSDNdKVtDQEhdKFtDSDJdUzIpQyg9TylbTkhdW0NIMl1bQ0gyXWMzW2NIXVtjSF1bY0hdW2NIXW4z

> <s_epik_cmdline>
J2VwaWtfcHl0aG9uJywgJy1waCcsICc3LjAnLCAnLXRuJywgJzgnLCAnLW1hJywgJzIwMCcsICctbWV0YWxfYmluZGluZycsICctaW1hZScsICc8aW5maWxlLm1hZT4nLCAnLW9tYWUnLCAnPG91dGZpbGUubWFlPic=

> <r_epik_Ionization_Penalty>
1.8888

> <r_epik_Ionization_Penalty_Charging>
1.8888

> <r_epik_Ionization_Penalty_Neutral>
1.66252e-07

> <r_epik_State_Penalty>
2.00916

> <r_epik_Charging_Adjusted_Penalty>
3.89796

> <i_epik_Tot_Q>
1

> <i_epik_Tot_abs_Q>
1

> <r_epik_Metal_State_Penalty>
2.03343

> <b_epik_Metal_Only>
0

> <s_lp_Force_Field>
OPLS_2005

> <r_lp_Energy>
32.3191

> <b_lp_Chiralities_Consistent>
1

> <s_lp_Variant>
AV-unprocessed.smi:3057-5

> <Gold.Version>
5.8.1

> <Gold.Id.Protein>
6NUR|6NUR_protein|mol2

> <Gold.PLP.Fitness>
47.6188

> <Gold.PLP.PLP>
-38.6109

> <Gold.PLP.part.hbond>
-3.2522

> <Gold.PLP.part.metal>
0.0000

> <Gold.PLP.part.buried>
-7.6973

> <Gold.PLP.part.nonpolar>
-29.0708

> <Gold.PLP.part.repulsive>
0.2043

> <Gold.PLP.ligand.clash>
0.0000

> <Gold.PLP.ligand.torsion>
0.6120

> <Gold.PLP.Chemscore.Hbond>
3.4030

> <Gold.PLP.Chemscore.CHOScore>
0.0000

> <Gold.PLP.Chemscore.Metal>
0.0000

> <Gold.Chemscore.Hbonds>
donor molecule, donor type, donor heavy atom, donor atom, acceptor molecule, acceptor atom, score
      L1  H    19    41       P1  8028  2.00
      P1  H  6933  6944       L1     6  0.30
      P1  H  6934  6946       L1    10  0.14

> <Gold.PLP.Chemscore.Internal.Correction>
0.0230

> <Gold.Rescore>
     Score         DG    S(hbond)    S(metal)    S(lipo)     H(rot)  DE(clash)    DE(int)     intcor
     19.01     -19.83       2.26        0.00      93.49       1.62       0.09       0.72       ----

> <Gold.Chemscore.Fitness>
19.0143

> <Gold.Chemscore.DG>
-19.8251

> <Gold.Chemscore.ZeroCoef>
-5.4800

> <Gold.Chemscore.Hbond>
2.2642

> <Gold.Chemscore.Metal>
0.0000

> <Gold.Chemscore.Lipo>
93.4922

> <Gold.Chemscore.Internal_Hbond>
0.0000

> <Gold.Chemscore.DEClash>
0.0945

> <Gold.Chemscore.DEInternal>
0.7163

> <Gold.Chemscore.Rot>
1.6234

> <Gold.Chemscore.Internal.Correction>
   9.000000E+99

> <Gold.Chemscore.Hbonds>
donor molecule, donor type, donor heavy atom, donor atom, acceptor molecule, acceptor atom, score
      L1  H    19    41       P1  8028  0.74
      P1  H  6933  6944       L1     6  0.29
      P1  H  6934  6946       L1    10  0.01

> <Gold.Chemscore.Hbond.Weighted>
-7.5623

> <Gold.Chemscore.Metal.Weighted>
-0.0000

> <Gold.Chemscore.Lipo.Weighted>
-10.9386

> <Gold.Chemscore.Internal_Hbond.Weighted>
0.0000

> <Gold.Chemscore.DEClash.Weighted>
0.0945

> <Gold.Chemscore.DEInternal.Weighted>
0.7163

> <Gold.Chemscore.Rot.Weighted>
4.1558

> <Gold.Chemscore.Internal.Correction.Weighted>
   9.000000E+99

> <Gold.Protein.RotatedTorsions>
[ 6907 6896 6895 6894 ] final  -34.32 input  -60.11 | X-H torsion
[ 7974 7965 7964 7962 ] final  -76.55 input  175.53 | X-H torsion
[ 8008 7997 7996 7995 ] final  160.09 input   59.86 | X-H torsion
[ 10167 10162 10161 10158 ] final -140.14 input  -65.29 | X-H torsion
[ 10718 10713 10712 10709 ] final  -44.76 input   66.30 | X-H torsion
[ 10763 10752 10751 10750 ] final  166.31 input  -60.55 | X-H torsion
[ 11005 11000 10999 10996 ] final   36.21 input  -57.11 | X-H torsion

> <Gold.Protein.ActiveResidues>
 VAL166  LYS551  ARG553  GLY616  TRP617  ASP618  TYR619  PRO620  LYS621  CYS622 
 ASP623  PHE694  ASN695  SER759  ASP760  ASP761  ALA762  ILE779  LEU786  VAL792 
 PHE793  MET794  SER795  GLU796  ALA797  LYS798  CYS799  TRP800  GLU811  SER814 

> <Gold.Protein.RotatedAtoms>
  151.0542  134.9693  159.8226 H   0  0  0  0  0  0  0  0  0  0  0  0  # atno 6907 bound_to 6896
  152.5385  134.2499  159.8904 H   0  0  0  0  0  0  0  0  0  0  0  0  # atno 6908 bound_to 6896
  151.2516  133.4304  159.2645 H   0  0  0  0  0  0  0  0  0  0  0  0  # atno 6909 bound_to 6896
  145.6113  140.9386  143.1188 H   0  0  0  0  0  0  0  0  0  0  0  0  # atno 7974 bound_to 7965
  156.2196  140.1814  156.7509 H   0  0  0  0  0  0  0  0  0  0  0  0  # atno 8008 bound_to 7997
  154.5844  140.0661  156.9179 H   0  0  0  0  0  0  0  0  0  0  0  0  # atno 8009 bound_to 7997
  155.2445  140.3324  155.4291 H   0  0  0  0  0  0  0  0  0  0  0  0  # atno 8010 bound_to 7997
  139.8310  143.7447  152.2666 H   0  0  0  0  0  0  0  0  0  0  0  0  # atno 10167 bound_to 10162
  156.2352  130.4175  149.8826 H   0  0  0  0  0  0  0  0  0  0  0  0  # atno 10718 bound_to 10713
  154.3371  135.2754  155.2442 H   0  0  0  0  0  0  0  0  0  0  0  0  # atno 10763 bound_to 10752
  154.4728  135.5878  153.6337 H   0  0  0  0  0  0  0  0  0  0  0  0  # atno 10764 bound_to 10752
  152.9861  135.6092  154.3569 H   0  0  0  0  0  0  0  0  0  0  0  0  # atno 10765 bound_to 10752
  140.2348  134.3484  155.7949 H   0  0  0  0  0  0  0  0  0  0  0  0  # atno 11005 bound_to 11000
  144.7268  139.7849  143.7362 LP  0  0  0  0  0  0  0  0  0  0  0  0  # atno 17320 bound_to 7965
  146.1502  139.4583  143.0053 LP  0  0  0  0  0  0  0  0  0  0  0  0  # atno 17321 bound_to 7965
  139.7654  144.7493  151.0302 LP  0  0  0  0  0  0  0  0  0  0  0  0  # atno 17342 bound_to 10162
  140.7806  143.4704  151.0155 LP  0  0  0  0  0  0  0  0  0  0  0  0  # atno 17343 bound_to 10162
  156.6427  130.8711  151.3517 LP  0  0  0  0  0  0  0  0  0  0  0  0  # atno 17370 bound_to 10713
  157.7151  130.9487  150.1226 LP  0  0  0  0  0  0  0  0  0  0  0  0  # atno 17371 bound_to 10713
  141.2215  133.7266  156.8790 LP  0  0  0  0  0  0  0  0  0  0  0  0  # atno 17394 bound_to 11000
  140.1713  134.9098  157.2837 LP  0  0  0  0  0  0  0  0  0  0  0  0  # atno 17395 bound_to 11000

$$$$
