AV-unprocessed.smi:907|AV-procd|sdf|4111|dock8
  -GOLD-   22720 2 03D 1   1.00000     0.00000
 Structure written by MMmdl.
 54 57  0  0  0  0  0  0  0  0  3 V2000
  150.1643  140.0466  154.0917 O   0  0  0  0  0  0  0  0  0  0  0  0
  149.2364  140.7742  154.4462 C   0  0  0  0  0  0  0  0  0  0  0  0
  149.3712  141.6644  155.4427 N   0  0  0  0  0  0  0  0  0  0  0  0
  150.5969  141.8752  156.2010 C   0  0  0  0  0  0  0  0  0  0  0  0
  150.3199  141.8108  157.7092 C   0  0  0  0  0  0  0  0  0  0  0  0
  150.9197  142.9874  158.4554 C   0  0  0  0  0  0  0  0  0  0  0  0
  151.9132  142.8211  159.4446 C   0  0  0  0  0  0  0  0  0  0  0  0
  152.4317  143.9583  160.0987 C   0  0  0  0  0  0  0  0  0  0  0  0
  151.9483  145.2361  159.7489 C   0  0  0  0  0  0  0  0  0  0  0  0
  150.9566  145.3446  158.7527 C   0  0  0  0  0  0  0  0  0  0  0  0
  150.4841  144.2313  158.1500 N   0  3  0  0  0  0  0  0  0  0  0  0
  147.9952  140.7128  153.9013 N   0  0  0  0  0  0  0  0  0  0  0  0
  147.6013  139.9494  152.7113 C   0  0  0  0  0  0  0  0  0  0  0  0
  146.7669  138.7272  153.1413 C   0  0  0  0  0  0  0  0  0  0  0  0
  145.5926  139.1099  153.9809 N   0  3  0  0  0  0  0  0  0  0  0  0
  144.7840  137.9523  154.4749 C   0  0  1  0  0  0  0  0  0  0  0  0
  143.3116  138.3532  154.7599 C   0  0  0  0  0  0  0  0  0  0  0  0
  142.4929  137.3356  153.9485 C   0  0  2  0  0  0  0  0  0  0  0  0
  142.6233  135.9423  154.5858 C   0  0  0  0  0  0  0  0  0  0  0  0
  144.0687  135.5505  154.2340 C   0  0  0  0  0  0  0  0  0  0  0  0
  144.5865  136.7838  153.4670 C   0  0  1  0  0  0  0  0  0  0  0  0
  143.3415  137.1998  152.6915 C   0  0  0  0  0  0  0  0  0  0  0  0
  145.9788  140.0273  155.0947 C   0  0  0  0  0  0  0  0  0  0  0  0
  146.8121  141.2201  154.5972 C   0  0  0  0  0  0  0  0  0  0  0  0
  148.5677  142.2182  155.7011 H   0  0  0  0  0  0  0  0  0  0  0  0
  151.3251  141.1127  155.9196 H   0  0  0  0  0  0  0  0  0  0  0  0
  151.0262  142.8443  155.9406 H   0  0  0  0  0  0  0  0  0  0  0  0
  149.2446  141.7876  157.8922 H   0  0  0  0  0  0  0  0  0  0  0  0
  150.7230  140.8854  158.1233 H   0  0  0  0  0  0  0  0  0  0  0  0
  152.2756  141.8359  159.7006 H   0  0  0  0  0  0  0  0  0  0  0  0
  153.1913  143.8516  160.8593 H   0  0  0  0  0  0  0  0  0  0  0  0
  152.3328  146.1197  160.2374 H   0  0  0  0  0  0  0  0  0  0  0  0
  150.5302  146.2806  158.4224 H   0  0  0  0  0  0  0  0  0  0  0  0
  147.0066  140.5926  152.0606 H   0  0  0  0  0  0  0  0  0  0  0  0
  148.4404  139.6194  152.0992 H   0  0  0  0  0  0  0  0  0  0  0  0
  146.4435  138.2271  152.2308 H   0  0  0  0  0  0  0  0  0  0  0  0
  147.3933  138.0249  153.6934 H   0  0  0  0  0  0  0  0  0  0  0  0
  145.2620  137.5739  155.3802 H   0  0  0  0  0  0  0  0  0  0  0  0
  143.0724  138.3260  155.8238 H   0  0  0  0  0  0  0  0  0  0  0  0
  143.0835  139.3558  154.3957 H   0  0  0  0  0  0  0  0  0  0  0  0
  141.4607  137.6427  153.7769 H   0  0  0  0  0  0  0  0  0  0  0  0
  142.4453  135.9612  155.6617 H   0  0  0  0  0  0  0  0  0  0  0  0
  141.9162  135.2409  154.1407 H   0  0  0  0  0  0  0  0  0  0  0  0
  144.6674  135.3251  155.1173 H   0  0  0  0  0  0  0  0  0  0  0  0
  144.0773  134.6668  153.5943 H   0  0  0  0  0  0  0  0  0  0  0  0
  145.4444  136.5244  152.8513 H   0  0  0  0  0  0  0  0  0  0  0  0
  142.9795  136.4301  152.0073 H   0  0  0  0  0  0  0  0  0  0  0  0
  143.4638  138.1365  152.1449 H   0  0  0  0  0  0  0  0  0  0  0  0
  145.0960  140.4079  155.6068 H   0  0  0  0  0  0  0  0  0  0  0  0
  146.5520  139.4697  155.8372 H   0  0  0  0  0  0  0  0  0  0  0  0
  147.0635  141.8741  155.4335 H   0  0  0  0  0  0  0  0  0  0  0  0
  146.2220  141.8319  153.9131 H   0  0  0  0  0  0  0  0  0  0  0  0
  144.9853  139.6425  153.3744 H   0  0  0  0  0  0  0  0  0  0  0  0
  149.7669  144.3348  157.4317 H   0  0  0  0  0  0  0  0  0  0  0  0
  1  2  2  0  0  0  0
  2  3  1  0  0  0  0
  2 12  1  0  0  0  0
  3  4  1  0  0  0  0
  3 25  1  0  0  0  0
  4  5  1  0  0  0  0
  4 26  1  0  0  0  0
  4 27  1  0  0  0  0
  5  6  1  0  0  0  0
  5 28  1  0  0  0  0
  5 29  1  0  0  0  0
  6 11  1  0  0  0  0
  6  7  2  0  0  0  0
  7  8  1  0  0  0  0
  7 30  1  0  0  0  0
  8  9  2  0  0  0  0
  8 31  1  0  0  0  0
  9 10  1  0  0  0  0
  9 32  1  0  0  0  0
 10 11  2  0  0  0  0
 10 33  1  0  0  0  0
 11 54  1  0  0  0  0
 12 24  1  0  0  0  0
 12 13  1  0  0  0  0
 13 14  1  0  0  0  0
 13 34  1  0  0  0  0
 13 35  1  0  0  0  0
 14 15  1  0  0  0  0
 14 36  1  0  0  0  0
 14 37  1  0  0  0  0
 15 16  1  0  0  0  0
 15 23  1  0  0  0  0
 15 53  1  0  0  0  0
 16 21  1  0  0  0  0
 16 17  1  0  0  0  0
 16 38  1  0  0  0  0
 17 18  1  0  0  0  0
 17 39  1  0  0  0  0
 17 40  1  0  0  0  0
 18 22  1  0  0  0  0
 18 19  1  0  0  0  0
 18 41  1  0  0  0  0
 19 20  1  0  0  0  0
 19 42  1  0  0  0  0
 19 43  1  0  0  0  0
 20 21  1  0  0  0  0
 20 44  1  0  0  0  0
 20 45  1  0  0  0  0
 21 22  1  0  0  0  0
 21 46  1  0  0  0  0
 22 47  1  0  0  0  0
 22 48  1  0  0  0  0
 23 24  1  0  0  0  0
 23 49  1  0  0  0  0
 23 50  1  0  0  0  0
 24 51  1  0  0  0  0
 24 52  1  0  0  0  0
M  CHG  1  11   1
M  CHG  1  15   1
M  END
> <s_m_source_file>
AV-unprocessed.smi

> <i_m_source_file_index>
907

> <i_lp_mmshare_version>
43012

> <i_f3d_flags>
0

> <s_epik_input>
W0NIMl0xW0NIMl1bQ0BASF0oW0NIMl0yKVtDQEBIXShbQ0gyXVtDQEhdMTIpTihbQ0gyXVtDSDJdMylbQ0gyXVtDSDJdTjNDKD1PKVtOSF1bQ0gyXVtDSDJdYzRbY0hdW2NIXVtjSF1bY0hdbjQ=

> <s_epik_cmdline>
J2VwaWtfcHl0aG9uJywgJy1waCcsICc3LjAnLCAnLXRuJywgJzgnLCAnLW1hJywgJzIwMCcsICctbWV0YWxfYmluZGluZycsICctaW1hZScsICc8aW5maWxlLm1hZT4nLCAnLW9tYWUnLCAnPG91dGZpbGUubWFlPic=

> <r_epik_Ionization_Penalty>
1.63018

> <r_epik_Ionization_Penalty_Charging>
1.63015

> <r_epik_Ionization_Penalty_Neutral>
2.64641e-05

> <r_epik_State_Penalty>
1.72761

> <r_epik_Charging_Adjusted_Penalty>
3.35777

> <i_epik_Tot_Q>
2

> <i_epik_Tot_abs_Q>
2

> <r_epik_Metal_State_Penalty>
1.76501

> <b_epik_Metal_Only>
0

> <s_lp_Force_Field>
OPLS_2005

> <r_lp_Energy>
104.704

> <b_lp_Chiralities_Consistent>
1

> <s_lp_Variant>
AV-unprocessed.smi:907-6

> <Gold.Version>
5.8.1

> <Gold.Id.Protein>
6NUR|6NUR_protein|mol2

> <Gold.PLP.Fitness>
54.0650

> <Gold.PLP.PLP>
-41.3584

> <Gold.PLP.part.hbond>
-4.0282

> <Gold.PLP.part.metal>
0.0000

> <Gold.PLP.part.buried>
-0.7079

> <Gold.PLP.part.nonpolar>
-37.0673

> <Gold.PLP.part.repulsive>
1.2886

> <Gold.PLP.ligand.clash>
0.6669

> <Gold.PLP.ligand.torsion>
0.8524

> <Gold.PLP.Chemscore.Hbond>
4.9920

> <Gold.PLP.Chemscore.CHOScore>
0.0000

> <Gold.PLP.Chemscore.Metal>
0.0000

> <Gold.Chemscore.Hbonds>
donor molecule, donor type, donor heavy atom, donor atom, acceptor molecule, acceptor atom, score
      L1  H    11    54       P1  8028  2.00
      L1  H    15    53       P1 10175  2.00
      P1  H  7989  7998       L1     1  0.99

> <Gold.PLP.Chemscore.Internal.Correction>
0.1022

> <Gold.Rescore>
     Score         DG    S(hbond)    S(metal)    S(lipo)     H(rot)  DE(clash)    DE(int)     intcor
     20.12     -22.81       2.58        0.00     106.48       1.46       1.86       0.83       ----

> <Gold.Chemscore.Fitness>
20.1210

> <Gold.Chemscore.DG>
-22.8092

> <Gold.Chemscore.ZeroCoef>
-5.4800

> <Gold.Chemscore.Hbond>
2.5753

> <Gold.Chemscore.Metal>
0.0000

> <Gold.Chemscore.Lipo>
106.4822

> <Gold.Chemscore.Internal_Hbond>
0.0000

> <Gold.Chemscore.DEClash>
1.8593

> <Gold.Chemscore.DEInternal>
0.8290

> <Gold.Chemscore.Rot>
1.4572

> <Gold.Chemscore.Internal.Correction>
   9.000000E+99

> <Gold.Chemscore.Hbonds>
donor molecule, donor type, donor heavy atom, donor atom, acceptor molecule, acceptor atom, score
      L1  H    11    54       P1  8028  0.25
      L1  H    15    53       P1 10175  1.00
      P1  H  7989  7998       L1     1  0.87

> <Gold.Chemscore.Hbond.Weighted>
-8.6013

> <Gold.Chemscore.Metal.Weighted>
-0.0000

> <Gold.Chemscore.Lipo.Weighted>
-12.4584

> <Gold.Chemscore.Internal_Hbond.Weighted>
0.0000

> <Gold.Chemscore.DEClash.Weighted>
1.8593

> <Gold.Chemscore.DEInternal.Weighted>
0.8290

> <Gold.Chemscore.Rot.Weighted>
3.7305

> <Gold.Chemscore.Internal.Correction.Weighted>
   9.000000E+99

> <Gold.Protein.RotatedTorsions>
[ 6907 6896 6895 6894 ] final   -7.91 input  -60.11 | X-H torsion
[ 7974 7965 7964 7962 ] final  -87.62 input  175.53 | X-H torsion
[ 8008 7997 7996 7995 ] final   14.85 input   59.86 | X-H torsion
[ 10167 10162 10161 10158 ] final  121.04 input  -65.29 | X-H torsion
[ 10718 10713 10712 10709 ] final -134.07 input   66.30 | X-H torsion
[ 10763 10752 10751 10750 ] final  165.83 input  -60.55 | X-H torsion
[ 11005 11000 10999 10996 ] final   82.58 input  -57.11 | X-H torsion

> <Gold.Protein.ActiveResidues>
 VAL166  LYS551  ARG553  GLY616  TRP617  ASP618  TYR619  PRO620  LYS621  CYS622 
 ASP623  PHE694  ASN695  SER759  ASP760  ASP761  ALA762  ILE779  LEU786  VAL792 
 PHE793  MET794  SER795  GLU796  ALA797  LYS798  CYS799  TRP800  GLU811  SER814 

> <Gold.Protein.RotatedAtoms>
  151.4420  135.1021  159.9672 H   0  0  0  0  0  0  0  0  0  0  0  0  # atno 6907 bound_to 6896
  152.4919  133.8520  159.7217 H   0  0  0  0  0  0  0  0  0  0  0  0  # atno 6908 bound_to 6896
  150.9081  133.6973  159.2889 H   0  0  0  0  0  0  0  0  0  0  0  0  # atno 6909 bound_to 6896
  145.4641  140.9560  143.1953 H   0  0  0  0  0  0  0  0  0  0  0  0  # atno 7974 bound_to 7965
  154.8542  140.2934  155.5579 H   0  0  0  0  0  0  0  0  0  0  0  0  # atno 8008 bound_to 7997
  156.3017  140.2490  156.3438 H   0  0  0  0  0  0  0  0  0  0  0  0  # atno 8009 bound_to 7997
  154.8988  140.0392  157.1870 H   0  0  0  0  0  0  0  0  0  0  0  0  # atno 8010 bound_to 7997
  139.5944  144.7036  151.3212 H   0  0  0  0  0  0  0  0  0  0  0  0  # atno 10167 bound_to 10162
  156.2516  130.7156  151.1057 H   0  0  0  0  0  0  0  0  0  0  0  0  # atno 10718 bound_to 10713
  154.3299  135.2755  155.2477 H   0  0  0  0  0  0  0  0  0  0  0  0  # atno 10763 bound_to 10752
  154.4794  135.5862  153.6382 H   0  0  0  0  0  0  0  0  0  0  0  0  # atno 10764 bound_to 10752
  152.9867  135.6107  154.3490 H   0  0  0  0  0  0  0  0  0  0  0  0  # atno 10765 bound_to 10752
  139.9059  134.8082  156.2193 H   0  0  0  0  0  0  0  0  0  0  0  0  # atno 11005 bound_to 11000
  144.7985  139.6187  143.7082 LP  0  0  0  0  0  0  0  0  0  0  0  0  # atno 17320 bound_to 7965
  146.2434  139.6048  142.9476 LP  0  0  0  0  0  0  0  0  0  0  0  0  # atno 17321 bound_to 7965
  140.7200  143.7163  150.7730 LP  0  0  0  0  0  0  0  0  0  0  0  0  # atno 17342 bound_to 10162
  140.0726  143.5047  152.2572 LP  0  0  0  0  0  0  0  0  0  0  0  0  # atno 17343 bound_to 10162
  157.7216  131.0677  150.6109 LP  0  0  0  0  0  0  0  0  0  0  0  0  # atno 17370 bound_to 10713
  156.6190  130.4400  149.5829 LP  0  0  0  0  0  0  0  0  0  0  0  0  # atno 17371 bound_to 10713
  141.0416  133.6935  156.1607 LP  0  0  0  0  0  0  0  0  0  0  0  0  # atno 17394 bound_to 11000
  140.6947  134.4628  157.5588 LP  0  0  0  0  0  0  0  0  0  0  0  0  # atno 17395 bound_to 11000

$$$$
