AV-unprocessed.smi:81|AV-procd|sdf|787|dock6
  -GOLD-   2262017153D 1   1.00000     0.00000
 Structure written by MMmdl.
 64 67  0  0  0  0  0  0  0  0  2 V2000
  141.2273  138.4892  152.7391 C   0  0  0  0  0  0  0  0  0  0  0  0
  141.9522  137.2925  153.3770 C   0  0  0  0  0  0  0  0  0  0  0  0
  141.7113  137.2626  154.8927 C   0  0  0  0  0  0  0  0  0  0  0  0
  143.4671  137.3119  153.0724 C   0  0  0  0  0  0  0  0  0  0  0  0
  144.1692  136.0875  153.4682 N   0  0  0  0  0  0  0  0  0  0  0  0
  145.2689  136.2895  154.2361 C   0  0  0  0  0  0  0  0  0  0  0  0
  145.4047  135.6311  155.4174 N   0  0  0  0  0  0  0  0  0  0  0  0
  146.4937  135.8222  156.1681 C   0  0  0  0  0  0  0  0  0  0  0  0
  147.5456  136.6077  155.9278 N   0  0  0  0  0  0  0  0  0  0  0  0
  147.4139  137.2639  154.7393 C   0  0  0  0  0  0  0  0  0  0  0  0
  146.3176  137.1610  153.8389 C   0  0  0  0  0  0  0  0  0  0  0  0
  146.5343  137.9665  152.7285 N   0  0  0  0  0  0  0  0  0  0  0  0
  147.6948  138.5173  152.9600 C   0  0  0  0  0  0  0  0  0  0  0  0
  148.2896  138.1575  154.1487 N   0  0  0  0  0  0  0  0  0  0  0  0
  149.5717  138.6182  154.6572 C   0  0  0  0  0  0  0  0  0  0  0  0
  149.6756  140.1582  154.7596 C   0  0  2  0  0  0  0  0  0  0  0  0
  149.8568  140.6906  153.4567 O   0  0  0  0  0  0  0  0  0  0  0  0
  150.8163  140.6454  155.6410 C   0  0  0  0  0  0  0  0  0  0  0  0
  150.3428  142.0326  156.0572 C   0  0  0  0  0  0  0  0  0  0  0  0
  148.9355  141.9044  156.2117 O   0  0  0  0  0  0  0  0  0  0  0  0
  148.4512  140.7993  155.4496 C   0  0  1  0  0  0  0  0  0  0  0  0
  147.2923  141.2282  154.5352 C   0  0  0  0  0  0  0  0  0  0  0  0
  144.2725  135.0327  152.4494 C   0  0  2  0  0  0  0  0  0  0  0  0
  144.7687  135.5372  151.0774 C   0  0  0  0  0  0  0  0  0  0  0  0
  144.9303  134.3721  150.0879 C   0  0  0  0  0  0  0  0  0  0  0  0
  143.6600  133.6191  149.9402 N   0  3  1  0  0  0  0  0  0  0  0  0
  143.7461  132.5695  148.9024 C   0  0  0  0  0  0  0  0  0  0  0  0
  143.1720  133.0918  151.2389 C   0  0  0  0  0  0  0  0  0  0  0  0
  142.9694  134.2271  152.2556 C   0  0  0  0  0  0  0  0  0  0  0  0
  141.6179  139.4351  153.1151 H   0  0  0  0  0  0  0  0  0  0  0  0
  140.1591  138.4607  152.9556 H   0  0  0  0  0  0  0  0  0  0  0  0
  141.3375  138.4916  151.6546 H   0  0  0  0  0  0  0  0  0  0  0  0
  141.5159  136.3792  152.9712 H   0  0  0  0  0  0  0  0  0  0  0  0
  142.1201  138.1497  155.3775 H   0  0  0  0  0  0  0  0  0  0  0  0
  142.1795  136.3889  155.3470 H   0  0  0  0  0  0  0  0  0  0  0  0
  140.6461  137.2189  155.1214 H   0  0  0  0  0  0  0  0  0  0  0  0
  143.6139  137.4747  152.0041 H   0  0  0  0  0  0  0  0  0  0  0  0
  143.9289  138.1654  153.5704 H   0  0  0  0  0  0  0  0  0  0  0  0
  146.5278  135.2662  157.0934 H   0  0  0  0  0  0  0  0  0  0  0  0
  148.1505  139.2093  152.2668 H   0  0  0  0  0  0  0  0  0  0  0  0
  149.7411  138.1628  155.6337 H   0  0  0  0  0  0  0  0  0  0  0  0
  150.3513  138.2297  154.0008 H   0  0  0  0  0  0  0  0  0  0  0  0
  149.3368  140.1839  152.8517 H   0  0  0  0  0  0  0  0  0  0  0  0
  150.9017  140.0154  156.5276 H   0  0  0  0  0  0  0  0  0  0  0  0
  151.7863  140.6550  155.1422 H   0  0  0  0  0  0  0  0  0  0  0  0
  150.8163  142.3815  156.9750 H   0  0  0  0  0  0  0  0  0  0  0  0
  150.5473  142.7600  155.2707 H   0  0  0  0  0  0  0  0  0  0  0  0
  148.0591  140.0946  156.1842 H   0  0  0  0  0  0  0  0  0  0  0  0
  146.9293  140.3881  153.9428 H   0  0  0  0  0  0  0  0  0  0  0  0
  147.5915  142.0211  153.8495 H   0  0  0  0  0  0  0  0  0  0  0  0
  146.4559  141.6047  155.1242 H   0  0  0  0  0  0  0  0  0  0  0  0
  145.0294  134.3402  152.8207 H   0  0  0  0  0  0  0  0  0  0  0  0
  144.0694  136.2606  150.6561 H   0  0  0  0  0  0  0  0  0  0  0  0
  145.7230  136.0524  151.1913 H   0  0  0  0  0  0  0  0  0  0  0  0
  145.2393  134.7614  149.1169 H   0  0  0  0  0  0  0  0  0  0  0  0
  145.7191  133.6978  150.4253 H   0  0  0  0  0  0  0  0  0  0  0  0
  144.4781  131.8082  149.1754 H   0  0  0  0  0  0  0  0  0  0  0  0
  144.0395  132.9989  147.9439 H   0  0  0  0  0  0  0  0  0  0  0  0
  142.7799  132.0828  148.7657 H   0  0  0  0  0  0  0  0  0  0  0  0
  142.2275  132.5672  151.0887 H   0  0  0  0  0  0  0  0  0  0  0  0
  143.8827  132.3609  151.6285 H   0  0  0  0  0  0  0  0  0  0  0  0
  142.6358  133.8045  153.2037 H   0  0  0  0  0  0  0  0  0  0  0  0
  142.1671  134.8768  151.9050 H   0  0  0  0  0  0  0  0  0  0  0  0
  142.9673  134.2814  149.6203 H   0  0  0  0  0  0  0  0  0  0  0  0
  1  2  1  0  0  0  0
  1 30  1  0  0  0  0
  1 31  1  0  0  0  0
  1 32  1  0  0  0  0
  2  3  1  0  0  0  0
  2  4  1  0  0  0  0
  2 33  1  0  0  0  0
  3 34  1  0  0  0  0
  3 35  1  0  0  0  0
  3 36  1  0  0  0  0
  4  5  1  0  0  0  0
  4 37  1  0  0  0  0
  4 38  1  0  0  0  0
  5  6  1  0  0  0  0
  5 23  1  0  0  0  0
  6 11  1  0  0  0  0
  6  7  2  0  0  0  0
  7  8  1  0  0  0  0
  8  9  2  0  0  0  0
  8 39  1  0  0  0  0
  9 10  1  0  0  0  0
 10 14  1  0  0  0  0
 10 11  2  0  0  0  0
 11 12  1  0  0  0  0
 12 13  2  0  0  0  0
 13 14  1  0  0  0  0
 13 40  1  0  0  0  0
 14 15  1  0  0  0  0
 15 16  1  0  0  0  0
 15 41  1  0  0  0  0
 15 42  1  0  0  0  0
 16 21  1  0  0  0  0
 16 17  1  0  0  0  0
 16 18  1  0  0  0  0
 17 43  1  0  0  0  0
 18 19  1  0  0  0  0
 18 44  1  0  0  0  0
 18 45  1  0  0  0  0
 19 20  1  0  0  0  0
 19 46  1  0  0  0  0
 19 47  1  0  0  0  0
 20 21  1  0  0  0  0
 21 22  1  0  0  0  0
 21 48  1  0  0  0  0
 22 49  1  0  0  0  0
 22 50  1  0  0  0  0
 22 51  1  0  0  0  0
 23 29  1  0  0  0  0
 23 24  1  0  0  0  0
 23 52  1  0  0  0  0
 24 25  1  0  0  0  0
 24 53  1  0  0  0  0
 24 54  1  0  0  0  0
 25 26  1  0  0  0  0
 25 55  1  0  0  0  0
 25 56  1  0  0  0  0
 26 27  1  0  0  0  0
 26 28  1  0  0  0  0
 26 64  1  0  0  0  0
 27 57  1  0  0  0  0
 27 58  1  0  0  0  0
 27 59  1  0  0  0  0
 28 29  1  0  0  0  0
 28 60  1  0  0  0  0
 28 61  1  0  0  0  0
 29 62  1  0  0  0  0
 29 63  1  0  0  0  0
M  CHG  1  26   1
M  END
> <s_m_source_file>
AV-unprocessed.smi

> <i_m_source_file_index>
81

> <i_lp_mmshare_version>
43012

> <i_f3d_flags>
0

> <s_epik_input>
W0NIMl0xW0NIMl1OKFtDSDNdKVtDSDJdW0NIMl1bQ0hdMU4oW0NIMl1bQ0hdKFtDSDNdKVtDSDNdKWMobltjSF1uMiljKGMyMyluW2NIXW4zW0NIMl1bQ0BAXTQoW09IXSlbQ0gyXVtDSDJdT1tDQEhdNFtDSDNd

> <s_epik_cmdline>
J2VwaWtfcHl0aG9uJywgJy1waCcsICc3LjAnLCAnLXRuJywgJzgnLCAnLW1hJywgJzIwMCcsICctbWV0YWxfYmluZGluZycsICctaW1hZScsICc8aW5maWxlLm1hZT4nLCAnLW9tYWUnLCAnPG91dGZpbGUubWFlPic=

> <r_lp_tautomer_probability>
1

> <r_epik_Ionization_Penalty>
0.00272708

> <r_epik_Ionization_Penalty_Charging>
0.00158983

> <r_epik_Ionization_Penalty_Neutral>
0.00113725

> <r_epik_State_Penalty>
-0

> <r_epik_Charging_Adjusted_Penalty>
0.00158983

> <i_epik_Tot_Q>
1

> <i_epik_Tot_abs_Q>
1

> <r_epik_Metal_State_Penalty>
-0

> <b_epik_Metal_Only>
0

> <s_lp_Force_Field>
OPLS_2005

> <r_lp_Energy>
45.4509

> <b_lp_Chiralities_Consistent>
1

> <s_lp_Variant>
AV-unprocessed.smi:81-2

> <Gold.Version>
5.8.1

> <Gold.Id.Protein>
6NUR|6NUR_protein|mol2

> <Gold.PLP.Fitness>
45.3794

> <Gold.PLP.PLP>
-35.4351

> <Gold.PLP.part.hbond>
-3.7527

> <Gold.PLP.part.metal>
0.0000

> <Gold.PLP.part.buried>
4.4964

> <Gold.PLP.part.nonpolar>
-37.0220

> <Gold.PLP.part.repulsive>
1.3535

> <Gold.PLP.ligand.clash>
0.0000

> <Gold.PLP.ligand.torsion>
1.7439

> <Gold.PLP.Chemscore.Hbond>
3.1916

> <Gold.PLP.Chemscore.CHOScore>
1.0000

> <Gold.PLP.Chemscore.Metal>
0.0000

> <Gold.Chemscore.Hbonds>
donor molecule, donor type, donor heavy atom, donor atom, acceptor molecule, acceptor atom, score
      L1  H    17    43       P1  7957  0.51
      L1  H    26    64       P1 10186  1.54
      P1  H  7989  7998       L1    17  0.38
      P1  H  8011  8017       L1    17  0.71
      L1  C    13    40       P1  7957  0.90

> <Gold.PLP.Chemscore.Internal.Correction>
0.8574

> <Gold.Rescore>
     Score         DG    S(hbond)    S(metal)    S(lipo)     H(rot)  DE(clash)    DE(int)     intcor
     11.60     -13.66       1.43        0.00      85.55       2.58       0.24       1.82       ----

> <Gold.Chemscore.Fitness>
11.6049

> <Gold.Chemscore.DG>
-13.6636

> <Gold.Chemscore.ZeroCoef>
-5.4800

> <Gold.Chemscore.Hbond>
1.4289

> <Gold.Chemscore.Metal>
0.0000

> <Gold.Chemscore.Lipo>
85.5493

> <Gold.Chemscore.Internal_Hbond>
0.0000

> <Gold.Chemscore.DEClash>
0.2435

> <Gold.Chemscore.DEInternal>
1.8153

> <Gold.Chemscore.Rot>
2.5774

> <Gold.Chemscore.Internal.Correction>
   9.000000E+99

> <Gold.Chemscore.Hbonds>
donor molecule, donor type, donor heavy atom, donor atom, acceptor molecule, acceptor atom, score
      L1  H    17    43       P1  7957  0.52
      L1  H    26    64       P1 10186  0.76
      P1  H  7989  7998       L1    17  0.10
      P1  H  8011  8017       L1    17  0.08

> <Gold.Chemscore.Hbond.Weighted>
-4.7726

> <Gold.Chemscore.Metal.Weighted>
-0.0000

> <Gold.Chemscore.Lipo.Weighted>
-10.0093

> <Gold.Chemscore.Internal_Hbond.Weighted>
0.0000

> <Gold.Chemscore.DEClash.Weighted>
0.2435

> <Gold.Chemscore.DEInternal.Weighted>
1.8153

> <Gold.Chemscore.Rot.Weighted>
6.5982

> <Gold.Chemscore.Internal.Correction.Weighted>
   9.000000E+99

> <Gold.Protein.RotatedTorsions>
[ 6907 6896 6895 6894 ] final -110.81 input  -60.11 | X-H torsion
[ 7974 7965 7964 7962 ] final   82.58 input  175.53 | X-H torsion
[ 8008 7997 7996 7995 ] final -144.06 input   59.86 | X-H torsion
[ 10167 10162 10161 10158 ] final    9.87 input  -65.29 | X-H torsion
[ 10718 10713 10712 10709 ] final  -78.59 input   66.30 | X-H torsion
[ 10763 10752 10751 10750 ] final  -21.66 input  -60.55 | X-H torsion
[ 11005 11000 10999 10996 ] final  177.60 input  -57.11 | X-H torsion

> <Gold.Protein.ActiveResidues>
 VAL166  LYS551  ARG553  GLY616  TRP617  ASP618  TYR619  PRO620  LYS621  CYS622 
 ASP623  PHE694  ASN695  SER759  ASP760  ASP761  ALA762  ILE779  LEU786  VAL792 
 PHE793  MET794  SER795  GLU796  ALA797  LYS798  CYS799  TRP800  GLU811  SER814 

> <Gold.Protein.RotatedAtoms>
  150.7649  133.9328  159.3431 H   0  0  0  0  0  0  0  0  0  0  0  0  # atno 6907 bound_to 6896
  151.7228  135.0889  160.0296 H   0  0  0  0  0  0  0  0  0  0  0  0  # atno 6908 bound_to 6896
  152.3639  133.6294  159.6071 H   0  0  0  0  0  0  0  0  0  0  0  0  # atno 6909 bound_to 6896
  145.6232  139.2390  143.2126 H   0  0  0  0  0  0  0  0  0  0  0  0  # atno 7974 bound_to 7965
  155.5208  140.0591  157.2907 H   0  0  0  0  0  0  0  0  0  0  0  0  # atno 8008 bound_to 7997
  154.4518  140.1953  156.0442 H   0  0  0  0  0  0  0  0  0  0  0  0  # atno 8009 bound_to 7997
  156.0720  140.3258  155.7592 H   0  0  0  0  0  0  0  0  0  0  0  0  # atno 8010 bound_to 7997
  140.6229  143.8166  150.7197 H   0  0  0  0  0  0  0  0  0  0  0  0  # atno 10167 bound_to 10162
  156.0113  130.4522  150.3520 H   0  0  0  0  0  0  0  0  0  0  0  0  # atno 10718 bound_to 10713
  153.6396  135.6985  153.5246 H   0  0  0  0  0  0  0  0  0  0  0  0  # atno 10763 bound_to 10752
  153.2793  135.4190  155.1062 H   0  0  0  0  0  0  0  0  0  0  0  0  # atno 10764 bound_to 10752
  154.8503  135.3598  154.5940 H   0  0  0  0  0  0  0  0  0  0  0  0  # atno 10765 bound_to 10752
  140.3859  134.6905  157.4478 H   0  0  0  0  0  0  0  0  0  0  0  0  # atno 11005 bound_to 11000
  146.1415  140.7051  142.9365 LP  0  0  0  0  0  0  0  0  0  0  0  0  # atno 17320 bound_to 7965
  144.7223  140.4412  143.6999 LP  0  0  0  0  0  0  0  0  0  0  0  0  # atno 17321 bound_to 7965
  140.1760  143.4155  152.1967 LP  0  0  0  0  0  0  0  0  0  0  0  0  # atno 17342 bound_to 10162
  139.5454  144.7294  151.4600 LP  0  0  0  0  0  0  0  0  0  0  0  0  # atno 17343 bound_to 10162
  157.1612  131.0345  151.2840 LP  0  0  0  0  0  0  0  0  0  0  0  0  # atno 17370 bound_to 10713
  157.4309  130.7490  149.6989 LP  0  0  0  0  0  0  0  0  0  0  0  0  # atno 17371 bound_to 10713
  140.0443  134.6222  155.8940 LP  0  0  0  0  0  0  0  0  0  0  0  0  # atno 17394 bound_to 11000
  141.1908  133.6569  156.5426 LP  0  0  0  0  0  0  0  0  0  0  0  0  # atno 17395 bound_to 11000

$$$$
