AV-unprocessed.smi:624|AV-procd|sdf|3099|dock8
  -GOLD-   22720 0 23D 1   1.00000     0.00000
 Structure written by MMmdl.
 30 32  0  0  0  0  0  0  0  0  1 V2000
  149.7612  141.2866  157.5516 O   0  0  0  0  0  0  0  0  0  0  0  0
  150.2083  142.1604  156.8092 C   0  0  0  0  0  0  0  0  0  0  0  0
  150.8587  143.2637  157.2128 N   0  0  0  0  0  0  0  0  0  0  0  0
  151.1949  143.6427  158.5365 C   0  0  0  0  0  0  0  0  0  0  0  0
  150.7629  142.8696  159.5398 N   0  0  0  0  0  0  0  0  0  0  0  0
  151.1588  143.3561  160.7797 N   0  0  0  0  0  0  0  0  0  0  0  0
  151.8734  144.4795  160.6624 C   0  0  0  0  0  0  0  0  0  0  0  0
  152.1358  145.0549  159.0257 S   0  0  0  0  0  0  0  0  0  0  0  0
  150.1033  142.1235  155.4727 N   0  0  0  0  0  0  0  0  0  0  0  0
  149.4790  141.0573  154.6956 C   0  0  0  0  0  0  0  0  0  0  0  0
  147.9603  141.1036  154.7591 C   0  0  0  0  0  0  0  0  0  0  0  0
  147.1098  140.7417  153.5637 C   0  0  0  0  0  0  0  0  0  0  0  0
  147.1719  142.1739  154.0408 C   0  0  0  0  0  0  0  0  0  0  0  0
  149.9812  139.6910  155.1268 C   0  0  0  0  0  0  0  0  0  0  0  0
  151.4473  139.3383  155.0488 C   0  0  0  0  0  0  0  0  0  0  0  0
  150.4581  138.6697  154.1211 C   0  0  0  0  0  0  0  0  0  0  0  0
  151.1603  143.9006  156.4903 H   0  0  0  0  0  0  0  0  0  0  0  0
  152.2481  144.9730  161.5470 H   0  0  0  0  0  0  0  0  0  0  0  0
  150.4974  142.8903  154.9471 H   0  0  0  0  0  0  0  0  0  0  0  0
  149.7695  141.1863  153.6507 H   0  0  0  0  0  0  0  0  0  0  0  0
  147.5614  140.7928  155.7231 H   0  0  0  0  0  0  0  0  0  0  0  0
  147.6127  140.5083  152.6276 H   0  0  0  0  0  0  0  0  0  0  0  0
  146.1910  140.1892  153.7499 H   0  0  0  0  0  0  0  0  0  0  0  0
  146.2970  142.5759  154.5471 H   0  0  0  0  0  0  0  0  0  0  0  0
  147.7174  142.8819  153.4202 H   0  0  0  0  0  0  0  0  0  0  0  0
  149.4455  139.2858  155.9837 H   0  0  0  0  0  0  0  0  0  0  0  0
  152.1240  140.0718  154.6142 H   0  0  0  0  0  0  0  0  0  0  0  0
  151.8636  138.7405  155.8569 H   0  0  0  0  0  0  0  0  0  0  0  0
  150.2132  137.6266  154.3113 H   0  0  0  0  0  0  0  0  0  0  0  0
  150.4885  138.9572  153.0722 H   0  0  0  0  0  0  0  0  0  0  0  0
  1  2  2  0  0  0  0
  2  3  1  0  0  0  0
  2  9  1  0  0  0  0
  3  4  1  0  0  0  0
  3 17  1  0  0  0  0
  4  8  1  0  0  0  0
  4  5  2  0  0  0  0
  5  6  1  0  0  0  0
  6  7  2  0  0  0  0
  7  8  1  0  0  0  0
  7 18  1  0  0  0  0
  9 10  1  0  0  0  0
  9 19  1  0  0  0  0
 10 11  1  0  0  0  0
 10 14  1  0  0  0  0
 10 20  1  0  0  0  0
 11 13  1  0  0  0  0
 11 12  1  0  0  0  0
 11 21  1  0  0  0  0
 12 13  1  0  0  0  0
 12 22  1  0  0  0  0
 12 23  1  0  0  0  0
 13 24  1  0  0  0  0
 13 25  1  0  0  0  0
 14 16  1  0  0  0  0
 14 15  1  0  0  0  0
 14 26  1  0  0  0  0
 15 16  1  0  0  0  0
 15 27  1  0  0  0  0
 15 28  1  0  0  0  0
 16 29  1  0  0  0  0
 16 30  1  0  0  0  0
M  END
> <s_m_source_file>
AV-unprocessed.smi

> <i_m_source_file_index>
624

> <i_lp_mmshare_version>
43012

> <i_f3d_flags>
0

> <s_epik_input>
W0NIMl0xW0NIMl1bQ0hdMVtDSF0oW0NIXTJbQ0gyXVtDSDJdMilbTkhdQyg9TylbTkhdYzNubltjSF1zMw==

> <s_epik_cmdline>
J2VwaWtfcHl0aG9uJywgJy1waCcsICc3LjAnLCAnLXRuJywgJzgnLCAnLW1hJywgJzIwMCcsICctbWV0YWxfYmluZGluZycsICctaW1hZScsICc8aW5maWxlLm1hZT4nLCAnLW9tYWUnLCAnPG91dGZpbGUubWFlPic=

> <r_lp_tautomer_probability>
1

> <r_epik_Ionization_Penalty>
0.000305758

> <r_epik_Ionization_Penalty_Charging>
0

> <r_epik_Ionization_Penalty_Neutral>
0.000305758

> <r_epik_State_Penalty>
-0

> <r_epik_Charging_Adjusted_Penalty>
0

> <i_epik_Tot_Q>
0

> <i_epik_Tot_abs_Q>
0

> <r_epik_Metal_State_Penalty>
0.165203

> <b_epik_Metal_Only>
0

> <s_lp_Force_Field>
OPLS_2005

> <r_lp_Energy>
21.213

> <b_lp_Chiralities_Consistent>
1

> <s_lp_Variant>
AV-unprocessed.smi:624-1

> <Gold.Version>
5.8.1

> <Gold.Id.Protein>
6NUR|6NUR_protein|mol2

> <Gold.PLP.Fitness>
36.4412

> <Gold.PLP.PLP>
-37.0650

> <Gold.PLP.part.hbond>
-3.9134

> <Gold.PLP.part.metal>
0.0000

> <Gold.PLP.part.buried>
-3.0152

> <Gold.PLP.part.nonpolar>
-30.1067

> <Gold.PLP.part.repulsive>
0.3601

> <Gold.PLP.ligand.clash>
0.0000

> <Gold.PLP.ligand.torsion>
1.3677

> <Gold.PLP.Chemscore.Hbond>
0.0000

> <Gold.PLP.Chemscore.CHOScore>
0.0000

> <Gold.PLP.Chemscore.Metal>
0.0000

> <Gold.Chemscore.Hbonds>
donor molecule, donor type, donor heavy atom, donor atom, acceptor molecule, acceptor atom, score
      P1  H  6933  6945       L1     6  0.01

> <Gold.PLP.Chemscore.Internal.Correction>
2.1117

> <Gold.Rescore>
     Score         DG    S(hbond)    S(metal)    S(lipo)     H(rot)  DE(clash)    DE(int)     intcor
      7.67     -10.35       0.00        0.00      74.84       1.52       0.03       2.66       ----

> <Gold.Chemscore.Fitness>
7.6701

> <Gold.Chemscore.DG>
-10.3520

> <Gold.Chemscore.ZeroCoef>
-5.4800

> <Gold.Chemscore.Hbond>
0.0042

> <Gold.Chemscore.Metal>
0.0000

> <Gold.Chemscore.Lipo>
74.8400

> <Gold.Chemscore.Internal_Hbond>
0.0000

> <Gold.Chemscore.DEClash>
0.0255

> <Gold.Chemscore.DEInternal>
2.6564

> <Gold.Chemscore.Rot>
1.5227

> <Gold.Chemscore.Internal.Correction>
   9.000000E+99

> <Gold.Chemscore.Hbond.Weighted>
-0.0139

> <Gold.Chemscore.Metal.Weighted>
-0.0000

> <Gold.Chemscore.Lipo.Weighted>
-8.7563

> <Gold.Chemscore.Internal_Hbond.Weighted>
0.0000

> <Gold.Chemscore.DEClash.Weighted>
0.0255

> <Gold.Chemscore.DEInternal.Weighted>
2.6564

> <Gold.Chemscore.Rot.Weighted>
3.8982

> <Gold.Chemscore.Internal.Correction.Weighted>
   9.000000E+99

> <Gold.Protein.RotatedTorsions>
[ 6907 6896 6895 6894 ] final  130.12 input  -60.11 | X-H torsion
[ 7974 7965 7964 7962 ] final  168.43 input  175.53 | X-H torsion
[ 8008 7997 7996 7995 ] final   90.82 input   59.86 | X-H torsion
[ 10167 10162 10161 10158 ] final   -7.67 input  -65.29 | X-H torsion
[ 10718 10713 10712 10709 ] final -156.11 input   66.30 | X-H torsion
[ 10763 10752 10751 10750 ] final   23.69 input  -60.55 | X-H torsion
[ 11005 11000 10999 10996 ] final  -80.12 input  -57.11 | X-H torsion

> <Gold.Protein.ActiveResidues>
 VAL166  LYS551  ARG553  GLY616  TRP617  ASP618  TYR619  PRO620  LYS621  CYS622 
 ASP623  PHE694  ASN695  SER759  ASP760  ASP761  ALA762  ILE779  LEU786  VAL792 
 PHE793  MET794  SER795  GLU796  ALA797  LYS798  CYS799  TRP800  GLU811  SER814 

> <Gold.Protein.RotatedAtoms>
  152.3557  133.6234  159.5977 H   0  0  0  0  0  0  0  0  0  0  0  0  # atno 6907 bound_to 6896
  150.7567  133.9503  159.3492 H   0  0  0  0  0  0  0  0  0  0  0  0  # atno 6908 bound_to 6896
  151.7349  135.0868  160.0357 H   0  0  0  0  0  0  0  0  0  0  0  0  # atno 6909 bound_to 6896
  144.7389  139.8906  143.6403 H   0  0  0  0  0  0  0  0  0  0  0  0  # atno 7974 bound_to 7965
  156.0164  140.3345  155.6994 H   0  0  0  0  0  0  0  0  0  0  0  0  # atno 8008 bound_to 7997
  155.6084  140.0663  157.2731 H   0  0  0  0  0  0  0  0  0  0  0  0  # atno 8009 bound_to 7997
  154.4300  140.1798  156.1234 H   0  0  0  0  0  0  0  0  0  0  0  0  # atno 8010 bound_to 7997
  140.7036  143.6055  150.8755 H   0  0  0  0  0  0  0  0  0  0  0  0  # atno 10167 bound_to 10162
  156.5220  130.8482  151.2685 H   0  0  0  0  0  0  0  0  0  0  0  0  # atno 10718 bound_to 10713
  153.0819  135.6621  154.0028 H   0  0  0  0  0  0  0  0  0  0  0  0  # atno 10763 bound_to 10752
  153.9647  135.2970  155.3432 H   0  0  0  0  0  0  0  0  0  0  0  0  # atno 10764 bound_to 10752
  154.7220  135.5160  153.8898 H   0  0  0  0  0  0  0  0  0  0  0  0  # atno 10765 bound_to 10752
  141.1668  133.7136  156.8225 H   0  0  0  0  0  0  0  0  0  0  0  0  # atno 11005 bound_to 11000
  146.1145  139.4154  143.0267 LP  0  0  0  0  0  0  0  0  0  0  0  0  # atno 17320 bound_to 7965
  145.7395  141.0013  143.1308 LP  0  0  0  0  0  0  0  0  0  0  0  0  # atno 17321 bound_to 7965
  139.9779  143.5984  152.2952 LP  0  0  0  0  0  0  0  0  0  0  0  0  # atno 17342 bound_to 10162
  139.6594  144.7662  151.1992 LP  0  0  0  0  0  0  0  0  0  0  0  0  # atno 17343 bound_to 10162
  157.7435  130.9914  150.2599 LP  0  0  0  0  0  0  0  0  0  0  0  0  # atno 17370 bound_to 10713
  156.3140  130.3776  149.7635 LP  0  0  0  0  0  0  0  0  0  0  0  0  # atno 17371 bound_to 10713
  140.2109  134.8828  157.3273 LP  0  0  0  0  0  0  0  0  0  0  0  0  # atno 17394 bound_to 11000
  140.2088  134.4164  155.7623 LP  0  0  0  0  0  0  0  0  0  0  0  0  # atno 17395 bound_to 11000

$$$$
