AV-unprocessed.smi:1218|AV-procd|sdf|5106|dock7
  -GOLD-   22720 4163D 1   1.00000     0.00000
 Structure written by MMmdl.
 45 46  0  0  0  0  0  0  0  0  2 V2000
  142.2169  141.7401  156.5319 C   0  0  0  0  0  0  0  0  0  0  0  0
  142.6304  140.5294  155.6818 C   0  0  0  0  0  0  0  0  0  0  0  0
  141.7311  139.3214  155.9941 C   0  0  0  0  0  0  0  0  0  0  0  0
  144.1244  140.2031  155.8948 C   0  0  0  0  0  0  0  0  0  0  0  0
  145.0268  141.0057  155.0296 N   0  3  1  0  0  0  0  0  0  0  0  0
  144.9011  142.4694  155.2373 C   0  0  0  0  0  0  0  0  0  0  0  0
  145.8454  143.2289  154.2927 C   0  0  0  0  0  0  0  0  0  0  0  0
  147.1783  142.7804  154.4955 O   0  0  0  0  0  0  0  0  0  0  0  0
  147.3393  141.3984  154.1923 C   0  0  1  0  0  0  0  0  0  0  0  0
  148.8242  141.0212  154.3438 C   0  0  0  0  0  0  0  0  0  0  0  0
  149.2161  140.9051  155.7450 N   0  0  0  0  0  0  0  0  0  0  0  0
  150.4589  140.6467  156.1808 C   0  0  0  0  0  0  0  0  0  0  0  0
  151.4145  140.4729  155.4230 O   0  0  0  0  0  0  0  0  0  0  0  0
  150.6336  140.5673  157.7022 C   0  0  0  0  0  0  0  0  0  0  0  0
  151.3299  141.7227  158.2445 N   0  0  0  0  0  0  0  0  0  0  0  0
  151.1183  143.0585  157.9705 C   0  0  0  0  0  0  0  0  0  0  0  0
  152.0119  143.7730  158.7156 C   0  0  0  0  0  0  0  0  0  0  0  0
  152.7351  142.7739  159.4255 C   0  0  0  0  0  0  0  0  0  0  0  0
  152.3232  141.5484  159.1436 N   0  0  0  0  0  0  0  0  0  0  0  0
  146.4440  140.5858  155.1489 C   0  0  0  0  0  0  0  0  0  0  0  0
  142.3429  141.5402  157.5964 H   0  0  0  0  0  0  0  0  0  0  0  0
  141.1713  142.0008  156.3643 H   0  0  0  0  0  0  0  0  0  0  0  0
  142.8160  142.6173  156.2849 H   0  0  0  0  0  0  0  0  0  0  0  0
  142.4681  140.8088  154.6411 H   0  0  0  0  0  0  0  0  0  0  0  0
  141.8481  138.9970  157.0287 H   0  0  0  0  0  0  0  0  0  0  0  0
  141.9636  138.4730  155.3504 H   0  0  0  0  0  0  0  0  0  0  0  0
  140.6794  139.5653  155.8408 H   0  0  0  0  0  0  0  0  0  0  0  0
  144.4060  140.3508  156.9386 H   0  0  0  0  0  0  0  0  0  0  0  0
  144.2741  139.1420  155.6892 H   0  0  0  0  0  0  0  0  0  0  0  0
  143.8774  142.7962  155.0588 H   0  0  0  0  0  0  0  0  0  0  0  0
  145.1391  142.7148  156.2735 H   0  0  0  0  0  0  0  0  0  0  0  0
  145.5538  143.0893  153.2505 H   0  0  0  0  0  0  0  0  0  0  0  0
  145.7990  144.2989  154.4960 H   0  0  0  0  0  0  0  0  0  0  0  0
  147.0320  141.2138  153.1610 H   0  0  0  0  0  0  0  0  0  0  0  0
  149.0468  140.1011  153.8005 H   0  0  0  0  0  0  0  0  0  0  0  0
  149.4458  141.7971  153.8963 H   0  0  0  0  0  0  0  0  0  0  0  0
  148.4898  141.0333  156.4349 H   0  0  0  0  0  0  0  0  0  0  0  0
  149.6590  140.4974  158.1870 H   0  0  0  0  0  0  0  0  0  0  0  0
  151.1840  139.6592  157.9537 H   0  0  0  0  0  0  0  0  0  0  0  0
  150.3604  143.3841  157.2731 H   0  0  0  0  0  0  0  0  0  0  0  0
  152.1314  144.8456  158.7483 H   0  0  0  0  0  0  0  0  0  0  0  0
  153.5414  142.9016  160.1327 H   0  0  0  0  0  0  0  0  0  0  0  0
  146.7762  140.7177  156.1801 H   0  0  0  0  0  0  0  0  0  0  0  0
  146.5305  139.5235  154.9168 H   0  0  0  0  0  0  0  0  0  0  0  0
  144.7557  140.8158  154.0752 H   0  0  0  0  0  0  0  0  0  0  0  0
  1  2  1  0  0  0  0
  1 21  1  0  0  0  0
  1 22  1  0  0  0  0
  1 23  1  0  0  0  0
  2  3  1  0  0  0  0
  2  4  1  0  0  0  0
  2 24  1  0  0  0  0
  3 25  1  0  0  0  0
  3 26  1  0  0  0  0
  3 27  1  0  0  0  0
  4  5  1  0  0  0  0
  4 28  1  0  0  0  0
  4 29  1  0  0  0  0
  5 20  1  0  0  0  0
  5  6  1  0  0  0  0
  5 45  1  0  0  0  0
  6  7  1  0  0  0  0
  6 30  1  0  0  0  0
  6 31  1  0  0  0  0
  7  8  1  0  0  0  0
  7 32  1  0  0  0  0
  7 33  1  0  0  0  0
  8  9  1  0  0  0  0
  9 10  1  0  0  0  0
  9 20  1  0  0  0  0
  9 34  1  0  0  0  0
 10 11  1  0  0  0  0
 10 35  1  0  0  0  0
 10 36  1  0  0  0  0
 11 12  1  0  0  0  0
 11 37  1  0  0  0  0
 12 13  2  0  0  0  0
 12 14  1  0  0  0  0
 14 15  1  0  0  0  0
 14 38  1  0  0  0  0
 14 39  1  0  0  0  0
 15 19  1  0  0  0  0
 15 16  1  0  0  0  0
 16 17  2  0  0  0  0
 16 40  1  0  0  0  0
 17 18  1  0  0  0  0
 17 41  1  0  0  0  0
 18 19  2  0  0  0  0
 18 42  1  0  0  0  0
 20 43  1  0  0  0  0
 20 44  1  0  0  0  0
M  CHG  1   5   1
M  END
> <s_m_source_file>
AV-unprocessed.smi

> <i_m_source_file_index>
1218

> <i_lp_mmshare_version>
43012

> <i_f3d_flags>
0

> <s_epik_input>
W0NIM11bQ0hdKFtDSDNdKVtDSDJdTjFbQ0gyXVtDSDJdT1tDQEhdKFtDSDJdMSlbQ0gyXVtOSF1DKD1PKVtDSDJdbjJbY0hdW2NIXVtjSF1uMg==

> <s_epik_cmdline>
J2VwaWtfcHl0aG9uJywgJy1waCcsICc3LjAnLCAnLXRuJywgJzgnLCAnLW1hJywgJzIwMCcsICctbWV0YWxfYmluZGluZycsICctaW1hZScsICc8aW5maWxlLm1hZT4nLCAnLW9tYWUnLCAnPG91dGZpbGUubWFlPic=

> <r_lp_tautomer_probability>
1

> <r_epik_Ionization_Penalty>
0.0995066

> <r_epik_Ionization_Penalty_Charging>
0.0994921

> <r_epik_Ionization_Penalty_Neutral>
1.44634e-05

> <r_epik_State_Penalty>
0.0895432

> <r_epik_Charging_Adjusted_Penalty>
0.189035

> <i_epik_Tot_Q>
1

> <i_epik_Tot_abs_Q>
1

> <r_epik_Metal_State_Penalty>
0.0895432

> <b_epik_Metal_Only>
0

> <s_lp_Force_Field>
OPLS_2005

> <r_lp_Energy>
18.9521

> <b_lp_Chiralities_Consistent>
1

> <s_lp_Variant>
AV-unprocessed.smi:1218-1

> <Gold.Version>
5.8.1

> <Gold.Id.Protein>
6NUR|6NUR_protein|mol2

> <Gold.PLP.Fitness>
45.8857

> <Gold.PLP.PLP>
-34.9895

> <Gold.PLP.part.hbond>
-2.9860

> <Gold.PLP.part.metal>
0.0000

> <Gold.PLP.part.buried>
-4.5013

> <Gold.PLP.part.nonpolar>
-30.2207

> <Gold.PLP.part.repulsive>
2.2830

> <Gold.PLP.ligand.clash>
0.0000

> <Gold.PLP.ligand.torsion>
0.7620

> <Gold.PLP.Chemscore.Hbond>
3.0864

> <Gold.PLP.Chemscore.CHOScore>
1.0000

> <Gold.PLP.Chemscore.Metal>
0.0000

> <Gold.Chemscore.Hbonds>
donor molecule, donor type, donor heavy atom, donor atom, acceptor molecule, acceptor atom, score
      L1  H     5    45       P1 10175  2.00
      P1  H  7989  7998       L1    13  0.86
      L1  C    16    40       P1  8028  0.95

> <Gold.PLP.Chemscore.Internal.Correction>
0.1611

> <Gold.Rescore>
     Score         DG    S(hbond)    S(metal)    S(lipo)     H(rot)  DE(clash)    DE(int)     intcor
     14.56     -15.46       1.88        0.00      74.67       1.96       0.15       0.76       ----

> <Gold.Chemscore.Fitness>
14.5572

> <Gold.Chemscore.DG>
-15.4618

> <Gold.Chemscore.ZeroCoef>
-5.4800

> <Gold.Chemscore.Hbond>
1.8771

> <Gold.Chemscore.Metal>
0.0000

> <Gold.Chemscore.Lipo>
74.6658

> <Gold.Chemscore.Internal_Hbond>
0.0000

> <Gold.Chemscore.DEClash>
0.1459

> <Gold.Chemscore.DEInternal>
0.7588

> <Gold.Chemscore.Rot>
1.9624

> <Gold.Chemscore.Internal.Correction>
   9.000000E+99

> <Gold.Chemscore.Hbonds>
donor molecule, donor type, donor heavy atom, donor atom, acceptor molecule, acceptor atom, score
      L1  H     5    45       P1 10175  0.96
      P1  H  7989  7998       L1    13  0.83

> <Gold.Chemscore.Hbond.Weighted>
-6.2696

> <Gold.Chemscore.Metal.Weighted>
-0.0000

> <Gold.Chemscore.Lipo.Weighted>
-8.7359

> <Gold.Chemscore.Internal_Hbond.Weighted>
0.0000

> <Gold.Chemscore.DEClash.Weighted>
0.1459

> <Gold.Chemscore.DEInternal.Weighted>
0.7588

> <Gold.Chemscore.Rot.Weighted>
5.0237

> <Gold.Chemscore.Internal.Correction.Weighted>
   9.000000E+99

> <Gold.Protein.RotatedTorsions>
[ 6907 6896 6895 6894 ] final  138.27 input  -60.11 | X-H torsion
[ 7974 7965 7964 7962 ] final -172.03 input  175.53 | X-H torsion
[ 8008 7997 7996 7995 ] final   30.73 input   59.86 | X-H torsion
[ 10167 10162 10161 10158 ] final -101.00 input  -65.29 | X-H torsion
[ 10718 10713 10712 10709 ] final    6.90 input   66.30 | X-H torsion
[ 10763 10752 10751 10750 ] final  -88.07 input  -60.55 | X-H torsion
[ 11005 11000 10999 10996 ] final  -30.74 input  -57.11 | X-H torsion

> <Gold.Protein.ActiveResidues>
 VAL166  LYS551  ARG553  GLY616  TRP617  ASP618  TYR619  PRO620  LYS621  CYS622 
 ASP623  PHE694  ASN695  SER759  ASP760  ASP761  ALA762  ILE779  LEU786  VAL792 
 PHE793  MET794  SER795  GLU796  ALA797  LYS798  CYS799  TRP800  GLU811  SER814 

> <Gold.Protein.RotatedAtoms>
  152.2685  133.5361  159.5424 H   0  0  0  0  0  0  0  0  0  0  0  0  # atno 6907 bound_to 6896
  150.7150  134.0730  159.3880 H   0  0  0  0  0  0  0  0  0  0  0  0  # atno 6908 bound_to 6896
  151.8646  135.0512  160.0523 H   0  0  0  0  0  0  0  0  0  0  0  0  # atno 6909 bound_to 6896
  144.7150  140.1833  143.6356 H   0  0  0  0  0  0  0  0  0  0  0  0  # atno 7974 bound_to 7965
  155.0951  140.3224  155.4562 H   0  0  0  0  0  0  0  0  0  0  0  0  # atno 8008 bound_to 7997
  156.2732  140.2071  156.6025 H   0  0  0  0  0  0  0  0  0  0  0  0  # atno 8009 bound_to 7997
  154.6872  140.0520  157.0314 H   0  0  0  0  0  0  0  0  0  0  0  0  # atno 8010 bound_to 7997
  140.2459  143.3506  152.0759 H   0  0  0  0  0  0  0  0  0  0  0  0  # atno 10167 bound_to 10162
  156.9289  130.5818  149.5649 H   0  0  0  0  0  0  0  0  0  0  0  0  # atno 10718 bound_to 10713
  154.6405  135.5390  153.7784 H   0  0  0  0  0  0  0  0  0  0  0  0  # atno 10763 bound_to 10752
  153.0331  135.6458  154.1167 H   0  0  0  0  0  0  0  0  0  0  0  0  # atno 10764 bound_to 10752
  154.1091  135.2928  155.3214 H   0  0  0  0  0  0  0  0  0  0  0  0  # atno 10765 bound_to 10752
  140.9408  133.7280  156.1074 H   0  0  0  0  0  0  0  0  0  0  0  0  # atno 11005 bound_to 11000
  145.8836  139.2336  143.1591 LP  0  0  0  0  0  0  0  0  0  0  0  0  # atno 17320 bound_to 7965
  145.9971  140.8552  143.0037 LP  0  0  0  0  0  0  0  0  0  0  0  0  # atno 17321 bound_to 7965
  139.5062  144.6809  151.6011 LP  0  0  0  0  0  0  0  0  0  0  0  0  # atno 17342 bound_to 10162
  140.6078  143.9492  150.6431 LP  0  0  0  0  0  0  0  0  0  0  0  0  # atno 17343 bound_to 10162
  156.0456  130.5533  150.8873 LP  0  0  0  0  0  0  0  0  0  0  0  0  # atno 17370 bound_to 10713
  157.5859  131.0945  150.9196 LP  0  0  0  0  0  0  0  0  0  0  0  0  # atno 17371 bound_to 10713
  140.7736  134.3805  157.5502 LP  0  0  0  0  0  0  0  0  0  0  0  0  # atno 17394 bound_to 11000
  139.8820  134.9037  156.2862 LP  0  0  0  0  0  0  0  0  0  0  0  0  # atno 17395 bound_to 11000

$$$$
