AV-unprocessed.smi:2409|AV-procd|sdf|9524|dock4
  -GOLD-   2272013153D 1   1.00000     0.00000
 Structure written by MMmdl.
 35 36  0  0  0  0  0  0  0  0  1 V2000
  151.9615  144.4838  158.1896 C   0  0  0  0  0  0  0  0  0  0  0  0
  151.6366  143.4169  159.0642 O   0  0  0  0  0  0  0  0  0  0  0  0
  151.7312  142.1998  158.4876 C   0  0  0  0  0  0  0  0  0  0  0  0
  150.9610  141.5678  157.5512 C   0  0  0  0  0  0  0  0  0  0  0  0
  149.7904  142.0096  156.8842 N   0  0  0  0  0  0  0  0  0  0  0  0
  149.4111  141.7304  155.6235 C   0  0  0  0  0  0  0  0  0  0  0  0
  150.0622  141.0428  154.8401 O   0  0  0  0  0  0  0  0  0  0  0  0
  148.2360  142.2753  155.2616 N   0  0  0  0  0  0  0  0  0  0  0  0
  147.5630  142.1681  154.0004 C   0  0  2  0  0  0  0  0  0  0  0  0
  146.2366  142.8842  153.8642 C   0  0  0  0  0  0  0  0  0  0  0  0
  146.2683  141.3797  153.9217 C   0  0  2  0  0  0  0  0  0  0  0  0
  145.7011  140.6402  155.1176 C   0  0  0  0  0  0  0  0  0  0  0  0
  151.5447  140.2795  157.4018 C   0  0  0  0  0  0  0  0  0  0  0  0
  151.1091  139.1343  156.5337 C   0  0  0  0  0  0  0  0  0  0  0  0
  152.6278  140.1530  158.1605 N   0  0  0  0  0  0  0  0  0  0  0  0
  152.7493  141.3311  158.8199 N   0  0  0  0  0  0  0  0  0  0  0  0
  153.8384  141.5210  159.7557 C   0  0  0  0  0  0  0  0  0  0  0  0
  151.8552  145.4323  158.7156 H   0  0  0  0  0  0  0  0  0  0  0  0
  151.2928  144.4996  157.3277 H   0  0  0  0  0  0  0  0  0  0  0  0
  152.9890  144.4125  157.8313 H   0  0  0  0  0  0  0  0  0  0  0  0
  149.1246  142.5137  157.4512 H   0  0  0  0  0  0  0  0  0  0  0  0
  147.7836  142.8602  155.9493 H   0  0  0  0  0  0  0  0  0  0  0  0
  148.1767  142.1785  153.1008 H   0  0  0  0  0  0  0  0  0  0  0  0
  145.8549  143.4171  154.7334 H   0  0  0  0  0  0  0  0  0  0  0  0
  146.0105  143.3433  152.9039 H   0  0  0  0  0  0  0  0  0  0  0  0
  146.0983  140.8620  152.9795 H   0  0  0  0  0  0  0  0  0  0  0  0
  145.8061  141.2269  156.0308 H   0  0  0  0  0  0  0  0  0  0  0  0
  146.2215  139.6916  155.2509 H   0  0  0  0  0  0  0  0  0  0  0  0
  144.6417  140.4366  154.9607 H   0  0  0  0  0  0  0  0  0  0  0  0
  150.3320  139.4387  155.8327 H   0  0  0  0  0  0  0  0  0  0  0  0
  150.7104  138.3182  157.1362 H   0  0  0  0  0  0  0  0  0  0  0  0
  151.9429  138.7428  155.9506 H   0  0  0  0  0  0  0  0  0  0  0  0
  154.1243  142.5727  159.7848 H   0  0  0  0  0  0  0  0  0  0  0  0
  154.7043  140.9301  159.4540 H   0  0  0  0  0  0  0  0  0  0  0  0
  153.5218  141.2104  160.7516 H   0  0  0  0  0  0  0  0  0  0  0  0
  1  2  1  0  0  0  0
  1 18  1  0  0  0  0
  1 19  1  0  0  0  0
  1 20  1  0  0  0  0
  2  3  1  0  0  0  0
  3 16  1  0  0  0  0
  3  4  2  0  0  0  0
  4  5  1  0  0  0  0
  4 13  1  0  0  0  0
  5  6  1  0  0  0  0
  5 21  1  0  0  0  0
  6  7  2  0  0  0  0
  6  8  1  0  0  0  0
  8  9  1  0  0  0  0
  8 22  1  0  0  0  0
  9 11  1  0  0  0  0
  9 10  1  0  0  0  0
  9 23  1  0  0  0  0
 10 11  1  0  0  0  0
 10 24  1  0  0  0  0
 10 25  1  0  0  0  0
 11 12  1  0  0  0  0
 11 26  1  0  0  0  0
 12 27  1  0  0  0  0
 12 28  1  0  0  0  0
 12 29  1  0  0  0  0
 13 14  1  0  0  0  0
 13 15  2  0  0  0  0
 14 30  1  0  0  0  0
 14 31  1  0  0  0  0
 14 32  1  0  0  0  0
 15 16  1  0  0  0  0
 16 17  1  0  0  0  0
 17 33  1  0  0  0  0
 17 34  1  0  0  0  0
 17 35  1  0  0  0  0
M  END
> <s_m_source_file>
AV-unprocessed.smi

> <i_m_source_file_index>
2409

> <i_lp_mmshare_version>
43012

> <i_f3d_flags>
0

> <s_epik_input>
W0NIM11uMW5jKFtDSDNdKWMoYzFPW0NIM10pW05IXUMoPU8pW05IXVtDQEBIXTJbQ0gyXVtDQEhdMltDSDNd

> <s_epik_cmdline>
J2VwaWtfcHl0aG9uJywgJy1waCcsICc3LjAnLCAnLXRuJywgJzgnLCAnLW1hJywgJzIwMCcsICctbWV0YWxfYmluZGluZycsICctaW1hZScsICc8aW5maWxlLm1hZT4nLCAnLW9tYWUnLCAnPG91dGZpbGUubWFlPic=

> <r_lp_tautomer_probability>
1

> <r_epik_Ionization_Penalty>
0.000417804

> <r_epik_Ionization_Penalty_Charging>
0

> <r_epik_Ionization_Penalty_Neutral>
0.000417804

> <r_epik_State_Penalty>
-0

> <r_epik_Charging_Adjusted_Penalty>
0

> <i_epik_Tot_Q>
0

> <i_epik_Tot_abs_Q>
0

> <r_epik_Metal_State_Penalty>
-0

> <b_epik_Metal_Only>
0

> <s_lp_Force_Field>
OPLS_2005

> <r_lp_Energy>
35.5407

> <b_lp_Chiralities_Consistent>
1

> <s_lp_Variant>
AV-unprocessed.smi:2409-3

> <Gold.Version>
5.8.1

> <Gold.Id.Protein>
6NUR|6NUR_protein|mol2

> <Gold.PLP.Fitness>
37.9621

> <Gold.PLP.PLP>
-33.1619

> <Gold.PLP.part.hbond>
-3.0000

> <Gold.PLP.part.metal>
0.0000

> <Gold.PLP.part.buried>
-4.5085

> <Gold.PLP.part.nonpolar>
-25.1650

> <Gold.PLP.part.repulsive>
0.2506

> <Gold.PLP.ligand.clash>
0.0000

> <Gold.PLP.ligand.torsion>
0.4133

> <Gold.PLP.Chemscore.Hbond>
1.8608

> <Gold.PLP.Chemscore.CHOScore>
0.0000

> <Gold.PLP.Chemscore.Metal>
0.0000

> <Gold.Chemscore.Hbonds>
donor molecule, donor type, donor heavy atom, donor atom, acceptor molecule, acceptor atom, score
      L1  H     8    22       P1  8028  0.01
      P1  H  7989  7998       L1     7  0.61
      P1  H  7997  8010       L1    15  0.35

> <Gold.PLP.Chemscore.Internal.Correction>
0.0444

> <Gold.Rescore>
     Score         DG    S(hbond)    S(metal)    S(lipo)     H(rot)  DE(clash)    DE(int)     intcor
     10.92     -13.64       1.17        0.00      63.28       1.23       0.03       2.69       ----

> <Gold.Chemscore.Fitness>
10.9164

> <Gold.Chemscore.DG>
-13.6414

> <Gold.Chemscore.ZeroCoef>
-5.4800

> <Gold.Chemscore.Hbond>
1.1689

> <Gold.Chemscore.Metal>
0.0000

> <Gold.Chemscore.Lipo>
63.2810

> <Gold.Chemscore.Internal_Hbond>
0.0000

> <Gold.Chemscore.DEClash>
0.0328

> <Gold.Chemscore.DEInternal>
2.6922

> <Gold.Chemscore.Rot>
1.2292

> <Gold.Chemscore.Internal.Correction>
   9.000000E+99

> <Gold.Chemscore.Hbonds>
donor molecule, donor type, donor heavy atom, donor atom, acceptor molecule, acceptor atom, score
      L1  H     8    22       P1  8028  0.02
      P1  H  7989  7998       L1     7  0.58
      P1  H  7997  8010       L1    15  0.09

> <Gold.Chemscore.Hbond.Weighted>
-3.9042

> <Gold.Chemscore.Metal.Weighted>
-0.0000

> <Gold.Chemscore.Lipo.Weighted>
-7.4039

> <Gold.Chemscore.Internal_Hbond.Weighted>
0.0000

> <Gold.Chemscore.DEClash.Weighted>
0.0328

> <Gold.Chemscore.DEInternal.Weighted>
2.6922

> <Gold.Chemscore.Rot.Weighted>
3.1467

> <Gold.Chemscore.Internal.Correction.Weighted>
   9.000000E+99

> <Gold.Protein.RotatedTorsions>
[ 6907 6896 6895 6894 ] final  147.02 input  -60.11 | X-H torsion
[ 7974 7965 7964 7962 ] final    5.41 input  175.53 | X-H torsion
[ 8008 7997 7996 7995 ] final   30.61 input   59.86 | X-H torsion
[ 10167 10162 10161 10158 ] final   72.59 input  -65.29 | X-H torsion
[ 10718 10713 10712 10709 ] final   54.57 input   66.30 | X-H torsion
[ 10763 10752 10751 10750 ] final   82.92 input  -60.55 | X-H torsion
[ 11005 11000 10999 10996 ] final  157.51 input  -57.11 | X-H torsion

> <Gold.Protein.ActiveResidues>
 VAL166  LYS551  ARG553  GLY616  TRP617  ASP618  TYR619  PRO620  LYS621  CYS622 
 ASP623  PHE694  ASN695  SER759  ASP760  ASP761  ALA762  ILE779  LEU786  VAL792 
 PHE793  MET794  SER795  GLU796  ALA797  LYS798  CYS799  TRP800  GLU811  SER814 

> <Gold.Protein.RotatedAtoms>
  152.1603  133.4577  159.4857 H   0  0  0  0  0  0  0  0  0  0  0  0  # atno 6907 bound_to 6896
  150.6906  134.2080  159.4357 H   0  0  0  0  0  0  0  0  0  0  0  0  # atno 6908 bound_to 6896
  151.9981  134.9942  160.0615 H   0  0  0  0  0  0  0  0  0  0  0  0  # atno 6909 bound_to 6896
  146.2440  140.0387  142.8384 H   0  0  0  0  0  0  0  0  0  0  0  0  # atno 7974 bound_to 7965
  155.0931  140.3222  155.4568 H   0  0  0  0  0  0  0  0  0  0  0  0  # atno 8008 bound_to 7997
  156.2737  140.2074  156.6005 H   0  0  0  0  0  0  0  0  0  0  0  0  # atno 8009 bound_to 7997
  154.6888  140.0518  157.0329 H   0  0  0  0  0  0  0  0  0  0  0  0  # atno 8010 bound_to 7997
  140.0337  144.5445  150.7487 H   0  0  0  0  0  0  0  0  0  0  0  0  # atno 10167 bound_to 10162
  157.5269  130.8603  149.8634 H   0  0  0  0  0  0  0  0  0  0  0  0  # atno 10718 bound_to 10713
  153.1245  135.4710  154.9250 H   0  0  0  0  0  0  0  0  0  0  0  0  # atno 10763 bound_to 10752
  154.7607  135.3131  154.8386 H   0  0  0  0  0  0  0  0  0  0  0  0  # atno 10764 bound_to 10752
  153.8942  135.6881  153.4812 H   0  0  0  0  0  0  0  0  0  0  0  0  # atno 10765 bound_to 10752
  140.1776  134.8498  157.2765 H   0  0  0  0  0  0  0  0  0  0  0  0  # atno 11005 bound_to 11000
  145.1088  140.9392  143.4668 LP  0  0  0  0  0  0  0  0  0  0  0  0  # atno 17320 bound_to 7965
  145.0597  139.3115  143.5887 LP  0  0  0  0  0  0  0  0  0  0  0  0  # atno 17321 bound_to 7965
  140.7291  143.2669  151.4016 LP  0  0  0  0  0  0  0  0  0  0  0  0  # atno 17342 bound_to 10162
  139.6059  144.1198  152.2248 LP  0  0  0  0  0  0  0  0  0  0  0  0  # atno 17343 bound_to 10162
  156.0393  130.3743  150.1476 LP  0  0  0  0  0  0  0  0  0  0  0  0  # atno 17370 bound_to 10713
  156.9662  130.9820  151.3468 LP  0  0  0  0  0  0  0  0  0  0  0  0  # atno 17371 bound_to 10713
  140.2304  134.3916  155.7524 LP  0  0  0  0  0  0  0  0  0  0  0  0  # atno 17394 bound_to 11000
  141.2221  133.7212  156.8631 LP  0  0  0  0  0  0  0  0  0  0  0  0  # atno 17395 bound_to 11000

$$$$
