AV-unprocessed.smi:1561|AV-procd|sdf|6283|dock7
  -GOLD-   22720 6483D 1   1.00000     0.00000
 Structure written by MMmdl.
 33 34  0  0  0  0  0  0  0  0  1 V2000
  153.9850  141.7413  161.2120 C   0  0  0  0  0  0  0  0  0  0  0  0
  152.7906  141.4774  160.2723 C   0  0  2  0  0  0  0  0  0  0  0  0
  153.0881  140.3965  159.2220 C   0  0  0  0  0  0  0  0  0  0  0  0
  154.2157  139.9118  159.1199 O   0  0  0  0  0  0  0  0  0  0  0  0
  152.0626  140.0455  158.4293 N   0  0  0  0  0  0  0  0  0  0  0  0
  152.1403  139.1199  157.3045 C   0  0  0  0  0  0  0  0  0  0  0  0
  151.6613  139.7805  155.9980 C   0  0  2  0  0  0  0  0  0  0  0  0
  150.4634  140.7046  156.1751 C   0  0  0  0  0  0  0  0  0  0  0  0
  149.6502  140.5243  154.8882 C   0  0  0  0  0  0  0  0  0  0  0  0
  150.4175  139.6553  154.0659 O   0  0  0  0  0  0  0  0  0  0  0  0
  151.1729  138.8140  154.9195 C   0  0  0  0  0  0  0  0  0  0  0  0
  152.3211  142.6924  159.6151 N   0  0  0  0  0  0  0  0  0  0  0  0
  152.7893  143.9804  159.7810 C   0  0  0  0  0  0  0  0  0  0  0  0
  152.0213  144.8007  159.0052 C   0  0  0  0  0  0  0  0  0  0  0  0
  151.0847  143.9160  158.4030 C   0  0  0  0  0  0  0  0  0  0  0  0
  151.2599  142.6590  158.7753 N   0  0  0  0  0  0  0  0  0  0  0  0
  154.2837  140.8302  161.7316 H   0  0  0  0  0  0  0  0  0  0  0  0
  153.7251  142.4791  161.9715 H   0  0  0  0  0  0  0  0  0  0  0  0
  154.8577  142.1148  160.6744 H   0  0  0  0  0  0  0  0  0  0  0  0
  151.9706  141.1114  160.8924 H   0  0  0  0  0  0  0  0  0  0  0  0
  151.1703  140.4904  158.5885 H   0  0  0  0  0  0  0  0  0  0  0  0
  153.1521  138.7271  157.1892 H   0  0  0  0  0  0  0  0  0  0  0  0
  151.5059  138.2634  157.5335 H   0  0  0  0  0  0  0  0  0  0  0  0
  152.4786  140.3668  155.5747 H   0  0  0  0  0  0  0  0  0  0  0  0
  149.8600  140.4197  157.0380 H   0  0  0  0  0  0  0  0  0  0  0  0
  150.7796  141.7384  156.3177 H   0  0  0  0  0  0  0  0  0  0  0  0
  148.6882  140.0580  155.1056 H   0  0  0  0  0  0  0  0  0  0  0  0
  149.4618  141.4696  154.3788 H   0  0  0  0  0  0  0  0  0  0  0  0
  151.9897  138.3305  154.3827 H   0  0  0  0  0  0  0  0  0  0  0  0
  150.5275  138.0402  155.3388 H   0  0  0  0  0  0  0  0  0  0  0  0
  153.6209  144.2046  160.4326 H   0  0  0  0  0  0  0  0  0  0  0  0
  152.1106  145.8707  158.8907 H   0  0  0  0  0  0  0  0  0  0  0  0
  150.2851  144.1488  157.7152 H   0  0  0  0  0  0  0  0  0  0  0  0
  1  2  1  0  0  0  0
  1 17  1  0  0  0  0
  1 18  1  0  0  0  0
  1 19  1  0  0  0  0
  2  3  1  0  0  0  0
  2 12  1  0  0  0  0
  2 20  1  0  0  0  0
  3  4  2  0  0  0  0
  3  5  1  0  0  0  0
  5  6  1  0  0  0  0
  5 21  1  0  0  0  0
  6  7  1  0  0  0  0
  6 22  1  0  0  0  0
  6 23  1  0  0  0  0
  7 11  1  0  0  0  0
  7  8  1  0  0  0  0
  7 24  1  0  0  0  0
  8  9  1  0  0  0  0
  8 25  1  0  0  0  0
  8 26  1  0  0  0  0
  9 10  1  0  0  0  0
  9 27  1  0  0  0  0
  9 28  1  0  0  0  0
 10 11  1  0  0  0  0
 11 29  1  0  0  0  0
 11 30  1  0  0  0  0
 12 16  1  0  0  0  0
 12 13  1  0  0  0  0
 13 14  2  0  0  0  0
 13 31  1  0  0  0  0
 14 15  1  0  0  0  0
 14 32  1  0  0  0  0
 15 16  2  0  0  0  0
 15 33  1  0  0  0  0
M  END
> <s_m_source_file>
AV-unprocessed.smi

> <i_m_source_file_index>
1561

> <i_lp_mmshare_version>
43012

> <i_f3d_flags>
0

> <s_epik_input>
bjFbY0hdW2NIXVtjSF1uMVtDQEhdKFtDSDNdKUMoPU8pW05IXVtDSDJdW0NAQEhdMltDSDJdW0NIMl1PW0NIMl0y

> <s_epik_cmdline>
J2VwaWtfcHl0aG9uJywgJy1waCcsICc3LjAnLCAnLXRuJywgJzgnLCAnLW1hJywgJzIwMCcsICctbWV0YWxfYmluZGluZycsICctaW1hZScsICc8aW5maWxlLm1hZT4nLCAnLW9tYWUnLCAnPG91dGZpbGUubWFlPic=

> <r_lp_tautomer_probability>
1

> <r_epik_Ionization_Penalty>
3.82077e-05

> <r_epik_Ionization_Penalty_Charging>
0

> <r_epik_Ionization_Penalty_Neutral>
3.82077e-05

> <r_epik_State_Penalty>
-0

> <r_epik_Charging_Adjusted_Penalty>
0

> <i_epik_Tot_Q>
0

> <i_epik_Tot_abs_Q>
0

> <r_epik_Metal_State_Penalty>
-0

> <b_epik_Metal_Only>
0

> <s_lp_Force_Field>
OPLS_2005

> <r_lp_Energy>
22.2594

> <b_lp_Chiralities_Consistent>
1

> <s_lp_Variant>
AV-unprocessed.smi:1561-1

> <Gold.Version>
5.8.1

> <Gold.Id.Protein>
6NUR|6NUR_protein|mol2

> <Gold.PLP.Fitness>
44.9528

> <Gold.PLP.PLP>
-36.4715

> <Gold.PLP.part.hbond>
-2.0000

> <Gold.PLP.part.metal>
0.0000

> <Gold.PLP.part.buried>
-3.9921

> <Gold.PLP.part.nonpolar>
-31.9693

> <Gold.PLP.part.repulsive>
1.1489

> <Gold.PLP.ligand.clash>
0.0000

> <Gold.PLP.ligand.torsion>
0.3154

> <Gold.PLP.Chemscore.Hbond>
2.0000

> <Gold.PLP.Chemscore.CHOScore>
1.0000

> <Gold.PLP.Chemscore.Metal>
0.0000

> <Gold.Chemscore.Hbonds>
donor molecule, donor type, donor heavy atom, donor atom, acceptor molecule, acceptor atom, score
      P1  H  7989  7998       L1    10  0.90
      P1  H  7997  8008       L1     4  1.00
      L1  C    15    33       P1  8028  1.00

> <Gold.PLP.Chemscore.Internal.Correction>
0.1121

> <Gold.Rescore>
     Score         DG    S(hbond)    S(metal)    S(lipo)     H(rot)  DE(clash)    DE(int)     intcor
     13.34     -14.93       0.97        0.00      88.27       1.61       0.02       1.57       ----

> <Gold.Chemscore.Fitness>
13.3369

> <Gold.Chemscore.DG>
-14.9282

> <Gold.Chemscore.ZeroCoef>
-5.4800

> <Gold.Chemscore.Hbond>
0.9703

> <Gold.Chemscore.Metal>
0.0000

> <Gold.Chemscore.Lipo>
88.2679

> <Gold.Chemscore.Internal_Hbond>
0.0000

> <Gold.Chemscore.DEClash>
0.0186

> <Gold.Chemscore.DEInternal>
1.5727

> <Gold.Chemscore.Rot>
1.6094

> <Gold.Chemscore.Internal.Correction>
   9.000000E+99

> <Gold.Chemscore.Hbonds>
donor molecule, donor type, donor heavy atom, donor atom, acceptor molecule, acceptor atom, score
      P1  H  7989  7998       L1    10  0.08
      P1  H  7997  8008       L1     4  0.64

> <Gold.Chemscore.Hbond.Weighted>
-3.2409

> <Gold.Chemscore.Metal.Weighted>
-0.0000

> <Gold.Chemscore.Lipo.Weighted>
-10.3273

> <Gold.Chemscore.Internal_Hbond.Weighted>
0.0000

> <Gold.Chemscore.DEClash.Weighted>
0.0186

> <Gold.Chemscore.DEInternal.Weighted>
1.5727

> <Gold.Chemscore.Rot.Weighted>
4.1201

> <Gold.Chemscore.Internal.Correction.Weighted>
   9.000000E+99

> <Gold.Protein.RotatedTorsions>
[ 6907 6896 6895 6894 ] final  131.19 input  -60.11 | X-H torsion
[ 7974 7965 7964 7962 ] final  -95.95 input  175.53 | X-H torsion
[ 8008 7997 7996 7995 ] final -100.68 input   59.86 | X-H torsion
[ 10167 10162 10161 10158 ] final   86.73 input  -65.29 | X-H torsion
[ 10718 10713 10712 10709 ] final -149.45 input   66.30 | X-H torsion
[ 10763 10752 10751 10750 ] final  -19.13 input  -60.55 | X-H torsion
[ 11005 11000 10999 10996 ] final   45.90 input  -57.11 | X-H torsion

> <Gold.Protein.ActiveResidues>
 VAL166  LYS551  ARG553  GLY616  TRP617  ASP618  TYR619  PRO620  LYS621  CYS622 
 ASP623  PHE694  ASN695  SER759  ASP760  ASP761  ALA762  ILE779  LEU786  VAL792 
 PHE793  MET794  SER795  GLU796  ALA797  LYS798  CYS799  TRP800  GLU811  SER814 

> <Gold.Protein.RotatedAtoms>
  152.3451  133.6112  159.5903 H   0  0  0  0  0  0  0  0  0  0  0  0  # atno 6907 bound_to 6896
  150.7502  133.9662  159.3540 H   0  0  0  0  0  0  0  0  0  0  0  0  # atno 6908 bound_to 6896
  151.7521  135.0831  160.0383 H   0  0  0  0  0  0  0  0  0  0  0  0  # atno 6909 bound_to 6896
  145.3534  140.9480  143.2541 H   0  0  0  0  0  0  0  0  0  0  0  0  # atno 7974 bound_to 7965
  154.8320  140.0439  157.1483 H   0  0  0  0  0  0  0  0  0  0  0  0  # atno 8008 bound_to 7997
  154.9142  140.3018  155.5230 H   0  0  0  0  0  0  0  0  0  0  0  0  # atno 8009 bound_to 7997
  156.2987  140.2352  156.4184 H   0  0  0  0  0  0  0  0  0  0  0  0  # atno 8010 bound_to 7997
  139.8846  144.6421  150.8806 H   0  0  0  0  0  0  0  0  0  0  0  0  # atno 10167 bound_to 10162
  156.4334  130.8086  151.2314 H   0  0  0  0  0  0  0  0  0  0  0  0  # atno 10718 bound_to 10713
  153.6001  135.6999  153.5388 H   0  0  0  0  0  0  0  0  0  0  0  0  # atno 10763 bound_to 10752
  153.3104  135.4103  155.1331 H   0  0  0  0  0  0  0  0  0  0  0  0  # atno 10764 bound_to 10752
  154.8584  135.3671  154.5536 H   0  0  0  0  0  0  0  0  0  0  0  0  # atno 10765 bound_to 10752
  140.1417  134.4574  155.8445 H   0  0  0  0  0  0  0  0  0  0  0  0  # atno 11005 bound_to 11000
  144.8701  139.5051  143.6772 LP  0  0  0  0  0  0  0  0  0  0  0  0  # atno 17320 bound_to 7965
  146.2958  139.7275  142.9127 LP  0  0  0  0  0  0  0  0  0  0  0  0  # atno 17321 bound_to 7965
  140.7738  143.3559  151.1923 LP  0  0  0  0  0  0  0  0  0  0  0  0  # atno 17342 bound_to 10162
  139.7165  143.9292  152.2969 LP  0  0  0  0  0  0  0  0  0  0  0  0  # atno 17343 bound_to 10162
  157.7508  131.0191  150.3654 LP  0  0  0  0  0  0  0  0  0  0  0  0  # atno 17370 bound_to 10713
  156.3996  130.3913  149.6969 LP  0  0  0  0  0  0  0  0  0  0  0  0  # atno 17371 bound_to 10713
  141.2187  133.6836  156.7259 LP  0  0  0  0  0  0  0  0  0  0  0  0  # atno 17394 bound_to 11000
  140.2714  134.8389  157.3850 LP  0  0  0  0  0  0  0  0  0  0  0  0  # atno 17395 bound_to 11000

$$$$
