AV-unprocessed.smi:1929|AV-procd|sdf|7806|dock4
  -GOLD-   22720 9543D 1   1.00000     0.00000
 Structure written by MMmdl.
 42 43  0  0  0  0  0  0  0  0  3 V2000
  153.3022  137.9258  156.9823 C   0  0  0  0  0  0  0  0  0  0  0  0
  152.9110  139.1699  156.3298 N   0  5  0  0  0  0  0  0  0  0  0  0
  151.8839  139.2618  155.4428 C   0  0  0  0  0  0  0  0  0  0  0  0
  151.1807  140.2249  155.1198 O   0  0  0  0  0  0  0  0  0  0  0  0
  151.5926  137.9040  154.7935 C   0  0  0  0  0  0  0  0  0  0  0  0
  150.2944  137.3677  155.2745 N   0  3  2  0  0  0  0  0  0  0  0  0
  150.2100  135.8834  155.2046 C   0  0  0  0  0  0  0  0  0  0  0  0
  148.8980  135.3704  155.8232 C   0  0  0  0  0  0  0  0  0  0  0  0
  147.6616  136.0112  155.1631 C   0  0  2  0  0  0  0  0  0  0  0  0
  147.4754  135.5417  153.7901 N   0  0  0  0  0  0  0  0  0  0  0  0
  146.4659  134.7677  153.3649 C   0  0  0  0  0  0  0  0  0  0  0  0
  145.5619  134.3717  154.1001 O   0  0  0  0  0  0  0  0  0  0  0  0
  146.5960  134.4765  152.0589 N   0  0  0  0  0  0  0  0  0  0  0  0
  145.7645  133.6650  151.2398 C   0  0  0  0  0  0  0  0  0  0  0  0
  144.3827  133.6506  151.5215 C   0  0  0  0  0  0  0  0  0  0  0  0
  143.5368  132.8442  150.7340 C   0  0  0  0  0  0  0  0  0  0  0  0
  143.9813  132.0712  149.7211 N   0  0  0  0  0  0  0  0  0  0  0  0
  145.3060  132.0752  149.4616 C   0  0  0  0  0  0  0  0  0  0  0  0
  146.2375  132.8448  150.1872 C   0  0  0  0  0  0  0  0  0  0  0  0
  147.8007  137.5429  155.1947 C   0  0  0  0  0  0  0  0  0  0  0  0
  149.1404  138.0149  154.5997 C   0  0  0  0  0  0  0  0  0  0  0  0
  154.2141  138.0453  157.5674 H   0  0  0  0  0  0  0  0  0  0  0  0
  153.4972  137.1236  156.2695 H   0  0  0  0  0  0  0  0  0  0  0  0
  152.5386  137.5596  157.6693 H   0  0  0  0  0  0  0  0  0  0  0  0
  151.5477  138.0733  153.7169 H   0  0  0  0  0  0  0  0  0  0  0  0
  152.3906  137.1758  154.9564 H   0  0  0  0  0  0  0  0  0  0  0  0
  150.2917  135.5606  154.1657 H   0  0  0  0  0  0  0  0  0  0  0  0
  151.0460  135.4308  155.7378 H   0  0  0  0  0  0  0  0  0  0  0  0
  148.8531  134.2832  155.7536 H   0  0  0  0  0  0  0  0  0  0  0  0
  148.8945  135.6020  156.8892 H   0  0  0  0  0  0  0  0  0  0  0  0
  146.7733  135.7389  155.7361 H   0  0  0  0  0  0  0  0  0  0  0  0
  148.1727  135.8207  153.1158 H   0  0  0  0  0  0  0  0  0  0  0  0
  147.4310  134.8234  151.6106 H   0  0  0  0  0  0  0  0  0  0  0  0
  143.9720  134.2487  152.3217 H   0  0  0  0  0  0  0  0  0  0  0  0
  142.4740  132.8190  150.9245 H   0  0  0  0  0  0  0  0  0  0  0  0
  145.6365  131.4400  148.6532 H   0  0  0  0  0  0  0  0  0  0  0  0
  147.2831  132.7793  149.9299 H   0  0  0  0  0  0  0  0  0  0  0  0
  146.9695  138.0099  154.6647 H   0  0  0  0  0  0  0  0  0  0  0  0
  147.7313  137.8864  156.2278 H   0  0  0  0  0  0  0  0  0  0  0  0
  149.2136  139.0980  154.7065 H   0  0  0  0  0  0  0  0  0  0  0  0
  149.1782  137.8008  153.5306 H   0  0  0  0  0  0  0  0  0  0  0  0
  150.2352  137.6203  156.2508 H   0  0  0  0  0  0  0  0  0  0  0  0
  1  2  1  0  0  0  0
  1 22  1  0  0  0  0
  1 23  1  0  0  0  0
  1 24  1  0  0  0  0
  2  3  1  0  0  0  0
  3  4  2  0  0  0  0
  3  5  1  0  0  0  0
  5  6  1  0  0  0  0
  5 25  1  0  0  0  0
  5 26  1  0  0  0  0
  6 21  1  0  0  0  0
  6  7  1  0  0  0  0
  6 42  1  0  0  0  0
  7  8  1  0  0  0  0
  7 27  1  0  0  0  0
  7 28  1  0  0  0  0
  8  9  1  0  0  0  0
  8 29  1  0  0  0  0
  8 30  1  0  0  0  0
  9 10  1  0  0  0  0
  9 20  1  0  0  0  0
  9 31  1  0  0  0  0
 10 11  1  0  0  0  0
 10 32  1  0  0  0  0
 11 12  2  0  0  0  0
 11 13  1  0  0  0  0
 13 14  1  0  0  0  0
 13 33  1  0  0  0  0
 14 19  1  0  0  0  0
 14 15  2  0  0  0  0
 15 16  1  0  0  0  0
 15 34  1  0  0  0  0
 16 17  2  0  0  0  0
 16 35  1  0  0  0  0
 17 18  1  0  0  0  0
 18 19  2  0  0  0  0
 18 36  1  0  0  0  0
 19 37  1  0  0  0  0
 20 21  1  0  0  0  0
 20 38  1  0  0  0  0
 20 39  1  0  0  0  0
 21 40  1  0  0  0  0
 21 41  1  0  0  0  0
M  CHG  1   2  -1
M  CHG  1   6   1
M  END
> <s_m_source_file>
AV-unprocessed.smi

> <i_m_source_file_index>
1929

> <i_lp_mmshare_version>
43012

> <i_f3d_flags>
0

> <s_epik_input>
W0NIM11bTkhdQyg9TylbQ0gyXU4xW0NIMl1bQ0gyXVtDSF0oW0NIMl1bQ0gyXTEpW05IXUMoPU8pW05IXWMyW2NIXVtjSF1uW2NIXVtjSF0y

> <s_epik_cmdline>
J2VwaWtfcHl0aG9uJywgJy1waCcsICc3LjAnLCAnLXRuJywgJzgnLCAnLW1hJywgJzIwMCcsICctbWV0YWxfYmluZGluZycsICctaW1hZScsICc8aW5maWxlLm1hZT4nLCAnLW9tYWUnLCAnPG91dGZpbGUubWFlPic=

> <r_epik_Ionization_Penalty>
6.23856

> <r_epik_Ionization_Penalty_Charging>
6.13946

> <r_epik_Ionization_Penalty_Neutral>
0.0990993

> <r_epik_State_Penalty>
7.04382

> <r_epik_Charging_Adjusted_Penalty>
13.1833

> <i_epik_Tot_Q>
0

> <i_epik_Tot_abs_Q>
2

> <r_epik_Metal_State_Penalty>
3.07449

> <b_epik_Metal_Only>
1

> <s_lp_Force_Field>
OPLS_2005

> <r_lp_Energy>
14.5033

> <b_lp_Chiralities_Consistent>
1

> <s_lp_Variant>
AV-unprocessed.smi:1929-8

> <Gold.Version>
5.8.1

> <Gold.Id.Protein>
6NUR|6NUR_protein|mol2

> <Gold.PLP.Fitness>
47.5487

> <Gold.PLP.PLP>
-31.2781

> <Gold.PLP.part.hbond>
-4.5660

> <Gold.PLP.part.metal>
0.0000

> <Gold.PLP.part.buried>
-4.8982

> <Gold.PLP.part.nonpolar>
-22.7974

> <Gold.PLP.part.repulsive>
0.3752

> <Gold.PLP.ligand.clash>
0.0000

> <Gold.PLP.ligand.torsion>
0.7161

> <Gold.PLP.Chemscore.Hbond>
5.1044

> <Gold.PLP.Chemscore.CHOScore>
0.7780

> <Gold.PLP.Chemscore.Metal>
0.0000

> <Gold.Chemscore.Hbonds>
donor molecule, donor type, donor heavy atom, donor atom, acceptor molecule, acceptor atom, score
      L1  H    10    32       P1  7948  0.99
      L1  H    13    33       P1  7948  0.86
      P1  H  7989  7998       L1     4  1.00
      P1  H  7997  8009       L1     2  2.00
      P1  H 10785 10796       L1    17  0.27
      L1  C    16    35       P1 10186  0.69

> <Gold.PLP.Chemscore.Internal.Correction>
0.0554

> <Gold.Rescore>
     Score         DG    S(hbond)    S(metal)    S(lipo)     H(rot)  DE(clash)    DE(int)     intcor
     19.21     -21.47       3.64        0.00      68.43       1.63       0.00       2.26       ----

> <Gold.Chemscore.Fitness>
19.2095

> <Gold.Chemscore.DG>
-21.4720

> <Gold.Chemscore.ZeroCoef>
-5.4800

> <Gold.Chemscore.Hbond>
3.6418

> <Gold.Chemscore.Metal>
0.0000

> <Gold.Chemscore.Lipo>
68.4345

> <Gold.Chemscore.Internal_Hbond>
0.0000

> <Gold.Chemscore.DEClash>
0.0015

> <Gold.Chemscore.DEInternal>
2.2610

> <Gold.Chemscore.Rot>
1.6323

> <Gold.Chemscore.Internal.Correction>
   9.000000E+99

> <Gold.Chemscore.Hbonds>
donor molecule, donor type, donor heavy atom, donor atom, acceptor molecule, acceptor atom, score
      L1  H    10    32       P1  7948  0.92
      L1  H    13    33       P1  7948  0.47
      P1  H  7989  7998       L1     4  0.81
      P1  H  7997  8009       L1     2  0.55
      P1  H 10785 10796       L1    17  0.12

> <Gold.Chemscore.Hbond.Weighted>
-12.1637

> <Gold.Chemscore.Metal.Weighted>
-0.0000

> <Gold.Chemscore.Lipo.Weighted>
-8.0068

> <Gold.Chemscore.Internal_Hbond.Weighted>
0.0000

> <Gold.Chemscore.DEClash.Weighted>
0.0015

> <Gold.Chemscore.DEInternal.Weighted>
2.2610

> <Gold.Chemscore.Rot.Weighted>
4.1786

> <Gold.Chemscore.Internal.Correction.Weighted>
   9.000000E+99

> <Gold.Protein.RotatedTorsions>
[ 6907 6896 6895 6894 ] final   33.02 input  -60.11 | X-H torsion
[ 7974 7965 7964 7962 ] final  -75.82 input  175.53 | X-H torsion
[ 8008 7997 7996 7995 ] final -155.67 input   59.86 | X-H torsion
[ 10167 10162 10161 10158 ] final   89.07 input  -65.29 | X-H torsion
[ 10718 10713 10712 10709 ] final  -15.69 input   66.30 | X-H torsion
[ 10763 10752 10751 10750 ] final  -76.88 input  -60.55 | X-H torsion
[ 11005 11000 10999 10996 ] final  113.78 input  -57.11 | X-H torsion

> <Gold.Protein.ActiveResidues>
 VAL166  LYS551  ARG553  GLY616  TRP617  ASP618  TYR619  PRO620  LYS621  CYS622 
 ASP623  PHE694  ASN695  SER759  ASP760  ASP761  ALA762  ILE779  LEU786  VAL792 
 PHE793  MET794  SER795  GLU796  ALA797  LYS798  CYS799  TRP800  GLU811  SER814 

> <Gold.Protein.RotatedAtoms>
  152.0826  134.9461  160.0573 H   0  0  0  0  0  0  0  0  0  0  0  0  # atno 6907 bound_to 6896
  152.0743  133.4117  159.4481 H   0  0  0  0  0  0  0  0  0  0  0  0  # atno 6908 bound_to 6896
  150.6836  134.2975  159.4736 H   0  0  0  0  0  0  0  0  0  0  0  0  # atno 6909 bound_to 6896
  145.6210  140.9363  143.1138 H   0  0  0  0  0  0  0  0  0  0  0  0  # atno 7974 bound_to 7965
  155.7053  140.0772  157.2393 H   0  0  0  0  0  0  0  0  0  0  0  0  # atno 8008 bound_to 7997
  154.4066  140.1640  156.2290 H   0  0  0  0  0  0  0  0  0  0  0  0  # atno 8009 bound_to 7997
  155.9331  140.3390  155.6268 H   0  0  0  0  0  0  0  0  0  0  0  0  # atno 8010 bound_to 7997
  139.8609  144.6544  150.9059 H   0  0  0  0  0  0  0  0  0  0  0  0  # atno 10167 bound_to 10162
  156.5982  130.4817  149.6251 H   0  0  0  0  0  0  0  0  0  0  0  0  # atno 10718 bound_to 10713
  154.5056  135.5783  153.6565 H   0  0  0  0  0  0  0  0  0  0  0  0  # atno 10763 bound_to 10752
  152.9887  135.6146  154.2946 H   0  0  0  0  0  0  0  0  0  0  0  0  # atno 10764 bound_to 10752
  154.2856  135.2850  155.2657 H   0  0  0  0  0  0  0  0  0  0  0  0  # atno 10765 bound_to 10752
  139.8962  134.9556  156.6791 H   0  0  0  0  0  0  0  0  0  0  0  0  # atno 11005 bound_to 11000
  144.7231  139.7964  143.7375 LP  0  0  0  0  0  0  0  0  0  0  0  0  # atno 17320 bound_to 7965
  146.1431  139.4493  143.0096 LP  0  0  0  0  0  0  0  0  0  0  0  0  # atno 17321 bound_to 7965
  140.7775  143.3745  151.1589 LP  0  0  0  0  0  0  0  0  0  0  0  0  # atno 17342 bound_to 10162
  139.7374  143.8977  152.3039 LP  0  0  0  0  0  0  0  0  0  0  0  0  # atno 17343 bound_to 10162
  156.2491  130.6897  151.1628 LP  0  0  0  0  0  0  0  0  0  0  0  0  # atno 17370 bound_to 10713
  157.7286  131.0630  150.5811 LP  0  0  0  0  0  0  0  0  0  0  0  0  # atno 17371 bound_to 10713
  140.7313  133.9056  155.8213 LP  0  0  0  0  0  0  0  0  0  0  0  0  # atno 17394 bound_to 11000
  141.0151  134.0967  157.4181 LP  0  0  0  0  0  0  0  0  0  0  0  0  # atno 17395 bound_to 11000

$$$$
