AV-unprocessed.smi:1134|AV-procd|sdf|4857|dock8
  -GOLD-   22720 3423D 1   1.00000     0.00000
 Structure written by MMmdl.
 35 36  0  0  0  0  0  0  0  0  3 V2000
  148.6520  142.9198  159.7713 O   0  0  0  0  0  0  0  0  0  0  0  0
  148.9389  143.1616  158.5996 C   0  0  0  0  0  0  0  0  0  0  0  0
  150.4094  143.4291  158.2336 C   0  0  0  0  0  0  0  0  0  0  0  0
  151.3833  143.1223  159.2971 N   0  0  0  0  0  0  0  0  0  0  0  0
  152.1867  141.9797  159.1132 C   0  0  0  0  0  0  0  0  0  0  0  0
  153.1134  141.6031  160.0158 C   0  0  0  0  0  0  0  0  0  0  0  0
  153.9346  140.4311  159.8060 N   0  3  0  0  0  0  0  0  0  0  0  0
  154.6635  140.0530  160.7174 O   0  0  0  0  0  0  0  0  0  0  0  0
  153.8790  139.8509  158.7258 O   0  5  0  0  0  0  0  0  0  0  0  0
  153.2649  142.4172  161.2062 C   0  0  0  0  0  0  0  0  0  0  0  0
  152.5025  143.5137  161.3861 C   0  0  0  0  0  0  0  0  0  0  0  0
  151.4991  143.9255  160.3989 C   0  0  0  0  0  0  0  0  0  0  0  0
  150.8102  144.9340  160.5502 O   0  0  0  0  0  0  0  0  0  0  0  0
  148.0191  143.1959  157.6201 N   0  0  0  0  0  0  0  0  0  0  0  0
  146.5936  142.9548  157.7971 C   0  0  0  0  0  0  0  0  0  0  0  0
  146.0016  142.1916  156.5985 C   0  0  0  0  0  0  0  0  0  0  0  0
  145.5704  143.1134  155.5405 N   0  0  0  0  0  0  0  0  0  0  0  0
  146.1568  143.1558  154.3221 C   0  0  0  0  0  0  0  0  0  0  0  0
  147.0934  142.4400  153.9676 O   0  0  0  0  0  0  0  0  0  0  0  0
  145.5643  144.2012  153.3692 C   0  0  0  0  0  0  0  0  0  0  0  0
  144.2709  145.0082  154.3164 S   0  0  0  0  0  0  0  0  0  0  0  0
  144.5840  144.0098  155.7103 C   0  0  0  0  0  0  0  0  0  0  0  0
  143.9366  144.1502  156.7475 O   0  0  0  0  0  0  0  0  0  0  0  0
  150.6448  142.8688  157.3269 H   0  0  0  0  0  0  0  0  0  0  0  0
  150.4974  144.4767  157.9419 H   0  0  0  0  0  0  0  0  0  0  0  0
  152.0002  141.4458  158.1924 H   0  0  0  0  0  0  0  0  0  0  0  0
  153.9911  142.1546  161.9613 H   0  0  0  0  0  0  0  0  0  0  0  0
  152.6325  144.1060  162.2800 H   0  0  0  0  0  0  0  0  0  0  0  0
  148.3318  143.4022  156.6825 H   0  0  0  0  0  0  0  0  0  0  0  0
  146.4154  142.4129  158.7275 H   0  0  0  0  0  0  0  0  0  0  0  0
  146.1031  143.9228  157.9034 H   0  0  0  0  0  0  0  0  0  0  0  0
  146.7387  141.4884  156.2062 H   0  0  0  0  0  0  0  0  0  0  0  0
  145.1628  141.5736  156.9238 H   0  0  0  0  0  0  0  0  0  0  0  0
  146.3236  144.9217  153.0650 H   0  0  0  0  0  0  0  0  0  0  0  0
  145.1489  143.7234  152.4818 H   0  0  0  0  0  0  0  0  0  0  0  0
  1  2  2  0  0  0  0
  2  3  1  0  0  0  0
  2 14  1  0  0  0  0
  3  4  1  0  0  0  0
  3 24  1  0  0  0  0
  3 25  1  0  0  0  0
  4 12  1  0  0  0  0
  4  5  1  0  0  0  0
  5  6  2  0  0  0  0
  5 26  1  0  0  0  0
  6  7  1  0  0  0  0
  6 10  1  0  0  0  0
  7  8  2  0  0  0  0
  7  9  1  0  0  0  0
 10 11  2  0  0  0  0
 10 27  1  0  0  0  0
 11 12  1  0  0  0  0
 11 28  1  0  0  0  0
 12 13  2  0  0  0  0
 14 15  1  0  0  0  0
 14 29  1  0  0  0  0
 15 16  1  0  0  0  0
 15 30  1  0  0  0  0
 15 31  1  0  0  0  0
 16 17  1  0  0  0  0
 16 32  1  0  0  0  0
 16 33  1  0  0  0  0
 17 22  1  0  0  0  0
 17 18  1  0  0  0  0
 18 19  2  0  0  0  0
 18 20  1  0  0  0  0
 20 21  1  0  0  0  0
 20 34  1  0  0  0  0
 20 35  1  0  0  0  0
 21 22  1  0  0  0  0
 22 23  2  0  0  0  0
M  CHG  1   7   1
M  CHG  1   9  -1
M  END
> <s_m_source_file>
AV-unprocessed.smi

> <i_m_source_file_index>
1134

> <i_lp_mmshare_version>
43012

> <i_f3d_flags>
0

> <s_epik_input>
Tz1jMVtjSF1bY0hdYyhbTitdKD1PKVtPLV0pW2NIXW4xW0NIMl1DKD1PKVtOSF1bQ0gyXVtDSDJdTjJDKD1PKVtDSDJdU0MyPU8=

> <s_epik_cmdline>
J2VwaWtfcHl0aG9uJywgJy1waCcsICc3LjAnLCAnLXRuJywgJzgnLCAnLW1hJywgJzIwMCcsICctbWV0YWxfYmluZGluZycsICctaW1hZScsICc8aW5maWxlLm1hZT4nLCAnLW9tYWUnLCAnPG91dGZpbGUubWFlPic=

> <r_lp_tautomer_probability>
1

> <r_epik_Ionization_Penalty>
5.49556e-08

> <r_epik_Ionization_Penalty_Charging>
6.94392e-11

> <r_epik_Ionization_Penalty_Neutral>
5.48861e-08

> <r_epik_State_Penalty>
-0

> <r_epik_Charging_Adjusted_Penalty>
6.94392e-11

> <i_epik_Tot_Q>
0

> <i_epik_Tot_abs_Q>
2

> <r_epik_Metal_State_Penalty>
-0

> <b_epik_Metal_Only>
0

> <s_lp_Force_Field>
OPLS_2005

> <r_lp_Energy>
19.8089

> <b_lp_Chiralities_Consistent>
1

> <s_lp_Variant>
AV-unprocessed.smi:1134-1

> <Gold.Version>
5.8.1

> <Gold.Id.Protein>
6NUR|6NUR_protein|mol2

> <Gold.PLP.Fitness>
46.1569

> <Gold.PLP.PLP>
-40.8619

> <Gold.PLP.part.hbond>
-3.7264

> <Gold.PLP.part.metal>
0.0000

> <Gold.PLP.part.buried>
-3.1691

> <Gold.PLP.part.nonpolar>
-33.7357

> <Gold.PLP.part.repulsive>
0.5404

> <Gold.PLP.ligand.clash>
0.0000

> <Gold.PLP.ligand.torsion>
0.6363

> <Gold.PLP.Chemscore.Hbond>
2.1840

> <Gold.PLP.Chemscore.CHOScore>
0.0000

> <Gold.PLP.Chemscore.Metal>
0.0000

> <Gold.Chemscore.Hbonds>
donor molecule, donor type, donor heavy atom, donor atom, acceptor molecule, acceptor atom, score
      L1  H    14    29       P1  8028  0.83
      P1  H  6933  6944       L1     1  0.42
      P1  H  7997  8008       L1     9  1.00

> <Gold.PLP.Chemscore.Internal.Correction>
0.0156

> <Gold.Rescore>
     Score         DG    S(hbond)    S(metal)    S(lipo)     H(rot)  DE(clash)    DE(int)     intcor
     11.37     -12.63       1.75        0.00      71.12       2.74       0.58       0.68       ----

> <Gold.Chemscore.Fitness>
11.3691

> <Gold.Chemscore.DG>
-12.6278

> <Gold.Chemscore.ZeroCoef>
-5.4800

> <Gold.Chemscore.Hbond>
1.7472

> <Gold.Chemscore.Metal>
0.0000

> <Gold.Chemscore.Lipo>
71.1176

> <Gold.Chemscore.Internal_Hbond>
0.0000

> <Gold.Chemscore.DEClash>
0.5786

> <Gold.Chemscore.DEInternal>
0.6801

> <Gold.Chemscore.Rot>
2.7377

> <Gold.Chemscore.Internal.Correction>
   9.000000E+99

> <Gold.Chemscore.Hbonds>
donor molecule, donor type, donor heavy atom, donor atom, acceptor molecule, acceptor atom, score
      L1  H    14    29       P1  8028  0.21
      P1  H  6933  6944       L1     1  0.42
      P1  H  7997  8008       L1     9  0.98

> <Gold.Chemscore.Hbond.Weighted>
-5.8356

> <Gold.Chemscore.Metal.Weighted>
-0.0000

> <Gold.Chemscore.Lipo.Weighted>
-8.3208

> <Gold.Chemscore.Internal_Hbond.Weighted>
0.0000

> <Gold.Chemscore.DEClash.Weighted>
0.5786

> <Gold.Chemscore.DEInternal.Weighted>
0.6801

> <Gold.Chemscore.Rot.Weighted>
7.0085

> <Gold.Chemscore.Internal.Correction.Weighted>
   9.000000E+99

> <Gold.Protein.RotatedTorsions>
[ 6907 6896 6895 6894 ] final -103.73 input  -60.11 | X-H torsion
[ 7974 7965 7964 7962 ] final  113.67 input  175.53 | X-H torsion
[ 8008 7997 7996 7995 ] final -109.51 input   59.86 | X-H torsion
[ 10167 10162 10161 10158 ] final   -6.51 input  -65.29 | X-H torsion
[ 10718 10713 10712 10709 ] final   62.13 input   66.30 | X-H torsion
[ 10763 10752 10751 10750 ] final   44.17 input  -60.55 | X-H torsion
[ 11005 11000 10999 10996 ] final  176.66 input  -57.11 | X-H torsion

> <Gold.Protein.ActiveResidues>
 VAL166  LYS551  ARG553  GLY616  TRP617  ASP618  TYR619  PRO620  LYS621  CYS622 
 ASP623  PHE694  ASN695  SER759  ASP760  ASP761  ALA762  ILE779  LEU786  VAL792 
 PHE793  MET794  SER795  GLU796  ALA797  LYS798  CYS799  TRP800  GLU811  SER814 

> <Gold.Protein.RotatedAtoms>
  150.7254  134.0384  159.3757 H   0  0  0  0  0  0  0  0  0  0  0  0  # atno 6907 bound_to 6896
  151.8357  135.0605  160.0451 H   0  0  0  0  0  0  0  0  0  0  0  0  # atno 6908 bound_to 6896
  152.2900  133.5516  159.5588 H   0  0  0  0  0  0  0  0  0  0  0  0  # atno 6909 bound_to 6896
  145.2140  139.2893  143.4253 H   0  0  0  0  0  0  0  0  0  0  0  0  # atno 7974 bound_to 7965
  154.9604  140.0399  157.2187 H   0  0  0  0  0  0  0  0  0  0  0  0  # atno 8008 bound_to 7997
  154.7894  140.2833  155.5980 H   0  0  0  0  0  0  0  0  0  0  0  0  # atno 8009 bound_to 7997
  156.2947  140.2576  156.2738 H   0  0  0  0  0  0  0  0  0  0  0  0  # atno 8010 bound_to 7997
  140.6999  143.6186  150.8634 H   0  0  0  0  0  0  0  0  0  0  0  0  # atno 10167 bound_to 10162
  157.5878  130.9033  149.9548 H   0  0  0  0  0  0  0  0  0  0  0  0  # atno 10718 bound_to 10713
  152.9846  135.6079  154.3230 H   0  0  0  0  0  0  0  0  0  0  0  0  # atno 10763 bound_to 10752
  154.2939  135.2774  155.2644 H   0  0  0  0  0  0  0  0  0  0  0  0  # atno 10764 bound_to 10752
  154.4927  135.5888  153.6528 H   0  0  0  0  0  0  0  0  0  0  0  0  # atno 10765 bound_to 10752
  140.3756  134.6992  157.4419 H   0  0  0  0  0  0  0  0  0  0  0  0  # atno 11005 bound_to 11000
  146.3391  140.2425  142.8596 LP  0  0  0  0  0  0  0  0  0  0  0  0  # atno 17320 bound_to 7965
  144.9828  140.8475  143.5386 LP  0  0  0  0  0  0  0  0  0  0  0  0  # atno 17321 bound_to 7965
  139.9907  143.5850  152.2911 LP  0  0  0  0  0  0  0  0  0  0  0  0  # atno 17342 bound_to 10162
  139.6504  144.7660  151.2160 LP  0  0  0  0  0  0  0  0  0  0  0  0  # atno 17343 bound_to 10162
  156.0929  130.3662  150.0360 LP  0  0  0  0  0  0  0  0  0  0  0  0  # atno 17370 bound_to 10713
  156.8488  130.9451  151.3627 LP  0  0  0  0  0  0  0  0  0  0  0  0  # atno 17371 bound_to 10713
  140.0518  134.6120  155.8852 LP  0  0  0  0  0  0  0  0  0  0  0  0  # atno 17394 bound_to 11000
  141.1940  133.6581  156.5576 LP  0  0  0  0  0  0  0  0  0  0  0  0  # atno 17395 bound_to 11000

$$$$
