AV-unprocessed.smi:283|AV-procd|sdf|2126|dock3
  -GOLD-   2262021433D 1   1.00000     0.00000
 Structure written by MMmdl.
 48 51  0  0  0  0  0  0  0  0  1 V2000
  146.6947  132.8329  158.4327 C   0  0  0  0  0  0  0  0  0  0  0  0
  147.9658  133.6093  158.8217 C   0  0  1  0  0  0  0  0  0  0  0  0
  148.3622  134.5375  157.7633 N   0  0  0  0  0  0  0  0  0  0  0  0
  148.6887  134.1059  156.5248 C   0  0  0  0  0  0  0  0  0  0  0  0
  149.9669  133.7737  156.2047 N   0  0  0  0  0  0  0  0  0  0  0  0
  150.2607  133.3533  154.9703 C   0  0  0  0  0  0  0  0  0  0  0  0
  149.4449  133.1982  153.9247 N   0  0  0  0  0  0  0  0  0  0  0  0
  148.1619  133.5367  154.2420 C   0  0  0  0  0  0  0  0  0  0  0  0
  147.7053  133.9945  155.5085 C   0  0  0  0  0  0  0  0  0  0  0  0
  146.3383  134.2353  155.4557 N   0  0  0  0  0  0  0  0  0  0  0  0
  146.0112  133.9348  154.2270 C   0  0  0  0  0  0  0  0  0  0  0  0
  147.0510  133.5054  153.4290 N   0  0  0  0  0  0  0  0  0  0  0  0
  147.0341  133.0804  151.9963 C   0  0  2  0  0  0  0  0  0  0  0  0
  146.5537  134.1526  151.2370 O   0  0  0  0  0  0  0  0  0  0  0  0
  145.3187  133.8183  150.6061 C   0  0  2  0  0  0  0  0  0  0  0  0
  144.4065  135.0542  150.5677 C   0  0  0  0  0  0  0  0  0  0  0  0
  144.9426  136.0368  149.7077 O   0  0  0  0  0  0  0  0  0  0  0  0
  144.7787  132.6447  151.4266 C   0  0  1  0  0  0  0  0  0  0  0  0
  143.8782  131.8196  150.7132 O   0  0  0  0  0  0  0  0  0  0  0  0
  146.0526  131.9146  151.8258 C   0  0  1  0  0  0  0  0  0  0  0  0
  146.5119  131.0090  150.8387 O   0  0  0  0  0  0  0  0  0  0  0  0
  147.7606  134.3040  160.1671 C   0  0  0  0  0  0  0  0  0  0  0  0
  147.2717  133.5708  161.2745 C   0  0  0  0  0  0  0  0  0  0  0  0
  147.0842  134.1939  162.5227 C   0  0  0  0  0  0  0  0  0  0  0  0
  147.3897  135.5573  162.6809 C   0  0  0  0  0  0  0  0  0  0  0  0
  147.8884  136.2937  161.5908 C   0  0  0  0  0  0  0  0  0  0  0  0
  148.0791  135.6756  160.3386 C   0  0  0  0  0  0  0  0  0  0  0  0
  148.7133  136.6280  159.0420 Cl  0  0  0  0  0  0  0  0  0  0  0  0
  148.0737  132.8437  151.7652 H   0  0  0  0  0  0  0  0  0  0  0  0
  145.5593  133.4899  149.5932 H   0  0  0  0  0  0  0  0  0  0  0  0
  144.2832  133.0186  152.3238 H   0  0  0  0  0  0  0  0  0  0  0  0
  145.9313  131.3621  152.7590 H   0  0  0  0  0  0  0  0  0  0  0  0
  146.4296  132.1079  159.2027 H   0  0  0  0  0  0  0  0  0  0  0  0
  146.8228  132.2815  157.5014 H   0  0  0  0  0  0  0  0  0  0  0  0
  145.8455  133.5049  158.3046 H   0  0  0  0  0  0  0  0  0  0  0  0
  148.7842  132.9008  158.9421 H   0  0  0  0  0  0  0  0  0  0  0  0
  148.2915  135.5175  157.9962 H   0  0  0  0  0  0  0  0  0  0  0  0
  151.2976  133.1066  154.7962 H   0  0  0  0  0  0  0  0  0  0  0  0
  144.9948  134.0194  153.8718 H   0  0  0  0  0  0  0  0  0  0  0  0
  143.3988  134.7920  150.2445 H   0  0  0  0  0  0  0  0  0  0  0  0
  144.3223  135.4875  151.5645 H   0  0  0  0  0  0  0  0  0  0  0  0
  145.3287  135.6045  148.9607 H   0  0  0  0  0  0  0  0  0  0  0  0
  143.6594  132.2525  149.9016 H   0  0  0  0  0  0  0  0  0  0  0  0
  147.4568  131.0000  150.8574 H   0  0  0  0  0  0  0  0  0  0  0  0
  147.0402  132.5205  161.1778 H   0  0  0  0  0  0  0  0  0  0  0  0
  146.7081  133.6242  163.3597 H   0  0  0  0  0  0  0  0  0  0  0  0
  147.2472  136.0368  163.6381 H   0  0  0  0  0  0  0  0  0  0  0  0
  148.1291  137.3390  161.7179 H   0  0  0  0  0  0  0  0  0  0  0  0
  1  2  1  0  0  0  0
  1 33  1  0  0  0  0
  1 34  1  0  0  0  0
  1 35  1  0  0  0  0
  2  3  1  0  0  0  0
  2 22  1  0  0  0  0
  2 36  1  0  0  0  0
  3  4  1  0  0  0  0
  3 37  1  0  0  0  0
  4  9  1  0  0  0  0
  4  5  2  0  0  0  0
  5  6  1  0  0  0  0
  6  7  2  0  0  0  0
  6 38  1  0  0  0  0
  7  8  1  0  0  0  0
  8 12  1  0  0  0  0
  8  9  2  0  0  0  0
  9 10  1  0  0  0  0
 10 11  2  0  0  0  0
 11 12  1  0  0  0  0
 11 39  1  0  0  0  0
 12 13  1  0  0  0  0
 13 29  1  0  0  0  0
 13 20  1  0  0  0  0
 13 14  1  0  0  0  0
 14 15  1  0  0  0  0
 15 30  1  0  0  0  0
 15 16  1  0  0  0  0
 15 18  1  0  0  0  0
 16 17  1  0  0  0  0
 16 40  1  0  0  0  0
 16 41  1  0  0  0  0
 17 42  1  0  0  0  0
 18 31  1  0  0  0  0
 18 19  1  0  0  0  0
 18 20  1  0  0  0  0
 19 43  1  0  0  0  0
 20 32  1  0  0  0  0
 20 21  1  0  0  0  0
 21 44  1  0  0  0  0
 22 27  1  0  0  0  0
 22 23  2  0  0  0  0
 23 24  1  0  0  0  0
 23 45  1  0  0  0  0
 24 25  2  0  0  0  0
 24 46  1  0  0  0  0
 25 26  1  0  0  0  0
 25 47  1  0  0  0  0
 26 27  2  0  0  0  0
 26 48  1  0  0  0  0
 27 28  1  0  0  0  0
M  END
> <s_m_source_file>
AV-unprocessed.smi

> <i_m_source_file_index>
283

> <i_lp_mmshare_version>
43012

> <i_f3d_flags>
0

> <s_epik_input>
Q2xjMVtjSF1bY0hdW2NIXVtjSF1jMVtDQEhdKFtDSDNdKVtOSF1jKG5bY0hdbjIpYyhjMjMpbltjSF1uM1tDQEBIXTRPW0NASF0oW0NIMl1bT0hdKVtDQEBIXShbT0hdKVtDQEhdNFtPSF0=

> <s_epik_cmdline>
J2VwaWtfcHl0aG9uJywgJy1waCcsICc3LjAnLCAnLXRuJywgJzgnLCAnLW1hJywgJzIwMCcsICctbWV0YWxfYmluZGluZycsICctaW1hZScsICc8aW5maWxlLm1hZT4nLCAnLW9tYWUnLCAnPG91dGZpbGUubWFlPic=

> <r_lp_tautomer_probability>
1

> <r_epik_Ionization_Penalty>
0.000266407

> <r_epik_Ionization_Penalty_Charging>
0

> <r_epik_Ionization_Penalty_Neutral>
0.000266407

> <r_epik_State_Penalty>
-0

> <r_epik_Charging_Adjusted_Penalty>
0

> <i_epik_Tot_Q>
0

> <i_epik_Tot_abs_Q>
0

> <r_epik_Metal_State_Penalty>
-0

> <b_epik_Metal_Only>
0

> <s_epik_Chemistry_Notes>
This compound contains an acetal/aminal-like group ( X-CH(R)-Y where X, Y are N, S, or O) that may be acid/base labile, releasing an aldehyde.

> <s_lp_Force_Field>
OPLS_2005

> <r_lp_Energy>
43.9323

> <b_lp_Chiralities_Consistent>
1

> <s_lp_Variant>
AV-unprocessed.smi:283-2

> <Gold.Version>
5.8.1

> <Gold.Id.Protein>
6NUR|6NUR_protein|mol2

> <Gold.PLP.Fitness>
47.0050

> <Gold.PLP.PLP>
-43.7056

> <Gold.PLP.part.hbond>
-3.0000

> <Gold.PLP.part.metal>
0.0000

> <Gold.PLP.part.buried>
-8.2005

> <Gold.PLP.part.nonpolar>
-32.6863

> <Gold.PLP.part.repulsive>
0.4570

> <Gold.PLP.ligand.clash>
0.9713

> <Gold.PLP.ligand.torsion>
0.9210

> <Gold.PLP.Chemscore.Hbond>
2.0000

> <Gold.PLP.Chemscore.CHOScore>
0.0000

> <Gold.PLP.Chemscore.Metal>
0.0000

> <Gold.Chemscore.Hbonds>
donor molecule, donor type, donor heavy atom, donor atom, acceptor molecule, acceptor atom, score
      L1  H    17    42       P1  7921  1.00
      L1  H    21    44       P1 10747  1.00

> <Gold.PLP.Chemscore.Internal.Correction>
0.1128

> <Gold.Rescore>
     Score         DG    S(hbond)    S(metal)    S(lipo)     H(rot)  DE(clash)    DE(int)     intcor
      8.50     -11.15       1.98        0.00      81.43       4.10       0.00       2.65       ----

> <Gold.Chemscore.Fitness>
8.5016

> <Gold.Chemscore.DG>
-11.1478

> <Gold.Chemscore.ZeroCoef>
-5.4800

> <Gold.Chemscore.Hbond>
1.9846

> <Gold.Chemscore.Metal>
0.0000

> <Gold.Chemscore.Lipo>
81.4286

> <Gold.Chemscore.Internal_Hbond>
0.0000

> <Gold.Chemscore.DEClash>
0.0000

> <Gold.Chemscore.DEInternal>
2.6462

> <Gold.Chemscore.Rot>
4.0968

> <Gold.Chemscore.Internal.Correction>
   9.000000E+99

> <Gold.Chemscore.Hbonds>
donor molecule, donor type, donor heavy atom, donor atom, acceptor molecule, acceptor atom, score
      L1  H    17    42       P1  7921  1.00
      L1  H    21    44       P1 10747  0.98

> <Gold.Chemscore.Hbond.Weighted>
-6.6286

> <Gold.Chemscore.Metal.Weighted>
-0.0000

> <Gold.Chemscore.Lipo.Weighted>
-9.5271

> <Gold.Chemscore.Internal_Hbond.Weighted>
0.0000

> <Gold.Chemscore.DEClash.Weighted>
0.0000

> <Gold.Chemscore.DEInternal.Weighted>
2.6462

> <Gold.Chemscore.Rot.Weighted>
10.4879

> <Gold.Chemscore.Internal.Correction.Weighted>
   9.000000E+99

> <Gold.Protein.RotatedTorsions>
[ 6907 6896 6895 6894 ] final  -51.27 input  -60.11 | X-H torsion
[ 7974 7965 7964 7962 ] final   32.31 input  175.53 | X-H torsion
[ 8008 7997 7996 7995 ] final   84.47 input   59.86 | X-H torsion
[ 10167 10162 10161 10158 ] final -132.67 input  -65.29 | X-H torsion
[ 10718 10713 10712 10709 ] final -112.26 input   66.30 | X-H torsion
[ 10763 10752 10751 10750 ] final  -56.18 input  -60.55 | X-H torsion
[ 11005 11000 10999 10996 ] final   94.27 input  -57.11 | X-H torsion

> <Gold.Protein.ActiveResidues>
 VAL166  LYS551  ARG553  GLY616  TRP617  ASP618  TYR619  PRO620  LYS621  CYS622 
 ASP623  PHE694  ASN695  SER759  ASP760  ASP761  ALA762  ILE779  LEU786  VAL792 
 PHE793  MET794  SER795  GLU796  ALA797  LYS798  CYS799  TRP800  GLU811  SER814 

> <Gold.Protein.RotatedAtoms>
  150.8628  134.7983  159.7095 H   0  0  0  0  0  0  0  0  0  0  0  0  # atno 6907 bound_to 6896
  152.4659  134.5073  159.9753 H   0  0  0  0  0  0  0  0  0  0  0  0  # atno 6908 bound_to 6896
  151.5174  133.3435  159.2931 H   0  0  0  0  0  0  0  0  0  0  0  0  # atno 6909 bound_to 6896
  146.1495  139.6543  142.9109 H   0  0  0  0  0  0  0  0  0  0  0  0  # atno 7974 bound_to 7965
  155.9375  140.3410  155.6299 H   0  0  0  0  0  0  0  0  0  0  0  0  # atno 8008 bound_to 7997
  155.7081  140.0768  157.2401 H   0  0  0  0  0  0  0  0  0  0  0  0  # atno 8009 bound_to 7997
  154.4096  140.1627  156.2253 H   0  0  0  0  0  0  0  0  0  0  0  0  # atno 8010 bound_to 7997
  139.9061  143.6549  152.2585 H   0  0  0  0  0  0  0  0  0  0  0  0  # atno 10167 bound_to 10162
  156.0695  130.5910  150.8484 H   0  0  0  0  0  0  0  0  0  0  0  0  # atno 10718 bound_to 10713
  154.2026  135.6408  153.5091 H   0  0  0  0  0  0  0  0  0  0  0  0  # atno 10763 bound_to 10752
  153.0008  135.5455  154.6299 H   0  0  0  0  0  0  0  0  0  0  0  0  # atno 10764 bound_to 10752
  154.5716  135.2917  155.0795 H   0  0  0  0  0  0  0  0  0  0  0  0  # atno 10765 bound_to 10752
  139.8800  134.8836  156.3839 H   0  0  0  0  0  0  0  0  0  0  0  0  # atno 11005 bound_to 11000
  145.4858  141.0438  143.2620 LP  0  0  0  0  0  0  0  0  0  0  0  0  # atno 17320 bound_to 7965
  144.7886  139.6375  143.7123 LP  0  0  0  0  0  0  0  0  0  0  0  0  # atno 17321 bound_to 7965
  139.6983  144.7638  151.1318 LP  0  0  0  0  0  0  0  0  0  0  0  0  # atno 17342 bound_to 10162
  140.7696  143.5493  150.9222 LP  0  0  0  0  0  0  0  0  0  0  0  0  # atno 17343 bound_to 10162
  157.5757  131.0946  150.9349 LP  0  0  0  0  0  0  0  0  0  0  0  0  # atno 17370 bound_to 10713
  156.9555  130.5435  149.5284 LP  0  0  0  0  0  0  0  0  0  0  0  0  # atno 17371 bound_to 10713
  140.9380  133.7534  156.0109 LP  0  0  0  0  0  0  0  0  0  0  0  0  # atno 17394 bound_to 11000
  140.8253  134.3241  157.5368 LP  0  0  0  0  0  0  0  0  0  0  0  0  # atno 17395 bound_to 11000

$$$$
