AV-unprocessed.smi:2592|AV-procd|sdf|10160|dock3
  -GOLD-   2272014173D 1   1.00000     0.00000
 Structure written by MMmdl.
 42 43  0  0  0  0  0  0  0  0  1 V2000
  146.3079  136.1427  162.8415 C   0  0  0  0  0  0  0  0  0  0  0  0
  146.8739  135.8282  161.4907 C   0  0  0  0  0  0  0  0  0  0  0  0
  147.4092  136.8570  160.7099 N   0  0  0  0  0  0  0  0  0  0  0  0
  147.8702  136.4142  159.5359 C   0  0  0  0  0  0  0  0  0  0  0  0
  148.4635  137.2391  158.5447 N   0  0  0  0  0  0  0  0  0  0  0  0
  149.7646  137.3486  158.2240 C   0  0  0  0  0  0  0  0  0  0  0  0
  150.6841  136.7264  158.7567 O   0  0  0  0  0  0  0  0  0  0  0  0
  149.9473  138.2323  157.2321 N   0  0  0  0  0  0  0  0  0  0  0  0
  151.2371  138.5785  156.6459 C   0  0  0  0  0  0  0  0  0  0  0  0
  151.7259  139.9544  157.1260 C   0  0  0  0  0  0  0  0  0  0  0  0
  150.5596  140.9050  157.4452 C   0  0  0  0  0  0  0  0  0  0  0  0
  150.8758  141.9797  158.3852 N   0  0  0  0  0  0  0  0  0  0  0  0
  151.8587  141.5784  159.3897 C   0  0  0  0  0  0  0  0  0  0  0  0
  152.2035  142.7308  160.3496 C   0  0  0  0  0  0  0  0  0  0  0  0
  152.6656  143.8533  159.6056 O   0  0  0  0  0  0  0  0  0  0  0  0
  151.7135  144.3054  158.6486 C   0  0  0  0  0  0  0  0  0  0  0  0
  151.3721  143.1582  157.6819 C   0  0  0  0  0  0  0  0  0  0  0  0
  147.6748  134.6846  159.3098 S   0  0  0  0  0  0  0  0  0  0  0  0
  146.9384  134.5918  160.8905 C   0  0  0  0  0  0  0  0  0  0  0  0
  146.4639  133.2870  161.4382 C   0  0  0  0  0  0  0  0  0  0  0  0
  145.2999  135.7416  162.9482 H   0  0  0  0  0  0  0  0  0  0  0  0
  146.2526  137.2179  163.0165 H   0  0  0  0  0  0  0  0  0  0  0  0
  146.9212  135.7114  163.6327 H   0  0  0  0  0  0  0  0  0  0  0  0
  147.8213  137.8113  158.0168 H   0  0  0  0  0  0  0  0  0  0  0  0
  149.1359  138.6982  156.8534 H   0  0  0  0  0  0  0  0  0  0  0  0
  151.9548  137.8098  156.9329 H   0  0  0  0  0  0  0  0  0  0  0  0
  151.1739  138.5525  155.5566 H   0  0  0  0  0  0  0  0  0  0  0  0
  152.3440  139.8334  158.0167 H   0  0  0  0  0  0  0  0  0  0  0  0
  152.3669  140.3873  156.3581 H   0  0  0  0  0  0  0  0  0  0  0  0
  150.1687  141.3281  156.5186 H   0  0  0  0  0  0  0  0  0  0  0  0
  149.7508  140.3041  157.8636 H   0  0  0  0  0  0  0  0  0  0  0  0
  151.4820  140.7409  159.9758 H   0  0  0  0  0  0  0  0  0  0  0  0
  152.7702  141.2332  158.8988 H   0  0  0  0  0  0  0  0  0  0  0  0
  151.3322  143.0127  160.9432 H   0  0  0  0  0  0  0  0  0  0  0  0
  152.9810  142.4220  161.0483 H   0  0  0  0  0  0  0  0  0  0  0  0
  150.8167  144.6633  159.1570 H   0  0  0  0  0  0  0  0  0  0  0  0
  152.1313  145.1507  158.1018 H   0  0  0  0  0  0  0  0  0  0  0  0
  152.2614  142.8975  157.1054 H   0  0  0  0  0  0  0  0  0  0  0  0
  150.6263  143.5033  156.9650 H   0  0  0  0  0  0  0  0  0  0  0  0
  146.8284  133.1375  162.4548 H   0  0  0  0  0  0  0  0  0  0  0  0
  146.8152  132.4526  160.8311 H   0  0  0  0  0  0  0  0  0  0  0  0
  145.3746  133.2523  161.4607 H   0  0  0  0  0  0  0  0  0  0  0  0
  1  2  1  0  0  0  0
  1 21  1  0  0  0  0
  1 22  1  0  0  0  0
  1 23  1  0  0  0  0
  2 19  2  0  0  0  0
  2  3  1  0  0  0  0
  3  4  2  0  0  0  0
  4  5  1  0  0  0  0
  4 18  1  0  0  0  0
  5  6  1  0  0  0  0
  5 24  1  0  0  0  0
  6  7  2  0  0  0  0
  6  8  1  0  0  0  0
  8  9  1  0  0  0  0
  8 25  1  0  0  0  0
  9 10  1  0  0  0  0
  9 26  1  0  0  0  0
  9 27  1  0  0  0  0
 10 11  1  0  0  0  0
 10 28  1  0  0  0  0
 10 29  1  0  0  0  0
 11 12  1  0  0  0  0
 11 30  1  0  0  0  0
 11 31  1  0  0  0  0
 12 17  1  0  0  0  0
 12 13  1  0  0  0  0
 13 14  1  0  0  0  0
 13 32  1  0  0  0  0
 13 33  1  0  0  0  0
 14 15  1  0  0  0  0
 14 34  1  0  0  0  0
 14 35  1  0  0  0  0
 15 16  1  0  0  0  0
 16 17  1  0  0  0  0
 16 36  1  0  0  0  0
 16 37  1  0  0  0  0
 17 38  1  0  0  0  0
 17 39  1  0  0  0  0
 18 19  1  0  0  0  0
 19 20  1  0  0  0  0
 20 40  1  0  0  0  0
 20 41  1  0  0  0  0
 20 42  1  0  0  0  0
M  END
> <s_m_source_file>
AV-unprocessed.smi

> <i_m_source_file_index>
2592

> <i_lp_mmshare_version>
43012

> <i_f3d_flags>
0

> <s_epik_input>
W0NIM11jMW5jKHNjMVtDSDNdKVtOSF1DKD1PKVtOSF1bQ0gyXVtDSDJdW0NIMl1OMltDSDJdW0NIMl1PW0NIMl1bQ0gyXTI=

> <s_epik_cmdline>
J2VwaWtfcHl0aG9uJywgJy1waCcsICc3LjAnLCAnLXRuJywgJzgnLCAnLW1hJywgJzIwMCcsICctbWV0YWxfYmluZGluZycsICctaW1hZScsICc8aW5maWxlLm1hZT4nLCAnLW9tYWUnLCAnPG91dGZpbGUubWFlPic=

> <r_lp_tautomer_probability>
0.999

> <r_epik_Ionization_Penalty>
0.575986

> <r_epik_Ionization_Penalty_Charging>
0

> <r_epik_Ionization_Penalty_Neutral>
0.575986

> <r_epik_State_Penalty>
0.588115

> <r_epik_Charging_Adjusted_Penalty>
0.588115

> <i_epik_Tot_Q>
0

> <i_epik_Tot_abs_Q>
0

> <r_epik_Metal_State_Penalty>
0.606929

> <b_epik_Metal_Only>
0

> <s_lp_Force_Field>
OPLS_2005

> <r_lp_Energy>
19.7719

> <b_lp_Chiralities_Consistent>
1

> <s_lp_Variant>
AV-unprocessed.smi:2592-2

> <Gold.Version>
5.8.1

> <Gold.Id.Protein>
6NUR|6NUR_protein|mol2

> <Gold.PLP.Fitness>
42.9408

> <Gold.PLP.PLP>
-37.4738

> <Gold.PLP.part.hbond>
-3.0000

> <Gold.PLP.part.metal>
0.0000

> <Gold.PLP.part.buried>
-6.2082

> <Gold.PLP.part.nonpolar>
-29.5203

> <Gold.PLP.part.repulsive>
0.2352

> <Gold.PLP.ligand.clash>
0.0000

> <Gold.PLP.ligand.torsion>
1.4511

> <Gold.PLP.Chemscore.Hbond>
2.7753

> <Gold.PLP.Chemscore.CHOScore>
0.0000

> <Gold.PLP.Chemscore.Metal>
0.0000

> <Gold.Chemscore.Hbonds>
donor molecule, donor type, donor heavy atom, donor atom, acceptor molecule, acceptor atom, score
      P1  H  6896  6907       L1     7  1.00
      P1  H  6934  6947       L1     3  0.60

> <Gold.PLP.Chemscore.Internal.Correction>
0.0434

> <Gold.Rescore>
     Score         DG    S(hbond)    S(metal)    S(lipo)     H(rot)  DE(clash)    DE(int)     intcor
     18.35     -20.41       2.39        0.00      96.36       1.69       0.59       1.47       ----

> <Gold.Chemscore.Fitness>
18.3479

> <Gold.Chemscore.DG>
-20.4104

> <Gold.Chemscore.ZeroCoef>
-5.4800

> <Gold.Chemscore.Hbond>
2.3894

> <Gold.Chemscore.Metal>
0.0000

> <Gold.Chemscore.Lipo>
96.3587

> <Gold.Chemscore.Internal_Hbond>
0.0000

> <Gold.Chemscore.DEClash>
0.5950

> <Gold.Chemscore.DEInternal>
1.4675

> <Gold.Chemscore.Rot>
1.6892

> <Gold.Chemscore.Internal.Correction>
   9.000000E+99

> <Gold.Chemscore.Hbonds>
donor molecule, donor type, donor heavy atom, donor atom, acceptor molecule, acceptor atom, score
      P1  H  6896  6907       L1     7  0.89
      P1  H  6931  6943       L1     3  0.03
      P1  H  6934  6947       L1     3  0.56

> <Gold.Chemscore.Hbond.Weighted>
-7.9807

> <Gold.Chemscore.Metal.Weighted>
-0.0000

> <Gold.Chemscore.Lipo.Weighted>
-11.2740

> <Gold.Chemscore.Internal_Hbond.Weighted>
0.0000

> <Gold.Chemscore.DEClash.Weighted>
0.5950

> <Gold.Chemscore.DEInternal.Weighted>
1.4675

> <Gold.Chemscore.Rot.Weighted>
4.3243

> <Gold.Chemscore.Internal.Correction.Weighted>
   9.000000E+99

> <Gold.Protein.RotatedTorsions>
[ 6907 6896 6895 6894 ] final  -22.35 input  -60.11 | X-H torsion
[ 7974 7965 7964 7962 ] final  -60.71 input  175.53 | X-H torsion
[ 8008 7997 7996 7995 ] final   11.43 input   59.86 | X-H torsion
[ 10167 10162 10161 10158 ] final    3.45 input  -65.29 | X-H torsion
[ 10718 10713 10712 10709 ] final   11.76 input   66.30 | X-H torsion
[ 10763 10752 10751 10750 ] final  -10.89 input  -60.55 | X-H torsion
[ 11005 11000 10999 10996 ] final -178.23 input  -57.11 | X-H torsion

> <Gold.Protein.ActiveResidues>
 VAL166  LYS551  ARG553  GLY616  TRP617  ASP618  TYR619  PRO620  LYS621  CYS622 
 ASP623  PHE694  ASN695  SER759  ASP760  ASP761  ALA762  ILE779  LEU786  VAL792 
 PHE793  MET794  SER795  GLU796  ALA797  LYS798  CYS799  TRP800  GLU811  SER814 

> <Gold.Protein.RotatedAtoms>
  151.2199  135.0514  159.8945 H   0  0  0  0  0  0  0  0  0  0  0  0  # atno 6907 bound_to 6896
  152.5416  134.0651  159.8179 H   0  0  0  0  0  0  0  0  0  0  0  0  # atno 6908 bound_to 6896
  151.0816  133.5337  159.2652 H   0  0  0  0  0  0  0  0  0  0  0  0  # atno 6909 bound_to 6896
  145.8122  140.8591  143.0176 H   0  0  0  0  0  0  0  0  0  0  0  0  # atno 7974 bound_to 7965
  154.8068  140.2861  155.5882 H   0  0  0  0  0  0  0  0  0  0  0  0  # atno 8008 bound_to 7997
  156.2983  140.2576  156.2877 H   0  0  0  0  0  0  0  0  0  0  0  0  # atno 8009 bound_to 7997
  154.9494  140.0379  157.2126 H   0  0  0  0  0  0  0  0  0  0  0  0  # atno 8010 bound_to 7997
  140.6585  143.7365  150.7696 H   0  0  0  0  0  0  0  0  0  0  0  0  # atno 10167 bound_to 10162
  157.0002  130.6077  149.5695 H   0  0  0  0  0  0  0  0  0  0  0  0  # atno 10718 bound_to 10713
  153.4757  135.7017  153.5967 H   0  0  0  0  0  0  0  0  0  0  0  0  # atno 10763 bound_to 10752
  153.4202  135.3827  155.2106 H   0  0  0  0  0  0  0  0  0  0  0  0  # atno 10764 bound_to 10752
  154.8723  135.3926  154.4200 H   0  0  0  0  0  0  0  0  0  0  0  0  # atno 10765 bound_to 10752
  140.4321  134.6509  157.4717 H   0  0  0  0  0  0  0  0  0  0  0  0  # atno 11005 bound_to 11000
  144.6756  140.0412  143.7481 LP  0  0  0  0  0  0  0  0  0  0  0  0  # atno 17320 bound_to 7965
  145.9765  139.2908  143.1068 LP  0  0  0  0  0  0  0  0  0  0  0  0  # atno 17321 bound_to 7965
  140.1029  143.4770  152.2415 LP  0  0  0  0  0  0  0  0  0  0  0  0  # atno 17342 bound_to 10162
  139.5813  144.7511  151.3633 LP  0  0  0  0  0  0  0  0  0  0  0  0  # atno 17343 bound_to 10162
  156.0174  130.5268  150.8174 LP  0  0  0  0  0  0  0  0  0  0  0  0  # atno 17370 bound_to 10713
  157.5395  131.0940  150.9846 LP  0  0  0  0  0  0  0  0  0  0  0  0  # atno 17371 bound_to 10713
  140.0127  134.6666  155.9356 LP  0  0  0  0  0  0  0  0  0  0  0  0  # atno 17394 bound_to 11000
  141.1741  133.6539  156.4761 LP  0  0  0  0  0  0  0  0  0  0  0  0  # atno 17395 bound_to 11000

$$$$
