#       Name:                AV-unprocessed.smi:625
#       Creating user name   scv26
#       Creation time:       Fri Mar 27 00:02:55 2020


#       File generated by GOLD software.
#

@<TRIPOS>MOLECULE
AV-unprocessed.smi:625
    55    57     1
SMALL
NO_CHARGES


@<TRIPOS>ATOM
      1 ****        -1.9561   4.7546  -3.3560 C.3            1 S1                 0.0000
      2 ****        -2.0796   3.4284  -2.7699 N.am           1 S1                 0.0000
      3 ****        -2.7668   3.1518  -1.6480 C.2            1 S1                 0.0000
      4 ****        -3.3585   4.0316  -1.0210 O.2            1 S1                 0.0000
      5 ****        -2.7391   1.7394  -1.2564 C.2            1 S1                 0.0000
      6 ****        -3.4214   1.3282  -0.0444 C.2            1 S1                 0.0000
      7 ****        -3.4021   0.0419   0.3561 C.2            1 S1                 0.0000
      8 ****        -2.6987  -0.9916  -0.4079 C.2            1 S1                 0.0000
      9 ****        -2.6587  -2.1647  -0.0365 O.2            1 S1                 0.0000
     10 ****        -2.0811  -0.5676  -1.5526 N.am           1 S1                 0.0000
     11 ****        -1.3264  -1.5123  -2.3975 C.3            1 S1                 0.0000
     12 ****         0.1297  -1.7430  -1.9569 C.2            1 S1                 0.0000
     13 ****         0.7913  -2.6215  -2.5082 O.2            1 S1                 0.0000
     14 ****         0.6179  -0.9713  -0.9711 N.am           1 S1                 0.0000
     15 ****         1.9386  -1.0835  -0.3610 C.3            1 S1                 0.0000
     16 ****         2.9423  -0.2382  -1.1651 C.3            1 S1                 0.0000
     17 ****         1.8558  -0.6456   1.1216 C.3            1 S1                 0.0000
     18 ****         3.1634  -0.8858   1.9143 C.3            1 S1                 0.0000
     19 ****         2.6953  -1.7045   3.1306 C.3            1 S1                 0.0000
     20 ****         1.8505  -0.8138   4.0599 C.3            1 S1                 0.0000
     21 ****         0.5402  -0.6467   3.2683 C.3            1 S1                 0.0000
     22 ****         0.8239  -1.4318   1.9735 C.3            1 S1                 0.0000
     23 ****         1.6398  -2.6057   2.5042 C.3            1 S1                 0.0000
     24 ****        -2.1006   0.7805  -1.9628 C.2            1 S1                 0.0000
     25 ****        -1.3339   4.7095  -4.2498 H              1 S1                 0.0000
     26 ****        -1.4931   5.4486  -2.6531 H              1 S1                 0.0000
     27 ****        -2.9339   5.1459  -3.6402 H              1 S1                 0.0000
     28 ****        -1.6124   2.6690  -3.2441 H              1 S1                 0.0000
     29 ****        -3.9552   2.0518   0.5551 H              1 S1                 0.0000
     30 ****        -3.9176  -0.2363   1.2636 H              1 S1                 0.0000
     31 ****        -1.8342  -2.4778  -2.4341 H              1 S1                 0.0000
     32 ****        -1.3137  -1.1650  -3.4315 H              1 S1                 0.0000
     33 ****         0.0046  -0.2698  -0.5820 H              1 S1                 0.0000
     34 ****         2.2566  -2.1268  -0.3974 H              1 S1                 0.0000
     35 ****         3.9508  -0.3204  -0.7604 H              1 S1                 0.0000
     36 ****         2.6674   0.8172  -1.1574 H              1 S1                 0.0000
     37 ****         2.9857  -0.5624  -2.2053 H              1 S1                 0.0000
     38 ****         1.6028   0.4160   1.1439 H              1 S1                 0.0000
     39 ****         3.8816  -1.4674   1.3348 H              1 S1                 0.0000
     40 ****         3.6507   0.0462   2.2025 H              1 S1                 0.0000
     41 ****         3.5039  -2.2281   3.6417 H              1 S1                 0.0000
     42 ****         1.6620  -1.3112   5.0122 H              1 S1                 0.0000
     43 ****         2.3352   0.1405   4.2694 H              1 S1                 0.0000
     44 ****        -0.2946  -1.0903   3.8125 H              1 S1                 0.0000
     45 ****         0.2948   0.3991   3.0795 H              1 S1                 0.0000
     46 ****        -0.0878  -1.7143   1.4470 H              1 S1                 0.0000
     47 ****         2.0322  -3.2553   1.7203 H              1 S1                 0.0000
     48 ****         1.1010  -3.2132   3.2337 H              1 S1                 0.0000
     49 ****        -1.5520   0.9636  -2.8756 H              1 S1                 0.0000
     50 ****        -3.3347   4.9778  -1.3438 LP             1 S1                 0.0000
     51 ****        -3.8627   3.7997  -0.1891 LP             1 S1                 0.0000
     52 ****        -3.1153  -2.4368   0.8106 LP             1 S1                 0.0000
     53 ****        -2.1696  -2.8454  -0.5818 LP             1 S1                 0.0000
     54 ****         0.3816  -3.1752  -3.2331 LP             1 S1                 0.0000
     55 ****         1.7388  -2.7818  -2.2314 LP             1 S1                 0.0000
@<TRIPOS>BOND
    1    1    2 1     
    2    1   25 1     
    3    1   26 1     
    4    1   27 1     
    5    2    3 am    
    6    2   28 1     
    7    3    4 2     
    8    3    5 1     
    9    5   24 2     
   10    5    6 1     
   11    6    7 2     
   12    6   29 1     
   13    7    8 1     
   14    7   30 1     
   15    8    9 2     
   16    8   10 am    
   17   10   11 1     
   18   10   24 1     
   19   11   12 1     
   20   11   31 1     
   21   11   32 1     
   22   12   13 2     
   23   12   14 am    
   24   14   15 1     
   25   14   33 1     
   26   15   16 1     
   27   15   17 1     
   28   15   34 1     
   29   16   35 1     
   30   16   36 1     
   31   16   37 1     
   32   17   22 1     
   33   17   18 1     
   34   17   38 1     
   35   18   19 1     
   36   18   39 1     
   37   18   40 1     
   38   19   23 1     
   39   19   20 1     
   40   19   41 1     
   41   20   21 1     
   42   20   42 1     
   43   20   43 1     
   44   21   22 1     
   45   21   44 1     
   46   21   45 1     
   47   22   23 1     
   48   22   46 1     
   49   23   47 1     
   50   23   48 1     
   51   24   49 1     
   52    4   50 1     
   53    4   51 1     
   54    9   52 1     
   55    9   53 1     
   56   13   54 1     
   57   13   55 1     
@<TRIPOS>SUBSTRUCTURE
      1 S1             1
@<TRIPOS>SET
LONE_PAIRS      STATIC     ATOMS    <user>   **** ""
6 50 51 52 53 54 55
DONOR_HYDROGENS      STATIC     ATOMS    <user>   **** ""
2 28 33
ATOM$BLUE        STATIC     ATOMS    COLORGROUP SYSTEM
6 50 51 52 53 54 55
ATOM$RED        STATIC     ATOMS    COLORGROUP SYSTEM
2 28 33
