#       Name:                AV-unprocessed.smi:527
#       Creating user name   scv26
#       Creation time:       Thu Mar 26 23:29:59 2020


#       File generated by GOLD software.
#

@<TRIPOS>MOLECULE
AV-unprocessed.smi:527
    47    48     1
SMALL
NO_CHARGES


@<TRIPOS>ATOM
      1 ****        -4.3810  -0.1304   2.0095 C.3            1 S1                 0.0000
      2 ****        -3.5855  -1.4153   1.6998 C.3            1 S1                 0.0000
      3 ****        -4.1391  -2.1384   0.4551 C.3            1 S1                 0.0000
      4 ****        -3.7926  -1.4008  -0.8478 C.3            1 S1                 0.0000
      5 ****        -2.2786  -1.1851  -0.9775 C.3            1 S1                 0.0000
      6 ****        -1.6930  -0.4574   0.2506 C.3            1 S1                 0.0000
      7 ****        -0.2423  -0.3479   0.1071 N.am           1 S1                 0.0000
      8 ****         0.4026   0.6407  -0.5303 C.2            1 S1                 0.0000
      9 ****        -0.1746   1.5798  -1.0828 O.2            1 S1                 0.0000
     10 ****         1.7366   0.4597  -0.4778 N.am           1 S1                 0.0000
     11 ****         2.6952   1.2525  -0.9993 C.2            1 S1                 0.0000
     12 ****         2.4845   2.2965  -1.6224 O.2            1 S1                 0.0000
     13 ****         4.1304   0.7645  -0.7603 C.3            1 S1                 0.0000
     14 ****         5.1298   1.5858  -1.4228 N.pl3          1 S1                 0.0000
     15 ****         5.6724   1.3906  -2.6866 C.2            1 S1                 0.0000
     16 ****         6.5701   2.4139  -2.8915 C.2            1 S1                 0.0000
     17 ****         6.5975   3.2447  -1.7738 N.2            1 S1                 0.0000
     18 ****         5.7187   2.6924  -0.9473 C.2            1 S1                 0.0000
     19 ****        -2.0543  -1.1987   1.5639 C.3            1 S1                 0.0000
     20 ****        -1.4411  -0.5396   2.8155 C.3            1 S1                 0.0000
     21 ****        -4.2460   0.6332   1.2443 H              1 S1                 0.0000
     22 ****        -4.0859   0.3032   2.9648 H              1 S1                 0.0000
     23 ****        -5.4485  -0.3418   2.0750 H              1 S1                 0.0000
     24 ****        -3.7457  -2.0834   2.5472 H              1 S1                 0.0000
     25 ****        -3.7249  -3.1466   0.4122 H              1 S1                 0.0000
     26 ****        -5.2197  -2.2609   0.5380 H              1 S1                 0.0000
     27 ****        -4.1579  -1.9702  -1.7029 H              1 S1                 0.0000
     28 ****        -4.3053  -0.4393  -0.8816 H              1 S1                 0.0000
     29 ****        -1.7891  -2.1525  -1.0997 H              1 S1                 0.0000
     30 ****        -2.0695  -0.6185  -1.8857 H              1 S1                 0.0000
     31 ****        -2.1169   0.5471   0.2979 H              1 S1                 0.0000
     32 ****         0.3085  -1.0788   0.5331 H              1 S1                 0.0000
     33 ****         2.0569  -0.3642   0.0090 H              1 S1                 0.0000
     34 ****         4.3373   0.7570   0.3107 H              1 S1                 0.0000
     35 ****         4.2311  -0.2615  -1.1166 H              1 S1                 0.0000
     36 ****         5.3819   0.5645  -3.3190 H              1 S1                 0.0000
     37 ****         7.1928   2.6150  -3.7507 H              1 S1                 0.0000
     38 ****         5.4963   3.1039   0.0264 H              1 S1                 0.0000
     39 ****        -1.6100  -2.1935   1.4992 H              1 S1                 0.0000
     40 ****        -1.7274   0.5089   2.8986 H              1 S1                 0.0000
     41 ****        -0.3520  -0.5791   2.7954 H              1 S1                 0.0000
     42 ****        -1.7628  -1.0481   3.7247 H              1 S1                 0.0000
     43 ****        -1.1732   1.6303  -1.0695 LP             1 S1                 0.0000
     44 ****         0.3559   2.2908  -1.5443 LP             1 S1                 0.0000
     45 ****         1.5464   2.6092  -1.7713 LP             1 S1                 0.0000
     46 ****         3.2519   2.8298  -1.9785 LP             1 S1                 0.0000
     47 ****         7.1502   4.0653  -1.6284 LP             1 S1                 0.0000
@<TRIPOS>BOND
    1    1    2 1     
    2    1   21 1     
    3    1   22 1     
    4    1   23 1     
    5    2   19 1     
    6    2    3 1     
    7    2   24 1     
    8    3    4 1     
    9    3   25 1     
   10    3   26 1     
   11    4    5 1     
   12    4   27 1     
   13    4   28 1     
   14    5    6 1     
   15    5   29 1     
   16    5   30 1     
   17    6    7 1     
   18    6   19 1     
   19    6   31 1     
   20    7    8 1     
   21    7   32 1     
   22    8    9 2     
   23    8   10 1     
   24   10   11 1     
   25   10   33 1     
   26   11   12 2     
   27   11   13 1     
   28   13   14 1     
   29   13   34 1     
   30   13   35 1     
   31   14   18 1     
   32   14   15 1     
   33   15   16 2     
   34   15   36 1     
   35   16   17 1     
   36   16   37 1     
   37   17   18 2     
   38   18   38 1     
   39   19   20 1     
   40   19   39 1     
   41   20   40 1     
   42   20   41 1     
   43   20   42 1     
   44    9   43 1     
   45    9   44 1     
   46   12   45 1     
   47   12   46 1     
   48   17   47 1     
@<TRIPOS>SUBSTRUCTURE
      1 S1             1
@<TRIPOS>SET
LONE_PAIRS      STATIC     ATOMS    <user>   **** ""
5 43 44 45 46 47
DONOR_HYDROGENS      STATIC     ATOMS    <user>   **** ""
2 32 33
ATOM$BLUE        STATIC     ATOMS    COLORGROUP SYSTEM
5 43 44 45 46 47
ATOM$RED        STATIC     ATOMS    COLORGROUP SYSTEM
2 32 33
