AV-unprocessed.smi:1014|AV-procd|sdf|4433|dock3
  -GOLD-   22720 2393D 1   1.00000     0.00000
 Structure written by MMmdl.
 33 33  0  0  0  0  0  0  0  0  1 V2000
  150.3920  139.0544  154.6710 C   0  0  0  0  0  0  0  0  0  0  0  0
  150.8920  140.1843  155.5817 C   0  0  0  0  0  0  0  0  0  0  0  0
  149.8104  141.2406  155.8920 C   0  0  1  0  0  0  0  0  0  0  0  0
  150.4442  142.5194  156.2648 N   0  0  0  0  0  0  0  0  0  0  0  0
  151.4064  142.4203  157.3564 C   0  0  0  0  0  0  0  0  0  0  0  0
  151.7512  143.8301  157.8564 C   0  0  0  0  0  0  0  0  0  0  0  0
  151.9018  143.8633  159.2981 N   0  0  0  0  0  0  0  0  0  0  0  0
  152.5437  142.9565  160.1145 C   0  0  0  0  0  0  0  0  0  0  0  0
  152.4228  143.4036  161.4000 C   0  0  0  0  0  0  0  0  0  0  0  0
  152.9438  142.7818  162.6634 C   0  0  0  0  0  0  0  0  0  0  0  0
  151.6770  144.6088  161.2619 C   0  0  0  0  0  0  0  0  0  0  0  0
  151.3666  144.8810  160.0050 N   0  0  0  0  0  0  0  0  0  0  0  0
  148.8403  141.3788  154.7057 C   0  0  0  0  0  0  0  0  0  0  0  0
  147.5371  141.2421  154.9627 N   0  0  0  0  0  0  0  0  0  0  0  0
  149.2625  141.6248  153.5772 O   0  0  0  0  0  0  0  0  0  0  0  0
  151.1923  138.3452  154.4593 H   0  0  0  0  0  0  0  0  0  0  0  0
  150.0338  139.4446  153.7182 H   0  0  0  0  0  0  0  0  0  0  0  0
  149.5754  138.5015  155.1355 H   0  0  0  0  0  0  0  0  0  0  0  0
  151.2817  139.7608  156.5087 H   0  0  0  0  0  0  0  0  0  0  0  0
  151.7415  140.6597  155.0886 H   0  0  0  0  0  0  0  0  0  0  0  0
  149.2357  140.8863  156.7501 H   0  0  0  0  0  0  0  0  0  0  0  0
  149.7553  143.2268  156.4781 H   0  0  0  0  0  0  0  0  0  0  0  0
  150.9970  141.8313  158.1779 H   0  0  0  0  0  0  0  0  0  0  0  0
  152.3098  141.9178  157.0076 H   0  0  0  0  0  0  0  0  0  0  0  0
  152.6812  144.1787  157.4049 H   0  0  0  0  0  0  0  0  0  0  0  0
  150.9740  144.5409  157.5705 H   0  0  0  0  0  0  0  0  0  0  0  0
  153.0278  142.0764  159.7172 H   0  0  0  0  0  0  0  0  0  0  0  0
  152.2395  142.0583  163.0739 H   0  0  0  0  0  0  0  0  0  0  0  0
  153.1253  143.5289  163.4362 H   0  0  0  0  0  0  0  0  0  0  0  0
  153.8850  142.2573  162.4979 H   0  0  0  0  0  0  0  0  0  0  0  0
  151.3538  145.2905  162.0346 H   0  0  0  0  0  0  0  0  0  0  0  0
  146.8648  141.3239  154.2141 H   0  0  0  0  0  0  0  0  0  0  0  0
  147.2293  141.0561  155.9061 H   0  0  0  0  0  0  0  0  0  0  0  0
  1  2  1  0  0  0  0
  1 16  1  0  0  0  0
  1 17  1  0  0  0  0
  1 18  1  0  0  0  0
  2  3  1  0  0  0  0
  2 19  1  0  0  0  0
  2 20  1  0  0  0  0
  3  4  1  0  0  0  0
  3 13  1  0  0  0  0
  3 21  1  0  0  0  0
  4  5  1  0  0  0  0
  4 22  1  0  0  0  0
  5  6  1  0  0  0  0
  5 23  1  0  0  0  0
  5 24  1  0  0  0  0
  6  7  1  0  0  0  0
  6 25  1  0  0  0  0
  6 26  1  0  0  0  0
  7 12  1  0  0  0  0
  7  8  1  0  0  0  0
  8  9  2  0  0  0  0
  8 27  1  0  0  0  0
  9 10  1  0  0  0  0
  9 11  1  0  0  0  0
 10 28  1  0  0  0  0
 10 29  1  0  0  0  0
 10 30  1  0  0  0  0
 11 12  2  0  0  0  0
 11 31  1  0  0  0  0
 13 14  1  0  0  0  0
 13 15  2  0  0  0  0
 14 32  1  0  0  0  0
 14 33  1  0  0  0  0
M  END
> <s_m_source_file>
AV-unprocessed.smi

> <i_m_source_file_index>
1014

> <i_lp_mmshare_version>
43012

> <i_f3d_flags>
0

> <s_epik_input>
W0NIM11bQ0gyXVtDQEBIXShDKD1PKVtOSDJdKVtOSF1bQ0gyXVtDSDJdbjFbY0hdYyhbQ0gzXSlbY0hdbjE=

> <s_epik_cmdline>
J2VwaWtfcHl0aG9uJywgJy1waCcsICc3LjAnLCAnLXRuJywgJzgnLCAnLW1hJywgJzIwMCcsICctbWV0YWxfYmluZGluZycsICctaW1hZScsICc8aW5maWxlLm1hZT4nLCAnLW9tYWUnLCAnPG91dGZpbGUubWFlPic=

> <r_lp_tautomer_probability>
1

> <r_epik_Ionization_Penalty>
0.767127

> <r_epik_Ionization_Penalty_Charging>
0

> <r_epik_Ionization_Penalty_Neutral>
0.767127

> <r_epik_State_Penalty>
0.793761

> <r_epik_Charging_Adjusted_Penalty>
0.793761

> <i_epik_Tot_Q>
0

> <i_epik_Tot_abs_Q>
0

> <r_epik_Metal_State_Penalty>
0.79201

> <b_epik_Metal_Only>
0

> <s_lp_Force_Field>
OPLS_2005

> <r_lp_Energy>
4.41015

> <b_lp_Chiralities_Consistent>
1

> <s_lp_Variant>
AV-unprocessed.smi:1014-4

> <Gold.Version>
5.8.1

> <Gold.Id.Protein>
6NUR|6NUR_protein|mol2

> <Gold.PLP.Fitness>
41.2140

> <Gold.PLP.PLP>
-38.3237

> <Gold.PLP.part.hbond>
-2.5845

> <Gold.PLP.part.metal>
0.0000

> <Gold.PLP.part.buried>
-2.6048

> <Gold.PLP.part.nonpolar>
-33.3411

> <Gold.PLP.part.repulsive>
1.7462

> <Gold.PLP.ligand.clash>
0.0000

> <Gold.PLP.ligand.torsion>
0.9588

> <Gold.PLP.Chemscore.Hbond>
1.5680

> <Gold.PLP.Chemscore.CHOScore>
0.0000

> <Gold.PLP.Chemscore.Metal>
0.0000

> <Gold.Chemscore.Hbonds>
donor molecule, donor type, donor heavy atom, donor atom, acceptor molecule, acceptor atom, score
      L1  H     4    22       P1  8028  0.80
      P1  H  8011  8017       L1    15  0.75

> <Gold.PLP.Chemscore.Internal.Correction>
0.1037

> <Gold.Rescore>
     Score         DG    S(hbond)    S(metal)    S(lipo)     H(rot)  DE(clash)    DE(int)     intcor
     13.54     -14.15       1.60        0.00      83.25       2.51       0.06       0.55       ----

> <Gold.Chemscore.Fitness>
13.5400

> <Gold.Chemscore.DG>
-14.1483

> <Gold.Chemscore.ZeroCoef>
-5.4800

> <Gold.Chemscore.Hbond>
1.6026

> <Gold.Chemscore.Metal>
0.0000

> <Gold.Chemscore.Lipo>
83.2501

> <Gold.Chemscore.Internal_Hbond>
0.0000

> <Gold.Chemscore.DEClash>
0.0624

> <Gold.Chemscore.DEInternal>
0.5460

> <Gold.Chemscore.Rot>
2.5096

> <Gold.Chemscore.Internal.Correction>
   9.000000E+99

> <Gold.Chemscore.Hbonds>
donor molecule, donor type, donor heavy atom, donor atom, acceptor molecule, acceptor atom, score
      L1  H     4    22       P1  8028  0.79
      P1  H  8011  8017       L1    15  0.73

> <Gold.Chemscore.Hbond.Weighted>
-5.3527

> <Gold.Chemscore.Metal.Weighted>
-0.0000

> <Gold.Chemscore.Lipo.Weighted>
-9.7403

> <Gold.Chemscore.Internal_Hbond.Weighted>
0.0000

> <Gold.Chemscore.DEClash.Weighted>
0.0624

> <Gold.Chemscore.DEInternal.Weighted>
0.5460

> <Gold.Chemscore.Rot.Weighted>
6.4246

> <Gold.Chemscore.Internal.Correction.Weighted>
   9.000000E+99

> <Gold.Protein.RotatedTorsions>
[ 6907 6896 6895 6894 ] final    2.91 input  -60.11 | X-H torsion
[ 7974 7965 7964 7962 ] final   76.38 input  175.53 | X-H torsion
[ 8008 7997 7996 7995 ] final  -55.63 input   59.86 | X-H torsion
[ 10167 10162 10161 10158 ] final  -22.97 input  -65.29 | X-H torsion
[ 10718 10713 10712 10709 ] final  173.31 input   66.30 | X-H torsion
[ 10763 10752 10751 10750 ] final -170.12 input  -60.55 | X-H torsion
[ 11005 11000 10999 10996 ] final   67.62 input  -57.11 | X-H torsion

> <Gold.Protein.ActiveResidues>
 VAL166  LYS551  ARG553  GLY616  TRP617  ASP618  TYR619  PRO620  LYS621  CYS622 
 ASP623  PHE694  ASN695  SER759  ASP760  ASP761  ALA762  ILE779  LEU786  VAL792 
 PHE793  MET794  SER795  GLU796  ALA797  LYS798  CYS799  TRP800  GLU811  SER814 

> <Gold.Protein.RotatedAtoms>
  151.6165  135.1036  160.0092 H   0  0  0  0  0  0  0  0  0  0  0  0  # atno 6907 bound_to 6896
  152.4180  133.7066  159.6465 H   0  0  0  0  0  0  0  0  0  0  0  0  # atno 6908 bound_to 6896
  150.8068  133.8421  159.3223 H   0  0  0  0  0  0  0  0  0  0  0  0  # atno 6909 bound_to 6896
  145.7035  139.2591  143.1691 H   0  0  0  0  0  0  0  0  0  0  0  0  # atno 7974 bound_to 7965
  154.4202  140.1148  156.5508 H   0  0  0  0  0  0  0  0  0  0  0  0  # atno 8008 bound_to 7997
  155.6411  140.3496  155.4696 H   0  0  0  0  0  0  0  0  0  0  0  0  # atno 8009 bound_to 7997
  155.9870  140.1171  157.0664 H   0  0  0  0  0  0  0  0  0  0  0  0  # atno 8010 bound_to 7997
  140.7287  143.4486  151.0550 H   0  0  0  0  0  0  0  0  0  0  0  0  # atno 10167 bound_to 10162
  156.9662  131.0076  151.2916 H   0  0  0  0  0  0  0  0  0  0  0  0  # atno 10718 bound_to 10713
  154.6450  135.2903  155.0058 H   0  0  0  0  0  0  0  0  0  0  0  0  # atno 10763 bound_to 10752
  154.1171  135.6554  153.4900 H   0  0  0  0  0  0  0  0  0  0  0  0  # atno 10764 bound_to 10752
  153.0346  135.5279  154.7333 H   0  0  0  0  0  0  0  0  0  0  0  0  # atno 10765 bound_to 10752
  139.9760  134.6822  156.0354 H   0  0  0  0  0  0  0  0  0  0  0  0  # atno 11005 bound_to 11000
  146.0776  140.7800  142.9657 LP  0  0  0  0  0  0  0  0  0  0  0  0  # atno 17320 bound_to 7965
  144.6962  140.3439  143.7194 LP  0  0  0  0  0  0  0  0  0  0  0  0  # atno 17321 bound_to 7965
  139.8160  143.7886  152.3174 LP  0  0  0  0  0  0  0  0  0  0  0  0  # atno 17342 bound_to 10162
  139.7952  144.7395  150.9901 LP  0  0  0  0  0  0  0  0  0  0  0  0  # atno 17343 bound_to 10162
  157.5624  130.8255  149.8283 LP  0  0  0  0  0  0  0  0  0  0  0  0  # atno 17370 bound_to 10713
  156.0301  130.3767  150.1710 LP  0  0  0  0  0  0  0  0  0  0  0  0  # atno 17371 bound_to 10713
  141.1437  133.6560  156.3803 LP  0  0  0  0  0  0  0  0  0  0  0  0  # atno 17394 bound_to 11000
  140.5194  134.6318  157.5313 LP  0  0  0  0  0  0  0  0  0  0  0  0  # atno 17395 bound_to 11000

$$$$
