#       Name:                AV-unprocessed.smi:3133
#       Creating user name   scv26
#       Creation time:       Fri Mar 27 17:32:47 2020


#       File generated by GOLD software.
#

@<TRIPOS>MOLECULE
AV-unprocessed.smi:3133
    38    39     1
SMALL
NO_CHARGES


@<TRIPOS>ATOM
      1 ****        -2.3319  -1.1104   2.9549 C.3            1 S1                 0.0000
      2 ****        -1.9177  -0.2622   1.7349 C.3            1 S1                 0.0000
      3 ****        -0.3980  -0.0642   1.6462 C.2            1 S1                 0.0000
      4 ****         0.3714  -0.9649   1.9825 O.2            1 S1                 0.0000
      5 ****         0.0169   1.1165   1.1608 N.am           1 S1                 0.0000
      6 ****         1.4018   1.4781   0.8812 C.3            1 S1                 0.0000
      7 ****         1.7320   1.2983  -0.6099 C.3            1 S1                 0.0000
      8 ****         1.6899  -0.1433  -1.1166 C.3            1 S1                 0.0000
      9 ****         2.6090  -0.1176  -2.3270 C.3            1 S1                 0.0000
     10 ****         3.4119   1.1770  -2.1610 C.3            1 S1                 0.0000
     11 ****         3.0748   1.6702  -0.8713 O.3            1 S1                 0.0000
     12 ****        -2.4141  -0.8066   0.4762 N.pl3          1 S1                 0.0000
     13 ****        -2.8437  -0.1743  -0.6182 C.2            1 S1                 0.0000
     14 ****        -3.1688  -0.9834  -1.6166 N.2            1 S1                 0.0000
     15 ****        -2.8833  -2.1867  -1.0365 C.2            1 S1                 0.0000
     16 ****        -2.4156  -2.1372   0.2105 N.2            1 S1                 0.0000
     17 ****        -1.9867  -0.6547   3.8835 H              1 S1                 0.0000
     18 ****        -1.9231  -2.1209   2.9134 H              1 S1                 0.0000
     19 ****        -3.4171  -1.1956   3.0179 H              1 S1                 0.0000
     20 ****        -2.3748   0.7211   1.8579 H              1 S1                 0.0000
     21 ****        -0.6854   1.8004   0.9190 H              1 S1                 0.0000
     22 ****         1.5383   2.5230   1.1607 H              1 S1                 0.0000
     23 ****         2.0945   0.9044   1.4995 H              1 S1                 0.0000
     24 ****         1.0746   1.9240  -1.2170 H              1 S1                 0.0000
     25 ****         2.0985  -0.8186  -0.3638 H              1 S1                 0.0000
     26 ****         0.6801  -0.4788  -1.3559 H              1 S1                 0.0000
     27 ****         3.2538  -0.9968  -2.3469 H              1 S1                 0.0000
     28 ****         2.0395  -0.0971  -3.2568 H              1 S1                 0.0000
     29 ****         4.4867   1.0167  -2.2474 H              1 S1                 0.0000
     30 ****         3.1157   1.9095  -2.9132 H              1 S1                 0.0000
     31 ****        -2.9128   0.9012  -0.6883 H              1 S1                 0.0000
     32 ****        -3.0166  -3.1269  -1.5512 H              1 S1                 0.0000
     33 ****         0.0077  -1.8344   2.3168 LP             1 S1                 0.0000
     34 ****         1.3599  -0.8269   1.9212 LP             1 S1                 0.0000
     35 ****         3.6801   1.2693  -0.1836 LP             1 S1                 0.0000
     36 ****         3.1629   2.6661  -0.8530 LP             1 S1                 0.0000
     37 ****        -3.5206  -0.7739  -2.5290 LP             1 S1                 0.0000
     38 ****        -2.1355  -2.8926   0.8028 LP             1 S1                 0.0000
@<TRIPOS>BOND
    1    1    2 1     
    2    1   17 1     
    3    1   18 1     
    4    1   19 1     
    5    2    3 1     
    6    2   12 1     
    7    2   20 1     
    8    3    4 2     
    9    3    5 am    
   10    5    6 1     
   11    5   21 1     
   12    6    7 1     
   13    6   22 1     
   14    6   23 1     
   15    7   11 1     
   16    7    8 1     
   17    7   24 1     
   18    8    9 1     
   19    8   25 1     
   20    8   26 1     
   21    9   10 1     
   22    9   27 1     
   23    9   28 1     
   24   10   11 1     
   25   10   29 1     
   26   10   30 1     
   27   12   16 1     
   28   12   13 1     
   29   13   14 2     
   30   13   31 1     
   31   14   15 1     
   32   15   16 2     
   33   15   32 1     
   34    4   33 1     
   35    4   34 1     
   36   11   35 1     
   37   11   36 1     
   38   14   37 1     
   39   16   38 1     
@<TRIPOS>SUBSTRUCTURE
      1 S1             1
@<TRIPOS>SET
LONE_PAIRS      STATIC     ATOMS    <user>   **** ""
6 33 34 35 36 37 38
DONOR_HYDROGENS      STATIC     ATOMS    <user>   **** ""
1 21
ATOM$BLUE        STATIC     ATOMS    COLORGROUP SYSTEM
6 33 34 35 36 37 38
ATOM$RED        STATIC     ATOMS    COLORGROUP SYSTEM
1 21
