AV-unprocessed.smi:1200|AV-procd|sdf|5023|dock3
  -GOLD-   22720 4 43D 1   1.00000     0.00000
 Structure written by MMmdl.
 43 44  0  0  0  0  0  0  0  0  2 V2000
  149.3477  126.0920  150.7233 C   0  0  0  0  0  0  0  0  0  0  0  0
  148.7083  126.8952  151.7545 N   0  0  0  0  0  0  0  0  0  0  0  0
  147.8771  127.9169  151.5065 C   0  0  0  0  0  0  0  0  0  0  0  0
  147.5778  128.2822  150.3690 O   0  0  0  0  0  0  0  0  0  0  0  0
  147.3147  128.6450  152.7318 C   0  0  0  0  0  0  0  0  0  0  0  0
  147.7137  130.0748  152.7909 N   0  3  2  0  0  0  0  0  0  0  0  0
  148.5695  130.3783  153.9661 C   0  0  0  0  0  0  0  0  0  0  0  0
  149.0888  131.8252  153.9150 C   0  0  0  0  0  0  0  0  0  0  0  0
  147.9286  132.8289  153.8199 C   0  0  1  0  0  0  0  0  0  0  0  0
  148.4531  134.1850  153.6837 N   0  0  0  0  0  0  0  0  0  0  0  0
  149.1564  134.8385  154.6201 C   0  0  0  0  0  0  0  0  0  0  0  0
  149.4382  134.3516  155.7144 O   0  0  0  0  0  0  0  0  0  0  0  0
  149.5056  136.0650  154.1945 N   0  0  0  0  0  0  0  0  0  0  0  0
  150.2771  137.0606  154.8560 C   0  0  0  0  0  0  0  0  0  0  0  0
  150.8216  136.9299  156.1574 C   0  0  0  0  0  0  0  0  0  0  0  0
  151.5627  138.0002  156.6950 C   0  0  0  0  0  0  0  0  0  0  0  0
  151.7275  139.1630  155.9184 C   0  0  0  0  0  0  0  0  0  0  0  0
  151.2052  139.3066  154.6825 N   0  0  0  0  0  0  0  0  0  0  0  0
  150.4967  138.2764  154.1734 C   0  0  0  0  0  0  0  0  0  0  0  0
  147.0308  132.4686  152.6225 C   0  0  0  0  0  0  0  0  0  0  0  0
  146.5583  131.0076  152.7015 C   0  0  0  0  0  0  0  0  0  0  0  0
  150.0100  125.3572  151.1814 H   0  0  0  0  0  0  0  0  0  0  0  0
  149.9418  126.7162  150.0544 H   0  0  0  0  0  0  0  0  0  0  0  0
  148.6033  125.5576  150.1314 H   0  0  0  0  0  0  0  0  0  0  0  0
  148.9133  126.6594  152.7149 H   0  0  0  0  0  0  0  0  0  0  0  0
  146.2273  128.5575  152.7643 H   0  0  0  0  0  0  0  0  0  0  0  0
  147.6975  128.1194  153.6076 H   0  0  0  0  0  0  0  0  0  0  0  0
  148.0024  130.2116  154.8834 H   0  0  0  0  0  0  0  0  0  0  0  0
  149.4196  129.6954  153.9895 H   0  0  0  0  0  0  0  0  0  0  0  0
  149.6908  132.0315  154.8011 H   0  0  0  0  0  0  0  0  0  0  0  0
  149.7525  131.9408  153.0564 H   0  0  0  0  0  0  0  0  0  0  0  0
  147.3428  132.7584  154.7389 H   0  0  0  0  0  0  0  0  0  0  0  0
  148.2696  134.6601  152.8118 H   0  0  0  0  0  0  0  0  0  0  0  0
  149.2273  136.2988  153.2526 H   0  0  0  0  0  0  0  0  0  0  0  0
  150.6839  136.0457  156.7589 H   0  0  0  0  0  0  0  0  0  0  0  0
  151.9936  137.9320  157.6831 H   0  0  0  0  0  0  0  0  0  0  0  0
  152.2902  140.0011  156.3018 H   0  0  0  0  0  0  0  0  0  0  0  0
  150.0936  138.4281  153.1826 H   0  0  0  0  0  0  0  0  0  0  0  0
  146.1653  133.1313  152.5873 H   0  0  0  0  0  0  0  0  0  0  0  0
  147.5753  132.6223  151.6895 H   0  0  0  0  0  0  0  0  0  0  0  0
  145.9573  130.7787  151.8211 H   0  0  0  0  0  0  0  0  0  0  0  0
  145.9098  130.8708  153.5684 H   0  0  0  0  0  0  0  0  0  0  0  0
  148.2860  130.2366  151.9741 H   0  0  0  0  0  0  0  0  0  0  0  0
  1  2  1  0  0  0  0
  1 22  1  0  0  0  0
  1 23  1  0  0  0  0
  1 24  1  0  0  0  0
  2  3  1  0  0  0  0
  2 25  1  0  0  0  0
  3  4  2  0  0  0  0
  3  5  1  0  0  0  0
  5  6  1  0  0  0  0
  5 26  1  0  0  0  0
  5 27  1  0  0  0  0
  6 21  1  0  0  0  0
  6  7  1  0  0  0  0
  6 43  1  0  0  0  0
  7  8  1  0  0  0  0
  7 28  1  0  0  0  0
  7 29  1  0  0  0  0
  8  9  1  0  0  0  0
  8 30  1  0  0  0  0
  8 31  1  0  0  0  0
  9 10  1  0  0  0  0
  9 20  1  0  0  0  0
  9 32  1  0  0  0  0
 10 11  1  0  0  0  0
 10 33  1  0  0  0  0
 11 12  2  0  0  0  0
 11 13  1  0  0  0  0
 13 14  1  0  0  0  0
 13 34  1  0  0  0  0
 14 19  1  0  0  0  0
 14 15  2  0  0  0  0
 15 16  1  0  0  0  0
 15 35  1  0  0  0  0
 16 17  2  0  0  0  0
 16 36  1  0  0  0  0
 17 18  1  0  0  0  0
 17 37  1  0  0  0  0
 18 19  2  0  0  0  0
 19 38  1  0  0  0  0
 20 21  1  0  0  0  0
 20 39  1  0  0  0  0
 20 40  1  0  0  0  0
 21 41  1  0  0  0  0
 21 42  1  0  0  0  0
M  CHG  1   6   1
M  END
> <s_m_source_file>
AV-unprocessed.smi

> <i_m_source_file_index>
1200

> <i_lp_mmshare_version>
43012

> <i_f3d_flags>
0

> <s_epik_input>
W0NIM11bTkhdQyg9TylbQ0gyXU4xW0NIMl1bQ0gyXVtDSF0oW0NIMl1bQ0gyXTEpW05IXUMoPU8pW05IXWMyW2NIXVtjSF1bY0hdbltjSF0y

> <s_epik_cmdline>
J2VwaWtfcHl0aG9uJywgJy1waCcsICc3LjAnLCAnLXRuJywgJzgnLCAnLW1hJywgJzIwMCcsICctbWV0YWxfYmluZGluZycsICctaW1hZScsICc8aW5maWxlLm1hZT4nLCAnLW9tYWUnLCAnPG91dGZpbGUubWFlPic=

> <r_epik_Ionization_Penalty>
0.842849

> <r_epik_Ionization_Penalty_Charging>
0.838844

> <r_epik_Ionization_Penalty_Neutral>
0.00400543

> <r_epik_State_Penalty>
0.858736

> <r_epik_Charging_Adjusted_Penalty>
1.69758

> <i_epik_Tot_Q>
1

> <i_epik_Tot_abs_Q>
1

> <r_epik_Metal_State_Penalty>
0.860766

> <b_epik_Metal_Only>
0

> <s_lp_Force_Field>
OPLS_2005

> <r_lp_Energy>
18.0189

> <b_lp_Chiralities_Consistent>
1

> <s_lp_Variant>
AV-unprocessed.smi:1200-2

> <Gold.Version>
5.8.1

> <Gold.Id.Protein>
6NUR|6NUR_protein|mol2

> <Gold.PLP.Fitness>
47.6964

> <Gold.PLP.PLP>
-34.8883

> <Gold.PLP.part.hbond>
-5.8506

> <Gold.PLP.part.metal>
0.0000

> <Gold.PLP.part.buried>
-3.1248

> <Gold.PLP.part.nonpolar>
-27.4103

> <Gold.PLP.part.repulsive>
1.9222

> <Gold.PLP.ligand.clash>
0.0000

> <Gold.PLP.ligand.torsion>
0.7847

> <Gold.PLP.Chemscore.Hbond>
3.6620

> <Gold.PLP.Chemscore.CHOScore>
1.1215

> <Gold.PLP.Chemscore.Metal>
0.0000

> <Gold.Chemscore.Hbonds>
donor molecule, donor type, donor heavy atom, donor atom, acceptor molecule, acceptor atom, score
      L1  H     6    43       P1 10747  1.00
      L1  H    10    33       P1  7948  0.75
      L1  H    13    34       P1  7948  0.67
      P1  H  7989  7998       L1    18  1.00
      L1  C    19    38       P1  7948  0.34
      L1  C    19    38       P1  7957  0.79

> <Gold.PLP.Chemscore.Internal.Correction>
0.0268

> <Gold.Rescore>
     Score         DG    S(hbond)    S(metal)    S(lipo)     H(rot)  DE(clash)    DE(int)     intcor
     17.88     -20.20       3.19        0.00      71.62       1.69       0.31       2.00       ----

> <Gold.Chemscore.Fitness>
17.8825

> <Gold.Chemscore.DG>
-20.1969

> <Gold.Chemscore.ZeroCoef>
-5.4800

> <Gold.Chemscore.Hbond>
3.1908

> <Gold.Chemscore.Metal>
0.0000

> <Gold.Chemscore.Lipo>
71.6151

> <Gold.Chemscore.Internal_Hbond>
0.0000

> <Gold.Chemscore.DEClash>
0.3096

> <Gold.Chemscore.DEInternal>
2.0048

> <Gold.Chemscore.Rot>
1.6873

> <Gold.Chemscore.Internal.Correction>
   9.000000E+99

> <Gold.Chemscore.Hbonds>
donor molecule, donor type, donor heavy atom, donor atom, acceptor molecule, acceptor atom, score
      L1  H     6    43       P1 10747  0.88
      L1  H    10    33       P1  7948  0.37
      L1  H    13    34       P1  7948  0.59
      P1  H  7989  7998       L1    18  0.92

> <Gold.Chemscore.Hbond.Weighted>
-10.6573

> <Gold.Chemscore.Metal.Weighted>
-0.0000

> <Gold.Chemscore.Lipo.Weighted>
-8.3790

> <Gold.Chemscore.Internal_Hbond.Weighted>
0.0000

> <Gold.Chemscore.DEClash.Weighted>
0.3096

> <Gold.Chemscore.DEInternal.Weighted>
2.0048

> <Gold.Chemscore.Rot.Weighted>
4.3194

> <Gold.Chemscore.Internal.Correction.Weighted>
   9.000000E+99

> <Gold.Protein.RotatedTorsions>
[ 6907 6896 6895 6894 ] final   55.22 input  -60.11 | X-H torsion
[ 7974 7965 7964 7962 ] final  147.23 input  175.53 | X-H torsion
[ 8008 7997 7996 7995 ] final  -71.02 input   59.86 | X-H torsion
[ 10167 10162 10161 10158 ] final  -22.84 input  -65.29 | X-H torsion
[ 10718 10713 10712 10709 ] final  -59.79 input   66.30 | X-H torsion
[ 10763 10752 10751 10750 ] final   42.65 input  -60.55 | X-H torsion
[ 11005 11000 10999 10996 ] final -101.77 input  -57.11 | X-H torsion

> <Gold.Protein.ActiveResidues>
 VAL166  LYS551  ARG553  GLY616  TRP617  ASP618  TYR619  PRO620  LYS621  CYS622 
 ASP623  PHE694  ASN695  SER759  ASP760  ASP761  ALA762  ILE779  LEU786  VAL792 
 PHE793  MET794  SER795  GLU796  ALA797  LYS798  CYS799  TRP800  GLU811  SER814 

> <Gold.Protein.RotatedAtoms>
  152.3517  134.6996  160.0233 H   0  0  0  0  0  0  0  0  0  0  0  0  # atno 6907 bound_to 6896
  151.7347  133.3314  159.3358 H   0  0  0  0  0  0  0  0  0  0  0  0  # atno 6908 bound_to 6896
  150.7545  134.6265  159.6208 H   0  0  0  0  0  0  0  0  0  0  0  0  # atno 6909 bound_to 6896
  144.8608  139.6003  143.5931 H   0  0  0  0  0  0  0  0  0  0  0  0  # atno 7974 bound_to 7965
  154.5056  140.0823  156.7886 H   0  0  0  0  0  0  0  0  0  0  0  0  # atno 8008 bound_to 7997
  155.3902  140.3432  155.4233 H   0  0  0  0  0  0  0  0  0  0  0  0  # atno 8009 bound_to 7997
  156.1511  140.1558  156.8756 H   0  0  0  0  0  0  0  0  0  0  0  0  # atno 8010 bound_to 7997
  140.7287  143.4498  151.0533 H   0  0  0  0  0  0  0  0  0  0  0  0  # atno 10167 bound_to 10162
  156.1036  130.4183  150.0765 H   0  0  0  0  0  0  0  0  0  0  0  0  # atno 10718 bound_to 10713
  152.9878  135.6125  154.2984 H   0  0  0  0  0  0  0  0  0  0  0  0  # atno 10763 bound_to 10752
  154.2706  135.2779  155.2741 H   0  0  0  0  0  0  0  0  0  0  0  0  # atno 10764 bound_to 10752
  154.5126  135.5837  153.6673 H   0  0  0  0  0  0  0  0  0  0  0  0  # atno 10765 bound_to 10752
  141.1217  133.8505  157.1275 H   0  0  0  0  0  0  0  0  0  0  0  0  # atno 11005 bound_to 11000
  146.2858  139.7002  142.9196 LP  0  0  0  0  0  0  0  0  0  0  0  0  # atno 17320 bound_to 7965
  145.4317  141.0415  143.2907 LP  0  0  0  0  0  0  0  0  0  0  0  0  # atno 17321 bound_to 7965
  139.8173  143.7868  152.3175 LP  0  0  0  0  0  0  0  0  0  0  0  0  # atno 17342 bound_to 10162
  139.7938  144.7400  150.9918 LP  0  0  0  0  0  0  0  0  0  0  0  0  # atno 17343 bound_to 10162
  156.8746  130.9536  151.3606 LP  0  0  0  0  0  0  0  0  0  0  0  0  # atno 17370 bound_to 10713
  157.6210  130.8655  149.9108 LP  0  0  0  0  0  0  0  0  0  0  0  0  # atno 17371 bound_to 10713
  140.0180  134.9959  157.0532 LP  0  0  0  0  0  0  0  0  0  0  0  0  # atno 17394 bound_to 11000
  140.4488  134.1604  155.7180 LP  0  0  0  0  0  0  0  0  0  0  0  0  # atno 17395 bound_to 11000

$$$$
