AV-unprocessed.smi:1780|AV-procd|sdf|7185|dock5
  -GOLD-   22720 8423D 1   1.00000     0.00000
 Structure written by MMmdl.
 44 45  0  0  0  0  0  0  0  0  2 V2000
  152.8922  143.0090  161.9546 C   0  0  0  0  0  0  0  0  0  0  0  0
  153.3328  142.3181  160.6587 C   0  0  0  0  0  0  0  0  0  0  0  0
  152.6081  142.8209  159.5079 N   0  0  0  0  0  0  0  0  0  0  0  0
  151.7171  142.1445  158.6985 C   0  0  0  0  0  0  0  0  0  0  0  0
  151.3114  143.0492  157.7586 C   0  0  0  0  0  0  0  0  0  0  0  0
  150.3993  142.8844  156.6856 N   0  0  0  0  0  0  0  0  0  0  0  0
  150.0838  141.7430  156.0521 C   0  0  0  0  0  0  0  0  0  0  0  0
  150.5718  140.6387  156.2942 O   0  0  0  0  0  0  0  0  0  0  0  0
  149.1574  141.9499  155.1056 N   0  0  0  0  0  0  0  0  0  0  0  0
  148.5839  140.9107  154.2544 C   0  0  0  0  0  0  0  0  0  0  0  0
  147.1344  141.2275  153.7879 C   0  0  2  0  0  0  0  0  0  0  0  0
  146.4255  142.1287  154.8260 C   0  0  0  0  0  0  0  0  0  0  0  0
  146.3130  140.0022  153.5111 N   0  3  0  0  0  0  0  0  0  0  0  0
  146.8573  139.1868  152.3900 C   0  0  0  0  0  0  0  0  0  0  0  0
  145.9532  137.9814  152.0854 C   0  0  0  0  0  0  0  0  0  0  0  0
  145.8161  137.1848  153.2519 O   0  0  0  0  0  0  0  0  0  0  0  0
  145.1977  137.9091  154.3041 C   0  0  0  0  0  0  0  0  0  0  0  0
  146.0631  139.1220  154.6868 C   0  0  0  0  0  0  0  0  0  0  0  0
  151.9987  144.2540  158.0591 C   0  0  0  0  0  0  0  0  0  0  0  0
  152.7805  144.1084  159.1182 N   0  0  0  0  0  0  0  0  0  0  0  0
  153.4583  142.6325  162.8065 H   0  0  0  0  0  0  0  0  0  0  0  0
  151.8348  142.8359  162.1557 H   0  0  0  0  0  0  0  0  0  0  0  0
  153.0512  144.0863  161.8991 H   0  0  0  0  0  0  0  0  0  0  0  0
  154.3995  142.4734  160.4939 H   0  0  0  0  0  0  0  0  0  0  0  0
  153.1767  141.2407  160.7300 H   0  0  0  0  0  0  0  0  0  0  0  0
  151.4639  141.1080  158.8656 H   0  0  0  0  0  0  0  0  0  0  0  0
  149.9247  143.7218  156.3815 H   0  0  0  0  0  0  0  0  0  0  0  0
  148.8135  142.8900  154.9732 H   0  0  0  0  0  0  0  0  0  0  0  0
  149.2586  140.7860  153.4066 H   0  0  0  0  0  0  0  0  0  0  0  0
  148.6019  139.9732  154.8112 H   0  0  0  0  0  0  0  0  0  0  0  0
  147.2115  141.7823  152.8514 H   0  0  0  0  0  0  0  0  0  0  0  0
  146.9945  143.0350  155.0325 H   0  0  0  0  0  0  0  0  0  0  0  0
  146.2896  141.6049  155.7726 H   0  0  0  0  0  0  0  0  0  0  0  0
  145.4472  142.4683  154.4918 H   0  0  0  0  0  0  0  0  0  0  0  0
  146.9510  139.7769  151.4808 H   0  0  0  0  0  0  0  0  0  0  0  0
  147.8593  138.8384  152.6460 H   0  0  0  0  0  0  0  0  0  0  0  0
  144.9744  138.3061  151.7286 H   0  0  0  0  0  0  0  0  0  0  0  0
  146.3937  137.3730  151.2953 H   0  0  0  0  0  0  0  0  0  0  0  0
  144.1963  138.2244  154.0064 H   0  0  0  0  0  0  0  0  0  0  0  0
  145.0788  137.2484  155.1632 H   0  0  0  0  0  0  0  0  0  0  0  0
  147.0147  138.7884  155.1037 H   0  0  0  0  0  0  0  0  0  0  0  0
  145.5298  139.6595  155.4698 H   0  0  0  0  0  0  0  0  0  0  0  0
  151.9568  145.2090  157.5567 H   0  0  0  0  0  0  0  0  0  0  0  0
  145.4042  140.3319  153.2182 H   0  0  0  0  0  0  0  0  0  0  0  0
  1  2  1  0  0  0  0
  1 21  1  0  0  0  0
  1 22  1  0  0  0  0
  1 23  1  0  0  0  0
  2  3  1  0  0  0  0
  2 24  1  0  0  0  0
  2 25  1  0  0  0  0
  3 20  1  0  0  0  0
  3  4  1  0  0  0  0
  4  5  2  0  0  0  0
  4 26  1  0  0  0  0
  5  6  1  0  0  0  0
  5 19  1  0  0  0  0
  6  7  1  0  0  0  0
  6 27  1  0  0  0  0
  7  8  2  0  0  0  0
  7  9  1  0  0  0  0
  9 10  1  0  0  0  0
  9 28  1  0  0  0  0
 10 11  1  0  0  0  0
 10 29  1  0  0  0  0
 10 30  1  0  0  0  0
 11 12  1  0  0  0  0
 11 13  1  0  0  0  0
 11 31  1  0  0  0  0
 12 32  1  0  0  0  0
 12 33  1  0  0  0  0
 12 34  1  0  0  0  0
 13 18  1  0  0  0  0
 13 14  1  0  0  0  0
 13 44  1  0  0  0  0
 14 15  1  0  0  0  0
 14 35  1  0  0  0  0
 14 36  1  0  0  0  0
 15 16  1  0  0  0  0
 15 37  1  0  0  0  0
 15 38  1  0  0  0  0
 16 17  1  0  0  0  0
 17 18  1  0  0  0  0
 17 39  1  0  0  0  0
 17 40  1  0  0  0  0
 18 41  1  0  0  0  0
 18 42  1  0  0  0  0
 19 20  2  0  0  0  0
 19 43  1  0  0  0  0
M  CHG  1  13   1
M  END
> <s_m_source_file>
AV-unprocessed.smi

> <i_m_source_file_index>
1780

> <i_lp_mmshare_version>
43012

> <i_f3d_flags>
0

> <s_epik_input>
W0NIM11bQ0gyXW4xW2NIXWMoW2NIXW4xKVtOSF1DKD1PKVtOSF1bQ0gyXVtDQEhdKFtDSDNdKU4yW0NIMl1bQ0gyXU9bQ0gyXVtDSDJdMg==

> <s_epik_cmdline>
J2VwaWtfcHl0aG9uJywgJy1waCcsICc3LjAnLCAnLXRuJywgJzgnLCAnLW1hJywgJzIwMCcsICctbWV0YWxfYmluZGluZycsICctaW1hZScsICc8aW5maWxlLm1hZT4nLCAnLW9tYWUnLCAnPG91dGZpbGUubWFlPic=

> <r_lp_tautomer_probability>
1

> <r_epik_Ionization_Penalty>
0.64612

> <r_epik_Ionization_Penalty_Charging>
0.645968

> <r_epik_Ionization_Penalty_Neutral>
0.000152026

> <r_epik_State_Penalty>
0.664063

> <r_epik_Charging_Adjusted_Penalty>
1.31003

> <i_epik_Tot_Q>
1

> <i_epik_Tot_abs_Q>
1

> <r_epik_Metal_State_Penalty>
0.664075

> <b_epik_Metal_Only>
0

> <s_lp_Force_Field>
OPLS_2005

> <r_lp_Energy>
24.4997

> <b_lp_Chiralities_Consistent>
1

> <s_lp_Variant>
AV-unprocessed.smi:1780-3

> <Gold.Version>
5.8.1

> <Gold.Id.Protein>
6NUR|6NUR_protein|mol2

> <Gold.PLP.Fitness>
55.2702

> <Gold.PLP.PLP>
-44.9724

> <Gold.PLP.part.hbond>
-3.0000

> <Gold.PLP.part.metal>
0.0000

> <Gold.PLP.part.buried>
-2.8494

> <Gold.PLP.part.nonpolar>
-39.9231

> <Gold.PLP.part.repulsive>
0.4919

> <Gold.PLP.ligand.clash>
0.0000

> <Gold.PLP.ligand.torsion>
0.7527

> <Gold.PLP.Chemscore.Hbond>
3.9120

> <Gold.PLP.Chemscore.CHOScore>
0.0000

> <Gold.PLP.Chemscore.Metal>
0.0000

> <Gold.Chemscore.Hbonds>
donor molecule, donor type, donor heavy atom, donor atom, acceptor molecule, acceptor atom, score
      L1  H     6    27       P1  8028  1.00
      L1  H     9    28       P1  8028  0.91
      L1  H    13    44       P1 10175  2.00

> <Gold.PLP.Chemscore.Internal.Correction>
0.0671

> <Gold.Rescore>
     Score         DG    S(hbond)    S(metal)    S(lipo)     H(rot)  DE(clash)    DE(int)     intcor
     21.10     -22.08       2.90        0.00      95.62       1.67       0.04       0.95       ----

> <Gold.Chemscore.Fitness>
21.1013

> <Gold.Chemscore.DG>
-22.0837

> <Gold.Chemscore.ZeroCoef>
-5.4800

> <Gold.Chemscore.Hbond>
2.9024

> <Gold.Chemscore.Metal>
0.0000

> <Gold.Chemscore.Lipo>
95.6167

> <Gold.Chemscore.Internal_Hbond>
0.0000

> <Gold.Chemscore.DEClash>
0.0354

> <Gold.Chemscore.DEInternal>
0.9470

> <Gold.Chemscore.Rot>
1.6708

> <Gold.Chemscore.Internal.Correction>
   9.000000E+99

> <Gold.Chemscore.Hbonds>
donor molecule, donor type, donor heavy atom, donor atom, acceptor molecule, acceptor atom, score
      L1  H     6    27       P1  8028  0.98
      L1  H     9    28       P1  8028  0.89
      L1  H    13    44       P1 10175  0.98

> <Gold.Chemscore.Hbond.Weighted>
-9.6939

> <Gold.Chemscore.Metal.Weighted>
-0.0000

> <Gold.Chemscore.Lipo.Weighted>
-11.1872

> <Gold.Chemscore.Internal_Hbond.Weighted>
0.0000

> <Gold.Chemscore.DEClash.Weighted>
0.0354

> <Gold.Chemscore.DEInternal.Weighted>
0.9470

> <Gold.Chemscore.Rot.Weighted>
4.2773

> <Gold.Chemscore.Internal.Correction.Weighted>
   9.000000E+99

> <Gold.Protein.RotatedTorsions>
[ 6907 6896 6895 6894 ] final -160.54 input  -60.11 | X-H torsion
[ 7974 7965 7964 7962 ] final -122.41 input  175.53 | X-H torsion
[ 8008 7997 7996 7995 ] final  -32.15 input   59.86 | X-H torsion
[ 10167 10162 10161 10158 ] final   49.99 input  -65.29 | X-H torsion
[ 10718 10713 10712 10709 ] final  118.20 input   66.30 | X-H torsion
[ 10763 10752 10751 10750 ] final -171.17 input  -60.55 | X-H torsion
[ 11005 11000 10999 10996 ] final   91.83 input  -57.11 | X-H torsion

> <Gold.Protein.ActiveResidues>
 VAL166  LYS551  ARG553  GLY616  TRP617  ASP618  TYR619  PRO620  LYS621  CYS622 
 ASP623  PHE694  ASN695  SER759  ASP760  ASP761  ALA762  ILE779  LEU786  VAL792 
 PHE793  MET794  SER795  GLU796  ALA797  LYS798  CYS799  TRP800  GLU811  SER814 

> <Gold.Protein.RotatedAtoms>
  151.3507  133.3926  159.2679 H   0  0  0  0  0  0  0  0  0  0  0  0  # atno 6907 bound_to 6896
  150.9803  134.9161  159.7851 H   0  0  0  0  0  0  0  0  0  0  0  0  # atno 6908 bound_to 6896
  152.5215  134.3471  159.9290 H   0  0  0  0  0  0  0  0  0  0  0  0  # atno 6909 bound_to 6896
  145.0297  140.8058  143.4331 H   0  0  0  0  0  0  0  0  0  0  0  0  # atno 7974 bound_to 7965
  154.4189  140.1745  156.1680 H   0  0  0  0  0  0  0  0  0  0  0  0  # atno 8008 bound_to 7997
  155.9783  140.3379  155.6615 H   0  0  0  0  0  0  0  0  0  0  0  0  # atno 8009 bound_to 7997
  155.6533  140.0693  157.2570 H   0  0  0  0  0  0  0  0  0  0  0  0  # atno 8010 bound_to 7997
  140.2771  144.3199  150.6274 H   0  0  0  0  0  0  0  0  0  0  0  0  # atno 10167 bound_to 10162
  157.6046  131.1045  150.7722 H   0  0  0  0  0  0  0  0  0  0  0  0  # atno 10718 bound_to 10713
  154.6334  135.2889  155.0189 H   0  0  0  0  0  0  0  0  0  0  0  0  # atno 10763 bound_to 10752
  154.1342  135.6529  153.4932 H   0  0  0  0  0  0  0  0  0  0  0  0  # atno 10764 bound_to 10752
  153.0291  135.5317  154.7171 H   0  0  0  0  0  0  0  0  0  0  0  0  # atno 10765 bound_to 10752
  139.8832  134.8697  156.3485 H   0  0  0  0  0  0  0  0  0  0  0  0  # atno 11005 bound_to 11000
  145.1786  139.2364  143.5304 LP  0  0  0  0  0  0  0  0  0  0  0  0  # atno 17320 bound_to 7965
  146.3497  140.1554  142.8591 LP  0  0  0  0  0  0  0  0  0  0  0  0  # atno 17321 bound_to 7965
  140.5842  143.2171  151.7372 LP  0  0  0  0  0  0  0  0  0  0  0  0  # atno 17342 bound_to 10162
  139.4973  144.4035  152.0156 LP  0  0  0  0  0  0  0  0  0  0  0  0  # atno 17343 bound_to 10162
  156.8113  130.4953  149.5355 LP  0  0  0  0  0  0  0  0  0  0  0  0  # atno 17370 bound_to 10713
  156.1129  130.6053  151.0075 LP  0  0  0  0  0  0  0  0  0  0  0  0  # atno 17371 bound_to 10713
  140.9610  133.7388  156.0401 LP  0  0  0  0  0  0  0  0  0  0  0  0  # atno 17394 bound_to 11000
  140.7989  134.3531  157.5445 LP  0  0  0  0  0  0  0  0  0  0  0  0  # atno 17395 bound_to 11000

$$$$
