AV-unprocessed.smi:1795|AV-procd|sdf|7249|dock2
  -GOLD-   22720 8503D 1   1.00000     0.00000
 Structure written by MMmdl.
 48 49  0  0  0  0  0  0  0  0  2 V2000
  149.7465  132.8769  154.8553 C   0  0  0  0  0  0  0  0  0  0  0  0
  149.2291  134.2756  154.5004 C   0  0  2  0  0  0  0  0  0  0  0  0
  150.2598  135.3741  154.8172 C   0  0  0  0  0  0  0  0  0  0  0  0
  149.7123  136.7253  154.5192 N   0  3  2  0  0  0  0  0  0  0  0  0
  150.7316  137.8108  154.7008 C   0  0  1  0  0  0  0  0  0  0  0  0
  150.1411  139.1634  154.2405 C   0  0  0  0  0  0  0  0  0  0  0  0
  151.2880  137.9128  156.1489 C   0  0  0  0  0  0  0  0  0  0  0  0
  151.7180  139.2651  156.4956 N   0  0  0  0  0  0  0  0  0  0  0  0
  151.3213  139.9559  157.5757 C   0  0  0  0  0  0  0  0  0  0  0  0
  150.5561  139.5002  158.4262 O   0  0  0  0  0  0  0  0  0  0  0  0
  151.8809  141.3784  157.7109 C   0  0  0  0  0  0  0  0  0  0  0  0
  152.4891  141.6298  159.0281 N   0  0  0  0  0  0  0  0  0  0  0  0
  152.1477  142.8337  159.6762 C   0  0  0  0  0  0  0  0  0  0  0  0
  152.6474  143.1587  160.8791 C   0  0  0  0  0  0  0  0  0  0  0  0
  153.5591  142.2351  161.5119 C   0  0  0  0  0  0  0  0  0  0  0  0
  153.8952  141.0824  160.8995 C   0  0  0  0  0  0  0  0  0  0  0  0
  153.3534  140.7242  159.5835 C   0  0  0  0  0  0  0  0  0  0  0  0
  153.6580  139.6750  159.0143 O   0  0  0  0  0  0  0  0  0  0  0  0
  148.4262  136.9069  155.2468 C   0  0  0  0  0  0  0  0  0  0  0  0
  147.4456  135.7596  154.9342 C   0  0  2  0  0  0  0  0  0  0  0  0
  146.1441  135.8782  155.7351 C   0  0  0  0  0  0  0  0  0  0  0  0
  148.0534  134.5173  155.2616 O   0  0  0  0  0  0  0  0  0  0  0  0
  150.6521  132.6394  154.2966 H   0  0  0  0  0  0  0  0  0  0  0  0
  149.0028  132.1149  154.6201 H   0  0  0  0  0  0  0  0  0  0  0  0
  149.9783  132.7983  155.9179 H   0  0  0  0  0  0  0  0  0  0  0  0
  148.9839  134.2949  153.4368 H   0  0  0  0  0  0  0  0  0  0  0  0
  150.5448  135.3237  155.8696 H   0  0  0  0  0  0  0  0  0  0  0  0
  151.1618  135.1817  154.2392 H   0  0  0  0  0  0  0  0  0  0  0  0
  151.5804  137.5747  154.0566 H   0  0  0  0  0  0  0  0  0  0  0  0
  150.8883  139.9561  154.2544 H   0  0  0  0  0  0  0  0  0  0  0  0
  149.3205  139.4731  154.8884 H   0  0  0  0  0  0  0  0  0  0  0  0
  149.7608  139.1341  153.2213 H   0  0  0  0  0  0  0  0  0  0  0  0
  150.5535  137.5427  156.8664 H   0  0  0  0  0  0  0  0  0  0  0  0
  152.1749  137.2900  156.2624 H   0  0  0  0  0  0  0  0  0  0  0  0
  152.3538  139.7183  155.8551 H   0  0  0  0  0  0  0  0  0  0  0  0
  152.6061  141.5343  156.9110 H   0  0  0  0  0  0  0  0  0  0  0  0
  151.0893  142.1076  157.5261 H   0  0  0  0  0  0  0  0  0  0  0  0
  151.4653  143.4726  159.1346 H   0  0  0  0  0  0  0  0  0  0  0  0
  152.3770  144.0874  161.3595 H   0  0  0  0  0  0  0  0  0  0  0  0
  153.9746  142.4707  162.4808 H   0  0  0  0  0  0  0  0  0  0  0  0
  154.5793  140.4042  161.3882 H   0  0  0  0  0  0  0  0  0  0  0  0
  148.6189  136.9603  156.3197 H   0  0  0  0  0  0  0  0  0  0  0  0
  147.9427  137.8377  154.9519 H   0  0  0  0  0  0  0  0  0  0  0  0
  147.1981  135.7682  153.8711 H   0  0  0  0  0  0  0  0  0  0  0  0
  145.6251  136.8095  155.5067 H   0  0  0  0  0  0  0  0  0  0  0  0
  146.3368  135.8568  156.8083 H   0  0  0  0  0  0  0  0  0  0  0  0
  145.4671  135.0557  155.5024 H   0  0  0  0  0  0  0  0  0  0  0  0
  149.4711  136.7343  153.5381 H   0  0  0  0  0  0  0  0  0  0  0  0
  1  2  1  0  0  0  0
  1 23  1  0  0  0  0
  1 24  1  0  0  0  0
  1 25  1  0  0  0  0
  2 22  1  0  0  0  0
  2  3  1  0  0  0  0
  2 26  1  0  0  0  0
  3  4  1  0  0  0  0
  3 27  1  0  0  0  0
  3 28  1  0  0  0  0
  4  5  1  0  0  0  0
  4 19  1  0  0  0  0
  4 48  1  0  0  0  0
  5  6  1  0  0  0  0
  5  7  1  0  0  0  0
  5 29  1  0  0  0  0
  6 30  1  0  0  0  0
  6 31  1  0  0  0  0
  6 32  1  0  0  0  0
  7  8  1  0  0  0  0
  7 33  1  0  0  0  0
  7 34  1  0  0  0  0
  8  9  1  0  0  0  0
  8 35  1  0  0  0  0
  9 10  2  0  0  0  0
  9 11  1  0  0  0  0
 11 12  1  0  0  0  0
 11 36  1  0  0  0  0
 11 37  1  0  0  0  0
 12 17  1  0  0  0  0
 12 13  1  0  0  0  0
 13 14  2  0  0  0  0
 13 38  1  0  0  0  0
 14 15  1  0  0  0  0
 14 39  1  0  0  0  0
 15 16  2  0  0  0  0
 15 40  1  0  0  0  0
 16 17  1  0  0  0  0
 16 41  1  0  0  0  0
 17 18  2  0  0  0  0
 19 20  1  0  0  0  0
 19 42  1  0  0  0  0
 19 43  1  0  0  0  0
 20 21  1  0  0  0  0
 20 22  1  0  0  0  0
 20 44  1  0  0  0  0
 21 45  1  0  0  0  0
 21 46  1  0  0  0  0
 21 47  1  0  0  0  0
M  CHG  1   4   1
M  END
> <s_m_source_file>
AV-unprocessed.smi

> <i_m_source_file_index>
1795

> <i_lp_mmshare_version>
43012

> <i_f3d_flags>
0

> <s_epik_input>
W0NIM11bQ0BASF0xW0NIMl1OKFtDSDJdW0NASF0oTzEpW0NIM10pW0NASF0oW0NIM10pW0NIMl1bTkhdQyg9TylbQ0gyXW4yW2NIXVtjSF1bY0hdW2NIXWMyPU8=

> <s_epik_cmdline>
J2VwaWtfcHl0aG9uJywgJy1waCcsICc3LjAnLCAnLXRuJywgJzgnLCAnLW1hJywgJzIwMCcsICctbWV0YWxfYmluZGluZycsICctaW1hZScsICc8aW5maWxlLm1hZT4nLCAnLW9tYWUnLCAnPG91dGZpbGUubWFlPic=

> <r_lp_tautomer_probability>
1

> <r_epik_Ionization_Penalty>
0.656654

> <r_epik_Ionization_Penalty_Charging>
0.656654

> <r_epik_Ionization_Penalty_Neutral>
8.90321e-08

> <r_epik_State_Penalty>
0.675641

> <r_epik_Charging_Adjusted_Penalty>
1.33229

> <i_epik_Tot_Q>
1

> <i_epik_Tot_abs_Q>
1

> <r_epik_Metal_State_Penalty>
0.675691

> <b_epik_Metal_Only>
0

> <s_lp_Force_Field>
OPLS_2005

> <r_lp_Energy>
27.2799

> <b_lp_Chiralities_Consistent>
1

> <s_lp_Variant>
AV-unprocessed.smi:1795-13

> <Gold.Version>
5.8.1

> <Gold.Id.Protein>
6NUR|6NUR_protein|mol2

> <Gold.PLP.Fitness>
45.9532

> <Gold.PLP.PLP>
-38.0727

> <Gold.PLP.part.hbond>
-2.0000

> <Gold.PLP.part.metal>
0.0000

> <Gold.PLP.part.buried>
-4.3682

> <Gold.PLP.part.nonpolar>
-30.4579

> <Gold.PLP.part.repulsive>
0.2015

> <Gold.PLP.ligand.clash>
0.0000

> <Gold.PLP.ligand.torsion>
0.6579

> <Gold.PLP.Chemscore.Hbond>
3.0000

> <Gold.PLP.Chemscore.CHOScore>
0.0000

> <Gold.PLP.Chemscore.Metal>
0.0000

> <Gold.Chemscore.Hbonds>
donor molecule, donor type, donor heavy atom, donor atom, acceptor molecule, acceptor atom, score
      L1  H     4    48       P1  7948  2.00
      P1  H  7997  8010       L1    18  0.63

> <Gold.PLP.Chemscore.Internal.Correction>
0.1963

> <Gold.Rescore>
     Score         DG    S(hbond)    S(metal)    S(lipo)     H(rot)  DE(clash)    DE(int)     intcor
     15.64     -17.59       1.85        0.00      92.08       1.89       0.09       1.86       ----

> <Gold.Chemscore.Fitness>
15.6408

> <Gold.Chemscore.DG>
-17.5939

> <Gold.Chemscore.ZeroCoef>
-5.4800

> <Gold.Chemscore.Hbond>
1.8478

> <Gold.Chemscore.Metal>
0.0000

> <Gold.Chemscore.Lipo>
92.0770

> <Gold.Chemscore.Internal_Hbond>
0.0000

> <Gold.Chemscore.DEClash>
0.0924

> <Gold.Chemscore.DEInternal>
1.8608

> <Gold.Chemscore.Rot>
1.8870

> <Gold.Chemscore.Internal.Correction>
   9.000000E+99

> <Gold.Chemscore.Hbonds>
donor molecule, donor type, donor heavy atom, donor atom, acceptor molecule, acceptor atom, score
      L1  H     4    48       P1  7948  0.85
      P1  H  7997  8010       L1    18  0.51

> <Gold.Chemscore.Hbond.Weighted>
-6.1717

> <Gold.Chemscore.Metal.Weighted>
-0.0000

> <Gold.Chemscore.Lipo.Weighted>
-10.7730

> <Gold.Chemscore.Internal_Hbond.Weighted>
0.0000

> <Gold.Chemscore.DEClash.Weighted>
0.0924

> <Gold.Chemscore.DEInternal.Weighted>
1.8608

> <Gold.Chemscore.Rot.Weighted>
4.8308

> <Gold.Chemscore.Internal.Correction.Weighted>
   9.000000E+99

> <Gold.Protein.RotatedTorsions>
[ 6907 6896 6895 6894 ] final  152.71 input  -60.11 | X-H torsion
[ 7974 7965 7964 7962 ] final  -25.26 input  175.53 | X-H torsion
[ 8008 7997 7996 7995 ] final   26.70 input   59.86 | X-H torsion
[ 10167 10162 10161 10158 ] final   79.52 input  -65.29 | X-H torsion
[ 10718 10713 10712 10709 ] final  -38.19 input   66.30 | X-H torsion
[ 10763 10752 10751 10750 ] final  102.19 input  -60.55 | X-H torsion
[ 11005 11000 10999 10996 ] final -127.98 input  -57.11 | X-H torsion

> <Gold.Protein.ActiveResidues>
 VAL166  LYS551  ARG553  GLY616  TRP617  ASP618  TYR619  PRO620  LYS621  CYS622 
 ASP623  PHE694  ASN695  SER759  ASP760  ASP761  ALA762  ILE779  LEU786  VAL792 
 PHE793  MET794  SER795  GLU796  ALA797  LYS798  CYS799  TRP800  GLU811  SER814 

> <Gold.Protein.RotatedAtoms>
  152.0829  133.4161  159.4508 H   0  0  0  0  0  0  0  0  0  0  0  0  # atno 6907 bound_to 6896
  150.6862  134.2962  159.4696 H   0  0  0  0  0  0  0  0  0  0  0  0  # atno 6908 bound_to 6896
  152.0805  134.9474  160.0624 H   0  0  0  0  0  0  0  0  0  0  0  0  # atno 6909 bound_to 6896
  146.1503  140.4862  142.8614 H   0  0  0  0  0  0  0  0  0  0  0  0  # atno 7974 bound_to 7965
  155.0313  140.3159  155.4757 H   0  0  0  0  0  0  0  0  0  0  0  0  # atno 8008 bound_to 7997
  156.2873  140.2179  156.5377 H   0  0  0  0  0  0  0  0  0  0  0  0  # atno 8009 bound_to 7997
  154.7368  140.0477  157.0763 H   0  0  0  0  0  0  0  0  0  0  0  0  # atno 8010 bound_to 7997
  139.9594  144.5971  150.8086 H   0  0  0  0  0  0  0  0  0  0  0  0  # atno 10167 bound_to 10162
  156.3066  130.4247  149.8091 H   0  0  0  0  0  0  0  0  0  0  0  0  # atno 10718 bound_to 10713
  153.3364  135.4019  155.1537 H   0  0  0  0  0  0  0  0  0  0  0  0  # atno 10763 bound_to 10752
  154.8634  135.3623  154.5403 H   0  0  0  0  0  0  0  0  0  0  0  0  # atno 10764 bound_to 10752
  153.5845  135.7075  153.5509 H   0  0  0  0  0  0  0  0  0  0  0  0  # atno 10765 bound_to 10752
  140.9555  134.1008  157.4021 H   0  0  0  0  0  0  0  0  0  0  0  0  # atno 11005 bound_to 11000
  144.7895  140.6004  143.6551 LP  0  0  0  0  0  0  0  0  0  0  0  0  # atno 17320 bound_to 7965
  145.4840  139.1493  143.3746 LP  0  0  0  0  0  0  0  0  0  0  0  0  # atno 17321 bound_to 7965
  140.7558  143.3053  151.2978 LP  0  0  0  0  0  0  0  0  0  0  0  0  # atno 17342 bound_to 10162
  139.6565  144.0266  152.2663 LP  0  0  0  0  0  0  0  0  0  0  0  0  # atno 17343 bound_to 10162
  156.5450  130.8316  151.3281 LP  0  0  0  0  0  0  0  0  0  0  0  0  # atno 17370 bound_to 10713
  157.7381  130.9807  150.2232 LP  0  0  0  0  0  0  0  0  0  0  0  0  # atno 17371 bound_to 10713
  139.8861  135.0078  156.6475 LP  0  0  0  0  0  0  0  0  0  0  0  0  # atno 17394 bound_to 11000
  140.7543  133.8871  155.8370 LP  0  0  0  0  0  0  0  0  0  0  0  0  # atno 17395 bound_to 11000

$$$$
