AV-unprocessed.smi:3028|AV-procd|sdf|11517|dock9
  -GOLD-   2272016453D 1   1.00000     0.00000
 Structure written by MMmdl.
 48 49  0  0  0  0  0  0  0  0  2 V2000
  150.8597  142.5274  158.5071 C   0  0  0  0  0  0  0  0  0  0  0  0
  150.6417  141.8242  157.1985 C   0  0  0  0  0  0  0  0  0  0  0  0
  151.5498  140.9841  156.4942 C   0  0  0  0  0  0  0  0  0  0  0  0
  151.0458  140.5161  155.3642 N   0  0  0  0  0  0  0  0  0  0  0  0
  149.8033  141.0407  155.3021 N   0  0  0  0  0  0  0  0  0  0  0  0
  148.9425  140.7280  154.1683 C   0  0  2  0  0  0  0  0  0  0  0  0
  147.7214  141.6657  154.1715 C   0  0  0  0  0  0  0  0  0  0  0  0
  148.5594  139.2241  154.1326 C   0  0  2  0  0  0  0  0  0  0  0  0
  149.7568  138.2894  154.3837 C   0  0  0  0  0  0  0  0  0  0  0  0
  147.9507  138.8755  152.8293 N   0  3  0  0  0  0  0  0  0  0  0  0
  146.4896  138.6481  152.8614 C   0  0  0  0  0  0  0  0  0  0  0  0
  146.0448  137.5703  151.8641 C   0  0  0  0  0  0  0  0  0  0  0  0
  146.5183  137.5504  150.7291 O   0  0  0  0  0  0  0  0  0  0  0  0
  145.1355  136.6566  152.2436 N   0  0  0  0  0  0  0  0  0  0  0  0
  144.5781  135.5547  151.4599 C   0  0  0  0  0  0  0  0  0  0  0  0
  143.7237  134.6513  152.3622 C   0  0  0  0  0  0  0  0  0  0  0  0
  143.2795  133.3891  151.6054 C   0  0  0  0  0  0  0  0  0  0  0  0
  144.4165  132.6976  151.1003 O   0  0  0  0  0  0  0  0  0  0  0  0
  145.1615  133.4650  150.1609 C   0  0  0  0  0  0  0  0  0  0  0  0
  145.7150  134.7296  150.8378 C   0  0  0  0  0  0  0  0  0  0  0  0
  149.5343  141.8348  156.3990 C   0  0  0  0  0  0  0  0  0  0  0  0
  151.8210  142.2684  158.9512 H   0  0  0  0  0  0  0  0  0  0  0  0
  150.0902  142.2701  159.2353 H   0  0  0  0  0  0  0  0  0  0  0  0
  150.8421  143.6110  158.3888 H   0  0  0  0  0  0  0  0  0  0  0  0
  152.5551  140.7009  156.7701 H   0  0  0  0  0  0  0  0  0  0  0  0
  149.5122  140.9451  153.2622 H   0  0  0  0  0  0  0  0  0  0  0  0
  147.1343  141.5616  153.2593 H   0  0  0  0  0  0  0  0  0  0  0  0
  148.0319  142.7094  154.2335 H   0  0  0  0  0  0  0  0  0  0  0  0
  147.0633  141.4647  155.0175 H   0  0  0  0  0  0  0  0  0  0  0  0
  147.8357  139.0307  154.9263 H   0  0  0  0  0  0  0  0  0  0  0  0
  150.1777  138.4258  155.3801 H   0  0  0  0  0  0  0  0  0  0  0  0
  150.5537  138.4629  153.6598 H   0  0  0  0  0  0  0  0  0  0  0  0
  149.4590  137.2433  154.3056 H   0  0  0  0  0  0  0  0  0  0  0  0
  148.1508  139.6152  152.1711 H   0  0  0  0  0  0  0  0  0  0  0  0
  146.2022  138.3466  153.8695 H   0  0  0  0  0  0  0  0  0  0  0  0
  145.9731  139.5802  152.6307 H   0  0  0  0  0  0  0  0  0  0  0  0
  144.7846  136.7382  153.1875 H   0  0  0  0  0  0  0  0  0  0  0  0
  143.9467  135.9146  150.6480 H   0  0  0  0  0  0  0  0  0  0  0  0
  144.2968  134.3555  153.2423 H   0  0  0  0  0  0  0  0  0  0  0  0
  142.8515  135.1956  152.7264 H   0  0  0  0  0  0  0  0  0  0  0  0
  142.7325  132.7248  152.2747 H   0  0  0  0  0  0  0  0  0  0  0  0
  142.6032  133.6437  150.7880 H   0  0  0  0  0  0  0  0  0  0  0  0
  145.9807  132.8555  149.7790 H   0  0  0  0  0  0  0  0  0  0  0  0
  144.5334  133.7237  149.3070 H   0  0  0  0  0  0  0  0  0  0  0  0
  146.2667  135.3303  150.1138 H   0  0  0  0  0  0  0  0  0  0  0  0
  146.4287  134.4364  151.6094 H   0  0  0  0  0  0  0  0  0  0  0  0
  148.5853  142.3364  156.5205 H   0  0  0  0  0  0  0  0  0  0  0  0
  148.3846  138.0280  152.4919 H   0  0  0  0  0  0  0  0  0  0  0  0
  1  2  1  0  0  0  0
  1 22  1  0  0  0  0
  1 23  1  0  0  0  0
  1 24  1  0  0  0  0
  2 21  2  0  0  0  0
  2  3  1  0  0  0  0
  3  4  2  0  0  0  0
  3 25  1  0  0  0  0
  4  5  1  0  0  0  0
  5  6  1  0  0  0  0
  5 21  1  0  0  0  0
  6  7  1  0  0  0  0
  6  8  1  0  0  0  0
  6 26  1  0  0  0  0
  7 27  1  0  0  0  0
  7 28  1  0  0  0  0
  7 29  1  0  0  0  0
  8  9  1  0  0  0  0
  8 10  1  0  0  0  0
  8 30  1  0  0  0  0
  9 31  1  0  0  0  0
  9 32  1  0  0  0  0
  9 33  1  0  0  0  0
 10 11  1  0  0  0  0
 10 34  1  0  0  0  0
 10 48  1  0  0  0  0
 11 12  1  0  0  0  0
 11 35  1  0  0  0  0
 11 36  1  0  0  0  0
 12 13  2  0  0  0  0
 12 14  1  0  0  0  0
 14 15  1  0  0  0  0
 14 37  1  0  0  0  0
 15 20  1  0  0  0  0
 15 16  1  0  0  0  0
 15 38  1  0  0  0  0
 16 17  1  0  0  0  0
 16 39  1  0  0  0  0
 16 40  1  0  0  0  0
 17 18  1  0  0  0  0
 17 41  1  0  0  0  0
 17 42  1  0  0  0  0
 18 19  1  0  0  0  0
 19 20  1  0  0  0  0
 19 43  1  0  0  0  0
 19 44  1  0  0  0  0
 20 45  1  0  0  0  0
 20 46  1  0  0  0  0
 21 47  1  0  0  0  0
M  CHG  1  10   1
M  END
> <s_m_source_file>
AV-unprocessed.smi

> <i_m_source_file_index>
3028

> <i_lp_mmshare_version>
43012

> <i_f3d_flags>
0

> <s_epik_input>
W0NIM11jMVtjSF1ubihbY0hdMSlbQ0BIXShbQ0gzXSlbQ0BIXShbQ0gzXSlbTkhdW0NIMl1DKD1PKVtOSF1bQ0hdMltDSDJdW0NIMl1PW0NIMl1bQ0gyXTI=

> <s_epik_cmdline>
J2VwaWtfcHl0aG9uJywgJy1waCcsICc3LjAnLCAnLXRuJywgJzgnLCAnLW1hJywgJzIwMCcsICctbWV0YWxfYmluZGluZycsICctaW1hZScsICc8aW5maWxlLm1hZT4nLCAnLW9tYWUnLCAnPG91dGZpbGUubWFlPic=

> <r_lp_tautomer_probability>
1

> <r_epik_Ionization_Penalty>
0.151514

> <r_epik_Ionization_Penalty_Charging>
0.151494

> <r_epik_Ionization_Penalty_Neutral>
1.95502e-05

> <r_epik_State_Penalty>
0.141395

> <r_epik_Charging_Adjusted_Penalty>
0.292889

> <i_epik_Tot_Q>
1

> <i_epik_Tot_abs_Q>
1

> <r_epik_Metal_State_Penalty>
0.141632

> <b_epik_Metal_Only>
0

> <s_lp_Force_Field>
OPLS_2005

> <r_lp_Energy>
18.1204

> <b_lp_Chiralities_Consistent>
1

> <s_lp_Variant>
AV-unprocessed.smi:3028-1

> <Gold.Version>
5.8.1

> <Gold.Id.Protein>
6NUR|6NUR_protein|mol2

> <Gold.PLP.Fitness>
50.9103

> <Gold.PLP.PLP>
-38.2467

> <Gold.PLP.part.hbond>
-4.0000

> <Gold.PLP.part.metal>
0.0000

> <Gold.PLP.part.buried>
-1.1132

> <Gold.PLP.part.nonpolar>
-34.3106

> <Gold.PLP.part.repulsive>
2.7187

> <Gold.PLP.ligand.clash>
0.0000

> <Gold.PLP.ligand.torsion>
1.5160

> <Gold.PLP.Chemscore.Hbond>
4.5680

> <Gold.PLP.Chemscore.CHOScore>
0.6250

> <Gold.PLP.Chemscore.Metal>
0.0000

> <Gold.Chemscore.Hbonds>
donor molecule, donor type, donor heavy atom, donor atom, acceptor molecule, acceptor atom, score
      L1  H    10    34       P1  7957  0.69
      L1  H    10    48       P1  7948  2.00
      P1  H  7954  7966       L1    13  1.00
      P1  H  7989  7998       L1     4  0.90
      L1  C    21    47       P1  8028  0.53

> <Gold.PLP.Chemscore.Internal.Correction>
0.1164

> <Gold.Rescore>
     Score         DG    S(hbond)    S(metal)    S(lipo)     H(rot)  DE(clash)    DE(int)     intcor
     16.06     -21.77       3.37        0.00      86.55       1.99       1.60       4.11       ----

> <Gold.Chemscore.Fitness>
16.0637

> <Gold.Chemscore.DG>
-21.7707

> <Gold.Chemscore.ZeroCoef>
-5.4800

> <Gold.Chemscore.Hbond>
3.3705

> <Gold.Chemscore.Metal>
0.0000

> <Gold.Chemscore.Lipo>
86.5541

> <Gold.Chemscore.Internal_Hbond>
0.0000

> <Gold.Chemscore.DEClash>
1.6012

> <Gold.Chemscore.DEInternal>
4.1059

> <Gold.Chemscore.Rot>
1.9897

> <Gold.Chemscore.Internal.Correction>
   9.000000E+99

> <Gold.Chemscore.Hbonds>
donor molecule, donor type, donor heavy atom, donor atom, acceptor molecule, acceptor atom, score
      L1  H    10    34       P1  7957  0.68
      L1  H    10    48       P1  7948  0.99
      P1  H  7954  7966       L1    13  0.98
      P1  H  7989  7998       L1     4  0.19

> <Gold.Chemscore.Hbond.Weighted>
-11.2575

> <Gold.Chemscore.Metal.Weighted>
-0.0000

> <Gold.Chemscore.Lipo.Weighted>
-10.1268

> <Gold.Chemscore.Internal_Hbond.Weighted>
0.0000

> <Gold.Chemscore.DEClash.Weighted>
1.6012

> <Gold.Chemscore.DEInternal.Weighted>
4.1059

> <Gold.Chemscore.Rot.Weighted>
5.0936

> <Gold.Chemscore.Internal.Correction.Weighted>
   9.000000E+99

> <Gold.Protein.RotatedTorsions>
[ 6907 6896 6895 6894 ] final   50.15 input  -60.11 | X-H torsion
[ 7974 7965 7964 7962 ] final  140.99 input  175.53 | X-H torsion
[ 8008 7997 7996 7995 ] final  -71.72 input   59.86 | X-H torsion
[ 10167 10162 10161 10158 ] final -158.77 input  -65.29 | X-H torsion
[ 10718 10713 10712 10709 ] final   94.49 input   66.30 | X-H torsion
[ 10763 10752 10751 10750 ] final    5.61 input  -60.55 | X-H torsion
[ 11005 11000 10999 10996 ] final   -0.28 input  -57.11 | X-H torsion

> <Gold.Protein.ActiveResidues>
 VAL166  LYS551  ARG553  GLY616  TRP617  ASP618  TYR619  PRO620  LYS621  CYS622 
 ASP623  PHE694  ASN695  SER759  ASP760  ASP761  ALA762  ILE779  LEU786  VAL792 
 PHE793  MET794  SER795  GLU796  ALA797  LYS798  CYS799  TRP800  GLU811  SER814 

> <Gold.Protein.RotatedAtoms>
  152.2986  134.7637  160.0362 H   0  0  0  0  0  0  0  0  0  0  0  0  # atno 6907 bound_to 6896
  151.8158  133.3382  159.3577 H   0  0  0  0  0  0  0  0  0  0  0  0  # atno 6908 bound_to 6896
  150.7263  134.5550  159.5858 H   0  0  0  0  0  0  0  0  0  0  0  0  # atno 6909 bound_to 6896
  144.9137  139.5259  143.5696 H   0  0  0  0  0  0  0  0  0  0  0  0  # atno 7974 bound_to 7965
  154.5110  140.0810  156.7989 H   0  0  0  0  0  0  0  0  0  0  0  0  # atno 8008 bound_to 7997
  155.3786  140.3426  155.4227 H   0  0  0  0  0  0  0  0  0  0  0  0  # atno 8009 bound_to 7997
  156.1572  140.1577  156.8659 H   0  0  0  0  0  0  0  0  0  0  0  0  # atno 8010 bound_to 7997
  139.6666  143.9818  152.2259 H   0  0  0  0  0  0  0  0  0  0  0  0  # atno 10167 bound_to 10162
  157.6947  131.0514  150.4194 H   0  0  0  0  0  0  0  0  0  0  0  0  # atno 10718 bound_to 10713
  153.2574  135.6920  153.7614 H   0  0  0  0  0  0  0  0  0  0  0  0  # atno 10763 bound_to 10752
  153.6686  135.3348  155.3148 H   0  0  0  0  0  0  0  0  0  0  0  0  # atno 10764 bound_to 10752
  154.8417  135.4494  154.1552 H   0  0  0  0  0  0  0  0  0  0  0  0  # atno 10765 bound_to 10752
  140.6346  133.9545  155.8292 H   0  0  0  0  0  0  0  0  0  0  0  0  # atno 11005 bound_to 11000
  146.3171  139.7963  142.8975 LP  0  0  0  0  0  0  0  0  0  0  0  0  # atno 17320 bound_to 7965
  145.3411  141.0288  143.3391 LP  0  0  0  0  0  0  0  0  0  0  0  0  # atno 17321 bound_to 7965
  139.9571  144.6582  150.8115 LP  0  0  0  0  0  0  0  0  0  0  0  0  # atno 17342 bound_to 10162
  140.7602  143.3145  151.2765 LP  0  0  0  0  0  0  0  0  0  0  0  0  # atno 17343 bound_to 10162
  156.4570  130.4024  149.6600 LP  0  0  0  0  0  0  0  0  0  0  0  0  # atno 17370 bound_to 10713
  156.3728  130.7539  151.2524 LP  0  0  0  0  0  0  0  0  0  0  0  0  # atno 17371 bound_to 10713
  141.0651  134.0289  157.3605 LP  0  0  0  0  0  0  0  0  0  0  0  0  # atno 17394 bound_to 11000
  139.9103  135.0188  156.7663 LP  0  0  0  0  0  0  0  0  0  0  0  0  # atno 17395 bound_to 11000

$$$$
