AV-unprocessed.smi:287|AV-procd|sdf|2206|dock1
  -GOLD-   2262022 33D 1   1.00000     0.00000
 Structure written by MMmdl.
 55 58  0  0  0  0  0  0  0  0  1 V2000
  151.5581  144.5016  159.7638 C   0  0  0  0  0  0  0  0  0  0  0  0
  152.2362  143.1842  159.9224 C   0  0  0  0  0  0  0  0  0  0  0  0
  152.3889  142.0969  159.1126 C   0  0  0  0  0  0  0  0  0  0  0  0
  153.1557  141.1331  159.8330 C   0  0  0  0  0  0  0  0  0  0  0  0
  153.5776  139.7640  159.3160 C   0  0  2  0  0  0  0  0  0  0  0  0
  153.2566  138.6859  160.3647 C   0  0  0  0  0  0  0  0  0  0  0  0
  154.9711  139.6641  159.0945 O   0  0  0  0  0  0  0  0  0  0  0  0
  152.9046  139.4130  157.9696 C   0  0  0  0  0  0  0  0  0  0  0  0
  151.4738  139.1569  158.1007 N   0  0  0  0  0  0  0  0  0  0  0  0
  150.6066  139.6749  157.2061 C   0  0  0  0  0  0  0  0  0  0  0  0
  150.7139  140.9645  156.7928 N   0  0  0  0  0  0  0  0  0  0  0  0
  149.8436  141.4537  155.9049 C   0  0  0  0  0  0  0  0  0  0  0  0
  148.8155  140.8374  155.3182 N   0  0  0  0  0  0  0  0  0  0  0  0
  148.7032  139.5407  155.7284 C   0  0  0  0  0  0  0  0  0  0  0  0
  149.5544  138.8916  156.6659 C   0  0  0  0  0  0  0  0  0  0  0  0
  149.1426  137.5783  156.8472 N   0  0  0  0  0  0  0  0  0  0  0  0
  148.1073  137.4619  156.0605 C   0  0  0  0  0  0  0  0  0  0  0  0
  147.7705  138.5935  155.3507 N   0  0  0  0  0  0  0  0  0  0  0  0
  146.6362  138.7461  154.3812 C   0  0  2  0  0  0  0  0  0  0  0  0
  145.9887  137.5174  154.2198 O   0  0  0  0  0  0  0  0  0  0  0  0
  146.0405  137.0966  152.8561 C   0  0  1  0  0  0  0  0  0  0  0  0
  144.7771  136.2933  152.5103 C   0  0  0  0  0  0  0  0  0  0  0  0
  144.6232  136.2088  151.1098 O   0  0  0  0  0  0  0  0  0  0  0  0
  146.1499  138.4206  152.0978 C   0  0  2  0  0  0  0  0  0  0  0  0
  146.6357  138.2756  150.7770 O   0  0  0  0  0  0  0  0  0  0  0  0
  147.0839  139.2275  152.9878 C   0  0  2  0  0  0  0  0  0  0  0  0
  148.4538  138.9762  152.7105 O   0  0  0  0  0  0  0  0  0  0  0  0
  153.4043  141.7215  161.0501 C   0  0  0  0  0  0  0  0  0  0  0  0
  154.1334  141.2944  162.2816 C   0  0  0  0  0  0  0  0  0  0  0  0
  152.8520  142.9655  161.1110 O   0  0  0  0  0  0  0  0  0  0  0  0
  145.9504  139.4412  154.8672 H   0  0  0  0  0  0  0  0  0  0  0  0
  146.9416  136.5051  152.6852 H   0  0  0  0  0  0  0  0  0  0  0  0
  145.1729  138.9057  152.0662 H   0  0  0  0  0  0  0  0  0  0  0  0
  146.9064  140.2996  152.8964 H   0  0  0  0  0  0  0  0  0  0  0  0
  151.1551  144.6130  158.7571 H   0  0  0  0  0  0  0  0  0  0  0  0
  152.2565  145.3198  159.9402 H   0  0  0  0  0  0  0  0  0  0  0  0
  150.7342  144.5996  160.4707 H   0  0  0  0  0  0  0  0  0  0  0  0
  151.9989  142.0034  158.1098 H   0  0  0  0  0  0  0  0  0  0  0  0
  152.1883  138.6494  160.5810 H   0  0  0  0  0  0  0  0  0  0  0  0
  153.7746  138.8804  161.3049 H   0  0  0  0  0  0  0  0  0  0  0  0
  153.5535  137.6937  160.0226 H   0  0  0  0  0  0  0  0  0  0  0  0
  155.3770  139.3380  159.8829 H   0  0  0  0  0  0  0  0  0  0  0  0
  153.0882  140.1910  157.2270 H   0  0  0  0  0  0  0  0  0  0  0  0
  153.3567  138.4989  157.5819 H   0  0  0  0  0  0  0  0  0  0  0  0
  151.2007  138.5382  158.8513 H   0  0  0  0  0  0  0  0  0  0  0  0
  149.9916  142.4857  155.6235 H   0  0  0  0  0  0  0  0  0  0  0  0
  147.5538  136.5379  155.9770 H   0  0  0  0  0  0  0  0  0  0  0  0
  144.8068  135.2962  152.9507 H   0  0  0  0  0  0  0  0  0  0  0  0
  143.8934  136.7955  152.9052 H   0  0  0  0  0  0  0  0  0  0  0  0
  144.1120  136.9482  150.8181 H   0  0  0  0  0  0  0  0  0  0  0  0
  145.9013  138.3390  150.1845 H   0  0  0  0  0  0  0  0  0  0  0  0
  148.8197  139.7407  152.2924 H   0  0  0  0  0  0  0  0  0  0  0  0
  153.7168  140.3675  162.6756 H   0  0  0  0  0  0  0  0  0  0  0  0
  154.0656  142.0510  163.0634 H   0  0  0  0  0  0  0  0  0  0  0  0
  155.1891  141.1285  162.0669 H   0  0  0  0  0  0  0  0  0  0  0  0
  1  2  1  0  0  0  0
  1 35  1  0  0  0  0
  1 36  1  0  0  0  0
  1 37  1  0  0  0  0
  2 30  1  0  0  0  0
  2  3  2  0  0  0  0
  3  4  1  0  0  0  0
  3 38  1  0  0  0  0
  4  5  1  0  0  0  0
  4 28  2  0  0  0  0
  5  6  1  0  0  0  0
  5  7  1  0  0  0  0
  5  8  1  0  0  0  0
  6 39  1  0  0  0  0
  6 40  1  0  0  0  0
  6 41  1  0  0  0  0
  7 42  1  0  0  0  0
  8  9  1  0  0  0  0
  8 43  1  0  0  0  0
  8 44  1  0  0  0  0
  9 10  1  0  0  0  0
  9 45  1  0  0  0  0
 10 15  1  0  0  0  0
 10 11  2  0  0  0  0
 11 12  1  0  0  0  0
 12 13  2  0  0  0  0
 12 46  1  0  0  0  0
 13 14  1  0  0  0  0
 14 18  1  0  0  0  0
 14 15  2  0  0  0  0
 15 16  1  0  0  0  0
 16 17  2  0  0  0  0
 17 18  1  0  0  0  0
 17 47  1  0  0  0  0
 18 19  1  0  0  0  0
 19 31  1  0  0  0  0
 19 26  1  0  0  0  0
 19 20  1  0  0  0  0
 20 21  1  0  0  0  0
 21 32  1  0  0  0  0
 21 22  1  0  0  0  0
 21 24  1  0  0  0  0
 22 23  1  0  0  0  0
 22 48  1  0  0  0  0
 22 49  1  0  0  0  0
 23 50  1  0  0  0  0
 24 33  1  0  0  0  0
 24 25  1  0  0  0  0
 24 26  1  0  0  0  0
 25 51  1  0  0  0  0
 26 34  1  0  0  0  0
 26 27  1  0  0  0  0
 27 52  1  0  0  0  0
 28 29  1  0  0  0  0
 28 30  1  0  0  0  0
 29 53  1  0  0  0  0
 29 54  1  0  0  0  0
 29 55  1  0  0  0  0
M  END
> <s_m_source_file>
AV-unprocessed.smi

> <i_m_source_file_index>
287

> <i_lp_mmshare_version>
43012

> <i_f3d_flags>
0

> <s_epik_input>
W0NIM11jMVtjSF1jKGMobzEpW0NIM10pW0NAQF0oW0NIM10pKFtPSF0pW0NIMl1bTkhdYyhuW2NIXW4yKWMoYzIzKW5bY0hdbjNbQ0BASF00T1tDQEhdKFtDSDJdW09IXSlbQ0BASF0oW09IXSlbQ0BIXTRbT0hd

> <s_epik_cmdline>
J2VwaWtfcHl0aG9uJywgJy1waCcsICc3LjAnLCAnLXRuJywgJzgnLCAnLW1hJywgJzIwMCcsICctbWV0YWxfYmluZGluZycsICctaW1hZScsICc8aW5maWxlLm1hZT4nLCAnLW9tYWUnLCAnPG91dGZpbGUubWFlPic=

> <r_lp_tautomer_probability>
1

> <r_epik_Ionization_Penalty>
0.000992612

> <r_epik_Ionization_Penalty_Charging>
0

> <r_epik_Ionization_Penalty_Neutral>
0.000992612

> <r_epik_State_Penalty>
-0

> <r_epik_Charging_Adjusted_Penalty>
0

> <i_epik_Tot_Q>
0

> <i_epik_Tot_abs_Q>
0

> <r_epik_Metal_State_Penalty>
-0

> <b_epik_Metal_Only>
0

> <s_epik_Chemistry_Notes>
This compound contains an acetal/aminal-like group ( X-CH(R)-Y where X, Y are N, S, or O) that may be acid/base labile, releasing an aldehyde.

> <s_lp_Force_Field>
OPLS_2005

> <r_lp_Energy>
49.5285

> <b_lp_Chiralities_Consistent>
1

> <s_lp_Variant>
AV-unprocessed.smi:287-30

> <Gold.Version>
5.8.1

> <Gold.Id.Protein>
6NUR|6NUR_protein|mol2

> <Gold.PLP.Fitness>
58.2695

> <Gold.PLP.PLP>
-43.2461

> <Gold.PLP.part.hbond>
-6.0163

> <Gold.PLP.part.metal>
0.0000

> <Gold.PLP.part.buried>
-5.0914

> <Gold.PLP.part.nonpolar>
-33.0294

> <Gold.PLP.part.repulsive>
0.3363

> <Gold.PLP.ligand.clash>
0.0000

> <Gold.PLP.ligand.torsion>
0.9593

> <Gold.PLP.Chemscore.Hbond>
4.6825

> <Gold.PLP.Chemscore.CHOScore>
0.7172

> <Gold.PLP.Chemscore.Metal>
0.0000

> <Gold.Chemscore.Hbonds>
donor molecule, donor type, donor heavy atom, donor atom, acceptor molecule, acceptor atom, score
      L1  H    23    50       P1 10171  1.00
      L1  H    25    51       P1 10171  0.94
      L1  H    27    52       P1  7957  0.51
      P1  H  7954  7966       L1    25  1.00
      P1  H  7997  8008       L1     7  1.00
      L1  C    12    46       P1  8028  1.00

> <Gold.PLP.Chemscore.Internal.Correction>
0.7430

> <Gold.Rescore>
     Score         DG    S(hbond)    S(metal)    S(lipo)     H(rot)  DE(clash)    DE(int)     intcor
     16.01     -16.96       3.92        0.00     101.34       5.27       0.28       0.68       ----

> <Gold.Chemscore.Fitness>
16.0070

> <Gold.Chemscore.DG>
-16.9577

> <Gold.Chemscore.ZeroCoef>
-5.4800

> <Gold.Chemscore.Hbond>
3.9237

> <Gold.Chemscore.Metal>
0.0000

> <Gold.Chemscore.Lipo>
101.3368

> <Gold.Chemscore.Internal_Hbond>
0.0000

> <Gold.Chemscore.DEClash>
0.2753

> <Gold.Chemscore.DEInternal>
0.6754

> <Gold.Chemscore.Rot>
5.2672

> <Gold.Chemscore.Internal.Correction>
   9.000000E+99

> <Gold.Chemscore.Hbonds>
donor molecule, donor type, donor heavy atom, donor atom, acceptor molecule, acceptor atom, score
      L1  H    23    50       P1 10171  0.96
      L1  H    25    51       P1 10171  0.87
      L1  H    27    52       P1  7957  0.51
      P1  H  7954  7966       L1    25  0.75
      P1  H  7997  8008       L1     7  0.60

> <Gold.Chemscore.Hbond.Weighted>
-13.1052

> <Gold.Chemscore.Metal.Weighted>
-0.0000

> <Gold.Chemscore.Lipo.Weighted>
-11.8564

> <Gold.Chemscore.Internal_Hbond.Weighted>
0.0000

> <Gold.Chemscore.DEClash.Weighted>
0.2753

> <Gold.Chemscore.DEInternal.Weighted>
0.6754

> <Gold.Chemscore.Rot.Weighted>
13.4839

> <Gold.Chemscore.Internal.Correction.Weighted>
   9.000000E+99

> <Gold.Protein.RotatedTorsions>
[ 6907 6896 6895 6894 ] final  -20.16 input  -60.11 | X-H torsion
[ 7974 7965 7964 7962 ] final  146.04 input  175.53 | X-H torsion
[ 8008 7997 7996 7995 ] final -128.13 input   59.86 | X-H torsion
[ 10167 10162 10161 10158 ] final  155.69 input  -65.29 | X-H torsion
[ 10718 10713 10712 10709 ] final  166.92 input   66.30 | X-H torsion
[ 10763 10752 10751 10750 ] final   39.14 input  -60.55 | X-H torsion
[ 11005 11000 10999 10996 ] final   -8.62 input  -57.11 | X-H torsion

> <Gold.Protein.ActiveResidues>
 VAL166  LYS551  ARG553  GLY616  TRP617  ASP618  TYR619  PRO620  LYS621  CYS622 
 ASP623  PHE694  ASN695  SER759  ASP760  ASP761  ALA762  ILE779  LEU786  VAL792 
 PHE793  MET794  SER795  GLU796  ALA797  LYS798  CYS799  TRP800  GLU811  SER814 

> <Gold.Protein.RotatedAtoms>
  151.2523  135.0626  159.9066 H   0  0  0  0  0  0  0  0  0  0  0  0  # atno 6907 bound_to 6896
  152.5378  134.0319  159.8039 H   0  0  0  0  0  0  0  0  0  0  0  0  # atno 6908 bound_to 6896
  151.0529  133.5559  159.2672 H   0  0  0  0  0  0  0  0  0  0  0  0  # atno 6909 bound_to 6896
  144.8703  139.5857  143.5890 H   0  0  0  0  0  0  0  0  0  0  0  0  # atno 7974 bound_to 7965
  155.2576  140.0435  157.2994 H   0  0  0  0  0  0  0  0  0  0  0  0  # atno 8008 bound_to 7997
  154.5730  140.2379  155.8133 H   0  0  0  0  0  0  0  0  0  0  0  0  # atno 8009 bound_to 7997
  156.2137  140.2991  155.9798 H   0  0  0  0  0  0  0  0  0  0  0  0  # atno 8010 bound_to 7997
  139.4821  144.5076  151.8074 H   0  0  0  0  0  0  0  0  0  0  0  0  # atno 10167 bound_to 10162
  157.0590  131.0335  151.2654 H   0  0  0  0  0  0  0  0  0  0  0  0  # atno 10718 bound_to 10713
  152.9977  135.6229  154.2417 H   0  0  0  0  0  0  0  0  0  0  0  0  # atno 10763 bound_to 10752
  154.2157  135.2798  155.2944 H   0  0  0  0  0  0  0  0  0  0  0  0  # atno 10764 bound_to 10752
  154.5570  135.5716  153.7031 H   0  0  0  0  0  0  0  0  0  0  0  0  # atno 10765 bound_to 10752
  140.7254  133.8793  155.8852 H   0  0  0  0  0  0  0  0  0  0  0  0  # atno 11005 bound_to 11000
  146.2925  139.7181  142.9150 LP  0  0  0  0  0  0  0  0  0  0  0  0  # atno 17320 bound_to 7965
  145.4143  141.0400  143.2999 LP  0  0  0  0  0  0  0  0  0  0  0  0  # atno 17321 bound_to 7965
  140.4575  144.1768  150.5903 LP  0  0  0  0  0  0  0  0  0  0  0  0  # atno 17342 bound_to 10162
  140.4520  143.2483  151.9335 LP  0  0  0  0  0  0  0  0  0  0  0  0  # atno 17343 bound_to 10162
  157.4970  130.7856  149.7565 LP  0  0  0  0  0  0  0  0  0  0  0  0  # atno 17370 bound_to 10713
  155.9984  130.3894  150.2703 LP  0  0  0  0  0  0  0  0  0  0  0  0  # atno 17371 bound_to 10713
  140.9967  134.1206  157.4357 LP  0  0  0  0  0  0  0  0  0  0  0  0  # atno 17394 bound_to 11000
  139.8838  135.0056  156.6327 LP  0  0  0  0  0  0  0  0  0  0  0  0  # atno 17395 bound_to 11000

$$$$
