#       Name:                AV-unprocessed.smi:2923
#       Creating user name   scv26
#       Creation time:       Fri Mar 27 16:10:05 2020


#       File generated by GOLD software.
#

@<TRIPOS>MOLECULE
AV-unprocessed.smi:2923
    51    53     1
SMALL
NO_CHARGES


@<TRIPOS>ATOM
      1 ****        -6.7421   0.1932   0.6312 C.3            1 S1                 0.0000
      2 ****        -6.0607  -1.0055   0.1549 N.pl3          1 S1                 0.0000
      3 ****        -6.8145  -2.2229  -0.1141 C.3            1 S1                 0.0000
      4 ****        -4.6608  -0.9916  -0.0263 C.ar           1 S1                 0.0000
      5 ****        -3.9249  -2.1167  -0.4726 C.ar           1 S1                 0.0000
      6 ****        -2.5262  -2.0248  -0.6239 C.ar           1 S1                 0.0000
      7 ****        -1.8659  -0.8115  -0.3388 C.ar           1 S1                 0.0000
      8 ****        -0.4529  -0.7777  -0.4900 N.am           1 S1                 0.0000
      9 ****         0.3653   0.2882  -0.5272 C.2            1 S1                 0.0000
     10 ****         0.0068   1.4649  -0.4943 O.2            1 S1                 0.0000
     11 ****         1.6468  -0.0899  -0.6185 N.am           1 S1                 0.0000
     12 ****         2.7779   0.8294  -0.6532 C.3            1 S1                 0.0000
     13 ****         4.1195   0.0996  -0.7242 C.3            1 S1                 0.0000
     14 ****         5.1974  -0.0113  -1.7427 C.3            1 S1                 0.0000
     15 ****         6.4059   0.2247  -0.7973 C.3            1 S1                 0.0000
     16 ****         5.8453   0.6800   0.4587 O.3            1 S1                 0.0000
     17 ****         4.6223   1.2796   0.0838 C.3            1 S1                 0.0000
     18 ****         3.2432   1.3120   0.7728 C.3            1 S1                 0.0000
     19 ****         2.7559   2.7010   1.1858 C.3            1 S1                 0.0000
     20 ****         3.0310   0.3975   1.9965 C.3            1 S1                 0.0000
     21 ****        -2.6438   0.2825   0.1096 C.ar           1 S1                 0.0000
     22 ****        -3.9812   0.1500   0.2427 N.pl3          1 S1                 1.0000
     23 ****        -6.3511   0.4973   1.6027 H              1 S1                 0.0000
     24 ****        -7.8133   0.0238   0.7419 H              1 S1                 0.0000
     25 ****        -6.6054   1.0160  -0.0712 H              1 S1                 0.0000
     26 ****        -6.4571  -3.0424   0.5100 H              1 S1                 0.0000
     27 ****        -6.7138  -2.5111  -1.1608 H              1 S1                 0.0000
     28 ****        -7.8760  -2.0864   0.0931 H              1 S1                 0.0000
     29 ****        -4.4101  -3.0539  -0.7006 H              1 S1                 0.0000
     30 ****        -1.9666  -2.8857  -0.9602 H              1 S1                 0.0000
     31 ****        -0.0086  -1.6774  -0.6003 H              1 S1                 0.0000
     32 ****         1.8582  -1.0766  -0.6483 H              1 S1                 0.0000
     33 ****         2.6848   1.6303  -1.3927 H              1 S1                 0.0000
     34 ****         4.0779  -0.8272  -0.1468 H              1 S1                 0.0000
     35 ****         5.2269  -0.9883  -2.2256 H              1 S1                 0.0000
     36 ****         5.1184   0.7628  -2.5073 H              1 S1                 0.0000
     37 ****         6.9772  -0.6889  -0.6305 H              1 S1                 0.0000
     38 ****         7.0804   0.9765  -1.2087 H              1 S1                 0.0000
     39 ****         4.8021   2.1806  -0.5141 H              1 S1                 0.0000
     40 ****         3.3281   3.0918   2.0278 H              1 S1                 0.0000
     41 ****         1.7054   2.6879   1.4775 H              1 S1                 0.0000
     42 ****         2.8519   3.4181   0.3703 H              1 S1                 0.0000
     43 ****         3.6392   0.7255   2.8400 H              1 S1                 0.0000
     44 ****         3.2858  -0.6452   1.8157 H              1 S1                 0.0000
     45 ****         1.9911   0.4103   2.3247 H              1 S1                 0.0000
     46 ****        -2.2591   1.2537   0.3810 H              1 S1                 0.0000
     47 ****        -4.5105   0.9586   0.5694 H              1 S1                 0.0000
     48 ****        -0.9658   1.6898  -0.4350 LP             1 S1                 0.0000
     49 ****         0.6880   2.1962  -0.5268 LP             1 S1                 0.0000
     50 ****         6.4487   1.3457   0.8977 LP             1 S1                 0.0000
     51 ****         5.6898  -0.0888   1.0790 LP             1 S1                 0.0000
@<TRIPOS>BOND
    1    1    2 1     
    2    1   23 1     
    3    1   24 1     
    4    1   25 1     
    5    2    3 1     
    6    2    4 1     
    7    3   26 1     
    8    3   27 1     
    9    3   28 1     
   10    4   22 ar    
   11    4    5 ar    
   12    5    6 ar    
   13    5   29 1     
   14    6    7 ar    
   15    6   30 1     
   16    7    8 1     
   17    7   21 ar    
   18    8    9 am    
   19    8   31 1     
   20    9   10 2     
   21    9   11 am    
   22   11   12 1     
   23   11   32 1     
   24   12   18 1     
   25   12   13 1     
   26   12   33 1     
   27   13   17 1     
   28   13   14 1     
   29   13   34 1     
   30   14   15 1     
   31   14   35 1     
   32   14   36 1     
   33   15   16 1     
   34   15   37 1     
   35   15   38 1     
   36   16   17 1     
   37   17   18 1     
   38   17   39 1     
   39   18   19 1     
   40   18   20 1     
   41   19   40 1     
   42   19   41 1     
   43   19   42 1     
   44   20   43 1     
   45   20   44 1     
   46   20   45 1     
   47   21   22 ar    
   48   21   46 1     
   49   22   47 1     
   50   10   48 1     
   51   10   49 1     
   52   16   50 1     
   53   16   51 1     
@<TRIPOS>SUBSTRUCTURE
      1 S1             1
@<TRIPOS>SET
LONE_PAIRS      STATIC     ATOMS    <user>   **** ""
4 48 49 50 51
DONOR_HYDROGENS      STATIC     ATOMS    <user>   **** ""
3 31 32 47
ATOM$BLUE        STATIC     ATOMS    COLORGROUP SYSTEM
4 48 49 50 51
ATOM$RED        STATIC     ATOMS    COLORGROUP SYSTEM
3 31 32 47
