AV-unprocessed.smi:1644|AV-procd|sdf|6591|dock4
  -GOLD-   22720 7283D 1   1.00000     0.00000
 Structure written by MMmdl.
 50 52  0  0  0  0  0  0  0  0  2 V2000
  147.7367  135.5360  162.4996 C   0  0  0  0  0  0  0  0  0  0  0  0
  147.8898  135.4031  160.9807 C   0  0  0  0  0  0  0  0  0  0  0  0
  148.7494  136.5313  160.3747 C   0  0  0  0  0  0  0  0  0  0  0  0
  149.1012  136.3788  158.8770 C   0  0  1  0  0  0  0  0  0  0  0  0
  147.9402  136.4013  158.0092 N   0  0  0  0  0  0  0  0  0  0  0  0
  148.0062  137.3722  157.0882 C   0  0  0  0  0  0  0  0  0  0  0  0
  147.1585  137.5873  156.2235 O   0  0  0  0  0  0  0  0  0  0  0  0
  149.1499  138.0556  157.2735 N   0  0  0  0  0  0  0  0  0  0  0  0
  149.5788  139.1912  156.4517 C   0  0  0  0  0  0  0  0  0  0  0  0
  150.9597  138.9397  155.8128 C   0  0  1  0  0  0  0  0  0  0  0  0
  150.8842  139.2239  154.4295 O   0  0  0  0  0  0  0  0  0  0  0  0
  152.0490  139.8382  156.4300 C   0  0  0  0  0  0  0  0  0  0  0  0
  151.5261  141.1373  156.8701 N   0  0  0  0  0  0  0  0  0  0  0  0
  150.6875  142.0055  156.2427 C   0  0  0  0  0  0  0  0  0  0  0  0
  150.5096  143.0729  157.0703 N   0  3  0  0  0  0  0  0  0  0  0  0
  151.2472  142.8830  158.2414 C   0  0  0  0  0  0  0  0  0  0  0  0
  151.3899  143.6818  159.3699 C   0  0  0  0  0  0  0  0  0  0  0  0
  152.2267  143.1979  160.4012 C   0  0  0  0  0  0  0  0  0  0  0  0
  152.4052  144.0469  161.6485 C   0  0  0  0  0  0  0  0  0  0  0  0
  152.8887  141.9484  160.2794 C   0  0  0  0  0  0  0  0  0  0  0  0
  153.7900  141.4396  161.3917 C   0  0  0  0  0  0  0  0  0  0  0  0
  152.7278  141.1492  159.1253 C   0  0  0  0  0  0  0  0  0  0  0  0
  151.9007  141.6419  158.1191 C   0  0  0  0  0  0  0  0  0  0  0  0
  149.8630  137.5530  158.2905 C   0  0  0  0  0  0  0  0  0  0  0  0
  150.9568  137.9425  158.7000 O   0  0  0  0  0  0  0  0  0  0  0  0
  147.1202  134.7306  162.8997 H   0  0  0  0  0  0  0  0  0  0  0  0
  147.2628  136.4810  162.7669 H   0  0  0  0  0  0  0  0  0  0  0  0
  148.7053  135.4926  162.9983 H   0  0  0  0  0  0  0  0  0  0  0  0
  148.3339  134.4333  160.7550 H   0  0  0  0  0  0  0  0  0  0  0  0
  146.8980  135.4014  160.5276 H   0  0  0  0  0  0  0  0  0  0  0  0
  148.2419  137.4858  160.5222 H   0  0  0  0  0  0  0  0  0  0  0  0
  149.6796  136.6042  160.9394 H   0  0  0  0  0  0  0  0  0  0  0  0
  149.6647  135.4606  158.7065 H   0  0  0  0  0  0  0  0  0  0  0  0
  147.1804  135.7411  158.0902 H   0  0  0  0  0  0  0  0  0  0  0  0
  148.8338  139.4444  155.6946 H   0  0  0  0  0  0  0  0  0  0  0  0
  149.6276  140.0673  157.1008 H   0  0  0  0  0  0  0  0  0  0  0  0
  151.2481  137.8952  155.9362 H   0  0  0  0  0  0  0  0  0  0  0  0
  150.0064  139.0384  154.1314 H   0  0  0  0  0  0  0  0  0  0  0  0
  152.5055  139.3515  157.2933 H   0  0  0  0  0  0  0  0  0  0  0  0
  152.8532  140.0233  155.7168 H   0  0  0  0  0  0  0  0  0  0  0  0
  150.2473  141.8730  155.2649 H   0  0  0  0  0  0  0  0  0  0  0  0
  150.8839  144.6324  159.4550 H   0  0  0  0  0  0  0  0  0  0  0  0
  152.0973  143.4942  162.5365 H   0  0  0  0  0  0  0  0  0  0  0  0
  151.8079  144.9580  161.6004 H   0  0  0  0  0  0  0  0  0  0  0  0
  153.4492  144.3385  161.7661 H   0  0  0  0  0  0  0  0  0  0  0  0
  154.2424  140.4820  161.1318 H   0  0  0  0  0  0  0  0  0  0  0  0
  153.2213  141.3010  162.3116 H   0  0  0  0  0  0  0  0  0  0  0  0
  154.5970  142.1467  161.5855 H   0  0  0  0  0  0  0  0  0  0  0  0
  153.2308  140.1978  159.0308 H   0  0  0  0  0  0  0  0  0  0  0  0
  149.9285  143.8713  156.8483 H   0  0  0  0  0  0  0  0  0  0  0  0
  1  2  1  0  0  0  0
  1 26  1  0  0  0  0
  1 27  1  0  0  0  0
  1 28  1  0  0  0  0
  2  3  1  0  0  0  0
  2 29  1  0  0  0  0
  2 30  1  0  0  0  0
  3  4  1  0  0  0  0
  3 31  1  0  0  0  0
  3 32  1  0  0  0  0
  4 24  1  0  0  0  0
  4  5  1  0  0  0  0
  4 33  1  0  0  0  0
  5  6  1  0  0  0  0
  5 34  1  0  0  0  0
  6  7  2  0  0  0  0
  6  8  1  0  0  0  0
  8  9  1  0  0  0  0
  8 24  1  0  0  0  0
  9 10  1  0  0  0  0
  9 35  1  0  0  0  0
  9 36  1  0  0  0  0
 10 11  1  0  0  0  0
 10 12  1  0  0  0  0
 10 37  1  0  0  0  0
 11 38  1  0  0  0  0
 12 13  1  0  0  0  0
 12 39  1  0  0  0  0
 12 40  1  0  0  0  0
 13 23  1  0  0  0  0
 13 14  1  0  0  0  0
 14 15  2  0  0  0  0
 14 41  1  0  0  0  0
 15 16  1  0  0  0  0
 15 50  1  0  0  0  0
 16 23  2  0  0  0  0
 16 17  1  0  0  0  0
 17 18  2  0  0  0  0
 17 42  1  0  0  0  0
 18 19  1  0  0  0  0
 18 20  1  0  0  0  0
 19 43  1  0  0  0  0
 19 44  1  0  0  0  0
 19 45  1  0  0  0  0
 20 21  1  0  0  0  0
 20 22  2  0  0  0  0
 21 46  1  0  0  0  0
 21 47  1  0  0  0  0
 21 48  1  0  0  0  0
 22 23  1  0  0  0  0
 22 49  1  0  0  0  0
 24 25  2  0  0  0  0
M  CHG  1  15   1
M  END
> <s_m_source_file>
AV-unprocessed.smi

> <i_m_source_file_index>
1644

> <i_lp_mmshare_version>
43012

> <i_f3d_flags>
0

> <s_epik_input>
W0NIM11bQ0gyXVtDSDJdW0NAQEhdMVtOSF1DKD1PKU4oQzE9TylbQ0gyXVtDQEhdKFtPSF0pW0NIMl1uKFtjSF1uMiljKGMyMylbY0hdYyhbQ0gzXSljKFtjSF0zKVtDSDNd

> <s_epik_cmdline>
J2VwaWtfcHl0aG9uJywgJy1waCcsICc3LjAnLCAnLXRuJywgJzgnLCAnLW1hJywgJzIwMCcsICctbWV0YWxfYmluZGluZycsICctaW1hZScsICc8aW5maWxlLm1hZT4nLCAnLW9tYWUnLCAnPG91dGZpbGUubWFlPic=

> <r_lp_tautomer_probability>
1

> <r_epik_Ionization_Penalty>
1.06742

> <r_epik_Ionization_Penalty_Charging>
1.06736

> <r_epik_Ionization_Penalty_Neutral>
5.56132e-05

> <r_epik_State_Penalty>
1.12163

> <r_epik_Charging_Adjusted_Penalty>
2.18899

> <i_epik_Tot_Q>
1

> <i_epik_Tot_abs_Q>
1

> <r_epik_Metal_State_Penalty>
1.26636

> <b_epik_Metal_Only>
0

> <s_lp_Force_Field>
OPLS_2005

> <r_lp_Energy>
28.3475

> <b_lp_Chiralities_Consistent>
1

> <s_lp_Variant>
AV-unprocessed.smi:1644-8

> <Gold.Version>
5.8.1

> <Gold.Id.Protein>
6NUR|6NUR_protein|mol2

> <Gold.PLP.Fitness>
53.2410

> <Gold.PLP.PLP>
-46.6065

> <Gold.PLP.part.hbond>
-2.0000

> <Gold.PLP.part.metal>
0.0000

> <Gold.PLP.part.buried>
-5.9405

> <Gold.PLP.part.nonpolar>
-38.0573

> <Gold.PLP.part.repulsive>
0.0436

> <Gold.PLP.ligand.clash>
0.0000

> <Gold.PLP.ligand.torsion>
1.2588

> <Gold.PLP.Chemscore.Hbond>
3.0000

> <Gold.PLP.Chemscore.CHOScore>
0.0000

> <Gold.PLP.Chemscore.Metal>
0.0000

> <Gold.Chemscore.Hbonds>
donor molecule, donor type, donor heavy atom, donor atom, acceptor molecule, acceptor atom, score
      L1  H    15    50       P1  8028  1.98
      P1  H  7989  7998       L1    11  1.00

> <Gold.PLP.Chemscore.Internal.Correction>
0.1521

> <Gold.Rescore>
     Score         DG    S(hbond)    S(metal)    S(lipo)     H(rot)  DE(clash)    DE(int)     intcor
     15.96     -18.98       1.87        0.00     123.08       2.80       0.05       2.97       ----

> <Gold.Chemscore.Fitness>
15.9646

> <Gold.Chemscore.DG>
-18.9823

> <Gold.Chemscore.ZeroCoef>
-5.4800

> <Gold.Chemscore.Hbond>
1.8742

> <Gold.Chemscore.Metal>
0.0000

> <Gold.Chemscore.Lipo>
123.0804

> <Gold.Chemscore.Internal_Hbond>
0.0000

> <Gold.Chemscore.DEClash>
0.0513

> <Gold.Chemscore.DEInternal>
2.9665

> <Gold.Chemscore.Rot>
2.7961

> <Gold.Chemscore.Internal.Correction>
   9.000000E+99

> <Gold.Chemscore.Hbonds>
donor molecule, donor type, donor heavy atom, donor atom, acceptor molecule, acceptor atom, score
      L1  H    15    50       P1  8028  0.93
      P1  H  7989  7998       L1    11  0.73

> <Gold.Chemscore.Hbond.Weighted>
-6.2600

> <Gold.Chemscore.Metal.Weighted>
-0.0000

> <Gold.Chemscore.Lipo.Weighted>
-14.4004

> <Gold.Chemscore.Internal_Hbond.Weighted>
0.0000

> <Gold.Chemscore.DEClash.Weighted>
0.0513

> <Gold.Chemscore.DEInternal.Weighted>
2.9665

> <Gold.Chemscore.Rot.Weighted>
7.1580

> <Gold.Chemscore.Internal.Correction.Weighted>
   9.000000E+99

> <Gold.Protein.RotatedTorsions>
[ 6907 6896 6895 6894 ] final   37.01 input  -60.11 | X-H torsion
[ 7974 7965 7964 7962 ] final  121.76 input  175.53 | X-H torsion
[ 8008 7997 7996 7995 ] final   43.67 input   59.86 | X-H torsion
[ 10167 10162 10161 10158 ] final -142.03 input  -65.29 | X-H torsion
[ 10718 10713 10712 10709 ] final  -91.84 input   66.30 | X-H torsion
[ 10763 10752 10751 10750 ] final   26.87 input  -60.55 | X-H torsion
[ 11005 11000 10999 10996 ] final   37.39 input  -57.11 | X-H torsion

> <Gold.Protein.ActiveResidues>
 VAL166  LYS551  ARG553  GLY616  TRP617  ASP618  TYR619  PRO620  LYS621  CYS622 
 ASP623  PHE694  ASN695  SER759  ASP760  ASP761  ALA762  ILE779  LEU786  VAL792 
 PHE793  MET794  SER795  GLU796  ALA797  LYS798  CYS799  TRP800  GLU811  SER814 

> <Gold.Protein.RotatedAtoms>
  152.1374  134.9088  160.0555 H   0  0  0  0  0  0  0  0  0  0  0  0  # atno 6907 bound_to 6896
  152.0169  133.3878  159.4251 H   0  0  0  0  0  0  0  0  0  0  0  0  # atno 6908 bound_to 6896
  150.6862  134.3590  159.4986 H   0  0  0  0  0  0  0  0  0  0  0  0  # atno 6909 bound_to 6896
  145.1155  139.3424  143.4741 H   0  0  0  0  0  0  0  0  0  0  0  0  # atno 7974 bound_to 7965
  155.3065  140.3388  155.4245 H   0  0  0  0  0  0  0  0  0  0  0  0  # atno 8008 bound_to 7997
  156.1976  140.1721  156.8004 H   0  0  0  0  0  0  0  0  0  0  0  0  # atno 8009 bound_to 7997
  154.5518  140.0704  156.8664 H   0  0  0  0  0  0  0  0  0  0  0  0  # atno 8010 bound_to 7997
  139.8128  143.7680  152.2664 H   0  0  0  0  0  0  0  0  0  0  0  0  # atno 10167 bound_to 10162
  155.9997  130.4964  150.5536 H   0  0  0  0  0  0  0  0  0  0  0  0  # atno 10718 bound_to 10713
  153.0593  135.6550  154.0500 H   0  0  0  0  0  0  0  0  0  0  0  0  # atno 10763 bound_to 10752
  154.0171  135.2923  155.3387 H   0  0  0  0  0  0  0  0  0  0  0  0  # atno 10764 bound_to 10752
  154.6924  135.5277  153.8479 H   0  0  0  0  0  0  0  0  0  0  0  0  # atno 10765 bound_to 10752
  140.2230  134.3618  155.7996 H   0  0  0  0  0  0  0  0  0  0  0  0  # atno 11005 bound_to 11000
  146.3524  140.1092  142.8604 LP  0  0  0  0  0  0  0  0  0  0  0  0  # atno 17320 bound_to 7965
  145.0799  140.9213  143.4832 LP  0  0  0  0  0  0  0  0  0  0  0  0  # atno 17321 bound_to 7965
  139.7834  144.7436  151.0056 LP  0  0  0  0  0  0  0  0  0  0  0  0  # atno 17342 bound_to 10162
  140.7817  143.4518  151.0402 LP  0  0  0  0  0  0  0  0  0  0  0  0  # atno 17343 bound_to 10162
  157.3455  131.0724  151.1754 LP  0  0  0  0  0  0  0  0  0  0  0  0  # atno 17370 bound_to 10713
  157.2588  130.6649  149.5965 LP  0  0  0  0  0  0  0  0  0  0  0  0  # atno 17371 bound_to 10713
  141.2222  133.7204  156.8607 LP  0  0  0  0  0  0  0  0  0  0  0  0  # atno 17394 bound_to 11000
  140.1830  134.9020  157.2970 LP  0  0  0  0  0  0  0  0  0  0  0  0  # atno 17395 bound_to 11000

$$$$
