AV-unprocessed.smi:2030|AV-procd|sdf|8226|dock1
  -GOLD-   2272010493D 1   1.00000     0.00000
 Structure written by MMmdl.
 34 35  0  0  0  0  0  0  0  0  2 V2000
  146.2404  142.2229  157.5477 C   0  0  0  0  0  0  0  0  0  0  0  0
  146.9584  141.7948  156.3493 N   0  0  0  0  0  0  0  0  0  0  0  0
  148.2068  141.2587  156.5855 N   0  0  0  0  0  0  0  0  0  0  0  0
  149.0591  141.0371  155.6335 C   0  0  0  0  0  0  0  0  0  0  0  0
  150.4037  140.4758  155.9634 C   0  0  0  0  0  0  0  0  0  0  0  0
  151.1118  140.1915  154.9895 O   0  0  0  0  0  0  0  0  0  0  0  0
  150.7440  140.3274  157.2783 N   0  5  0  0  0  0  0  0  0  0  0  0
  152.1109  140.2825  157.7982 C   0  0  0  0  0  0  0  0  0  0  0  0
  152.1859  140.9381  159.1975 C   0  0  0  0  0  0  0  0  0  0  0  0
  151.9501  142.4473  159.2270 C   0  0  0  0  0  0  0  0  0  0  0  0
  152.2292  143.1961  160.3933 C   0  0  0  0  0  0  0  0  0  0  0  0
  152.0043  144.5859  160.3738 C   0  0  0  0  0  0  0  0  0  0  0  0
  151.5155  145.1779  159.1937 C   0  0  0  0  0  0  0  0  0  0  0  0
  151.2751  144.3499  158.0796 C   0  0  0  0  0  0  0  0  0  0  0  0
  151.4916  143.0178  158.0859 N   0  0  0  0  0  0  0  0  0  0  0  0
  148.7062  141.3811  154.1968 C   0  0  0  0  0  0  0  0  0  0  0  0
  147.1856  141.3472  153.9456 C   0  0  0  0  0  0  0  0  0  0  0  0
  146.3888  141.9109  155.1248 C   0  0  0  0  0  0  0  0  0  0  0  0
  145.2809  142.4114  154.9296 O   0  0  0  0  0  0  0  0  0  0  0  0
  146.0382  143.2940  157.5103 H   0  0  0  0  0  0  0  0  0  0  0  0
  146.8097  142.0263  158.4577 H   0  0  0  0  0  0  0  0  0  0  0  0
  145.2889  141.6968  157.6360 H   0  0  0  0  0  0  0  0  0  0  0  0
  152.4934  139.2627  157.8602 H   0  0  0  0  0  0  0  0  0  0  0  0
  152.7953  140.8137  157.1355 H   0  0  0  0  0  0  0  0  0  0  0  0
  151.4416  140.4714  159.8434 H   0  0  0  0  0  0  0  0  0  0  0  0
  153.1505  140.7179  159.6578 H   0  0  0  0  0  0  0  0  0  0  0  0
  152.6011  142.7134  161.2851 H   0  0  0  0  0  0  0  0  0  0  0  0
  152.2032  145.1868  161.2486 H   0  0  0  0  0  0  0  0  0  0  0  0
  151.3296  146.2403  159.1432 H   0  0  0  0  0  0  0  0  0  0  0  0
  150.9021  144.7697  157.1571 H   0  0  0  0  0  0  0  0  0  0  0  0
  149.1016  142.3687  153.9576 H   0  0  0  0  0  0  0  0  0  0  0  0
  149.1776  140.6841  153.5031 H   0  0  0  0  0  0  0  0  0  0  0  0
  146.9399  141.8893  153.0319 H   0  0  0  0  0  0  0  0  0  0  0  0
  146.8623  140.3163  153.7964 H   0  0  0  0  0  0  0  0  0  0  0  0
  1  2  1  0  0  0  0
  1 20  1  0  0  0  0
  1 21  1  0  0  0  0
  1 22  1  0  0  0  0
  2 18  1  0  0  0  0
  2  3  1  0  0  0  0
  3  4  2  0  0  0  0
  4  5  1  0  0  0  0
  4 16  1  0  0  0  0
  5  6  2  0  0  0  0
  5  7  1  0  0  0  0
  7  8  1  0  0  0  0
  8  9  1  0  0  0  0
  8 23  1  0  0  0  0
  8 24  1  0  0  0  0
  9 10  1  0  0  0  0
  9 25  1  0  0  0  0
  9 26  1  0  0  0  0
 10 15  1  0  0  0  0
 10 11  2  0  0  0  0
 11 12  1  0  0  0  0
 11 27  1  0  0  0  0
 12 13  2  0  0  0  0
 12 28  1  0  0  0  0
 13 14  1  0  0  0  0
 13 29  1  0  0  0  0
 14 15  2  0  0  0  0
 14 30  1  0  0  0  0
 16 17  1  0  0  0  0
 16 31  1  0  0  0  0
 16 32  1  0  0  0  0
 17 18  1  0  0  0  0
 17 33  1  0  0  0  0
 17 34  1  0  0  0  0
 18 19  2  0  0  0  0
M  CHG  1   7  -1
M  END
> <s_m_source_file>
AV-unprocessed.smi

> <i_m_source_file_index>
2030

> <i_lp_mmshare_version>
43012

> <i_f3d_flags>
0

> <s_epik_input>
Tz1DMVtDSDJdW0NIMl1DKD1OTjFbQ0gzXSlDKD1PKVtOSF1bQ0gyXVtDSDJdYzJbY0hdW2NIXVtjSF1bY0hdbjI=

> <s_epik_cmdline>
J2VwaWtfcHl0aG9uJywgJy1waCcsICc3LjAnLCAnLXRuJywgJzgnLCAnLW1hJywgJzIwMCcsICctbWV0YWxfYmluZGluZycsICctaW1hZScsICc8aW5maWxlLm1hZT4nLCAnLW9tYWUnLCAnPG91dGZpbGUubWFlPic=

> <r_epik_Ionization_Penalty>
5.44594

> <r_epik_Ionization_Penalty_Charging>
5.3715

> <r_epik_Ionization_Penalty_Neutral>
0.0744438

> <r_epik_State_Penalty>
5.38529

> <r_epik_Charging_Adjusted_Penalty>
10.7568

> <i_epik_Tot_Q>
-1

> <i_epik_Tot_abs_Q>
1

> <r_epik_Metal_State_Penalty>
1.42988

> <b_epik_Metal_Only>
1

> <s_epik_Chemistry_Notes>
This compound has an imine and may undergo hydrolysis.

> <s_lp_Force_Field>
OPLS_2005

> <r_lp_Energy>
26.3213

> <b_lp_Chiralities_Consistent>
1

> <s_lp_Variant>
AV-unprocessed.smi:2030-3

> <Gold.Version>
5.8.1

> <Gold.Id.Protein>
6NUR|6NUR_protein|mol2

> <Gold.PLP.Fitness>
44.6868

> <Gold.PLP.PLP>
-39.5304

> <Gold.PLP.part.hbond>
-1.0000

> <Gold.PLP.part.metal>
0.0000

> <Gold.PLP.part.buried>
-5.9895

> <Gold.PLP.part.nonpolar>
-33.4562

> <Gold.PLP.part.repulsive>
0.4192

> <Gold.PLP.ligand.clash>
0.0000

> <Gold.PLP.ligand.torsion>
0.4464

> <Gold.PLP.Chemscore.Hbond>
1.0000

> <Gold.PLP.Chemscore.CHOScore>
0.9995

> <Gold.PLP.Chemscore.Metal>
0.0000

> <Gold.Chemscore.Hbonds>
donor molecule, donor type, donor heavy atom, donor atom, acceptor molecule, acceptor atom, score
      P1  H  7989  7998       L1     6  1.00
      L1  C    14    30       P1  8028  1.00

> <Gold.PLP.Chemscore.Internal.Correction>
0.0507

> <Gold.Rescore>
     Score         DG    S(hbond)    S(metal)    S(lipo)     H(rot)  DE(clash)    DE(int)     intcor
     14.87     -16.52       1.00        0.00      96.84       1.42       0.05       1.60       ----

> <Gold.Chemscore.Fitness>
14.8686

> <Gold.Chemscore.DG>
-16.5160

> <Gold.Chemscore.ZeroCoef>
-5.4800

> <Gold.Chemscore.Hbond>
0.9986

> <Gold.Chemscore.Metal>
0.0000

> <Gold.Chemscore.Lipo>
96.8399

> <Gold.Chemscore.Internal_Hbond>
0.0000

> <Gold.Chemscore.DEClash>
0.0517

> <Gold.Chemscore.DEInternal>
1.5957

> <Gold.Chemscore.Rot>
1.4178

> <Gold.Chemscore.Internal.Correction>
   9.000000E+99

> <Gold.Chemscore.Hbonds>
donor molecule, donor type, donor heavy atom, donor atom, acceptor molecule, acceptor atom, score
      P1  H  7989  7998       L1     6  0.99

> <Gold.Chemscore.Hbond.Weighted>
-3.3352

> <Gold.Chemscore.Metal.Weighted>
-0.0000

> <Gold.Chemscore.Lipo.Weighted>
-11.3303

> <Gold.Chemscore.Internal_Hbond.Weighted>
0.0000

> <Gold.Chemscore.DEClash.Weighted>
0.0517

> <Gold.Chemscore.DEInternal.Weighted>
1.5957

> <Gold.Chemscore.Rot.Weighted>
3.6295

> <Gold.Chemscore.Internal.Correction.Weighted>
   9.000000E+99

> <Gold.Protein.RotatedTorsions>
[ 6907 6896 6895 6894 ] final   28.55 input  -60.11 | X-H torsion
[ 7974 7965 7964 7962 ] final -170.05 input  175.53 | X-H torsion
[ 8008 7997 7996 7995 ] final -156.31 input   59.86 | X-H torsion
[ 10167 10162 10161 10158 ] final  104.76 input  -65.29 | X-H torsion
[ 10718 10713 10712 10709 ] final  -86.43 input   66.30 | X-H torsion
[ 10763 10752 10751 10750 ] final -133.64 input  -60.55 | X-H torsion
[ 11005 11000 10999 10996 ] final  -29.16 input  -57.11 | X-H torsion

> <Gold.Protein.ActiveResidues>
 VAL166  LYS551  ARG553  GLY616  TRP617  ASP618  TYR619  PRO620  LYS621  CYS622 
 ASP623  PHE694  ASN695  SER759  ASP760  ASP761  ALA762  ILE779  LEU786  VAL792 
 PHE793  MET794  SER795  GLU796  ALA797  LYS798  CYS799  TRP800  GLU811  SER814 

> <Gold.Protein.RotatedAtoms>
  152.0186  134.9836  160.0569 H   0  0  0  0  0  0  0  0  0  0  0  0  # atno 6907 bound_to 6896
  152.1360  133.4431  159.4752 H   0  0  0  0  0  0  0  0  0  0  0  0  # atno 6908 bound_to 6896
  150.6860  134.2282  159.4467 H   0  0  0  0  0  0  0  0  0  0  0  0  # atno 6909 bound_to 6896
  144.7176  140.2129  143.6325 H   0  0  0  0  0  0  0  0  0  0  0  0  # atno 7974 bound_to 7965
  155.7152  140.0783  157.2354 H   0  0  0  0  0  0  0  0  0  0  0  0  # atno 8008 bound_to 7997
  154.4053  140.1623  156.2394 H   0  0  0  0  0  0  0  0  0  0  0  0  # atno 8009 bound_to 7997
  155.9247  140.3395  155.6203 H   0  0  0  0  0  0  0  0  0  0  0  0  # atno 8010 bound_to 7997
  139.7150  144.7070  151.0965 H   0  0  0  0  0  0  0  0  0  0  0  0  # atno 10167 bound_to 10162
  155.9990  130.4765  150.4713 H   0  0  0  0  0  0  0  0  0  0  0  0  # atno 10718 bound_to 10713
  154.8730  135.3760  154.4605 H   0  0  0  0  0  0  0  0  0  0  0  0  # atno 10763 bound_to 10752
  153.5274  135.7028  153.5706 H   0  0  0  0  0  0  0  0  0  0  0  0  # atno 10764 bound_to 10752
  153.3926  135.3968  155.1898 H   0  0  0  0  0  0  0  0  0  0  0  0  # atno 10765 bound_to 10752
  140.9272  133.7361  156.0884 H   0  0  0  0  0  0  0  0  0  0  0  0  # atno 11005 bound_to 11000
  145.8574  139.2205  143.1737 LP  0  0  0  0  0  0  0  0  0  0  0  0  # atno 17320 bound_to 7965
  146.0205  140.8352  142.9926 LP  0  0  0  0  0  0  0  0  0  0  0  0  # atno 17321 bound_to 7965
  140.7741  143.5242  150.9500 LP  0  0  0  0  0  0  0  0  0  0  0  0  # atno 17342 bound_to 10162
  139.8928  143.6932  152.3143 LP  0  0  0  0  0  0  0  0  0  0  0  0  # atno 17343 bound_to 10162
  157.2728  131.0590  151.2249 LP  0  0  0  0  0  0  0  0  0  0  0  0  # atno 17370 bound_to 10713
  157.3323  130.6991  149.6332 LP  0  0  0  0  0  0  0  0  0  0  0  0  # atno 17371 bound_to 10713
  140.7910  134.3617  157.5464 LP  0  0  0  0  0  0  0  0  0  0  0  0  # atno 17394 bound_to 11000
  139.8788  134.9140  156.3098 LP  0  0  0  0  0  0  0  0  0  0  0  0  # atno 17395 bound_to 11000

$$$$
