#       Name:                AV-unprocessed.smi:1373
#       Creating user name   scv26
#       Creation time:       Fri Mar 27 05:18:35 2020


#       File generated by GOLD software.
#

@<TRIPOS>MOLECULE
AV-unprocessed.smi:1373
    51    52     1
SMALL
NO_CHARGES


@<TRIPOS>ATOM
      1 ****        -4.4707   4.1741  -2.0437 C.3            1 S1                 0.0000
      2 ****        -3.9849   2.7660  -1.6827 C.3            1 S1                 0.0000
      3 ****        -2.4783   2.5852  -1.9138 C.3            1 S1                 0.0000
      4 ****        -1.9921   1.1752  -1.5433 C.3            1 S1                 0.0000
      5 ****        -0.5579   1.0323  -1.7618 N.am           1 S1                 0.0000
      6 ****         0.0200   0.7144  -2.9320 C.2            1 S1                 0.0000
      7 ****        -0.6158   0.5191  -3.9678 O.2            1 S1                 0.0000
      8 ****         1.5491   0.6196  -2.9469 C.3            1 S1                 0.0000
      9 ****         2.0407  -0.3931  -1.9608 C.2            1 S1                 0.0000
     10 ****         2.1521  -1.6770  -2.2828 N.2            1 S1                 0.0000
     11 ****         2.6028  -2.2713  -1.0952 O.3            1 S1                 0.0000
     12 ****         2.7151  -1.2631  -0.1977 C.2            1 S1                 0.0000
     13 ****         3.1479  -1.5790   1.1972 C.3            1 S1                 0.0000
     14 ****         2.1003  -2.1992   2.0066 N.3            1 S1                 0.0000
     15 ****         2.6245  -2.6479   3.2913 C.3            1 S1                 0.0000
     16 ****         1.5358  -3.3065   4.1561 C.3            1 S1                 0.0000
     17 ****         0.4571  -2.3951   4.3403 O.3            1 S1                 0.0000
     18 ****        -0.1155  -1.9661   3.1091 C.3            1 S1                 0.0000
     19 ****         0.9669  -1.3050   2.2382 C.3            1 S1                 0.0000
     20 ****         2.3918  -0.0683  -0.6852 N.2            1 S1                 0.0000
     21 ****        -5.5437   4.2703  -1.8755 H              1 S1                 0.0000
     22 ****        -4.2771   4.4007  -3.0926 H              1 S1                 0.0000
     23 ****        -3.9699   4.9305  -1.4387 H              1 S1                 0.0000
     24 ****        -4.2234   2.5609  -0.6385 H              1 S1                 0.0000
     25 ****        -4.5350   2.0336  -2.2746 H              1 S1                 0.0000
     26 ****        -2.2482   2.7894  -2.9604 H              1 S1                 0.0000
     27 ****        -1.9299   3.3235  -1.3273 H              1 S1                 0.0000
     28 ****        -2.1940   0.9773  -0.4901 H              1 S1                 0.0000
     29 ****        -2.5381   0.4193  -2.1106 H              1 S1                 0.0000
     30 ****         0.0416   1.1794  -0.9623 H              1 S1                 0.0000
     31 ****         1.8948   0.3543  -3.9472 H              1 S1                 0.0000
     32 ****         1.9732   1.5970  -2.7135 H              1 S1                 0.0000
     33 ****         4.0060  -2.2489   1.1313 H              1 S1                 0.0000
     34 ****         3.5031  -0.6639   1.6737 H              1 S1                 0.0000
     35 ****         3.4368  -3.3577   3.1322 H              1 S1                 0.0000
     36 ****         3.0510  -1.8020   3.8331 H              1 S1                 0.0000
     37 ****         1.1719  -4.2223   3.6875 H              1 S1                 0.0000
     38 ****         1.9402  -3.5829   5.1299 H              1 S1                 0.0000
     39 ****        -0.5610  -2.8168   2.5909 H              1 S1                 0.0000
     40 ****        -0.9194  -1.2595   3.3154 H              1 S1                 0.0000
     41 ****         1.3107  -0.3895   2.7222 H              1 S1                 0.0000
     42 ****         0.5195  -1.0072   1.2897 H              1 S1                 0.0000
     43 ****        -1.6129   0.5948  -3.9642 LP             1 S1                 0.0000
     44 ****        -0.1351   0.2848  -4.8128 LP             1 S1                 0.0000
     45 ****         1.9606  -2.1147  -3.1613 LP             1 S1                 0.0000
     46 ****         3.4901  -2.7092  -1.2398 LP             1 S1                 0.0000
     47 ****         1.9438  -2.9515  -0.7742 LP             1 S1                 0.0000
     48 ****         1.7753  -2.9859   1.4818 LP             1 S1                 0.0000
     49 ****         0.7962  -1.5932   4.8322 LP             1 S1                 0.0000
     50 ****        -0.2520  -2.8442   4.8838 LP             1 S1                 0.0000
     51 ****         2.4034   0.8256  -0.2370 LP             1 S1                 0.0000
@<TRIPOS>BOND
    1    1    2 1     
    2    1   21 1     
    3    1   22 1     
    4    1   23 1     
    5    2    3 1     
    6    2   24 1     
    7    2   25 1     
    8    3    4 1     
    9    3   26 1     
   10    3   27 1     
   11    4    5 1     
   12    4   28 1     
   13    4   29 1     
   14    5    6 am    
   15    5   30 1     
   16    6    7 2     
   17    6    8 1     
   18    8    9 1     
   19    8   31 1     
   20    8   32 1     
   21    9   20 1     
   22    9   10 2     
   23   10   11 1     
   24   11   12 1     
   25   12   13 1     
   26   12   20 2     
   27   13   14 1     
   28   13   33 1     
   29   13   34 1     
   30   14   19 1     
   31   14   15 1     
   32   15   16 1     
   33   15   35 1     
   34   15   36 1     
   35   16   17 1     
   36   16   37 1     
   37   16   38 1     
   38   17   18 1     
   39   18   19 1     
   40   18   39 1     
   41   18   40 1     
   42   19   41 1     
   43   19   42 1     
   44    7   43 1     
   45    7   44 1     
   46   10   45 1     
   47   11   46 1     
   48   11   47 1     
   49   14   48 1     
   50   17   49 1     
   51   17   50 1     
   52   20   51 1     
@<TRIPOS>SUBSTRUCTURE
      1 S1             1
@<TRIPOS>SET
LONE_PAIRS      STATIC     ATOMS    <user>   **** ""
9 43 44 45 46 47 48 49 50 51
DONOR_HYDROGENS      STATIC     ATOMS    <user>   **** ""
1 30
ATOM$BLUE        STATIC     ATOMS    COLORGROUP SYSTEM
9 43 44 45 46 47 48 49 50 51
ATOM$RED        STATIC     ATOMS    COLORGROUP SYSTEM
1 30
