AV-unprocessed.smi:1219|AV-procd|sdf|5113|dock6
  -GOLD-   22720 4173D 1   1.00000     0.00000
 Structure written by MMmdl.
 43 44  0  0  0  0  0  0  0  0  2 V2000
  150.7608  140.1886  155.2165 O   0  0  0  0  0  0  0  0  0  0  0  0
  149.9606  141.1222  155.2767 C   0  0  0  0  0  0  0  0  0  0  0  0
  148.9590  141.2937  154.4014 N   0  0  0  0  0  0  0  0  0  0  0  0
  148.6683  140.4204  153.2674 C   0  0  0  0  0  0  0  0  0  0  0  0
  147.2723  139.7654  153.3490 C   0  0  1  0  0  0  0  0  0  0  0  0
  146.3552  140.7506  153.7795 O   0  0  0  0  0  0  0  0  0  0  0  0
  146.7782  139.1897  152.0039 C   0  0  0  0  0  0  0  0  0  0  0  0
  146.4366  137.7481  152.1071 N   0  3  0  0  0  0  0  0  0  0  0  0
  145.5064  137.4623  153.2300 C   0  0  0  0  0  0  0  0  0  0  0  0
  145.2890  135.9487  153.3989 C   0  0  0  0  0  0  0  0  0  0  0  0
  144.7851  135.3143  152.0959 C   0  0  0  0  0  0  0  0  0  0  0  0
  145.7397  135.6542  150.9438 C   0  0  0  0  0  0  0  0  0  0  0  0
  145.9402  137.1741  150.8269 C   0  0  0  0  0  0  0  0  0  0  0  0
  149.9684  142.0951  156.2044 N   0  0  0  0  0  0  0  0  0  0  0  0
  150.9045  142.2992  157.2528 C   0  0  0  0  0  0  0  0  0  0  0  0
  151.1354  143.6508  157.5949 C   0  0  0  0  0  0  0  0  0  0  0  0
  152.0524  143.9597  158.6183 C   0  0  0  0  0  0  0  0  0  0  0  0
  152.7170  142.9073  159.2728 C   0  0  0  0  0  0  0  0  0  0  0  0
  152.4303  141.5898  158.8707 C   0  0  0  0  0  0  0  0  0  0  0  0
  151.5521  141.2917  157.8898 N   0  0  0  0  0  0  0  0  0  0  0  0
  148.3442  142.0833  154.5345 H   0  0  0  0  0  0  0  0  0  0  0  0
  148.7648  140.9931  152.3433 H   0  0  0  0  0  0  0  0  0  0  0  0
  149.4407  139.6511  153.2355 H   0  0  0  0  0  0  0  0  0  0  0  0
  147.2921  138.9897  154.1131 H   0  0  0  0  0  0  0  0  0  0  0  0
  145.5336  140.6181  153.3309 H   0  0  0  0  0  0  0  0  0  0  0  0
  145.9099  139.7643  151.6767 H   0  0  0  0  0  0  0  0  0  0  0  0
  147.5278  139.3111  151.2209 H   0  0  0  0  0  0  0  0  0  0  0  0
  145.9126  137.8686  154.1573 H   0  0  0  0  0  0  0  0  0  0  0  0
  144.5539  137.9646  153.0527 H   0  0  0  0  0  0  0  0  0  0  0  0
  146.2255  135.4759  153.6978 H   0  0  0  0  0  0  0  0  0  0  0  0
  144.5775  135.7612  154.2037 H   0  0  0  0  0  0  0  0  0  0  0  0
  144.7009  134.2330  152.2097 H   0  0  0  0  0  0  0  0  0  0  0  0
  143.7847  135.6840  151.8672 H   0  0  0  0  0  0  0  0  0  0  0  0
  146.7029  135.1692  151.1086 H   0  0  0  0  0  0  0  0  0  0  0  0
  145.3492  135.2563  150.0066 H   0  0  0  0  0  0  0  0  0  0  0  0
  144.9991  137.6538  150.5528 H   0  0  0  0  0  0  0  0  0  0  0  0
  146.6409  137.3783  150.0180 H   0  0  0  0  0  0  0  0  0  0  0  0
  149.2292  142.7798  156.1448 H   0  0  0  0  0  0  0  0  0  0  0  0
  150.6166  144.4475  157.0816 H   0  0  0  0  0  0  0  0  0  0  0  0
  152.2426  144.9861  158.8948 H   0  0  0  0  0  0  0  0  0  0  0  0
  153.4276  143.1043  160.0619 H   0  0  0  0  0  0  0  0  0  0  0  0
  152.9191  140.7530  159.3471 H   0  0  0  0  0  0  0  0  0  0  0  0
  147.2993  137.2717  152.3304 H   0  0  0  0  0  0  0  0  0  0  0  0
  1  2  2  0  0  0  0
  2  3  1  0  0  0  0
  2 14  1  0  0  0  0
  3  4  1  0  0  0  0
  3 21  1  0  0  0  0
  4  5  1  0  0  0  0
  4 22  1  0  0  0  0
  4 23  1  0  0  0  0
  5  6  1  0  0  0  0
  5  7  1  0  0  0  0
  5 24  1  0  0  0  0
  6 25  1  0  0  0  0
  7  8  1  0  0  0  0
  7 26  1  0  0  0  0
  7 27  1  0  0  0  0
  8 13  1  0  0  0  0
  8  9  1  0  0  0  0
  8 43  1  0  0  0  0
  9 10  1  0  0  0  0
  9 28  1  0  0  0  0
  9 29  1  0  0  0  0
 10 11  1  0  0  0  0
 10 30  1  0  0  0  0
 10 31  1  0  0  0  0
 11 12  1  0  0  0  0
 11 32  1  0  0  0  0
 11 33  1  0  0  0  0
 12 13  1  0  0  0  0
 12 34  1  0  0  0  0
 12 35  1  0  0  0  0
 13 36  1  0  0  0  0
 13 37  1  0  0  0  0
 14 15  1  0  0  0  0
 14 38  1  0  0  0  0
 15 20  1  0  0  0  0
 15 16  2  0  0  0  0
 16 17  1  0  0  0  0
 16 39  1  0  0  0  0
 17 18  2  0  0  0  0
 17 40  1  0  0  0  0
 18 19  1  0  0  0  0
 18 41  1  0  0  0  0
 19 20  2  0  0  0  0
 19 42  1  0  0  0  0
M  CHG  1   8   1
M  END
> <s_m_source_file>
AV-unprocessed.smi

> <i_m_source_file_index>
1219

> <i_lp_mmshare_version>
43012

> <i_f3d_flags>
0

> <s_epik_input>
bjFbY0hdW2NIXVtjSF1bY0hdYzFbTkhdQyg9TylbTkhdW0NIMl1bQ0BIXShbT0hdKVtDSDJdTjJbQ0gyXVtDSDJdW0NIMl1bQ0gyXVtDSDJdMg==

> <s_epik_cmdline>
J2VwaWtfcHl0aG9uJywgJy1waCcsICc3LjAnLCAnLXRuJywgJzgnLCAnLW1hJywgJzIwMCcsICctbWV0YWxfYmluZGluZycsICctaW1hZScsICc8aW5maWxlLm1hZT4nLCAnLW9tYWUnLCAnPG91dGZpbGUubWFlPic=

> <r_epik_Ionization_Penalty>
0.00510026

> <r_epik_Ionization_Penalty_Charging>
0.00506051

> <r_epik_Ionization_Penalty_Neutral>
3.97538e-05

> <r_epik_State_Penalty>
0.00368188

> <r_epik_Charging_Adjusted_Penalty>
0.0087424

> <i_epik_Tot_Q>
1

> <i_epik_Tot_abs_Q>
1

> <r_epik_Metal_State_Penalty>
-0

> <b_epik_Metal_Only>
0

> <s_lp_Force_Field>
OPLS_2005

> <r_lp_Energy>
19.3775

> <b_lp_Chiralities_Consistent>
1

> <s_lp_Variant>
AV-unprocessed.smi:1219-2

> <Gold.Version>
5.8.1

> <Gold.Id.Protein>
6NUR|6NUR_protein|mol2

> <Gold.PLP.Fitness>
46.6203

> <Gold.PLP.PLP>
-34.9017

> <Gold.PLP.part.hbond>
-4.0000

> <Gold.PLP.part.metal>
0.0000

> <Gold.PLP.part.buried>
6.9480

> <Gold.PLP.part.nonpolar>
-38.2362

> <Gold.PLP.part.repulsive>
0.4410

> <Gold.PLP.ligand.clash>
0.0000

> <Gold.PLP.ligand.torsion>
1.1218

> <Gold.PLP.Chemscore.Hbond>
4.6373

> <Gold.PLP.Chemscore.CHOScore>
0.0000

> <Gold.PLP.Chemscore.Metal>
0.0000

> <Gold.Chemscore.Hbonds>
donor molecule, donor type, donor heavy atom, donor atom, acceptor molecule, acceptor atom, score
      L1  H     6    25       P1 10175  0.98
      L1  H     8    43       P1  7948  2.00
      L1  H    14    38       P1  8028  0.85
      P1  H  7989  7998       L1     1  0.68

> <Gold.PLP.Chemscore.Internal.Correction>
0.0504

> <Gold.Rescore>
     Score         DG    S(hbond)    S(metal)    S(lipo)     H(rot)  DE(clash)    DE(int)     intcor
     14.28     -19.34       2.72        0.00      93.42       2.41       2.83       2.24       ----

> <Gold.Chemscore.Fitness>
14.2750

> <Gold.Chemscore.DG>
-19.3389

> <Gold.Chemscore.ZeroCoef>
-5.4800

> <Gold.Chemscore.Hbond>
2.7217

> <Gold.Chemscore.Metal>
0.0000

> <Gold.Chemscore.Lipo>
93.4174

> <Gold.Chemscore.Internal_Hbond>
0.0000

> <Gold.Chemscore.DEClash>
2.8271

> <Gold.Chemscore.DEInternal>
2.2368

> <Gold.Chemscore.Rot>
2.4067

> <Gold.Chemscore.Internal.Correction>
   9.000000E+99

> <Gold.Chemscore.Hbonds>
donor molecule, donor type, donor heavy atom, donor atom, acceptor molecule, acceptor atom, score
      L1  H     6    25       P1 10175  0.84
      L1  H     8    43       P1  7948  0.93
      L1  H    14    38       P1  8028  0.78
      P1  H  7989  7998       L1     1  0.07

> <Gold.Chemscore.Hbond.Weighted>
-9.0903

> <Gold.Chemscore.Metal.Weighted>
-0.0000

> <Gold.Chemscore.Lipo.Weighted>
-10.9298

> <Gold.Chemscore.Internal_Hbond.Weighted>
0.0000

> <Gold.Chemscore.DEClash.Weighted>
2.8271

> <Gold.Chemscore.DEInternal.Weighted>
2.2368

> <Gold.Chemscore.Rot.Weighted>
6.1612

> <Gold.Chemscore.Internal.Correction.Weighted>
   9.000000E+99

> <Gold.Protein.RotatedTorsions>
[ 6907 6896 6895 6894 ] final   40.55 input  -60.11 | X-H torsion
[ 7974 7965 7964 7962 ] final  106.86 input  175.53 | X-H torsion
[ 8008 7997 7996 7995 ] final   51.47 input   59.86 | X-H torsion
[ 10167 10162 10161 10158 ] final  -97.96 input  -65.29 | X-H torsion
[ 10718 10713 10712 10709 ] final  -66.39 input   66.30 | X-H torsion
[ 10763 10752 10751 10750 ] final   88.48 input  -60.55 | X-H torsion
[ 11005 11000 10999 10996 ] final    7.05 input  -57.11 | X-H torsion

> <Gold.Protein.ActiveResidues>
 VAL166  LYS551  ARG553  GLY616  TRP617  ASP618  TYR619  PRO620  LYS621  CYS622 
 ASP623  PHE694  ASN695  SER759  ASP760  ASP761  ALA762  ILE779  LEU786  VAL792 
 PHE793  MET794  SER795  GLU796  ALA797  LYS798  CYS799  TRP800  GLU811  SER814 

> <Gold.Protein.RotatedAtoms>
  152.1839  134.8730  160.0523 H   0  0  0  0  0  0  0  0  0  0  0  0  # atno 6907 bound_to 6896
  151.9644  133.3700  159.4055 H   0  0  0  0  0  0  0  0  0  0  0  0  # atno 6908 bound_to 6896
  150.6922  134.4130  159.5214 H   0  0  0  0  0  0  0  0  0  0  0  0  # atno 6909 bound_to 6896
  145.3011  139.2569  143.3813 H   0  0  0  0  0  0  0  0  0  0  0  0  # atno 7974 bound_to 7965
  155.4358  140.3452  155.4285 H   0  0  0  0  0  0  0  0  0  0  0  0  # atno 8008 bound_to 7997
  156.1309  140.1514  156.9098 H   0  0  0  0  0  0  0  0  0  0  0  0  # atno 8009 bound_to 7997
  154.4894  140.0846  156.7539 H   0  0  0  0  0  0  0  0  0  0  0  0  # atno 8010 bound_to 7997
  140.2779  143.3301  152.0470 H   0  0  0  0  0  0  0  0  0  0  0  0  # atno 10167 bound_to 10162
  156.0615  130.4261  150.1701 H   0  0  0  0  0  0  0  0  0  0  0  0  # atno 10718 bound_to 10713
  153.1773  135.4505  154.9981 H   0  0  0  0  0  0  0  0  0  0  0  0  # atno 10763 bound_to 10752
  154.8006  135.3254  154.7561 H   0  0  0  0  0  0  0  0  0  0  0  0  # atno 10764 bound_to 10752
  153.8030  135.6961  153.4907 H   0  0  0  0  0  0  0  0  0  0  0  0  # atno 10765 bound_to 10752
  140.5526  134.0269  155.7942 H   0  0  0  0  0  0  0  0  0  0  0  0  # atno 11005 bound_to 11000
  146.3152  140.3525  142.8657 LP  0  0  0  0  0  0  0  0  0  0  0  0  # atno 17320 bound_to 7965
  144.9093  140.7738  143.5818 LP  0  0  0  0  0  0  0  0  0  0  0  0  # atno 17321 bound_to 7965
  139.4970  144.6612  151.6461 LP  0  0  0  0  0  0  0  0  0  0  0  0  # atno 17342 bound_to 10162
  140.5836  143.9903  150.6282 LP  0  0  0  0  0  0  0  0  0  0  0  0  # atno 17343 bound_to 10162
  156.9769  130.9852  151.3446 LP  0  0  0  0  0  0  0  0  0  0  0  0  # atno 17370 bound_to 10713
  157.5627  130.8257  149.8287 LP  0  0  0  0  0  0  0  0  0  0  0  0  # atno 17371 bound_to 10713
  141.1163  133.9535  157.2816 LP  0  0  0  0  0  0  0  0  0  0  0  0  # atno 17394 bound_to 11000
  139.9448  135.0186  156.8818 LP  0  0  0  0  0  0  0  0  0  0  0  0  # atno 17395 bound_to 11000

$$$$
