AV-unprocessed.smi:1286|AV-procd|sdf|5378|dock9
  -GOLD-   22720 4523D 1   1.00000     0.00000
 Structure written by MMmdl.
 36 37  0  0  0  0  0  0  0  0  1 V2000
  153.7903  139.9088  160.1071 C   0  0  0  0  0  0  0  0  0  0  0  0
  152.8043  141.0683  159.8742 C   0  0  1  0  0  0  0  0  0  0  0  0
  153.3706  142.4434  160.2803 C   0  0  0  0  0  0  0  0  0  0  0  0
  152.4520  143.5337  160.0051 N   0  0  0  0  0  0  0  0  0  0  0  0
  151.8025  144.3516  160.9053 C   0  0  0  0  0  0  0  0  0  0  0  0
  151.0463  145.2300  160.1835 C   0  0  0  0  0  0  0  0  0  0  0  0
  151.2991  144.8627  158.8322 C   0  0  0  0  0  0  0  0  0  0  0  0
  152.1392  143.8457  158.7286 N   0  0  0  0  0  0  0  0  0  0  0  0
  152.4076  141.1136  158.4697 N   0  0  0  0  0  0  0  0  0  0  0  0
  151.8453  140.1062  157.7843 C   0  0  0  0  0  0  0  0  0  0  0  0
  151.6041  139.0039  158.2763 O   0  0  0  0  0  0  0  0  0  0  0  0
  151.5099  140.3863  156.3151 C   0  0  0  0  0  0  0  0  0  0  0  0
  150.0648  140.0084  155.9222 C   0  0  1  0  0  0  0  0  0  0  0  0
  149.0203  140.9564  156.4611 C   0  0  0  0  0  0  0  0  0  0  0  0
  148.2227  141.4377  155.5106 C   0  0  0  0  0  0  0  0  0  0  0  0
  148.5724  140.9140  154.1456 C   0  0  0  0  0  0  0  0  0  0  0  0
  149.8235  140.0411  154.3911 C   0  0  0  0  0  0  0  0  0  0  0  0
  154.0462  139.8074  161.1621 H   0  0  0  0  0  0  0  0  0  0  0  0
  154.7171  140.0608  159.5529 H   0  0  0  0  0  0  0  0  0  0  0  0
  153.3640  138.9572  159.7883 H   0  0  0  0  0  0  0  0  0  0  0  0
  151.9171  140.8851  160.4834 H   0  0  0  0  0  0  0  0  0  0  0  0
  153.6213  142.4514  161.3425 H   0  0  0  0  0  0  0  0  0  0  0  0
  154.2979  142.6413  159.7410 H   0  0  0  0  0  0  0  0  0  0  0  0
  151.9344  144.2430  161.9719 H   0  0  0  0  0  0  0  0  0  0  0  0
  150.4096  146.0151  160.5629 H   0  0  0  0  0  0  0  0  0  0  0  0
  150.8996  145.3013  157.9298 H   0  0  0  0  0  0  0  0  0  0  0  0
  152.5715  141.9815  157.9804 H   0  0  0  0  0  0  0  0  0  0  0  0
  151.6846  141.4414  156.0971 H   0  0  0  0  0  0  0  0  0  0  0  0
  152.2133  139.8253  155.6989 H   0  0  0  0  0  0  0  0  0  0  0  0
  149.8291  139.0126  156.3011 H   0  0  0  0  0  0  0  0  0  0  0  0
  148.9380  141.1889  157.5128 H   0  0  0  0  0  0  0  0  0  0  0  0
  147.4010  142.1193  155.6731 H   0  0  0  0  0  0  0  0  0  0  0  0
  147.7428  140.3287  153.7481 H   0  0  0  0  0  0  0  0  0  0  0  0
  148.7792  141.7370  153.4607 H   0  0  0  0  0  0  0  0  0  0  0  0
  150.6796  140.4719  153.8698 H   0  0  0  0  0  0  0  0  0  0  0  0
  149.6853  139.0347  153.9944 H   0  0  0  0  0  0  0  0  0  0  0  0
  1  2  1  0  0  0  0
  1 18  1  0  0  0  0
  1 19  1  0  0  0  0
  1 20  1  0  0  0  0
  2  3  1  0  0  0  0
  2  9  1  0  0  0  0
  2 21  1  0  0  0  0
  3  4  1  0  0  0  0
  3 22  1  0  0  0  0
  3 23  1  0  0  0  0
  4  8  1  0  0  0  0
  4  5  1  0  0  0  0
  5  6  2  0  0  0  0
  5 24  1  0  0  0  0
  6  7  1  0  0  0  0
  6 25  1  0  0  0  0
  7  8  2  0  0  0  0
  7 26  1  0  0  0  0
  9 10  1  0  0  0  0
  9 27  1  0  0  0  0
 10 11  2  0  0  0  0
 10 12  1  0  0  0  0
 12 13  1  0  0  0  0
 12 28  1  0  0  0  0
 12 29  1  0  0  0  0
 13 17  1  0  0  0  0
 13 14  1  0  0  0  0
 13 30  1  0  0  0  0
 14 15  2  0  0  0  0
 14 31  1  0  0  0  0
 15 16  1  0  0  0  0
 15 32  1  0  0  0  0
 16 17  1  0  0  0  0
 16 33  1  0  0  0  0
 16 34  1  0  0  0  0
 17 35  1  0  0  0  0
 17 36  1  0  0  0  0
M  END
> <s_m_source_file>
AV-unprocessed.smi

> <i_m_source_file_index>
1286

> <i_lp_mmshare_version>
43012

> <i_f3d_flags>
0

> <s_epik_input>
bjFbY0hdW2NIXVtjSF1uMVtDSDJdW0NAQEhdKFtDSDNdKVtOSF1DKD1PKVtDSDJdW0NAQEhdMltDSF09W0NIXVtDSDJdW0NIMl0y

> <s_epik_cmdline>
J2VwaWtfcHl0aG9uJywgJy1waCcsICc3LjAnLCAnLXRuJywgJzgnLCAnLW1hJywgJzIwMCcsICctbWV0YWxfYmluZGluZycsICctaW1hZScsICc8aW5maWxlLm1hZT4nLCAnLW9tYWUnLCAnPG91dGZpbGUubWFlPic=

> <r_lp_tautomer_probability>
1

> <r_epik_Ionization_Penalty>
0.000301761

> <r_epik_Ionization_Penalty_Charging>
0

> <r_epik_Ionization_Penalty_Neutral>
0.000301761

> <r_epik_State_Penalty>
-0

> <r_epik_Charging_Adjusted_Penalty>
0

> <i_epik_Tot_Q>
0

> <i_epik_Tot_abs_Q>
0

> <r_epik_Metal_State_Penalty>
-0

> <b_epik_Metal_Only>
0

> <s_lp_Force_Field>
OPLS_2005

> <r_lp_Energy>
16.9784

> <b_lp_Chiralities_Consistent>
1

> <s_lp_Variant>
AV-unprocessed.smi:1286-4

> <Gold.Version>
5.8.1

> <Gold.Id.Protein>
6NUR|6NUR_protein|mol2

> <Gold.PLP.Fitness>
39.3572

> <Gold.PLP.PLP>
-39.7642

> <Gold.PLP.part.hbond>
0.0000

> <Gold.PLP.part.metal>
0.0000

> <Gold.PLP.part.buried>
-2.7979

> <Gold.PLP.part.nonpolar>
-36.0731

> <Gold.PLP.part.repulsive>
0.1075

> <Gold.PLP.ligand.clash>
0.0000

> <Gold.PLP.ligand.torsion>
0.2223

> <Gold.PLP.Chemscore.Hbond>
0.0000

> <Gold.PLP.Chemscore.CHOScore>
0.0000

> <Gold.PLP.Chemscore.Metal>
0.0000

> <Gold.PLP.Chemscore.Internal.Correction>
0.0376

> <Gold.Rescore>
     Score         DG    S(hbond)    S(metal)    S(lipo)     H(rot)  DE(clash)    DE(int)     intcor
     12.72     -13.13       0.00        0.00     101.25       1.64       0.14       0.27       ----

> <Gold.Chemscore.Fitness>
12.7221

> <Gold.Chemscore.DG>
-13.1296

> <Gold.Chemscore.ZeroCoef>
-5.4800

> <Gold.Chemscore.Hbond>
0.0000

> <Gold.Chemscore.Metal>
0.0000

> <Gold.Chemscore.Lipo>
101.2525

> <Gold.Chemscore.Internal_Hbond>
0.0000

> <Gold.Chemscore.DEClash>
0.1359

> <Gold.Chemscore.DEInternal>
0.2716

> <Gold.Chemscore.Rot>
1.6394

> <Gold.Chemscore.Internal.Correction>
   9.000000E+99

> <Gold.Chemscore.Hbond.Weighted>
-0.0000

> <Gold.Chemscore.Metal.Weighted>
-0.0000

> <Gold.Chemscore.Lipo.Weighted>
-11.8465

> <Gold.Chemscore.Internal_Hbond.Weighted>
0.0000

> <Gold.Chemscore.DEClash.Weighted>
0.1359

> <Gold.Chemscore.DEInternal.Weighted>
0.2716

> <Gold.Chemscore.Rot.Weighted>
4.1969

> <Gold.Chemscore.Internal.Correction.Weighted>
   9.000000E+99

> <Gold.Protein.RotatedTorsions>
[ 6907 6896 6895 6894 ] final -123.05 input  -60.11 | X-H torsion
[ 7974 7965 7964 7962 ] final   96.92 input  175.53 | X-H torsion
[ 8008 7997 7996 7995 ] final -111.92 input   59.86 | X-H torsion
[ 10167 10162 10161 10158 ] final  -60.99 input  -65.29 | X-H torsion
[ 10718 10713 10712 10709 ] final   15.67 input   66.30 | X-H torsion
[ 10763 10752 10751 10750 ] final   96.15 input  -60.55 | X-H torsion
[ 11005 11000 10999 10996 ] final  -67.22 input  -57.11 | X-H torsion

> <Gold.Protein.ActiveResidues>
 VAL166  LYS551  ARG553  GLY616  TRP617  ASP618  TYR619  PRO620  LYS621  CYS622 
 ASP623  PHE694  ASN695  SER759  ASP760  ASP761  ALA762  ILE779  LEU786  VAL792 
 PHE793  MET794  SER795  GLU796  ALA797  LYS798  CYS799  TRP800  GLU811  SER814 

> <Gold.Protein.RotatedAtoms>
  150.8634  133.7610  159.2984 H   0  0  0  0  0  0  0  0  0  0  0  0  # atno 6907 bound_to 6896
  151.5245  135.1066  159.9896 H   0  0  0  0  0  0  0  0  0  0  0  0  # atno 6908 bound_to 6896
  152.4643  133.7844  159.6924 H   0  0  0  0  0  0  0  0  0  0  0  0  # atno 6909 bound_to 6896
  145.4324  139.2309  143.3137 H   0  0  0  0  0  0  0  0  0  0  0  0  # atno 7974 bound_to 7965
  154.9973  140.0394  157.2345 H   0  0  0  0  0  0  0  0  0  0  0  0  # atno 8008 bound_to 7997
  154.7575  140.2778  155.6219 H   0  0  0  0  0  0  0  0  0  0  0  0  # atno 8009 bound_to 7997
  156.2897  140.2635  156.2345 H   0  0  0  0  0  0  0  0  0  0  0  0  # atno 8010 bound_to 7997
  140.6035  143.2367  151.5875 H   0  0  0  0  0  0  0  0  0  0  0  0  # atno 10167 bound_to 10162
  157.0568  130.6292  149.5778 H   0  0  0  0  0  0  0  0  0  0  0  0  # atno 10718 bound_to 10713
  153.2615  135.4229  155.0899 H   0  0  0  0  0  0  0  0  0  0  0  0  # atno 10763 bound_to 10752
  154.8422  135.3450  154.6370 H   0  0  0  0  0  0  0  0  0  0  0  0  # atno 10764 bound_to 10752
  153.6790  135.7040  153.5181 H   0  0  0  0  0  0  0  0  0  0  0  0  # atno 10765 bound_to 10752
  141.1502  133.6715  156.6259 H   0  0  0  0  0  0  0  0  0  0  0  0  # atno 11005 bound_to 11000
  146.2600  140.5062  142.8857 LP  0  0  0  0  0  0  0  0  0  0  0  0  # atno 17320 bound_to 7965
  144.8174  140.6492  143.6375 LP  0  0  0  0  0  0  0  0  0  0  0  0  # atno 17321 bound_to 7965
  139.5308  144.2922  152.1142 LP  0  0  0  0  0  0  0  0  0  0  0  0  # atno 17342 bound_to 10162
  140.2108  144.4565  150.6387 LP  0  0  0  0  0  0  0  0  0  0  0  0  # atno 17343 bound_to 10162
  155.9990  130.5066  150.7593 LP  0  0  0  0  0  0  0  0  0  0  0  0  # atno 17370 bound_to 10713
  157.4986  131.0917  151.0341 LP  0  0  0  0  0  0  0  0  0  0  0  0  # atno 17371 bound_to 10713
  140.3504  134.7773  157.4463 LP  0  0  0  0  0  0  0  0  0  0  0  0  # atno 17394 bound_to 11000
  140.0865  134.5659  155.8487 LP  0  0  0  0  0  0  0  0  0  0  0  0  # atno 17395 bound_to 11000

$$$$
