AV-unprocessed.smi:261|AV-procd|sdf|1990|dock1
  -GOLD-   2262021173D 1   1.00000     0.00000
 Structure written by MMmdl.
 51 54  0  0  0  0  0  0  0  0  1 V2000
  147.1437  133.5623  153.5759 C   0  0  0  0  0  0  0  0  0  0  0  0
  146.2895  134.4576  152.8826 O   0  0  0  0  0  0  0  0  0  0  0  0
  145.5646  135.3400  153.7309 C   0  0  2  0  0  0  0  0  0  0  0  0
  144.6021  136.2405  152.9447 C   0  0  0  0  0  0  0  0  0  0  0  0
  145.4701  137.4039  152.4380 C   0  0  2  0  0  0  0  0  0  0  0  0
  146.0358  137.1190  151.0301 C   0  0  0  0  0  0  0  0  0  0  0  0
  145.6371  136.0180  150.3840 N   0  0  0  0  0  0  0  0  0  0  0  0
  146.8470  137.8965  150.5325 O   0  0  0  0  0  0  0  0  0  0  0  0
  146.4882  137.5296  153.4822 N   0  0  0  0  0  0  0  0  0  0  0  0
  147.2239  138.6482  153.7343 C   0  0  0  0  0  0  0  0  0  0  0  0
  146.8044  139.8187  153.1838 N   0  0  0  0  0  0  0  0  0  0  0  0
  147.4760  140.9538  153.3924 C   0  0  0  0  0  0  0  0  0  0  0  0
  148.5808  141.1472  154.1119 N   0  0  0  0  0  0  0  0  0  0  0  0
  149.0128  139.9821  154.6713 C   0  0  0  0  0  0  0  0  0  0  0  0
  148.4041  138.6992  154.5384 C   0  0  0  0  0  0  0  0  0  0  0  0
  149.1417  137.7661  155.2607 N   0  0  0  0  0  0  0  0  0  0  0  0
  150.1210  138.4506  155.7828 C   0  0  0  0  0  0  0  0  0  0  0  0
  150.1235  139.7899  155.4730 N   0  0  0  0  0  0  0  0  0  0  0  0
  151.0933  140.7807  155.9024 C   0  0  0  0  0  0  0  0  0  0  0  0
  151.3036  140.8003  157.4315 C   0  0  1  0  0  0  0  0  0  0  0  0
  152.3079  139.8510  157.7285 O   0  0  0  0  0  0  0  0  0  0  0  0
  151.7209  142.1743  158.0021 C   0  0  2  0  0  0  0  0  0  0  0  0
  152.0284  142.1725  159.5013 C   0  0  0  0  0  0  0  0  0  0  0  0
  151.7981  143.6159  159.9205 C   0  0  0  0  0  0  0  0  0  0  0  0
  150.9908  144.2120  158.7656 C   0  0  0  0  0  0  0  0  0  0  0  0
  150.6490  143.1040  157.9467 O   0  0  0  0  0  0  0  0  0  0  0  0
  146.5544  136.3434  154.3311 C   0  0  0  0  0  0  0  0  0  0  0  0
  145.0586  134.7772  154.5173 H   0  0  0  0  0  0  0  0  0  0  0  0
  144.8495  138.2987  152.3911 H   0  0  0  0  0  0  0  0  0  0  0  0
  147.6731  132.9376  152.8566 H   0  0  0  0  0  0  0  0  0  0  0  0
  146.5884  132.9026  154.2422 H   0  0  0  0  0  0  0  0  0  0  0  0
  147.8890  134.1031  154.1604 H   0  0  0  0  0  0  0  0  0  0  0  0
  144.0606  135.7205  152.1544 H   0  0  0  0  0  0  0  0  0  0  0  0
  143.8496  136.6351  153.6288 H   0  0  0  0  0  0  0  0  0  0  0  0
  146.0070  135.8128  149.4673 H   0  0  0  0  0  0  0  0  0  0  0  0
  144.9768  135.3914  150.8204 H   0  0  0  0  0  0  0  0  0  0  0  0
  147.0694  141.8327  152.9141 H   0  0  0  0  0  0  0  0  0  0  0  0
  150.8770  137.9917  156.4032 H   0  0  0  0  0  0  0  0  0  0  0  0
  152.0360  140.5731  155.3944 H   0  0  0  0  0  0  0  0  0  0  0  0
  150.7609  141.7599  155.5545 H   0  0  0  0  0  0  0  0  0  0  0  0
  150.3890  140.4713  157.9267 H   0  0  0  0  0  0  0  0  0  0  0  0
  152.0635  139.3914  158.5172 H   0  0  0  0  0  0  0  0  0  0  0  0
  152.5727  142.5751  157.4487 H   0  0  0  0  0  0  0  0  0  0  0  0
  151.3260  141.5245  160.0274 H   0  0  0  0  0  0  0  0  0  0  0  0
  153.0372  141.8243  159.7243 H   0  0  0  0  0  0  0  0  0  0  0  0
  151.2549  143.6663  160.8645 H   0  0  0  0  0  0  0  0  0  0  0  0
  152.7404  144.1503  160.0447 H   0  0  0  0  0  0  0  0  0  0  0  0
  150.0979  144.7376  159.1042 H   0  0  0  0  0  0  0  0  0  0  0  0
  151.6000  144.9100  158.1899 H   0  0  0  0  0  0  0  0  0  0  0  0
  146.2431  136.6156  155.3407 H   0  0  0  0  0  0  0  0  0  0  0  0
  147.5644  135.9343  154.3868 H   0  0  0  0  0  0  0  0  0  0  0  0
  1  2  1  0  0  0  0
  1 30  1  0  0  0  0
  1 31  1  0  0  0  0
  1 32  1  0  0  0  0
  2  3  1  0  0  0  0
  3 28  1  0  0  0  0
  3 27  1  0  0  0  0
  3  4  1  0  0  0  0
  4  5  1  0  0  0  0
  4 33  1  0  0  0  0
  4 34  1  0  0  0  0
  5 29  1  0  0  0  0
  5  6  1  0  0  0  0
  5  9  1  0  0  0  0
  6  7  1  0  0  0  0
  6  8  2  0  0  0  0
  7 35  1  0  0  0  0
  7 36  1  0  0  0  0
  9 10  1  0  0  0  0
  9 27  1  0  0  0  0
 10 15  1  0  0  0  0
 10 11  2  0  0  0  0
 11 12  1  0  0  0  0
 12 13  2  0  0  0  0
 12 37  1  0  0  0  0
 13 14  1  0  0  0  0
 14 18  1  0  0  0  0
 14 15  2  0  0  0  0
 15 16  1  0  0  0  0
 16 17  2  0  0  0  0
 17 18  1  0  0  0  0
 17 38  1  0  0  0  0
 18 19  1  0  0  0  0
 19 20  1  0  0  0  0
 19 39  1  0  0  0  0
 19 40  1  0  0  0  0
 20 21  1  0  0  0  0
 20 22  1  0  0  0  0
 20 41  1  0  0  0  0
 21 42  1  0  0  0  0
 22 26  1  0  0  0  0
 22 23  1  0  0  0  0
 22 43  1  0  0  0  0
 23 24  1  0  0  0  0
 23 44  1  0  0  0  0
 23 45  1  0  0  0  0
 24 25  1  0  0  0  0
 24 46  1  0  0  0  0
 24 47  1  0  0  0  0
 25 26  1  0  0  0  0
 25 48  1  0  0  0  0
 25 49  1  0  0  0  0
 27 50  1  0  0  0  0
 27 51  1  0  0  0  0
M  END
> <s_m_source_file>
AV-unprocessed.smi

> <i_m_source_file_index>
261

> <i_lp_mmshare_version>
43012

> <i_f3d_flags>
0

> <s_epik_input>
W0NIM11PW0NASF0xW0NIMl1bQ0BASF0oQyg9TylbTkgyXSlOKFtDSDJdMSljKG5bY0hdbjIpYyhjMjMpbltjSF1uM1tDSDJdW0NASF0oW09IXSlbQ0BASF00W0NIMl1bQ0gyXVtDSDJdTzQ=

> <s_epik_cmdline>
J2VwaWtfcHl0aG9uJywgJy1waCcsICc3LjAnLCAnLXRuJywgJzgnLCAnLW1hJywgJzIwMCcsICctbWV0YWxfYmluZGluZycsICctaW1hZScsICc8aW5maWxlLm1hZT4nLCAnLW9tYWUnLCAnPG91dGZpbGUubWFlPic=

> <r_lp_tautomer_probability>
1

> <r_epik_Ionization_Penalty>
0.000713824

> <r_epik_Ionization_Penalty_Charging>
0

> <r_epik_Ionization_Penalty_Neutral>
0.000713824

> <r_epik_State_Penalty>
0.000402132

> <r_epik_Charging_Adjusted_Penalty>
0.000402132

> <i_epik_Tot_Q>
0

> <i_epik_Tot_abs_Q>
0

> <r_epik_Metal_State_Penalty>
-0

> <b_epik_Metal_Only>
0

> <s_lp_Force_Field>
OPLS_2005

> <r_lp_Energy>
44.1373

> <b_lp_Chiralities_Consistent>
1

> <s_lp_Variant>
AV-unprocessed.smi:261-8

> <Gold.Version>
5.8.1

> <Gold.Id.Protein>
6NUR|6NUR_protein|mol2

> <Gold.PLP.Fitness>
41.2670

> <Gold.PLP.PLP>
-34.4127

> <Gold.PLP.part.hbond>
-3.6294

> <Gold.PLP.part.metal>
0.0000

> <Gold.PLP.part.buried>
-1.3808

> <Gold.PLP.part.nonpolar>
-31.5660

> <Gold.PLP.part.repulsive>
1.9127

> <Gold.PLP.ligand.clash>
0.0000

> <Gold.PLP.ligand.torsion>
0.6643

> <Gold.PLP.Chemscore.Hbond>
2.6775

> <Gold.PLP.Chemscore.CHOScore>
0.0000

> <Gold.PLP.Chemscore.Metal>
0.0000

> <Gold.Chemscore.Hbonds>
donor molecule, donor type, donor heavy atom, donor atom, acceptor molecule, acceptor atom, score
      L1  H     7    35       P1  7921  0.89
      P1  H  7954  7966       L1     8  0.83
      P1  H  7997  8009       L1    21  0.26

> <Gold.PLP.Chemscore.Internal.Correction>
0.1504

> <Gold.Rescore>
     Score         DG    S(hbond)    S(metal)    S(lipo)     H(rot)  DE(clash)    DE(int)     intcor
     10.20     -13.29       2.25        0.00      72.31       3.18       2.19       0.90       ----

> <Gold.Chemscore.Fitness>
10.1970

> <Gold.Chemscore.DG>
-13.2945

> <Gold.Chemscore.ZeroCoef>
-5.4800

> <Gold.Chemscore.Hbond>
2.2464

> <Gold.Chemscore.Metal>
0.0000

> <Gold.Chemscore.Lipo>
72.3080

> <Gold.Chemscore.Internal_Hbond>
0.0000

> <Gold.Chemscore.DEClash>
2.1929

> <Gold.Chemscore.DEInternal>
0.9046

> <Gold.Chemscore.Rot>
3.1831

> <Gold.Chemscore.Internal.Correction>
   9.000000E+99

> <Gold.Chemscore.Hbonds>
donor molecule, donor type, donor heavy atom, donor atom, acceptor molecule, acceptor atom, score
      L1  H     7    35       P1  7921  0.84
      P1  H  7954  7966       L1     8  0.77
      P1  H  7997  8009       L1    21  0.24

> <Gold.Chemscore.Hbond.Weighted>
-7.5031

> <Gold.Chemscore.Metal.Weighted>
-0.0000

> <Gold.Chemscore.Lipo.Weighted>
-8.4600

> <Gold.Chemscore.Internal_Hbond.Weighted>
0.0000

> <Gold.Chemscore.DEClash.Weighted>
2.1929

> <Gold.Chemscore.DEInternal.Weighted>
0.9046

> <Gold.Chemscore.Rot.Weighted>
8.1486

> <Gold.Chemscore.Internal.Correction.Weighted>
   9.000000E+99

> <Gold.Protein.RotatedTorsions>
[ 6907 6896 6895 6894 ] final  122.71 input  -60.11 | X-H torsion
[ 7974 7965 7964 7962 ] final   22.06 input  175.53 | X-H torsion
[ 8008 7997 7996 7995 ] final  173.70 input   59.86 | X-H torsion
[ 10167 10162 10161 10158 ] final -127.55 input  -65.29 | X-H torsion
[ 10718 10713 10712 10709 ] final  -70.54 input   66.30 | X-H torsion
[ 10763 10752 10751 10750 ] final  179.93 input  -60.55 | X-H torsion
[ 11005 11000 10999 10996 ] final -103.68 input  -57.11 | X-H torsion

> <Gold.Protein.ActiveResidues>
 VAL166  LYS551  ARG553  GLY616  TRP617  ASP618  TYR619  PRO620  LYS621  CYS622 
 ASP623  PHE694  ASN695  SER759  ASP760  ASP761  ALA762  ILE779  LEU786  VAL792 
 PHE793  MET794  SER795  GLU796  ALA797  LYS798  CYS799  TRP800  GLU811  SER814 

> <Gold.Protein.RotatedAtoms>
  152.4221  133.7134  159.6491 H   0  0  0  0  0  0  0  0  0  0  0  0  # atno 6907 bound_to 6896
  150.8097  133.8434  159.3194 H   0  0  0  0  0  0  0  0  0  0  0  0  # atno 6908 bound_to 6896
  151.6147  135.1039  160.0140 H   0  0  0  0  0  0  0  0  0  0  0  0  # atno 6909 bound_to 6896
  146.2045  139.7939  142.8736 H   0  0  0  0  0  0  0  0  0  0  0  0  # atno 7974 bound_to 7965
  156.1049  140.1453  156.9418 H   0  0  0  0  0  0  0  0  0  0  0  0  # atno 8008 bound_to 7997
  154.4727  140.0904  156.7229 H   0  0  0  0  0  0  0  0  0  0  0  0  # atno 8009 bound_to 7997
  155.4697  140.3441  155.4326 H   0  0  0  0  0  0  0  0  0  0  0  0  # atno 8010 bound_to 7997
  139.9597  143.5964  152.2449 H   0  0  0  0  0  0  0  0  0  0  0  0  # atno 10167 bound_to 10162
  156.0403  130.4333  150.2310 H   0  0  0  0  0  0  0  0  0  0  0  0  # atno 10718 bound_to 10713
  154.5269  135.2797  155.1214 H   0  0  0  0  0  0  0  0  0  0  0  0  # atno 10763 bound_to 10752
  154.2749  135.6296  153.5328 H   0  0  0  0  0  0  0  0  0  0  0  0  # atno 10764 bound_to 10752
  152.9948  135.5637  154.5773 H   0  0  0  0  0  0  0  0  0  0  0  0  # atno 10765 bound_to 10752
  141.1135  133.8660  157.1517 H   0  0  0  0  0  0  0  0  0  0  0  0  # atno 11005 bound_to 11000
  145.3368  141.0279  143.3415 LP  0  0  0  0  0  0  0  0  0  0  0  0  # atno 17320 bound_to 7965
  144.8760  139.4971  143.6745 LP  0  0  0  0  0  0  0  0  0  0  0  0  # atno 17321 bound_to 7965
  139.6564  144.7662  151.2048 LP  0  0  0  0  0  0  0  0  0  0  0  0  # atno 17342 bound_to 10162
  140.7557  143.6079  150.8634 LP  0  0  0  0  0  0  0  0  0  0  0  0  # atno 17343 bound_to 10162
  157.0406  131.0034  151.3285 LP  0  0  0  0  0  0  0  0  0  0  0  0  # atno 17370 bound_to 10713
  157.5212  130.7999  149.7811 LP  0  0  0  0  0  0  0  0  0  0  0  0  # atno 17371 bound_to 10713
  140.0042  135.0015  157.0256 LP  0  0  0  0  0  0  0  0  0  0  0  0  # atno 17394 bound_to 11000
  140.4711  134.1385  155.7203 LP  0  0  0  0  0  0  0  0  0  0  0  0  # atno 17395 bound_to 11000

$$$$
