#       Name:                AV-unprocessed.smi:72
#       Creating user name   scv26
#       Creation time:       Thu Mar 26 16:56:52 2020


#       File generated by GOLD software.
#

@<TRIPOS>MOLECULE
AV-unprocessed.smi:72
    41    42     1
SMALL
NO_CHARGES


@<TRIPOS>ATOM
      1 ****        -2.2329   4.5929   0.7572 N.2            1 S1                 0.0000
      2 ****        -1.7700   3.4328   0.4539 C.2            1 S1                 0.0000
      3 ****        -0.4454   3.0129   0.6483 N.2            1 S1                 0.0000
      4 ****        -0.1153   1.8111   0.2878 C.2            1 S1                 0.0000
      5 ****        -1.0684   0.8926  -0.3157 N.am           1 S1                 0.0000
      6 ****        -0.6509  -0.5038  -0.7278 C.3            1 S1                 0.0000
      7 ****         0.6424  -0.4510  -1.2535 O.3            1 S1                 0.0000
      8 ****         1.3844  -1.5736  -0.7931 C.3            1 S1                 0.0000
      9 ****         2.8976  -1.3230  -0.9183 C.3            1 S1                 0.0000
     10 ****         3.6179  -2.4787  -0.5460 O.3            1 S1                 0.0000
     11 ****         0.8326  -1.8332   0.6168 C.3            1 S1                 0.0000
     12 ****         1.4645  -1.0033   1.5770 O.3            1 S1                 0.0000
     13 ****        -0.6497  -1.5118   0.4430 C.3            1 S1                 0.0000
     14 ****        -1.2793  -1.0753   1.6364 O.3            1 S1                 0.0000
     15 ****        -2.4133   1.2949  -0.5042 C.2            1 S1                 0.0000
     16 ****        -3.2681   0.5519  -0.9861 O.2            1 S1                 0.0000
     17 ****        -2.7041   2.5545  -0.1125 N.am           1 S1                 0.0000
     18 ****        -1.3230  -0.8052  -1.5321 H              1 S1                 0.0000
     19 ****         1.1097  -2.4144  -1.4332 H              1 S1                 0.0000
     20 ****         0.9838  -2.8695   0.9205 H              1 S1                 0.0000
     21 ****        -1.1652  -2.4071   0.0927 H              1 S1                 0.0000
     22 ****        -3.2128   4.6561   0.5234 H              1 S1                 0.0000
     23 ****         0.8921   1.4129   0.4138 H              1 S1                 0.0000
     24 ****         3.1481  -1.0808  -1.9514 H              1 S1                 0.0000
     25 ****         3.2176  -0.4769  -0.3098 H              1 S1                 0.0000
     26 ****         4.5402  -2.3078  -0.6616 H              1 S1                 0.0000
     27 ****         2.3815  -1.2300   1.6099 H              1 S1                 0.0000
     28 ****        -1.1596  -1.7389   2.2983 H              1 S1                 0.0000
     29 ****        -3.6547   2.8711  -0.2345 H              1 S1                 0.0000
     30 ****        -1.6967   5.3305   1.1678 LP             1 S1                 0.0000
     31 ****         0.2301   3.6271   1.0562 LP             1 S1                 0.0000
     32 ****         1.0906   0.3912  -0.9536 LP             1 S1                 0.0000
     33 ****         0.5977  -0.4673  -2.2523 LP             1 S1                 0.0000
     34 ****         3.3426  -3.2480  -1.1225 LP             1 S1                 0.0000
     35 ****         3.4329  -2.6973   0.4122 LP             1 S1                 0.0000
     36 ****         1.0484  -1.1481   2.4747 LP             1 S1                 0.0000
     37 ****         1.3630  -0.0440   1.3134 LP             1 S1                 0.0000
     38 ****        -2.2556  -0.9358   1.4712 LP             1 S1                 0.0000
     39 ****        -0.8668  -0.2167   1.9410 LP             1 S1                 0.0000
     40 ****        -3.0242  -0.3777  -1.2625 LP             1 S1                 0.0000
     41 ****        -4.2064   0.8779  -1.1012 LP             1 S1                 0.0000
@<TRIPOS>BOND
    1    1    2 2     
    2    1   22 1     
    3    2   17 1     
    4    2    3 1     
    5    3    4 2     
    6    4    5 1     
    7    4   23 1     
    8    5    6 1     
    9    5   15 am    
   10    6   18 1     
   11    6   13 1     
   12    6    7 1     
   13    7    8 1     
   14    8   19 1     
   15    8    9 1     
   16    8   11 1     
   17    9   10 1     
   18    9   24 1     
   19    9   25 1     
   20   10   26 1     
   21   11   20 1     
   22   11   12 1     
   23   11   13 1     
   24   12   27 1     
   25   13   21 1     
   26   13   14 1     
   27   14   28 1     
   28   15   16 2     
   29   15   17 am    
   30   17   29 1     
   31    1   30 1     
   32    3   31 1     
   33    7   32 1     
   34    7   33 1     
   35   10   34 1     
   36   10   35 1     
   37   12   36 1     
   38   12   37 1     
   39   14   38 1     
   40   14   39 1     
   41   16   40 1     
   42   16   41 1     
@<TRIPOS>SUBSTRUCTURE
      1 S1             1
@<TRIPOS>SET
LONE_PAIRS      STATIC     ATOMS    <user>   **** ""
12 30 31 32 33 34 35 36 37 38 39 40 41
DONOR_HYDROGENS      STATIC     ATOMS    <user>   **** ""
5 22 26 27 28 29
ATOM$BLUE        STATIC     ATOMS    COLORGROUP SYSTEM
12 30 31 32 33 34 35 36 37 38 39 40 41
ATOM$RED        STATIC     ATOMS    COLORGROUP SYSTEM
5 22 26 27 28 29
