AV-unprocessed.smi:37|AV-procd|sdf|327|dock7
  -GOLD-   2262016153D 1   1.00000     0.00000
 Structure written by MMmdl.
 43 44  0  0  0  0  0  0  0  0  2 V2000
  145.5949  135.1316  162.7307 C   0  0  0  0  0  0  0  0  0  0  0  0
  146.4030  134.7873  161.4723 C   0  0  0  0  0  0  0  0  0  0  0  0
  147.2321  135.9698  160.9752 C   0  0  0  0  0  0  0  0  0  0  0  0
  148.1207  136.4663  161.6681 O   0  0  0  0  0  0  0  0  0  0  0  0
  146.8702  136.3774  159.7486 O   0  0  0  0  0  0  0  0  0  0  0  0
  147.6998  137.2794  159.0361 C   0  0  0  0  0  0  0  0  0  0  0  0
  147.0323  137.6333  157.7008 C   0  0  2  0  0  0  0  0  0  0  0  0
  146.9838  136.5075  156.8316 O   0  0  0  0  0  0  0  0  0  0  0  0
  146.9681  136.9334  155.4986 C   0  0  1  0  0  0  0  0  0  0  0  0
  145.6752  136.5100  154.8386 N   0  0  0  0  0  0  0  0  0  0  0  0
  145.6546  136.0146  153.5450 C   0  0  0  0  0  0  0  0  0  0  0  0
  144.4984  135.6399  152.9602 C   0  0  0  0  0  0  0  0  0  0  0  0
  144.5092  135.1587  151.7052 F   0  0  0  0  0  0  0  0  0  0  0  0
  143.2421  135.7586  153.6985 C   0  0  0  0  0  0  0  0  0  0  0  0
  142.1903  135.4194  153.1580 O   0  0  0  0  0  0  0  0  0  0  0  0
  143.2939  136.2472  154.9717 N   0  5  0  0  0  0  0  0  0  0  0  0
  144.4619  136.6238  155.5695 C   0  0  0  0  0  0  0  0  0  0  0  0
  144.5228  137.0551  156.7213 O   0  0  0  0  0  0  0  0  0  0  0  0
  147.1782  138.4631  155.4950 C   0  0  1  0  0  0  0  0  0  0  0  0
  145.4762  139.5049  155.3645 Br  0  0  0  0  0  0  0  0  0  0  0  0
  147.7656  138.6943  156.8762 C   0  0  2  0  0  0  0  0  0  0  0  0
  149.1657  138.4326  156.8788 O   0  0  0  0  0  0  0  0  0  0  0  0
  149.9637  138.9776  155.9432 C   0  0  0  0  0  0  0  0  0  0  0  0
  149.6005  139.7033  155.0174 O   0  0  0  0  0  0  0  0  0  0  0  0
  151.4296  138.5878  156.1205 C   0  0  0  0  0  0  0  0  0  0  0  0
  152.3301  139.1985  155.0378 C   0  0  0  0  0  0  0  0  0  0  0  0
  144.9762  134.2861  163.0311 H   0  0  0  0  0  0  0  0  0  0  0  0
  144.9325  135.9804  162.5572 H   0  0  0  0  0  0  0  0  0  0  0  0
  146.2461  135.3778  163.5703 H   0  0  0  0  0  0  0  0  0  0  0  0
  147.0695  133.9484  161.6734 H   0  0  0  0  0  0  0  0  0  0  0  0
  145.7290  134.4713  160.6756 H   0  0  0  0  0  0  0  0  0  0  0  0
  147.8318  138.1823  159.6339 H   0  0  0  0  0  0  0  0  0  0  0  0
  148.6875  136.8465  158.8697 H   0  0  0  0  0  0  0  0  0  0  0  0
  146.0117  137.9758  157.8801 H   0  0  0  0  0  0  0  0  0  0  0  0
  147.7608  136.3904  154.9810 H   0  0  0  0  0  0  0  0  0  0  0  0
  146.5726  135.9139  152.9859 H   0  0  0  0  0  0  0  0  0  0  0  0
  147.8259  138.7703  154.6731 H   0  0  0  0  0  0  0  0  0  0  0  0
  147.5647  139.6985  157.2526 H   0  0  0  0  0  0  0  0  0  0  0  0
  151.7618  138.9082  157.1082 H   0  0  0  0  0  0  0  0  0  0  0  0
  151.5097  137.5006  156.0971 H   0  0  0  0  0  0  0  0  0  0  0  0
  153.3609  138.8678  155.1655 H   0  0  0  0  0  0  0  0  0  0  0  0
  152.3273  140.2884  155.0816 H   0  0  0  0  0  0  0  0  0  0  0  0
  152.0086  138.9002  154.0393 H   0  0  0  0  0  0  0  0  0  0  0  0
  1  2  1  0  0  0  0
  1 27  1  0  0  0  0
  1 28  1  0  0  0  0
  1 29  1  0  0  0  0
  2  3  1  0  0  0  0
  2 30  1  0  0  0  0
  2 31  1  0  0  0  0
  3  4  2  0  0  0  0
  3  5  1  0  0  0  0
  5  6  1  0  0  0  0
  6  7  1  0  0  0  0
  6 32  1  0  0  0  0
  6 33  1  0  0  0  0
  7 21  1  0  0  0  0
  7  8  1  0  0  0  0
  7 34  1  0  0  0  0
  8  9  1  0  0  0  0
  9 10  1  0  0  0  0
  9 19  1  0  0  0  0
  9 35  1  0  0  0  0
 10 17  1  0  0  0  0
 10 11  1  0  0  0  0
 11 12  2  0  0  0  0
 11 36  1  0  0  0  0
 12 13  1  0  0  0  0
 12 14  1  0  0  0  0
 14 15  2  0  0  0  0
 14 16  1  0  0  0  0
 16 17  1  0  0  0  0
 17 18  2  0  0  0  0
 19 20  1  0  0  0  0
 19 21  1  0  0  0  0
 19 37  1  0  0  0  0
 21 22  1  0  0  0  0
 21 38  1  0  0  0  0
 22 23  1  0  0  0  0
 23 24  2  0  0  0  0
 23 25  1  0  0  0  0
 25 26  1  0  0  0  0
 25 39  1  0  0  0  0
 25 40  1  0  0  0  0
 26 41  1  0  0  0  0
 26 42  1  0  0  0  0
 26 43  1  0  0  0  0
M  CHG  1  16  -1
M  END
> <s_m_source_file>
AV-unprocessed.smi

> <i_m_source_file_index>
37

> <i_lp_mmshare_version>
43012

> <i_f3d_flags>
0

> <s_epik_input>
W0NIM11bQ0gyXUMoPU8pT1tDSDJdW0NAQEhdMU9bQ0BASF0objJbY0hdYyhGKWMoPU8pW25IXWMyPU8pW0NAQEhdKEJyKVtDQEhdMU9DKD1PKVtDSDJdW0NIM10=

> <s_epik_cmdline>
J2VwaWtfcHl0aG9uJywgJy1waCcsICc3LjAnLCAnLXRuJywgJzgnLCAnLW1hJywgJzIwMCcsICctbWV0YWxfYmluZGluZycsICctaW1hZScsICc8aW5maWxlLm1hZT4nLCAnLW9tYWUnLCAnPG91dGZpbGUubWFlPic=

> <r_epik_Ionization_Penalty>
1.08158

> <r_epik_Ionization_Penalty_Charging>
9.05154e-09

> <r_epik_Ionization_Penalty_Neutral>
1.08158

> <r_epik_State_Penalty>
1.13706

> <r_epik_Charging_Adjusted_Penalty>
1.13706

> <i_epik_Tot_Q>
-1

> <i_epik_Tot_abs_Q>
1

> <r_epik_Metal_State_Penalty>
0.00343535

> <b_epik_Metal_Only>
0

> <s_epik_Chemistry_Notes>
This compound has an ester and may undergo hydrolysis at high or low pH. This compound contains an acetal/aminal-like group ( X-CH(R)-Y where X, Y are N, S, or O) that may be acid/base labile, releasing an aldehyde.

> <s_lp_Force_Field>
OPLS_2005

> <r_lp_Energy>
34.9368

> <b_lp_Chiralities_Consistent>
1

> <s_lp_Variant>
AV-unprocessed.smi:37-25

> <Gold.Version>
5.8.1

> <Gold.Id.Protein>
6NUR|6NUR_protein|mol2

> <Gold.PLP.Fitness>
41.4353

> <Gold.PLP.PLP>
-34.3369

> <Gold.PLP.part.hbond>
-3.0543

> <Gold.PLP.part.metal>
0.0000

> <Gold.PLP.part.buried>
-5.0845

> <Gold.PLP.part.nonpolar>
-28.5446

> <Gold.PLP.part.repulsive>
1.2051

> <Gold.PLP.ligand.clash>
0.0000

> <Gold.PLP.ligand.torsion>
0.8099

> <Gold.PLP.Chemscore.Hbond>
2.8160

> <Gold.PLP.Chemscore.CHOScore>
0.0000

> <Gold.PLP.Chemscore.Metal>
0.0000

> <Gold.Chemscore.Hbonds>
donor molecule, donor type, donor heavy atom, donor atom, acceptor molecule, acceptor atom, score
      P1  H  6931  6943       L1     4  1.00
      L1  C    11    36       P1  7948  0.72

> <Gold.PLP.Chemscore.Internal.Correction>
0.2702

> <Gold.Rescore>
     Score         DG    S(hbond)    S(metal)    S(lipo)     H(rot)  DE(clash)    DE(int)     intcor
      7.45     -12.94       2.69        0.00      58.50       3.27       0.03       5.46       ----

> <Gold.Chemscore.Fitness>
7.4496

> <Gold.Chemscore.DG>
-12.9420

> <Gold.Chemscore.ZeroCoef>
-5.4800

> <Gold.Chemscore.Hbond>
2.6891

> <Gold.Chemscore.Metal>
0.0000

> <Gold.Chemscore.Lipo>
58.4951

> <Gold.Chemscore.Internal_Hbond>
0.0000

> <Gold.Chemscore.DEClash>
0.0276

> <Gold.Chemscore.DEInternal>
5.4648

> <Gold.Chemscore.Rot>
3.2669

> <Gold.Chemscore.Internal.Correction>
   9.000000E+99

> <Gold.Chemscore.Hbonds>
donor molecule, donor type, donor heavy atom, donor atom, acceptor molecule, acceptor atom, score
      P1  H  6931  6943       L1     4  0.95

> <Gold.Chemscore.Hbond.Weighted>
-8.9815

> <Gold.Chemscore.Metal.Weighted>
-0.0000

> <Gold.Chemscore.Lipo.Weighted>
-6.8439

> <Gold.Chemscore.Internal_Hbond.Weighted>
0.0000

> <Gold.Chemscore.DEClash.Weighted>
0.0276

> <Gold.Chemscore.DEInternal.Weighted>
5.4648

> <Gold.Chemscore.Rot.Weighted>
8.3634

> <Gold.Chemscore.Internal.Correction.Weighted>
   9.000000E+99

> <Gold.Protein.RotatedTorsions>
[ 6907 6896 6895 6894 ] final  128.45 input  -60.11 | X-H torsion
[ 7974 7965 7964 7962 ] final  107.24 input  175.53 | X-H torsion
[ 8008 7997 7996 7995 ] final  -37.32 input   59.86 | X-H torsion
[ 10167 10162 10161 10158 ] final   48.28 input  -65.29 | X-H torsion
[ 10718 10713 10712 10709 ] final  -65.06 input   66.30 | X-H torsion
[ 10763 10752 10751 10750 ] final  123.99 input  -60.55 | X-H torsion
[ 11005 11000 10999 10996 ] final  139.57 input  -57.11 | X-H torsion

> <Gold.Protein.ActiveResidues>
 VAL166  LYS551  ARG553  GLY616  TRP617  ASP618  TYR619  PRO620  LYS621  CYS622 
 ASP623  PHE694  ASN695  SER759  ASP760  ASP761  ALA762  ILE779  LEU786  VAL792 
 PHE793  MET794  SER795  GLU796  ALA797  LYS798  CYS799  TRP800  GLU811  SER814 

> <Gold.Protein.RotatedAtoms>
  152.3718  133.6428  159.6092 H   0  0  0  0  0  0  0  0  0  0  0  0  # atno 6907 bound_to 6896
  150.7674  133.9258  159.3421 H   0  0  0  0  0  0  0  0  0  0  0  0  # atno 6908 bound_to 6896
  151.7080  135.0919  160.0314 H   0  0  0  0  0  0  0  0  0  0  0  0  # atno 6909 bound_to 6896
  145.2962  139.2584  143.3838 H   0  0  0  0  0  0  0  0  0  0  0  0  # atno 7974 bound_to 7965
  154.4056  140.1607  156.2517 H   0  0  0  0  0  0  0  0  0  0  0  0  # atno 8008 bound_to 7997
  155.9113  140.3427  155.6078 H   0  0  0  0  0  0  0  0  0  0  0  0  # atno 8009 bound_to 7997
  155.7332  140.0783  157.2270 H   0  0  0  0  0  0  0  0  0  0  0  0  # atno 8010 bound_to 7997
  140.2950  144.3002  150.6232 H   0  0  0  0  0  0  0  0  0  0  0  0  # atno 10167 bound_to 10162
  156.0692  130.4242  150.1509 H   0  0  0  0  0  0  0  0  0  0  0  0  # atno 10718 bound_to 10713
  153.6543  135.3357  155.3109 H   0  0  0  0  0  0  0  0  0  0  0  0  # atno 10763 bound_to 10752
  154.8530  135.4348  154.1871 H   0  0  0  0  0  0  0  0  0  0  0  0  # atno 10764 bound_to 10752
  153.2822  135.7010  153.7449 H   0  0  0  0  0  0  0  0  0  0  0  0  # atno 10765 bound_to 10752
  140.0264  134.9373  157.0576 H   0  0  0  0  0  0  0  0  0  0  0  0  # atno 11005 bound_to 11000
  146.3168  140.3465  142.8652 LP  0  0  0  0  0  0  0  0  0  0  0  0  # atno 17320 bound_to 7965
  144.9131  140.7781  143.5795 LP  0  0  0  0  0  0  0  0  0  0  0  0  # atno 17321 bound_to 7965
  140.5700  143.2182  151.7616 LP  0  0  0  0  0  0  0  0  0  0  0  0  # atno 17342 bound_to 10162
  139.4929  144.4230  151.9957 LP  0  0  0  0  0  0  0  0  0  0  0  0  # atno 17343 bound_to 10162
  156.9563  130.9791  151.3488 LP  0  0  0  0  0  0  0  0  0  0  0  0  # atno 17370 bound_to 10713
  157.5752  130.8338  149.8446 LP  0  0  0  0  0  0  0  0  0  0  0  0  # atno 17371 bound_to 10713
  140.4300  134.1791  155.7167 LP  0  0  0  0  0  0  0  0  0  0  0  0  # atno 17394 bound_to 11000
  141.1805  133.8424  157.1274 LP  0  0  0  0  0  0  0  0  0  0  0  0  # atno 17395 bound_to 11000

$$$$
