AV-unprocessed.smi:3046|AV-procd|sdf|11615|dock5
  -GOLD-   2272016593D 1   1.00000     0.00000
 Structure written by MMmdl.
 38 38  0  0  0  0  0  0  0  0  2 V2000
  143.8412  134.4257  151.7474 C   0  0  0  0  0  0  0  0  0  0  0  0
  144.5695  135.3902  152.3291 C   0  0  0  0  0  0  0  0  0  0  0  0
  144.6220  136.8294  151.8554 C   0  0  0  0  0  0  0  0  0  0  0  0
  145.4953  137.6363  152.6990 N   0  0  0  0  0  0  0  0  0  0  0  0
  146.5042  138.4027  152.2559 C   0  0  0  0  0  0  0  0  0  0  0  0
  146.7899  138.5204  151.0636 O   0  0  0  0  0  0  0  0  0  0  0  0
  147.3119  139.1522  153.3236 C   0  0  2  0  0  0  0  0  0  0  0  0
  147.1029  140.6666  153.1702 C   0  0  0  0  0  0  0  0  0  0  0  0
  148.7580  138.8422  153.2306 N   0  3  0  0  0  0  0  0  0  0  0  0
  149.5730  139.0871  154.4464 C   0  0  1  0  0  0  0  0  0  0  0  0
  150.9185  138.3440  154.3841 C   0  0  0  0  0  0  0  0  0  0  0  0
  149.7960  140.6008  154.6337 C   0  0  0  0  0  0  0  0  0  0  0  0
  150.4455  140.9110  155.8954 N   0  0  0  0  0  0  0  0  0  0  0  0
  150.0686  141.8335  156.8488 C   0  0  0  0  0  0  0  0  0  0  0  0
  150.9896  141.7765  157.8554 C   0  0  0  0  0  0  0  0  0  0  0  0
  151.9029  140.7747  157.4227 C   0  0  0  0  0  0  0  0  0  0  0  0
  151.5759  140.2605  156.2479 N   0  0  0  0  0  0  0  0  0  0  0  0
  143.2279  134.6288  150.8814 H   0  0  0  0  0  0  0  0  0  0  0  0
  143.8498  133.4163  152.1319 H   0  0  0  0  0  0  0  0  0  0  0  0
  145.1735  135.1446  153.1908 H   0  0  0  0  0  0  0  0  0  0  0  0
  144.9627  136.8548  150.8192 H   0  0  0  0  0  0  0  0  0  0  0  0
  143.6221  137.2643  151.8695 H   0  0  0  0  0  0  0  0  0  0  0  0
  145.3228  137.6026  153.6934 H   0  0  0  0  0  0  0  0  0  0  0  0
  146.9473  138.8643  154.3111 H   0  0  0  0  0  0  0  0  0  0  0  0
  146.0492  140.9343  153.2579 H   0  0  0  0  0  0  0  0  0  0  0  0
  147.4581  141.0251  152.2029 H   0  0  0  0  0  0  0  0  0  0  0  0
  147.6424  141.2144  153.9436 H   0  0  0  0  0  0  0  0  0  0  0  0
  148.8750  137.8865  152.9242 H   0  0  0  0  0  0  0  0  0  0  0  0
  149.0205  138.7266  155.3155 H   0  0  0  0  0  0  0  0  0  0  0  0
  151.5323  138.5738  155.2556 H   0  0  0  0  0  0  0  0  0  0  0  0
  151.4866  138.6241  153.4961 H   0  0  0  0  0  0  0  0  0  0  0  0
  150.7827  137.2630  154.3689 H   0  0  0  0  0  0  0  0  0  0  0  0
  150.4251  140.9894  153.8318 H   0  0  0  0  0  0  0  0  0  0  0  0
  148.8506  141.1432  154.5759 H   0  0  0  0  0  0  0  0  0  0  0  0
  149.1878  142.4482  156.7329 H   0  0  0  0  0  0  0  0  0  0  0  0
  151.0078  142.3605  158.7637 H   0  0  0  0  0  0  0  0  0  0  0  0
  152.7880  140.4098  157.9225 H   0  0  0  0  0  0  0  0  0  0  0  0
  149.1356  139.4478  152.5153 H   0  0  0  0  0  0  0  0  0  0  0  0
  1  2  2  0  0  0  0
  1 18  1  0  0  0  0
  1 19  1  0  0  0  0
  2  3  1  0  0  0  0
  2 20  1  0  0  0  0
  3  4  1  0  0  0  0
  3 21  1  0  0  0  0
  3 22  1  0  0  0  0
  4  5  1  0  0  0  0
  4 23  1  0  0  0  0
  5  6  2  0  0  0  0
  5  7  1  0  0  0  0
  7  8  1  0  0  0  0
  7  9  1  0  0  0  0
  7 24  1  0  0  0  0
  8 25  1  0  0  0  0
  8 26  1  0  0  0  0
  8 27  1  0  0  0  0
  9 10  1  0  0  0  0
  9 28  1  0  0  0  0
  9 38  1  0  0  0  0
 10 11  1  0  0  0  0
 10 12  1  0  0  0  0
 10 29  1  0  0  0  0
 11 30  1  0  0  0  0
 11 31  1  0  0  0  0
 11 32  1  0  0  0  0
 12 13  1  0  0  0  0
 12 33  1  0  0  0  0
 12 34  1  0  0  0  0
 13 17  1  0  0  0  0
 13 14  1  0  0  0  0
 14 15  2  0  0  0  0
 14 35  1  0  0  0  0
 15 16  1  0  0  0  0
 15 36  1  0  0  0  0
 16 17  2  0  0  0  0
 16 37  1  0  0  0  0
M  CHG  1   9   1
M  END
> <s_m_source_file>
AV-unprocessed.smi

> <i_m_source_file_index>
3046

> <i_lp_mmshare_version>
43012

> <i_f3d_flags>
0

> <s_epik_input>
W0NIMl09W0NIXVtDSDJdW05IXUMoPU8pW0NASF0oW0NIM10pW05IXVtDQEhdKFtDSDNdKVtDSDJdbjFbY0hdW2NIXVtjSF1uMQ==

> <s_epik_cmdline>
J2VwaWtfcHl0aG9uJywgJy1waCcsICc3LjAnLCAnLXRuJywgJzgnLCAnLW1hJywgJzIwMCcsICctbWV0YWxfYmluZGluZycsICctaW1hZScsICc8aW5maWxlLm1hZT4nLCAnLW9tYWUnLCAnPG91dGZpbGUubWFlPic=

> <r_lp_tautomer_probability>
1

> <r_epik_Ionization_Penalty>
0.132961

> <r_epik_Ionization_Penalty_Charging>
0.132956

> <r_epik_Ionization_Penalty_Neutral>
5.00268e-06

> <r_epik_State_Penalty>
0.122332

> <r_epik_Charging_Adjusted_Penalty>
0.255288

> <i_epik_Tot_Q>
1

> <i_epik_Tot_abs_Q>
1

> <r_epik_Metal_State_Penalty>
0.122338

> <b_epik_Metal_Only>
0

> <s_lp_Force_Field>
OPLS_2005

> <r_lp_Energy>
6.26821

> <b_lp_Chiralities_Consistent>
1

> <s_lp_Variant>
AV-unprocessed.smi:3046-3

> <Gold.Version>
5.8.1

> <Gold.Id.Protein>
6NUR|6NUR_protein|mol2

> <Gold.PLP.Fitness>
46.8491

> <Gold.PLP.PLP>
-32.7079

> <Gold.PLP.part.hbond>
-2.9994

> <Gold.PLP.part.metal>
0.0000

> <Gold.PLP.part.buried>
-1.9113

> <Gold.PLP.part.nonpolar>
-28.3257

> <Gold.PLP.part.repulsive>
0.4360

> <Gold.PLP.ligand.clash>
0.0000

> <Gold.PLP.ligand.torsion>
0.5063

> <Gold.PLP.Chemscore.Hbond>
4.0000

> <Gold.PLP.Chemscore.CHOScore>
1.0000

> <Gold.PLP.Chemscore.Metal>
0.0000

> <Gold.Chemscore.Hbonds>
donor molecule, donor type, donor heavy atom, donor atom, acceptor molecule, acceptor atom, score
      L1  H     9    28       P1  7948  2.00
      L1  H     9    38       P1  7957  1.00
      P1  H  7954  7966       L1     6  1.00
      L1  C    14    35       P1  8028  1.00

> <Gold.PLP.Chemscore.Internal.Correction>
0.1538

> <Gold.Rescore>
     Score         DG    S(hbond)    S(metal)    S(lipo)     H(rot)  DE(clash)    DE(int)     intcor
     14.73     -17.40       2.92        0.00      67.93       2.26       0.48       2.18       ----

> <Gold.Chemscore.Fitness>
14.7326

> <Gold.Chemscore.DG>
-17.3998

> <Gold.Chemscore.ZeroCoef>
-5.4800

> <Gold.Chemscore.Hbond>
2.9234

> <Gold.Chemscore.Metal>
0.0000

> <Gold.Chemscore.Lipo>
67.9307

> <Gold.Chemscore.Internal_Hbond>
0.0000

> <Gold.Chemscore.DEClash>
0.4840

> <Gold.Chemscore.DEInternal>
2.1833

> <Gold.Chemscore.Rot>
2.2626

> <Gold.Chemscore.Internal.Correction>
   9.000000E+99

> <Gold.Chemscore.Hbonds>
donor molecule, donor type, donor heavy atom, donor atom, acceptor molecule, acceptor atom, score
      L1  H     9    28       P1  7948  0.99
      L1  H     9    38       P1  7957  0.95
      P1  H  7954  7966       L1     6  0.96

> <Gold.Chemscore.Hbond.Weighted>
-9.7641

> <Gold.Chemscore.Metal.Weighted>
-0.0000

> <Gold.Chemscore.Lipo.Weighted>
-7.9479

> <Gold.Chemscore.Internal_Hbond.Weighted>
0.0000

> <Gold.Chemscore.DEClash.Weighted>
0.4840

> <Gold.Chemscore.DEInternal.Weighted>
2.1833

> <Gold.Chemscore.Rot.Weighted>
5.7922

> <Gold.Chemscore.Internal.Correction.Weighted>
   9.000000E+99

> <Gold.Protein.RotatedTorsions>
[ 6907 6896 6895 6894 ] final -147.31 input  -60.11 | X-H torsion
[ 7974 7965 7964 7962 ] final  167.64 input  175.53 | X-H torsion
[ 8008 7997 7996 7995 ] final  100.14 input   59.86 | X-H torsion
[ 10167 10162 10161 10158 ] final   14.31 input  -65.29 | X-H torsion
[ 10718 10713 10712 10709 ] final  150.67 input   66.30 | X-H torsion
[ 10763 10752 10751 10750 ] final  -15.69 input  -60.55 | X-H torsion
[ 11005 11000 10999 10996 ] final  161.02 input  -57.11 | X-H torsion

> <Gold.Protein.ActiveResidues>
 VAL166  LYS551  ARG553  GLY616  TRP617  ASP618  TYR619  PRO620  LYS621  CYS622 
 ASP623  PHE694  ASN695  SER759  ASP760  ASP761  ALA762  ILE779  LEU786  VAL792 
 PHE793  MET794  SER795  GLU796  ALA797  LYS798  CYS799  TRP800  GLU811  SER814 

> <Gold.Protein.RotatedAtoms>
  151.1539  133.4889  159.2594 H   0  0  0  0  0  0  0  0  0  0  0  0  # atno 6907 bound_to 6896
  151.1525  135.0234  159.8684 H   0  0  0  0  0  0  0  0  0  0  0  0  # atno 6908 bound_to 6896
  152.5463  134.1422  159.8537 H   0  0  0  0  0  0  0  0  0  0  0  0  # atno 6909 bound_to 6896
  144.7417  139.8791  143.6395 H   0  0  0  0  0  0  0  0  0  0  0  0  # atno 7974 bound_to 7965
  156.1174  140.3218  155.8159 H   0  0  0  0  0  0  0  0  0  0  0  0  # atno 8008 bound_to 7997
  155.4565  140.0536  157.3013 H   0  0  0  0  0  0  0  0  0  0  0  0  # atno 8009 bound_to 7997
  154.4803  140.2050  155.9794 H   0  0  0  0  0  0  0  0  0  0  0  0  # atno 8010 bound_to 7997
  140.5944  143.8731  150.6904 H   0  0  0  0  0  0  0  0  0  0  0  0  # atno 10167 bound_to 10162
  157.2805  131.0834  151.1535 H   0  0  0  0  0  0  0  0  0  0  0  0  # atno 10718 bound_to 10713
  153.5471  135.7012  153.5609 H   0  0  0  0  0  0  0  0  0  0  0  0  # atno 10763 bound_to 10752
  153.3549  135.3985  155.1674 H   0  0  0  0  0  0  0  0  0  0  0  0  # atno 10764 bound_to 10752
  154.8666  135.3774  154.4980 H   0  0  0  0  0  0  0  0  0  0  0  0  # atno 10765 bound_to 10752
  140.2117  134.8263  157.3127 H   0  0  0  0  0  0  0  0  0  0  0  0  # atno 11005 bound_to 11000
  146.1224  139.4245  143.0220 LP  0  0  0  0  0  0  0  0  0  0  0  0  # atno 17320 bound_to 7965
  145.7284  141.0051  143.1365 LP  0  0  0  0  0  0  0  0  0  0  0  0  # atno 17321 bound_to 7965
  140.2262  143.3771  152.1603 LP  0  0  0  0  0  0  0  0  0  0  0  0  # atno 17342 bound_to 10162
  139.5248  144.7089  151.5269 LP  0  0  0  0  0  0  0  0  0  0  0  0  # atno 17343 bound_to 10162
  157.2971  130.6824  149.6144 LP  0  0  0  0  0  0  0  0  0  0  0  0  # atno 17370 bound_to 10713
  155.9664  130.4403  150.5295 LP  0  0  0  0  0  0  0  0  0  0  0  0  # atno 17371 bound_to 10713
  140.1944  134.4332  155.7697 LP  0  0  0  0  0  0  0  0  0  0  0  0  # atno 17394 bound_to 11000
  141.2226  133.7042  156.8081 LP  0  0  0  0  0  0  0  0  0  0  0  0  # atno 17395 bound_to 11000

$$$$
