AV-unprocessed.smi:676|AV-procd|sdf|3310|dock6
  -GOLD-   22720 0273D 1   1.00000     0.00000
 Structure written by MMmdl.
 42 43  0  0  0  0  0  0  0  0  1 V2000
  151.1897  138.1526  154.4318 C   0  0  0  0  0  0  0  0  0  0  0  0
  151.0079  139.5610  154.4989 O   0  0  0  0  0  0  0  0  0  0  0  0
  150.0907  140.0351  155.4862 C   0  0  2  0  0  0  0  0  0  0  0  0
  148.7080  139.4011  155.2675 C   0  0  0  0  0  0  0  0  0  0  0  0
  150.1643  141.5631  155.6628 C   0  0  0  0  0  0  0  0  0  0  0  0
  150.1129  141.3030  157.1665 C   0  0  2  0  0  0  0  0  0  0  0  0
  150.9441  142.2285  157.9283 N   0  0  0  0  0  0  0  0  0  0  0  0
  150.5114  142.9455  158.9751 C   0  0  0  0  0  0  0  0  0  0  0  0
  149.3530  142.8934  159.3918 O   0  0  0  0  0  0  0  0  0  0  0  0
  151.5607  143.8342  159.6581 C   0  0  0  0  0  0  0  0  0  0  0  0
  152.4609  143.0922  160.5564 N   0  0  0  0  0  0  0  0  0  0  0  0
  152.5005  143.5025  161.9041 C   0  0  0  0  0  0  0  0  0  0  0  0
  153.2925  142.9016  162.8063 C   0  0  0  0  0  0  0  0  0  0  0  0
  154.1197  141.8038  162.3644 C   0  0  0  0  0  0  0  0  0  0  0  0
  154.0923  141.4059  161.0767 C   0  0  0  0  0  0  0  0  0  0  0  0
  153.2313  142.0629  160.0862 C   0  0  0  0  0  0  0  0  0  0  0  0
  153.2047  141.7097  158.9069 O   0  0  0  0  0  0  0  0  0  0  0  0
  150.7598  139.9205  156.8947 C   0  0  0  0  0  0  0  0  0  0  0  0
  150.2862  138.7738  157.7933 C   0  0  0  0  0  0  0  0  0  0  0  0
  152.3008  139.8587  156.9113 C   0  0  0  0  0  0  0  0  0  0  0  0
  151.8231  137.9162  153.5769 H   0  0  0  0  0  0  0  0  0  0  0  0
  150.2459  137.6239  154.2982 H   0  0  0  0  0  0  0  0  0  0  0  0
  151.6880  137.7642  155.3197 H   0  0  0  0  0  0  0  0  0  0  0  0
  148.0191  139.6401  156.0773 H   0  0  0  0  0  0  0  0  0  0  0  0
  148.7754  138.3147  155.2060 H   0  0  0  0  0  0  0  0  0  0  0  0
  148.2374  139.7567  154.3513 H   0  0  0  0  0  0  0  0  0  0  0  0
  151.1060  141.9996  155.3243 H   0  0  0  0  0  0  0  0  0  0  0  0
  149.3069  142.1105  155.2700 H   0  0  0  0  0  0  0  0  0  0  0  0
  149.0852  141.2311  157.5296 H   0  0  0  0  0  0  0  0  0  0  0  0
  151.9096  142.3209  157.6474 H   0  0  0  0  0  0  0  0  0  0  0  0
  152.1350  144.3399  158.8805 H   0  0  0  0  0  0  0  0  0  0  0  0
  151.0538  144.6327  160.2031 H   0  0  0  0  0  0  0  0  0  0  0  0
  151.8578  144.3353  162.1507 H   0  0  0  0  0  0  0  0  0  0  0  0
  153.3137  143.2334  163.8339 H   0  0  0  0  0  0  0  0  0  0  0  0
  154.7646  141.2999  163.0691 H   0  0  0  0  0  0  0  0  0  0  0  0
  154.7190  140.5834  160.7640 H   0  0  0  0  0  0  0  0  0  0  0  0
  150.7483  138.8203  158.7800 H   0  0  0  0  0  0  0  0  0  0  0  0
  150.5295  137.8029  157.3610 H   0  0  0  0  0  0  0  0  0  0  0  0
  149.2085  138.7986  157.9536 H   0  0  0  0  0  0  0  0  0  0  0  0
  152.6982  139.9746  157.9202 H   0  0  0  0  0  0  0  0  0  0  0  0
  152.7535  140.6390  156.2992 H   0  0  0  0  0  0  0  0  0  0  0  0
  152.6651  138.9039  156.5307 H   0  0  0  0  0  0  0  0  0  0  0  0
  1  2  1  0  0  0  0
  1 21  1  0  0  0  0
  1 22  1  0  0  0  0
  1 23  1  0  0  0  0
  2  3  1  0  0  0  0
  3 18  1  0  0  0  0
  3  4  1  0  0  0  0
  3  5  1  0  0  0  0
  4 24  1  0  0  0  0
  4 25  1  0  0  0  0
  4 26  1  0  0  0  0
  5  6  1  0  0  0  0
  5 27  1  0  0  0  0
  5 28  1  0  0  0  0
  6  7  1  0  0  0  0
  6 18  1  0  0  0  0
  6 29  1  0  0  0  0
  7  8  1  0  0  0  0
  7 30  1  0  0  0  0
  8  9  2  0  0  0  0
  8 10  1  0  0  0  0
 10 11  1  0  0  0  0
 10 31  1  0  0  0  0
 10 32  1  0  0  0  0
 11 16  1  0  0  0  0
 11 12  1  0  0  0  0
 12 13  2  0  0  0  0
 12 33  1  0  0  0  0
 13 14  1  0  0  0  0
 13 34  1  0  0  0  0
 14 15  2  0  0  0  0
 14 35  1  0  0  0  0
 15 16  1  0  0  0  0
 15 36  1  0  0  0  0
 16 17  2  0  0  0  0
 18 19  1  0  0  0  0
 18 20  1  0  0  0  0
 19 37  1  0  0  0  0
 19 38  1  0  0  0  0
 19 39  1  0  0  0  0
 20 40  1  0  0  0  0
 20 41  1  0  0  0  0
 20 42  1  0  0  0  0
M  END
> <s_m_source_file>
AV-unprocessed.smi

> <i_m_source_file_index>
676

> <i_lp_mmshare_version>
43012

> <i_f3d_flags>
0

> <s_epik_input>
W0NIM11PW0NAQF0xKFtDSDNdKVtDSDJdW0NASF0oQzEoW0NIM10pW0NIM10pW05IXUMoPU8pW0NIMl1uMltjSF1bY0hdW2NIXVtjSF1jMj1P

> <s_epik_cmdline>
J2VwaWtfcHl0aG9uJywgJy1waCcsICc3LjAnLCAnLXRuJywgJzgnLCAnLW1hJywgJzIwMCcsICctbWV0YWxfYmluZGluZycsICctaW1hZScsICc8aW5maWxlLm1hZT4nLCAnLW9tYWUnLCAnPG91dGZpbGUubWFlPic=

> <r_lp_tautomer_probability>
1

> <r_epik_Ionization_Penalty>
4.09771e-07

> <r_epik_Ionization_Penalty_Charging>
3.90712e-07

> <r_epik_Ionization_Penalty_Neutral>
1.90591e-08

> <r_epik_State_Penalty>
-0

> <r_epik_Charging_Adjusted_Penalty>
3.90712e-07

> <i_epik_Tot_Q>
0

> <i_epik_Tot_abs_Q>
0

> <r_epik_Metal_State_Penalty>
-0

> <b_epik_Metal_Only>
0

> <s_lp_Force_Field>
OPLS_2005

> <r_lp_Energy>
31.4384

> <b_lp_Chiralities_Consistent>
1

> <s_lp_Variant>
AV-unprocessed.smi:676-4

> <Gold.Version>
5.8.1

> <Gold.Id.Protein>
6NUR|6NUR_protein|mol2

> <Gold.PLP.Fitness>
46.6950

> <Gold.PLP.PLP>
-44.2387

> <Gold.PLP.part.hbond>
-1.8373

> <Gold.PLP.part.metal>
0.0000

> <Gold.PLP.part.buried>
-4.1553

> <Gold.PLP.part.nonpolar>
-37.2629

> <Gold.PLP.part.repulsive>
0.2676

> <Gold.PLP.ligand.clash>
0.0000

> <Gold.PLP.ligand.torsion>
0.4583

> <Gold.PLP.Chemscore.Hbond>
1.0000

> <Gold.PLP.Chemscore.CHOScore>
0.0000

> <Gold.PLP.Chemscore.Metal>
0.0000

> <Gold.Chemscore.Hbonds>
donor molecule, donor type, donor heavy atom, donor atom, acceptor molecule, acceptor atom, score
      P1  H  6933  6944       L1     9  0.06
      P1  H  7989  7998       L1     2  1.00

> <Gold.PLP.Chemscore.Internal.Correction>
0.3729

> <Gold.Rescore>
     Score         DG    S(hbond)    S(metal)    S(lipo)     H(rot)  DE(clash)    DE(int)     intcor
     13.86     -16.72       1.14        0.00      98.80       1.62       0.83       2.04       ----

> <Gold.Chemscore.Fitness>
13.8551

> <Gold.Chemscore.DG>
-16.7205

> <Gold.Chemscore.ZeroCoef>
-5.4800

> <Gold.Chemscore.Hbond>
1.1441

> <Gold.Chemscore.Metal>
0.0000

> <Gold.Chemscore.Lipo>
98.8029

> <Gold.Chemscore.Internal_Hbond>
0.0000

> <Gold.Chemscore.DEClash>
0.8274

> <Gold.Chemscore.DEInternal>
2.0380

> <Gold.Chemscore.Rot>
1.6175

> <Gold.Chemscore.Internal.Correction>
   9.000000E+99

> <Gold.Chemscore.Hbonds>
donor molecule, donor type, donor heavy atom, donor atom, acceptor molecule, acceptor atom, score
      P1  H  6933  6944       L1     9  0.06
      P1  H  7989  7998       L1     2  0.85

> <Gold.Chemscore.Hbond.Weighted>
-3.8213

> <Gold.Chemscore.Metal.Weighted>
-0.0000

> <Gold.Chemscore.Lipo.Weighted>
-11.5599

> <Gold.Chemscore.Internal_Hbond.Weighted>
0.0000

> <Gold.Chemscore.DEClash.Weighted>
0.8274

> <Gold.Chemscore.DEInternal.Weighted>
2.0380

> <Gold.Chemscore.Rot.Weighted>
4.1408

> <Gold.Chemscore.Internal.Correction.Weighted>
   9.000000E+99

> <Gold.Protein.RotatedTorsions>
[ 6907 6896 6895 6894 ] final  112.85 input  -60.11 | X-H torsion
[ 7974 7965 7964 7962 ] final  -33.13 input  175.53 | X-H torsion
[ 8008 7997 7996 7995 ] final  -61.87 input   59.86 | X-H torsion
[ 10167 10162 10161 10158 ] final  101.01 input  -65.29 | X-H torsion
[ 10718 10713 10712 10709 ] final  -89.55 input   66.30 | X-H torsion
[ 10763 10752 10751 10750 ] final   15.56 input  -60.55 | X-H torsion
[ 11005 11000 10999 10996 ] final   25.76 input  -57.11 | X-H torsion

> <Gold.Protein.ActiveResidues>
 VAL166  LYS551  ARG553  GLY616  TRP617  ASP618  TYR619  PRO620  LYS621  CYS622 
 ASP623  PHE694  ASN695  SER759  ASP760  ASP761  ALA762  ILE779  LEU786  VAL792 
 PHE793  MET794  SER795  GLU796  ALA797  LYS798  CYS799  TRP800  GLU811  SER814 

> <Gold.Protein.RotatedAtoms>
  152.4894  133.8458  159.7175 H   0  0  0  0  0  0  0  0  0  0  0  0  # atno 6907 bound_to 6896
  150.9009  133.7110  159.2886 H   0  0  0  0  0  0  0  0  0  0  0  0  # atno 6908 bound_to 6896
  151.4552  135.1037  159.9761 H   0  0  0  0  0  0  0  0  0  0  0  0  # atno 6909 bound_to 6896
  146.0935  140.5879  142.8853 H   0  0  0  0  0  0  0  0  0  0  0  0  # atno 7974 bound_to 7965
  154.4470  140.1008  156.6499 H   0  0  0  0  0  0  0  0  0  0  0  0  # atno 8008 bound_to 7997
  155.5409  140.3483  155.4428 H   0  0  0  0  0  0  0  0  0  0  0  0  # atno 8009 bound_to 7997
  156.0598  140.1323  156.9944 H   0  0  0  0  0  0  0  0  0  0  0  0  # atno 8010 bound_to 7997
  139.7476  144.6993  151.0480 H   0  0  0  0  0  0  0  0  0  0  0  0  # atno 10167 bound_to 10162
  155.9985  130.4876  150.5187 H   0  0  0  0  0  0  0  0  0  0  0  0  # atno 10718 bound_to 10713
  153.1514  135.6779  153.8877 H   0  0  0  0  0  0  0  0  0  0  0  0  # atno 10763 bound_to 10752
  153.8302  135.3118  155.3419 H   0  0  0  0  0  0  0  0  0  0  0  0  # atno 10764 bound_to 10752
  154.7865  135.4859  154.0043 H   0  0  0  0  0  0  0  0  0  0  0  0  # atno 10765 bound_to 10752
  140.3444  134.2297  155.7686 H   0  0  0  0  0  0  0  0  0  0  0  0  # atno 11005 bound_to 11000
  144.7377  140.4856  143.6891 LP  0  0  0  0  0  0  0  0  0  0  0  0  # atno 17320 bound_to 7965
  145.5994  139.1502  143.3138 LP  0  0  0  0  0  0  0  0  0  0  0  0  # atno 17321 bound_to 7965
  140.7794  143.4848  150.9971 LP  0  0  0  0  0  0  0  0  0  0  0  0  # atno 17342 bound_to 10162
  139.8536  143.7406  152.3177 LP  0  0  0  0  0  0  0  0  0  0  0  0  # atno 17343 bound_to 10162
  157.3152  131.0671  151.1972 LP  0  0  0  0  0  0  0  0  0  0  0  0  # atno 17370 bound_to 10713
  157.2905  130.6794  149.6111 LP  0  0  0  0  0  0  0  0  0  0  0  0  # atno 17371 bound_to 10713
  141.2029  133.7924  157.0364 LP  0  0  0  0  0  0  0  0  0  0  0  0  # atno 17394 bound_to 11000
  140.0754  134.9678  157.1537 LP  0  0  0  0  0  0  0  0  0  0  0  0  # atno 17395 bound_to 11000

$$$$
