AV-unprocessed.smi:1893|AV-procd|sdf|7675|dock4
  -GOLD-   22720 9413D 1   1.00000     0.00000
 Structure written by MMmdl.
 43 44  0  0  0  0  0  0  0  0  2 V2000
  151.6682  144.8752  159.7347 C   0  0  0  0  0  0  0  0  0  0  0  0
  151.8534  143.3526  159.9087 C   0  0  2  0  0  0  0  0  0  0  0  0
  153.1237  143.1109  160.7555 C   0  0  0  0  0  0  0  0  0  0  0  0
  153.3942  141.6220  160.9815 C   0  0  0  0  0  0  0  0  0  0  0  0
  153.4751  140.9144  159.6297 C   0  0  0  0  0  0  0  0  0  0  0  0
  152.1938  141.1569  158.8208 C   0  0  0  0  0  0  0  0  0  0  0  0
  151.9307  142.6099  158.6066 N   0  3  1  0  0  0  0  0  0  0  0  0
  150.7581  142.8236  157.7101 C   0  0  0  0  0  0  0  0  0  0  0  0
  150.8915  142.0956  156.3553 C   0  0  0  0  0  0  0  0  0  0  0  0
  149.6289  142.0947  155.6269 N   0  0  0  0  0  0  0  0  0  0  0  0
  149.2449  141.1536  154.7496 C   0  0  0  0  0  0  0  0  0  0  0  0
  149.9498  140.1882  154.4526 O   0  0  0  0  0  0  0  0  0  0  0  0
  147.8496  141.3333  154.1307 C   0  0  1  0  0  0  0  0  0  0  0  0
  147.3871  140.1086  153.3196 C   0  0  0  0  0  0  0  0  0  0  0  0
  146.8809  141.6682  155.1656 N   0  0  0  0  0  0  0  0  0  0  0  0
  145.5583  141.8471  155.1035 C   0  0  0  0  0  0  0  0  0  0  0  0
  145.0003  142.1346  156.2710 N   0  0  0  0  0  0  0  0  0  0  0  0
  146.1121  142.1229  157.0645 C   0  0  0  0  0  0  0  0  0  0  0  0
  147.2634  141.8452  156.4528 N   0  0  0  0  0  0  0  0  0  0  0  0
  151.8024  145.3936  160.6848 H   0  0  0  0  0  0  0  0  0  0  0  0
  150.6685  145.1398  159.3927 H   0  0  0  0  0  0  0  0  0  0  0  0
  152.3934  145.2882  159.0330 H   0  0  0  0  0  0  0  0  0  0  0  0
  150.9959  142.9683  160.4639 H   0  0  0  0  0  0  0  0  0  0  0  0
  153.9861  143.5629  160.2628 H   0  0  0  0  0  0  0  0  0  0  0  0
  153.0298  143.6068  161.7226 H   0  0  0  0  0  0  0  0  0  0  0  0
  154.3229  141.4855  161.5365 H   0  0  0  0  0  0  0  0  0  0  0  0
  152.5983  141.1845  161.5859 H   0  0  0  0  0  0  0  0  0  0  0  0
  154.3397  141.2758  159.0709 H   0  0  0  0  0  0  0  0  0  0  0  0
  153.6262  139.8446  159.7785 H   0  0  0  0  0  0  0  0  0  0  0  0
  152.2979  140.6360  157.8712 H   0  0  0  0  0  0  0  0  0  0  0  0
  151.3414  140.7059  159.3317 H   0  0  0  0  0  0  0  0  0  0  0  0
  149.8483  142.5214  158.2308 H   0  0  0  0  0  0  0  0  0  0  0  0
  150.6338  143.8772  157.4729 H   0  0  0  0  0  0  0  0  0  0  0  0
  151.6377  142.5956  155.7371 H   0  0  0  0  0  0  0  0  0  0  0  0
  151.2228  141.0642  156.4710 H   0  0  0  0  0  0  0  0  0  0  0  0
  148.9913  142.8559  155.8128 H   0  0  0  0  0  0  0  0  0  0  0  0
  147.9128  142.1772  153.4412 H   0  0  0  0  0  0  0  0  0  0  0  0
  148.0896  139.8767  152.5183 H   0  0  0  0  0  0  0  0  0  0  0  0
  146.4165  140.2932  152.8586 H   0  0  0  0  0  0  0  0  0  0  0  0
  147.2898  139.2207  153.9456 H   0  0  0  0  0  0  0  0  0  0  0  0
  144.9925  141.7612  154.1873 H   0  0  0  0  0  0  0  0  0  0  0  0
  146.0716  142.3213  158.1256 H   0  0  0  0  0  0  0  0  0  0  0  0
  152.7329  142.9844  158.1205 H   0  0  0  0  0  0  0  0  0  0  0  0
  1  2  1  0  0  0  0
  1 20  1  0  0  0  0
  1 21  1  0  0  0  0
  1 22  1  0  0  0  0
  2  7  1  0  0  0  0
  2  3  1  0  0  0  0
  2 23  1  0  0  0  0
  3  4  1  0  0  0  0
  3 24  1  0  0  0  0
  3 25  1  0  0  0  0
  4  5  1  0  0  0  0
  4 26  1  0  0  0  0
  4 27  1  0  0  0  0
  5  6  1  0  0  0  0
  5 28  1  0  0  0  0
  5 29  1  0  0  0  0
  6  7  1  0  0  0  0
  6 30  1  0  0  0  0
  6 31  1  0  0  0  0
  7  8  1  0  0  0  0
  7 43  1  0  0  0  0
  8  9  1  0  0  0  0
  8 32  1  0  0  0  0
  8 33  1  0  0  0  0
  9 10  1  0  0  0  0
  9 34  1  0  0  0  0
  9 35  1  0  0  0  0
 10 11  1  0  0  0  0
 10 36  1  0  0  0  0
 11 12  2  0  0  0  0
 11 13  1  0  0  0  0
 13 14  1  0  0  0  0
 13 15  1  0  0  0  0
 13 37  1  0  0  0  0
 14 38  1  0  0  0  0
 14 39  1  0  0  0  0
 14 40  1  0  0  0  0
 15 19  1  0  0  0  0
 15 16  1  0  0  0  0
 16 17  2  0  0  0  0
 16 41  1  0  0  0  0
 17 18  1  0  0  0  0
 18 19  2  0  0  0  0
 18 42  1  0  0  0  0
M  CHG  1   7   1
M  END
> <s_m_source_file>
AV-unprocessed.smi

> <i_m_source_file_index>
1893

> <i_lp_mmshare_version>
43012

> <i_f3d_flags>
0

> <s_epik_input>
W0NIM11bQ0BASF0xW0NIMl1bQ0gyXVtDSDJdW0NIMl1OMVtDSDJdW0NIMl1bTkhdQyg9TylbQ0BIXShbQ0gzXSluMltjSF1uW2NIXW4y

> <s_epik_cmdline>
J2VwaWtfcHl0aG9uJywgJy1waCcsICc3LjAnLCAnLXRuJywgJzgnLCAnLW1hJywgJzIwMCcsICctbWV0YWxfYmluZGluZycsICctaW1hZScsICc8aW5maWxlLm1hZT4nLCAnLW9tYWUnLCAnPG91dGZpbGUubWFlPic=

> <r_lp_tautomer_probability>
1

> <r_epik_Ionization_Penalty>
0.00266409

> <r_epik_Ionization_Penalty_Charging>
0.00265606

> <r_epik_Ionization_Penalty_Neutral>
8.02794e-06

> <r_epik_State_Penalty>
0.00184955

> <r_epik_Charging_Adjusted_Penalty>
0.00450561

> <i_epik_Tot_Q>
1

> <i_epik_Tot_abs_Q>
1

> <r_epik_Metal_State_Penalty>
-0

> <b_epik_Metal_Only>
0

> <s_lp_Force_Field>
OPLS_2005

> <r_lp_Energy>
24.8268

> <b_lp_Chiralities_Consistent>
1

> <s_lp_Variant>
AV-unprocessed.smi:1893-5

> <Gold.Version>
5.8.1

> <Gold.Id.Protein>
6NUR|6NUR_protein|mol2

> <Gold.PLP.Fitness>
46.6171

> <Gold.PLP.PLP>
-39.9410

> <Gold.PLP.part.hbond>
-2.0000

> <Gold.PLP.part.metal>
0.0000

> <Gold.PLP.part.buried>
-5.1932

> <Gold.PLP.part.nonpolar>
-34.1774

> <Gold.PLP.part.repulsive>
0.5932

> <Gold.PLP.ligand.clash>
0.0000

> <Gold.PLP.ligand.torsion>
0.5661

> <Gold.PLP.Chemscore.Hbond>
2.0000

> <Gold.PLP.Chemscore.CHOScore>
0.5753

> <Gold.PLP.Chemscore.Metal>
0.0000

> <Gold.Chemscore.Hbonds>
donor molecule, donor type, donor heavy atom, donor atom, acceptor molecule, acceptor atom, score
      L1  H    10    36       P1  8028  0.82
      P1  H  7989  7998       L1    12  0.95
      L1  C    16    41       P1 10175  0.90

> <Gold.PLP.Chemscore.Internal.Correction>
0.0824

> <Gold.Rescore>
     Score         DG    S(hbond)    S(metal)    S(lipo)     H(rot)  DE(clash)    DE(int)     intcor
     13.15     -15.71       1.62        0.00      96.66       2.54       0.19       2.37       ----

> <Gold.Chemscore.Fitness>
13.1461

> <Gold.Chemscore.DG>
-15.7095

> <Gold.Chemscore.ZeroCoef>
-5.4800

> <Gold.Chemscore.Hbond>
1.6218

> <Gold.Chemscore.Metal>
0.0000

> <Gold.Chemscore.Lipo>
96.6618

> <Gold.Chemscore.Internal_Hbond>
0.0000

> <Gold.Chemscore.DEClash>
0.1898

> <Gold.Chemscore.DEInternal>
2.3737

> <Gold.Chemscore.Rot>
2.5377

> <Gold.Chemscore.Internal.Correction>
   9.000000E+99

> <Gold.Chemscore.Hbonds>
donor molecule, donor type, donor heavy atom, donor atom, acceptor molecule, acceptor atom, score
      L1  H    10    36       P1  8028  0.81
      P1  H  7989  7998       L1    12  0.56

> <Gold.Chemscore.Hbond.Weighted>
-5.4167

> <Gold.Chemscore.Metal.Weighted>
-0.0000

> <Gold.Chemscore.Lipo.Weighted>
-11.3094

> <Gold.Chemscore.Internal_Hbond.Weighted>
0.0000

> <Gold.Chemscore.DEClash.Weighted>
0.1898

> <Gold.Chemscore.DEInternal.Weighted>
2.3737

> <Gold.Chemscore.Rot.Weighted>
6.4966

> <Gold.Chemscore.Internal.Correction.Weighted>
   9.000000E+99

> <Gold.Protein.RotatedTorsions>
[ 6907 6896 6895 6894 ] final  -20.94 input  -60.11 | X-H torsion
[ 7974 7965 7964 7962 ] final   59.00 input  175.53 | X-H torsion
[ 8008 7997 7996 7995 ] final   53.93 input   59.86 | X-H torsion
[ 10167 10162 10161 10158 ] final  -40.15 input  -65.29 | X-H torsion
[ 10718 10713 10712 10709 ] final  113.85 input   66.30 | X-H torsion
[ 10763 10752 10751 10750 ] final   16.00 input  -60.55 | X-H torsion
[ 11005 11000 10999 10996 ] final  -52.37 input  -57.11 | X-H torsion

> <Gold.Protein.ActiveResidues>
 VAL166  LYS551  ARG553  GLY616  TRP617  ASP618  TYR619  PRO620  LYS621  CYS622 
 ASP623  PHE694  ASN695  SER759  ASP760  ASP761  ALA762  ILE779  LEU786  VAL792 
 PHE793  MET794  SER795  GLU796  ALA797  LYS798  CYS799  TRP800  GLU811  SER814 

> <Gold.Protein.RotatedAtoms>
  151.2407  135.0588  159.9023 H   0  0  0  0  0  0  0  0  0  0  0  0  # atno 6907 bound_to 6896
  152.5393  134.0437  159.8089 H   0  0  0  0  0  0  0  0  0  0  0  0  # atno 6908 bound_to 6896
  151.0630  133.5479  159.2664 H   0  0  0  0  0  0  0  0  0  0  0  0  # atno 6909 bound_to 6896
  145.9120  139.3661  143.0530 H   0  0  0  0  0  0  0  0  0  0  0  0  # atno 7974 bound_to 7965
  155.4764  140.3467  155.4333 H   0  0  0  0  0  0  0  0  0  0  0  0  # atno 8008 bound_to 7997
  156.1067  140.1450  156.9423 H   0  0  0  0  0  0  0  0  0  0  0  0  # atno 8009 bound_to 7997
  154.4729  140.0895  156.7168 H   0  0  0  0  0  0  0  0  0  0  0  0  # atno 8010 bound_to 7997
  140.7043  143.3171  151.2884 H   0  0  0  0  0  0  0  0  0  0  0  0  # atno 10167 bound_to 10162
  157.6315  131.0990  150.7100 H   0  0  0  0  0  0  0  0  0  0  0  0  # atno 10718 bound_to 10713
  153.1471  135.6771  153.8937 H   0  0  0  0  0  0  0  0  0  0  0  0  # atno 10763 bound_to 10752
  153.8376  135.3109  155.3425 H   0  0  0  0  0  0  0  0  0  0  0  0  # atno 10764 bound_to 10752
  154.7834  135.4876  153.9978 H   0  0  0  0  0  0  0  0  0  0  0  0  # atno 10765 bound_to 10752
  141.0921  133.6631  156.4014 H   0  0  0  0  0  0  0  0  0  0  0  0  # atno 11005 bound_to 11000
  145.8659  140.9448  143.0676 LP  0  0  0  0  0  0  0  0  0  0  0  0  # atno 17320 bound_to 7965
  144.6744  140.0592  143.7476 LP  0  0  0  0  0  0  0  0  0  0  0  0  # atno 17321 bound_to 7965
  139.6613  144.0185  152.2694 LP  0  0  0  0  0  0  0  0  0  0  0  0  # atno 17342 bound_to 10162
  139.9753  144.6466  150.7951 LP  0  0  0  0  0  0  0  0  0  0  0  0  # atno 17343 bound_to 10162
  156.7439  130.4747  149.5471 LP  0  0  0  0  0  0  0  0  0  0  0  0  # atno 17370 bound_to 10713
  156.1522  130.6317  151.0610 LP  0  0  0  0  0  0  0  0  0  0  0  0  # atno 17371 bound_to 10713
  140.5228  134.6287  157.5324 LP  0  0  0  0  0  0  0  0  0  0  0  0  # atno 17394 bound_to 11000
  139.9749  134.7232  155.9970 LP  0  0  0  0  0  0  0  0  0  0  0  0  # atno 17395 bound_to 11000

$$$$
