AV-unprocessed.smi:772|AV-procd|sdf|3688|dock4
  -GOLD-   22720 1103D 1   1.00000     0.00000
 Structure written by MMmdl.
 47 48  0  0  0  0  0  0  0  0  2 V2000
  144.3704  131.7129  151.0622 C   0  0  0  0  0  0  0  0  0  0  0  0
  144.1388  133.1648  151.4233 C   0  0  0  0  0  0  0  0  0  0  0  0
  144.5598  134.2254  150.5930 C   0  0  0  0  0  0  0  0  0  0  0  0
  144.3146  135.5542  150.9965 C   0  0  0  0  0  0  0  0  0  0  0  0
  143.6554  135.7961  152.2219 C   0  0  0  0  0  0  0  0  0  0  0  0
  143.4039  137.2148  152.7025 C   0  0  0  0  0  0  0  0  0  0  0  0
  144.2425  137.6063  153.9344 C   0  0  0  0  0  0  0  0  0  0  0  0
  145.3167  138.5394  153.6021 N   0  0  0  0  0  0  0  0  0  0  0  0
  146.6210  138.3745  153.8865 C   0  0  0  0  0  0  0  0  0  0  0  0
  147.0423  137.3762  154.4733 O   0  0  0  0  0  0  0  0  0  0  0  0
  147.4277  139.3781  153.4568 N   0  0  0  0  0  0  0  0  0  0  0  0
  147.0436  140.7899  153.2990 C   0  0  0  0  0  0  0  0  0  0  0  0
  147.4826  141.5687  154.5481 C   0  0  0  0  0  0  0  0  0  0  0  0
  149.2918  141.5301  154.7343 S   0  0  0  0  0  0  0  0  0  0  0  0
  149.5967  139.7356  154.5610 C   0  0  2  0  0  0  0  0  0  0  0  0
  151.1067  139.3887  154.5904 C   0  0  0  0  0  0  0  0  0  0  0  0
  151.3564  137.8882  154.3614 C   0  0  0  0  0  0  0  0  0  0  0  0
  151.8371  139.8795  155.8545 C   0  0  0  0  0  0  0  0  0  0  0  0
  148.8759  139.1904  153.3073 C   0  0  0  0  0  0  0  0  0  0  0  0
  143.2526  134.6953  153.0078 C   0  0  0  0  0  0  0  0  0  0  0  0
  143.5063  133.4374  152.5865 N   0  3  0  0  0  0  0  0  0  0  0  0
  144.9325  131.6243  150.1321 H   0  0  0  0  0  0  0  0  0  0  0  0
  143.4187  131.1965  150.9358 H   0  0  0  0  0  0  0  0  0  0  0  0
  144.9337  131.2102  151.8491 H   0  0  0  0  0  0  0  0  0  0  0  0
  145.0680  134.0270  149.6605 H   0  0  0  0  0  0  0  0  0  0  0  0
  144.6398  136.3763  150.3755 H   0  0  0  0  0  0  0  0  0  0  0  0
  143.6034  137.9117  151.8873 H   0  0  0  0  0  0  0  0  0  0  0  0
  142.3438  137.3190  152.9357 H   0  0  0  0  0  0  0  0  0  0  0  0
  143.5995  138.0849  154.6734 H   0  0  0  0  0  0  0  0  0  0  0  0
  144.6434  136.7138  154.4179 H   0  0  0  0  0  0  0  0  0  0  0  0
  145.0480  139.3841  153.1182 H   0  0  0  0  0  0  0  0  0  0  0  0
  147.5227  141.2094  152.4133 H   0  0  0  0  0  0  0  0  0  0  0  0
  145.9757  140.9277  153.1287 H   0  0  0  0  0  0  0  0  0  0  0  0
  147.1608  142.6080  154.4811 H   0  0  0  0  0  0  0  0  0  0  0  0
  147.0225  141.1479  155.4427 H   0  0  0  0  0  0  0  0  0  0  0  0
  149.1398  139.2610  155.4308 H   0  0  0  0  0  0  0  0  0  0  0  0
  151.5640  139.9035  153.7444 H   0  0  0  0  0  0  0  0  0  0  0  0
  150.9702  137.2844  155.1826 H   0  0  0  0  0  0  0  0  0  0  0  0
  152.4229  137.6789  154.2741 H   0  0  0  0  0  0  0  0  0  0  0  0
  150.8805  137.5446  153.4426 H   0  0  0  0  0  0  0  0  0  0  0  0
  151.4557  139.3986  156.7553 H   0  0  0  0  0  0  0  0  0  0  0  0
  151.7418  140.9570  155.9838 H   0  0  0  0  0  0  0  0  0  0  0  0
  152.9031  139.6586  155.7955 H   0  0  0  0  0  0  0  0  0  0  0  0
  149.1308  138.1409  153.1521 H   0  0  0  0  0  0  0  0  0  0  0  0
  149.2202  139.7045  152.4095 H   0  0  0  0  0  0  0  0  0  0  0  0
  142.7501  134.7826  153.9601 H   0  0  0  0  0  0  0  0  0  0  0  0
  143.2107  132.6581  153.1749 H   0  0  0  0  0  0  0  0  0  0  0  0
  1  2  1  0  0  0  0
  1 22  1  0  0  0  0
  1 23  1  0  0  0  0
  1 24  1  0  0  0  0
  2 21  1  0  0  0  0
  2  3  2  0  0  0  0
  3  4  1  0  0  0  0
  3 25  1  0  0  0  0
  4  5  2  0  0  0  0
  4 26  1  0  0  0  0
  5  6  1  0  0  0  0
  5 20  1  0  0  0  0
  6  7  1  0  0  0  0
  6 27  1  0  0  0  0
  6 28  1  0  0  0  0
  7  8  1  0  0  0  0
  7 29  1  0  0  0  0
  7 30  1  0  0  0  0
  8  9  1  0  0  0  0
  8 31  1  0  0  0  0
  9 10  2  0  0  0  0
  9 11  1  0  0  0  0
 11 19  1  0  0  0  0
 11 12  1  0  0  0  0
 12 13  1  0  0  0  0
 12 32  1  0  0  0  0
 12 33  1  0  0  0  0
 13 14  1  0  0  0  0
 13 34  1  0  0  0  0
 13 35  1  0  0  0  0
 14 15  1  0  0  0  0
 15 16  1  0  0  0  0
 15 19  1  0  0  0  0
 15 36  1  0  0  0  0
 16 17  1  0  0  0  0
 16 18  1  0  0  0  0
 16 37  1  0  0  0  0
 17 38  1  0  0  0  0
 17 39  1  0  0  0  0
 17 40  1  0  0  0  0
 18 41  1  0  0  0  0
 18 42  1  0  0  0  0
 18 43  1  0  0  0  0
 19 44  1  0  0  0  0
 19 45  1  0  0  0  0
 20 21  2  0  0  0  0
 20 46  1  0  0  0  0
 21 47  1  0  0  0  0
M  CHG  1  21   1
M  END
> <s_m_source_file>
AV-unprocessed.smi

> <i_m_source_file_index>
772

> <i_lp_mmshare_version>
43012

> <i_f3d_flags>
0

> <s_epik_input>
W0NIM11jMVtjSF1bY0hdYyhbY0hdbjEpW0NIMl1bQ0gyXVtOSF1DKD1PKU4yW0NIMl1bQ0gyXVNbQ0BIXShbQ0gyXTIpW0NIXShbQ0gzXSlbQ0gzXQ==

> <s_epik_cmdline>
J2VwaWtfcHl0aG9uJywgJy1waCcsICc3LjAnLCAnLXRuJywgJzgnLCAnLW1hJywgJzIwMCcsICctbWV0YWxfYmluZGluZycsICctaW1hZScsICc8aW5maWxlLm1hZT4nLCAnLW9tYWUnLCAnPG91dGZpbGUubWFlPic=

> <r_epik_Ionization_Penalty>
1.41908

> <r_epik_Ionization_Penalty_Charging>
1.41903

> <r_epik_Ionization_Penalty_Neutral>
4.72921e-05

> <r_epik_State_Penalty>
1.50265

> <r_epik_Charging_Adjusted_Penalty>
2.92168

> <i_epik_Tot_Q>
1

> <i_epik_Tot_abs_Q>
1

> <r_epik_Metal_State_Penalty>
1.55496

> <b_epik_Metal_Only>
0

> <s_lp_Force_Field>
OPLS_2005

> <r_lp_Energy>
32.4452

> <b_lp_Chiralities_Consistent>
1

> <s_lp_Variant>
AV-unprocessed.smi:772-4

> <Gold.Version>
5.8.1

> <Gold.Id.Protein>
6NUR|6NUR_protein|mol2

> <Gold.PLP.Fitness>
46.5045

> <Gold.PLP.PLP>
-39.0459

> <Gold.PLP.part.hbond>
-2.0000

> <Gold.PLP.part.metal>
0.0000

> <Gold.PLP.part.buried>
2.4412

> <Gold.PLP.part.nonpolar>
-39.9777

> <Gold.PLP.part.repulsive>
0.0833

> <Gold.PLP.ligand.clash>
0.0000

> <Gold.PLP.ligand.torsion>
0.7034

> <Gold.PLP.Chemscore.Hbond>
2.9280

> <Gold.PLP.Chemscore.CHOScore>
0.0000

> <Gold.PLP.Chemscore.Metal>
0.0000

> <Gold.Chemscore.Hbonds>
donor molecule, donor type, donor heavy atom, donor atom, acceptor molecule, acceptor atom, score
      L1  H     8    31       P1 10175  0.96
      L1  H    21    47       P1 10957  2.00

> <Gold.PLP.Chemscore.Internal.Correction>
0.0814

> <Gold.Rescore>
     Score         DG    S(hbond)    S(metal)    S(lipo)     H(rot)  DE(clash)    DE(int)     intcor
     16.52     -18.85       1.76        0.00      94.58       1.39       1.67       0.67       ----

> <Gold.Chemscore.Fitness>
16.5172

> <Gold.Chemscore.DG>
-18.8538

> <Gold.Chemscore.ZeroCoef>
-5.4800

> <Gold.Chemscore.Hbond>
1.7600

> <Gold.Chemscore.Metal>
0.0000

> <Gold.Chemscore.Lipo>
94.5830

> <Gold.Chemscore.Internal_Hbond>
0.0000

> <Gold.Chemscore.DEClash>
1.6657

> <Gold.Chemscore.DEInternal>
0.6710

> <Gold.Chemscore.Rot>
1.3949

> <Gold.Chemscore.Internal.Correction>
   9.000000E+99

> <Gold.Chemscore.Hbonds>
donor molecule, donor type, donor heavy atom, donor atom, acceptor molecule, acceptor atom, score
      L1  H     8    31       P1 10175  0.92
      L1  H    21    47       P1 10957  0.30

> <Gold.Chemscore.Hbond.Weighted>
-5.8785

> <Gold.Chemscore.Metal.Weighted>
-0.0000

> <Gold.Chemscore.Lipo.Weighted>
-11.0662

> <Gold.Chemscore.Internal_Hbond.Weighted>
0.0000

> <Gold.Chemscore.DEClash.Weighted>
1.6657

> <Gold.Chemscore.DEInternal.Weighted>
0.6710

> <Gold.Chemscore.Rot.Weighted>
3.5709

> <Gold.Chemscore.Internal.Correction.Weighted>
   9.000000E+99

> <Gold.Protein.RotatedTorsions>
[ 6907 6896 6895 6894 ] final  158.80 input  -60.11 | X-H torsion
[ 7974 7965 7964 7962 ] final  172.27 input  175.53 | X-H torsion
[ 8008 7997 7996 7995 ] final   38.67 input   59.86 | X-H torsion
[ 10167 10162 10161 10158 ] final  148.61 input  -65.29 | X-H torsion
[ 10718 10713 10712 10709 ] final   27.78 input   66.30 | X-H torsion
[ 10763 10752 10751 10750 ] final  153.46 input  -60.55 | X-H torsion
[ 11005 11000 10999 10996 ] final   81.93 input  -57.11 | X-H torsion

> <Gold.Protein.ActiveResidues>
 VAL166  LYS551  ARG553  GLY616  TRP617  ASP618  TYR619  PRO620  LYS621  CYS622 
 ASP623  PHE694  ASN695  SER759  ASP760  ASP761  ALA762  ILE779  LEU786  VAL792 
 PHE793  MET794  SER795  GLU796  ALA797  LYS798  CYS799  TRP800  GLU811  SER814 

> <Gold.Protein.RotatedAtoms>
  151.9950  133.3804  159.4158 H   0  0  0  0  0  0  0  0  0  0  0  0  # atno 6907 bound_to 6896
  150.6917  134.3896  159.5079 H   0  0  0  0  0  0  0  0  0  0  0  0  # atno 6908 bound_to 6896
  152.1635  134.8893  160.0590 H   0  0  0  0  0  0  0  0  0  0  0  0  # atno 6909 bound_to 6896
  144.7272  139.9474  143.6431 H   0  0  0  0  0  0  0  0  0  0  0  0  # atno 7974 bound_to 7965
  155.2240  140.3333  155.4312 H   0  0  0  0  0  0  0  0  0  0  0  0  # atno 8008 bound_to 7997
  156.2322  140.1855  156.7261 H   0  0  0  0  0  0  0  0  0  0  0  0  # atno 8009 bound_to 7997
  154.5997  140.0625  156.9336 H   0  0  0  0  0  0  0  0  0  0  0  0  # atno 8010 bound_to 7997
  139.4872  144.5666  151.7133 H   0  0  0  0  0  0  0  0  0  0  0  0  # atno 10167 bound_to 10162
  157.2248  130.6995  149.6286 H   0  0  0  0  0  0  0  0  0  0  0  0  # atno 10718 bound_to 10713
  154.1366  135.2823  155.3171 H   0  0  0  0  0  0  0  0  0  0  0  0  # atno 10763 bound_to 10752
  154.6317  135.5433  153.7691 H   0  0  0  0  0  0  0  0  0  0  0  0  # atno 10764 bound_to 10752
  153.0264  135.6464  154.1515 H   0  0  0  0  0  0  0  0  0  0  0  0  # atno 10765 bound_to 10752
  139.9081  134.8033  156.2106 H   0  0  0  0  0  0  0  0  0  0  0  0  # atno 11005 bound_to 11000
  146.0738  139.3726  143.0506 LP  0  0  0  0  0  0  0  0  0  0  0  0  # atno 17320 bound_to 7965
  145.7932  140.9805  143.1038 LP  0  0  0  0  0  0  0  0  0  0  0  0  # atno 17321 bound_to 7965
  140.5245  144.0826  150.6033 LP  0  0  0  0  0  0  0  0  0  0  0  0  # atno 17342 bound_to 10162
  140.3796  143.2810  152.0186 LP  0  0  0  0  0  0  0  0  0  0  0  0  # atno 17343 bound_to 10162
  155.9679  130.4508  150.5711 LP  0  0  0  0  0  0  0  0  0  0  0  0  # atno 17370 bound_to 10713
  157.3539  131.0738  151.1691 LP  0  0  0  0  0  0  0  0  0  0  0  0  # atno 17371 bound_to 10713
  141.0467  133.6909  156.1697 LP  0  0  0  0  0  0  0  0  0  0  0  0  # atno 17394 bound_to 11000
  140.6872  134.4704  157.5589 LP  0  0  0  0  0  0  0  0  0  0  0  0  # atno 17395 bound_to 11000

$$$$
