AV-unprocessed.smi:1212|AV-procd|sdf|5083|dock5
  -GOLD-   22720 4133D 1   1.00000     0.00000
 Structure written by MMmdl.
 38 39  0  0  0  0  0  0  0  0  2 V2000
  143.9984  143.4687  163.1798 C   0  0  0  0  0  0  0  0  0  0  0  0
  144.8031  143.1877  161.9576 C   0  0  0  0  0  0  0  0  0  0  0  0
  145.2604  141.9689  161.6605 N   0  0  0  0  0  0  0  0  0  0  0  0
  145.9807  141.9556  160.4748 N   0  0  0  0  0  0  0  0  0  0  0  0
  146.0510  143.1592  159.8887 C   0  0  0  0  0  0  0  0  0  0  0  0
  146.7057  143.3606  158.7330 N   0  5  0  0  0  0  0  0  0  0  0  0
  147.4787  142.3791  158.2146 C   0  0  0  0  0  0  0  0  0  0  0  0
  147.0830  141.3881  157.5958 O   0  0  0  0  0  0  0  0  0  0  0  0
  148.7915  142.5574  158.4220 N   0  0  0  0  0  0  0  0  0  0  0  0
  149.8538  141.6629  157.9764 C   0  0  0  0  0  0  0  0  0  0  0  0
  151.0283  142.4439  157.3589 C   0  0  0  0  0  0  0  0  0  0  0  0
  152.0525  142.7515  158.3634 N   0  0  0  0  0  0  0  0  0  0  0  0
  152.3999  144.1735  158.5119 C   0  0  0  0  0  0  0  0  0  0  0  0
  151.9059  144.7981  159.8368 C   0  0  0  0  0  0  0  0  0  0  0  0
  151.8310  143.8491  161.0495 C   0  0  0  0  0  0  0  0  0  0  0  0
  153.1173  143.0437  161.3305 C   0  0  0  0  0  0  0  0  0  0  0  0
  153.6794  142.2029  160.1584 C   0  0  0  0  0  0  0  0  0  0  0  0
  152.6328  141.7827  159.1130 C   0  0  0  0  0  0  0  0  0  0  0  0
  152.3610  140.5876  158.9941 O   0  0  0  0  0  0  0  0  0  0  0  0
  145.2288  144.4306  160.7931 S   0  0  0  0  0  0  0  0  0  0  0  0
  143.0877  142.8693  163.1738 H   0  0  0  0  0  0  0  0  0  0  0  0
  143.7223  144.5225  163.2193 H   0  0  0  0  0  0  0  0  0  0  0  0
  144.5751  143.2246  164.0722 H   0  0  0  0  0  0  0  0  0  0  0  0
  149.0727  143.3816  158.9328 H   0  0  0  0  0  0  0  0  0  0  0  0
  150.1946  141.0881  158.8377 H   0  0  0  0  0  0  0  0  0  0  0  0
  149.4551  140.9408  157.2615 H   0  0  0  0  0  0  0  0  0  0  0  0
  151.4722  141.8745  156.5411 H   0  0  0  0  0  0  0  0  0  0  0  0
  150.6632  143.3632  156.8977 H   0  0  0  0  0  0  0  0  0  0  0  0
  153.4809  144.2878  158.4308 H   0  0  0  0  0  0  0  0  0  0  0  0
  152.0134  144.7574  157.6752 H   0  0  0  0  0  0  0  0  0  0  0  0
  152.5374  145.6535  160.0790 H   0  0  0  0  0  0  0  0  0  0  0  0
  150.9081  145.2074  159.6747 H   0  0  0  0  0  0  0  0  0  0  0  0
  151.5796  144.4321  161.9360 H   0  0  0  0  0  0  0  0  0  0  0  0
  150.9943  143.1612  160.9190 H   0  0  0  0  0  0  0  0  0  0  0  0
  153.8954  143.7282  161.6700 H   0  0  0  0  0  0  0  0  0  0  0  0
  152.9246  142.3806  162.1745 H   0  0  0  0  0  0  0  0  0  0  0  0
  154.4787  142.7478  159.6564 H   0  0  0  0  0  0  0  0  0  0  0  0
  154.1612  141.3099  160.5590 H   0  0  0  0  0  0  0  0  0  0  0  0
  1  2  1  0  0  0  0
  1 21  1  0  0  0  0
  1 22  1  0  0  0  0
  1 23  1  0  0  0  0
  2 20  1  0  0  0  0
  2  3  2  0  0  0  0
  3  4  1  0  0  0  0
  4  5  2  0  0  0  0
  5  6  1  0  0  0  0
  5 20  1  0  0  0  0
  6  7  1  0  0  0  0
  7  8  2  0  0  0  0
  7  9  1  0  0  0  0
  9 10  1  0  0  0  0
  9 24  1  0  0  0  0
 10 11  1  0  0  0  0
 10 25  1  0  0  0  0
 10 26  1  0  0  0  0
 11 12  1  0  0  0  0
 11 27  1  0  0  0  0
 11 28  1  0  0  0  0
 12 18  1  0  0  0  0
 12 13  1  0  0  0  0
 13 14  1  0  0  0  0
 13 29  1  0  0  0  0
 13 30  1  0  0  0  0
 14 15  1  0  0  0  0
 14 31  1  0  0  0  0
 14 32  1  0  0  0  0
 15 16  1  0  0  0  0
 15 33  1  0  0  0  0
 15 34  1  0  0  0  0
 16 17  1  0  0  0  0
 16 35  1  0  0  0  0
 16 36  1  0  0  0  0
 17 18  1  0  0  0  0
 17 37  1  0  0  0  0
 17 38  1  0  0  0  0
 18 19  2  0  0  0  0
M  CHG  1   6  -1
M  END
> <s_m_source_file>
AV-unprocessed.smi

> <i_m_source_file_index>
1212

> <i_lp_mmshare_version>
43012

> <i_f3d_flags>
0

> <s_epik_input>
W0NIM11jMW5uYyhzMSlbTkhdQyg9TylbTkhdW0NIMl1bQ0gyXU4yW0NIMl1bQ0gyXVtDSDJdW0NIMl1bQ0gyXUMyPU8=

> <s_epik_cmdline>
J2VwaWtfcHl0aG9uJywgJy1waCcsICc3LjAnLCAnLXRuJywgJzgnLCAnLW1hJywgJzIwMCcsICctbWV0YWxfYmluZGluZycsICctaW1hZScsICc8aW5maWxlLm1hZT4nLCAnLW9tYWUnLCAnPG91dGZpbGUubWFlPic=

> <r_lp_tautomer_probability>
1

> <r_epik_Ionization_Penalty>
3.37178

> <r_epik_Ionization_Penalty_Charging>
3.23409

> <r_epik_Ionization_Penalty_Neutral>
0.137695

> <r_epik_State_Penalty>
3.23156

> <r_epik_Charging_Adjusted_Penalty>
6.46564

> <i_epik_Tot_Q>
-1

> <i_epik_Tot_abs_Q>
1

> <r_epik_Metal_State_Penalty>
0.474775

> <b_epik_Metal_Only>
1

> <s_lp_Force_Field>
OPLS_2005

> <r_lp_Energy>
19.6793

> <b_lp_Chiralities_Consistent>
1

> <s_lp_Variant>
AV-unprocessed.smi:1212-2

> <Gold.Version>
5.8.1

> <Gold.Id.Protein>
6NUR|6NUR_protein|mol2

> <Gold.PLP.Fitness>
43.9310

> <Gold.PLP.PLP>
-43.0250

> <Gold.PLP.part.hbond>
-2.1770

> <Gold.PLP.part.metal>
0.0000

> <Gold.PLP.part.buried>
-7.0346

> <Gold.PLP.part.nonpolar>
-34.2322

> <Gold.PLP.part.repulsive>
1.0183

> <Gold.PLP.ligand.clash>
0.0000

> <Gold.PLP.ligand.torsion>
1.0710

> <Gold.PLP.Chemscore.Hbond>
1.0000

> <Gold.PLP.Chemscore.CHOScore>
0.0000

> <Gold.PLP.Chemscore.Metal>
0.0000

> <Gold.Chemscore.Hbonds>
donor molecule, donor type, donor heavy atom, donor atom, acceptor molecule, acceptor atom, score
      P1  H  6934  6946       L1     4  0.80

> <Gold.PLP.Chemscore.Internal.Correction>
0.0481

> <Gold.Rescore>
     Score         DG    S(hbond)    S(metal)    S(lipo)     H(rot)  DE(clash)    DE(int)     intcor
     13.69     -14.96       0.88        0.00      91.42       1.63       0.15       1.12       ----

> <Gold.Chemscore.Fitness>
13.6859

> <Gold.Chemscore.DG>
-14.9571

> <Gold.Chemscore.ZeroCoef>
-5.4800

> <Gold.Chemscore.Hbond>
0.8810

> <Gold.Chemscore.Metal>
0.0000

> <Gold.Chemscore.Lipo>
91.4181

> <Gold.Chemscore.Internal_Hbond>
0.0000

> <Gold.Chemscore.DEClash>
0.1530

> <Gold.Chemscore.DEInternal>
1.1182

> <Gold.Chemscore.Rot>
1.6255

> <Gold.Chemscore.Internal.Correction>
   9.000000E+99

> <Gold.Chemscore.Hbonds>
donor molecule, donor type, donor heavy atom, donor atom, acceptor molecule, acceptor atom, score
      P1  H  6934  6946       L1     4  0.24

> <Gold.Chemscore.Hbond.Weighted>
-2.9425

> <Gold.Chemscore.Metal.Weighted>
-0.0000

> <Gold.Chemscore.Lipo.Weighted>
-10.6959

> <Gold.Chemscore.Internal_Hbond.Weighted>
0.0000

> <Gold.Chemscore.DEClash.Weighted>
0.1530

> <Gold.Chemscore.DEInternal.Weighted>
1.1182

> <Gold.Chemscore.Rot.Weighted>
4.1613

> <Gold.Chemscore.Internal.Correction.Weighted>
   9.000000E+99

> <Gold.Protein.RotatedTorsions>
[ 6907 6896 6895 6894 ] final  -69.10 input  -60.11 | X-H torsion
[ 7974 7965 7964 7962 ] final  -46.21 input  175.53 | X-H torsion
[ 8008 7997 7996 7995 ] final   61.81 input   59.86 | X-H torsion
[ 10167 10162 10161 10158 ] final   21.01 input  -65.29 | X-H torsion
[ 10718 10713 10712 10709 ] final -158.23 input   66.30 | X-H torsion
[ 10763 10752 10751 10750 ] final  -88.98 input  -60.55 | X-H torsion
[ 11005 11000 10999 10996 ] final  -26.41 input  -57.11 | X-H torsion

> <Gold.Protein.ActiveResidues>
 VAL166  LYS551  ARG553  GLY616  TRP617  ASP618  TYR619  PRO620  LYS621  CYS622 
 ASP623  PHE694  ASN695  SER759  ASP760  ASP761  ALA762  ILE779  LEU786  VAL792 
 PHE793  MET794  SER795  GLU796  ALA797  LYS798  CYS799  TRP800  GLU811  SER814 

> <Gold.Protein.RotatedAtoms>
  150.7322  134.5644  159.5858 H   0  0  0  0  0  0  0  0  0  0  0  0  # atno 6907 bound_to 6896
  152.3099  134.7507  160.0348 H   0  0  0  0  0  0  0  0  0  0  0  0  # atno 6908 bound_to 6896
  151.8058  133.3340  159.3577 H   0  0  0  0  0  0  0  0  0  0  0  0  # atno 6909 bound_to 6896
  145.9743  140.7351  142.9395 H   0  0  0  0  0  0  0  0  0  0  0  0  # atno 7974 bound_to 7965
  155.6043  140.3494  155.4603 H   0  0  0  0  0  0  0  0  0  0  0  0  # atno 8008 bound_to 7997
  156.0204  140.1252  157.0388 H   0  0  0  0  0  0  0  0  0  0  0  0  # atno 8009 bound_to 7997
  154.4313  140.1064  156.5941 H   0  0  0  0  0  0  0  0  0  0  0  0  # atno 8010 bound_to 7997
  140.5460  143.9594  150.6548 H   0  0  0  0  0  0  0  0  0  0  0  0  # atno 10167 bound_to 10162
  156.5512  130.8606  151.2780 H   0  0  0  0  0  0  0  0  0  0  0  0  # atno 10718 bound_to 10713
  154.6504  135.5357  153.7895 H   0  0  0  0  0  0  0  0  0  0  0  0  # atno 10763 bound_to 10752
  153.0383  135.6481  154.1025 H   0  0  0  0  0  0  0  0  0  0  0  0  # atno 10764 bound_to 10752
  154.0943  135.2938  155.3245 H   0  0  0  0  0  0  0  0  0  0  0  0  # atno 10765 bound_to 10752
  140.9026  133.7513  156.0564 H   0  0  0  0  0  0  0  0  0  0  0  0  # atno 11005 bound_to 11000
  144.6844  140.2801  143.7293 LP  0  0  0  0  0  0  0  0  0  0  0  0  # atno 17320 bound_to 7965
  145.7862  139.1909  143.2129 LP  0  0  0  0  0  0  0  0  0  0  0  0  # atno 17321 bound_to 7965
  140.3007  143.3262  152.0974 LP  0  0  0  0  0  0  0  0  0  0  0  0  # atno 17342 bound_to 10162
  139.5007  144.6698  151.6269 LP  0  0  0  0  0  0  0  0  0  0  0  0  # atno 17343 bound_to 10162
  157.7387  130.9818  150.2268 LP  0  0  0  0  0  0  0  0  0  0  0  0  # atno 17370 bound_to 10713
  156.2883  130.3742  149.7867 LP  0  0  0  0  0  0  0  0  0  0  0  0  # atno 17371 bound_to 10713
  140.8210  134.3289  157.5381 LP  0  0  0  0  0  0  0  0  0  0  0  0  # atno 17394 bound_to 11000
  139.8744  134.9309  156.3515 LP  0  0  0  0  0  0  0  0  0  0  0  0  # atno 17395 bound_to 11000

$$$$
