#       Name:                AV-unprocessed.smi:2161
#       Creating user name   scv26
#       Creation time:       Fri Mar 27 11:58:38 2020


#       File generated by GOLD software.
#

@<TRIPOS>MOLECULE
AV-unprocessed.smi:2161
    37    38     1
SMALL
NO_CHARGES


@<TRIPOS>ATOM
      1 ****        -5.9320   0.8594  -0.1412 C.3            1 S1                 0.0000
      2 ****        -4.4505   1.1989  -0.2779 C.2            1 S1                 0.0000
      3 ****        -4.1228   2.3366  -0.6137 O.2            1 S1                 0.0000
      4 ****        -3.5917   0.1972  -0.0114 N.am           1 S1                 0.0000
      5 ****        -2.1719   0.2220  -0.0463 C.ar           1 S1                 0.0000
      6 ****        -1.5456  -1.0108   0.2420 C.ar           1 S1                 0.0000
      7 ****        -0.1402  -1.0934   0.2325 C.ar           1 S1                 0.0000
      8 ****         0.6111   0.0637  -0.0659 C.ar           1 S1                 0.0000
      9 ****         2.0131   0.0652  -0.0919 N.3            1 S1                 0.0000
     10 ****         2.6069  -0.0023   1.2370 C.3            1 S1                 0.0000
     11 ****         4.1369   0.1345   1.1396 C.3            1 S1                 0.0000
     12 ****         4.6529  -0.8584   0.2569 O.3            1 S1                 0.0000
     13 ****         4.1227  -0.7308  -1.0597 C.3            1 S1                 0.0000
     14 ****         2.5945  -0.9012  -1.0154 C.3            1 S1                 0.0000
     15 ****        -0.0973   1.2520  -0.3339 C.ar           1 S1                 0.0000
     16 ****        -1.4445   1.3314  -0.3271 N.ar           1 S1                 0.0000
     17 ****        -6.0986  -0.2186  -0.1499 H              1 S1                 0.0000
     18 ****        -6.4989   1.2960  -0.9640 H              1 S1                 0.0000
     19 ****        -6.3229   1.2596   0.7945 H              1 S1                 0.0000
     20 ****        -4.0046  -0.6880   0.2432 H              1 S1                 0.0000
     21 ****        -2.1327  -1.8888   0.4692 H              1 S1                 0.0000
     22 ****         0.3464  -2.0312   0.4560 H              1 S1                 0.0000
     23 ****         2.2007   0.7908   1.8660 H              1 S1                 0.0000
     24 ****         2.3488  -0.9523   1.7073 H              1 S1                 0.0000
     25 ****         4.4168   1.1287   0.7877 H              1 S1                 0.0000
     26 ****         4.5893   0.0059   2.1229 H              1 S1                 0.0000
     27 ****         4.3949   0.2382  -1.4814 H              1 S1                 0.0000
     28 ****         4.5678  -1.4933  -1.6988 H              1 S1                 0.0000
     29 ****         2.3498  -1.9161  -0.7000 H              1 S1                 0.0000
     30 ****         2.1725  -0.7599  -2.0111 H              1 S1                 0.0000
     31 ****         0.4303   2.1662  -0.5639 H              1 S1                 0.0000
     32 ****        -4.8242   3.0263  -0.7936 LP             1 S1                 0.0000
     33 ****        -3.1552   2.5713  -0.7067 LP             1 S1                 0.0000
     34 ****         2.2567   0.9600  -0.4661 LP             1 S1                 0.0000
     35 ****         4.4162  -1.7621   0.6139 LP             1 S1                 0.0000
     36 ****         5.6478  -0.7669   0.2144 LP             1 S1                 0.0000
     37 ****        -1.9011   2.1983  -0.5269 LP             1 S1                 0.0000
@<TRIPOS>BOND
    1    1    2 1     
    2    1   17 1     
    3    1   18 1     
    4    1   19 1     
    5    2    3 2     
    6    2    4 am    
    7    4    5 1     
    8    4   20 1     
    9    5   16 ar    
   10    5    6 ar    
   11    6    7 ar    
   12    6   21 1     
   13    7    8 ar    
   14    7   22 1     
   15    8    9 1     
   16    8   15 ar    
   17    9   14 1     
   18    9   10 1     
   19   10   11 1     
   20   10   23 1     
   21   10   24 1     
   22   11   12 1     
   23   11   25 1     
   24   11   26 1     
   25   12   13 1     
   26   13   14 1     
   27   13   27 1     
   28   13   28 1     
   29   14   29 1     
   30   14   30 1     
   31   15   16 ar    
   32   15   31 1     
   33    3   32 1     
   34    3   33 1     
   35    9   34 1     
   36   12   35 1     
   37   12   36 1     
   38   16   37 1     
@<TRIPOS>SUBSTRUCTURE
      1 S1             1
@<TRIPOS>SET
LONE_PAIRS      STATIC     ATOMS    <user>   **** ""
6 32 33 34 35 36 37
DONOR_HYDROGENS      STATIC     ATOMS    <user>   **** ""
1 20
ATOM$BLUE        STATIC     ATOMS    COLORGROUP SYSTEM
6 32 33 34 35 36 37
ATOM$RED        STATIC     ATOMS    COLORGROUP SYSTEM
1 20
