#       Name:                AV-unprocessed.smi:1287
#       Creating user name   scv26
#       Creation time:       Fri Mar 27 04:52:49 2020


#       File generated by GOLD software.
#

@<TRIPOS>MOLECULE
AV-unprocessed.smi:1287
    52    53     1
SMALL
NO_CHARGES


@<TRIPOS>ATOM
      1 ****        -4.3724  -4.7771  -3.2673 C.3            1 S1                 0.0000
      2 ****        -3.8407  -3.3495  -3.3298 C.2            1 S1                 0.0000
      3 ****        -3.5100  -2.8590  -4.4091 O.2            1 S1                 0.0000
      4 ****        -3.7636  -2.6933  -2.1612 N.am           1 S1                 0.0000
      5 ****        -3.2675  -1.3282  -1.9910 C.3            1 S1                 0.0000
      6 ****        -3.8102  -0.7866  -0.6579 C.3            1 S1                 0.0000
      7 ****        -1.7322  -1.3112  -1.9170 C.2            1 S1                 0.0000
      8 ****        -1.1202  -2.2085  -1.3351 O.2            1 S1                 0.0000
      9 ****        -1.1244  -0.2632  -2.4936 N.am           1 S1                 0.0000
     10 ****         0.3175  -0.0407  -2.5116 C.3            1 S1                 0.0000
     11 ****         0.8877   0.4594  -1.1919 C.ar           1 S1                 0.0000
     12 ****         0.1589   1.3139  -0.3386 C.ar           1 S1                 0.0000
     13 ****         0.7474   1.7405   0.8671 C.ar           1 S1                 0.0000
     14 ****         2.0555   1.3066   1.1892 C.ar           1 S1                 0.0000
     15 ****         2.6649   1.7198   2.3940 N.3            1 S1                 0.0000
     16 ****         2.6747   3.1600   2.6392 C.3            1 S1                 0.0000
     17 ****         3.0729   3.4530   4.0962 C.3            1 S1                 0.0000
     18 ****         4.3205   2.8331   4.3903 O.3            1 S1                 0.0000
     19 ****         4.2533   1.4177   4.2529 C.3            1 S1                 0.0000
     20 ****         3.9015   1.0547   2.8004 C.3            1 S1                 0.0000
     21 ****         2.7527   0.4863   0.3645 N.ar           1 S1                 0.0000
     22 ****         2.1841   0.0809  -0.7902 C.ar           1 S1                 0.0000
     23 ****        -3.8125  -5.3623  -2.5372 H              1 S1                 0.0000
     24 ****        -4.2823  -5.2672  -4.2373 H              1 S1                 0.0000
     25 ****        -5.4241  -4.7787  -2.9792 H              1 S1                 0.0000
     26 ****        -4.0500  -3.1804  -1.3243 H              1 S1                 0.0000
     27 ****        -3.6148  -0.6978  -2.8120 H              1 S1                 0.0000
     28 ****        -3.4728   0.2353  -0.4787 H              1 S1                 0.0000
     29 ****        -3.4907  -1.3955   0.1895 H              1 S1                 0.0000
     30 ****        -4.9006  -0.7713  -0.6597 H              1 S1                 0.0000
     31 ****        -1.7008   0.4292  -2.9496 H              1 S1                 0.0000
     32 ****         0.8254  -0.9588  -2.8124 H              1 S1                 0.0000
     33 ****         0.5379   0.6995  -3.2808 H              1 S1                 0.0000
     34 ****        -0.8385   1.6394  -0.5953 H              1 S1                 0.0000
     35 ****         0.1855   2.3785   1.5325 H              1 S1                 0.0000
     36 ****         3.3867   3.6269   1.9574 H              1 S1                 0.0000
     37 ****         1.7038   3.6116   2.4411 H              1 S1                 0.0000
     38 ****         3.1664   4.5281   4.2501 H              1 S1                 0.0000
     39 ****         2.3063   3.0984   4.7871 H              1 S1                 0.0000
     40 ****         5.2177   0.9882   4.5236 H              1 S1                 0.0000
     41 ****         3.5164   1.0083   4.9457 H              1 S1                 0.0000
     42 ****         3.7950  -0.0274   2.7148 H              1 S1                 0.0000
     43 ****         4.7104   1.3574   2.1340 H              1 S1                 0.0000
     44 ****         2.7840  -0.5691  -1.4102 H              1 S1                 0.0000
     45 ****        -3.5897  -3.3971  -5.2482 LP             1 S1                 0.0000
     46 ****        -3.1616  -1.9224  -4.4469 LP             1 S1                 0.0000
     47 ****        -1.6224  -2.9584  -0.9045 LP             1 S1                 0.0000
     48 ****        -0.1213  -2.1868  -1.2934 LP             1 S1                 0.0000
     49 ****         1.9991   1.3432   3.0382 LP             1 S1                 0.0000
     50 ****         4.5785   3.0551   5.3306 LP             1 S1                 0.0000
     51 ****         5.0136   3.1867   3.7622 LP             1 S1                 0.0000
     52 ****         3.6749   0.1862   0.6086 LP             1 S1                 0.0000
@<TRIPOS>BOND
    1    1    2 1     
    2    1   23 1     
    3    1   24 1     
    4    1   25 1     
    5    2    3 2     
    6    2    4 am    
    7    4    5 1     
    8    4   26 1     
    9    5    6 1     
   10    5    7 1     
   11    5   27 1     
   12    6   28 1     
   13    6   29 1     
   14    6   30 1     
   15    7    8 2     
   16    7    9 am    
   17    9   10 1     
   18    9   31 1     
   19   10   11 1     
   20   10   32 1     
   21   10   33 1     
   22   11   22 ar    
   23   11   12 ar    
   24   12   13 ar    
   25   12   34 1     
   26   13   14 ar    
   27   13   35 1     
   28   14   15 1     
   29   14   21 ar    
   30   15   20 1     
   31   15   16 1     
   32   16   17 1     
   33   16   36 1     
   34   16   37 1     
   35   17   18 1     
   36   17   38 1     
   37   17   39 1     
   38   18   19 1     
   39   19   20 1     
   40   19   40 1     
   41   19   41 1     
   42   20   42 1     
   43   20   43 1     
   44   21   22 ar    
   45   22   44 1     
   46    3   45 1     
   47    3   46 1     
   48    8   47 1     
   49    8   48 1     
   50   15   49 1     
   51   18   50 1     
   52   18   51 1     
   53   21   52 1     
@<TRIPOS>SUBSTRUCTURE
      1 S1             1
@<TRIPOS>SET
LONE_PAIRS      STATIC     ATOMS    <user>   **** ""
8 45 46 47 48 49 50 51 52
DONOR_HYDROGENS      STATIC     ATOMS    <user>   **** ""
2 26 31
ATOM$BLUE        STATIC     ATOMS    COLORGROUP SYSTEM
8 45 46 47 48 49 50 51 52
ATOM$RED        STATIC     ATOMS    COLORGROUP SYSTEM
2 26 31
