AV-unprocessed.smi:964|AV-procd|sdf|4279|dock5
  -GOLD-   22720 2183D 1   1.00000     0.00000
 Structure written by MMmdl.
 20 20  0  0  0  0  0  0  0  0  2 V2000
  145.2136  137.0217  150.9118 C   0  0  0  0  0  0  0  0  0  0  0  0
  144.5936  135.6801  151.1107 C   0  0  0  0  0  0  0  0  0  0  0  0
  144.5875  134.7531  150.1422 N   0  0  0  0  0  0  0  0  0  0  0  0
  143.9557  133.7212  150.7212 C   0  0  0  0  0  0  0  0  0  0  0  0
  143.7029  132.4360  150.0032 C   0  0  0  0  0  0  0  0  0  0  0  0
  143.9128  132.5589  148.4877 C   0  0  0  0  0  0  0  0  0  0  0  0
  143.2672  133.7692  147.9524 N   0  3  0  0  0  0  0  0  0  0  0  0
  143.5754  133.9763  151.9765 N   0  0  0  0  0  0  0  0  0  0  0  0
  143.9977  135.2696  152.2342 N   0  0  0  0  0  0  0  0  0  0  0  0
  144.9705  134.8180  149.2101 H   0  0  0  0  0  0  0  0  0  0  0  0
  145.1933  137.5928  151.8404 H   0  0  0  0  0  0  0  0  0  0  0  0
  144.6678  137.5772  150.1488 H   0  0  0  0  0  0  0  0  0  0  0  0
  146.2507  136.9124  150.5941 H   0  0  0  0  0  0  0  0  0  0  0  0
  142.6803  132.1204  150.2153 H   0  0  0  0  0  0  0  0  0  0  0  0
  144.3580  131.6659  150.4133 H   0  0  0  0  0  0  0  0  0  0  0  0
  144.9775  132.6012  148.2545 H   0  0  0  0  0  0  0  0  0  0  0  0
  143.5054  131.6865  147.9760 H   0  0  0  0  0  0  0  0  0  0  0  0
  143.9516  134.5079  147.8714 H   0  0  0  0  0  0  0  0  0  0  0  0
  142.5306  134.0629  148.5781 H   0  0  0  0  0  0  0  0  0  0  0  0
  142.8765  133.5719  147.0421 H   0  0  0  0  0  0  0  0  0  0  0  0
  1 11  1  0  0  0  0
  1 12  1  0  0  0  0
  1 13  1  0  0  0  0
  1  2  1  0  0  0  0
  2  3  1  0  0  0  0
  2  9  2  0  0  0  0
  3 10  1  0  0  0  0
  3  4  1  0  0  0  0
  4  8  2  0  0  0  0
  4  5  1  0  0  0  0
  5  6  1  0  0  0  0
  5 14  1  0  0  0  0
  5 15  1  0  0  0  0
  6  7  1  0  0  0  0
  6 16  1  0  0  0  0
  6 17  1  0  0  0  0
  7 18  1  0  0  0  0
  7 19  1  0  0  0  0
  7 20  1  0  0  0  0
  8  9  1  0  0  0  0
M  CHG  1   7   1
M  END
> <s_m_source_file>
AV-unprocessed.smi

> <i_m_source_file_index>
964

> <i_lp_mmshare_version>
43012

> <i_f3d_flags>
0

> <s_epik_input>
W0NIM11jMW5jKG5bbkhdMSlbQ0gyXVtDSDJdW05IMl0=

> <s_epik_cmdline>
J2VwaWtfcHl0aG9uJywgJy1waCcsICc3LjAnLCAnLXRuJywgJzgnLCAnLW1hJywgJzIwMCcsICctbWV0YWxfYmluZGluZycsICctaW1hZScsICc8aW5maWxlLm1hZT4nLCAnLW9tYWUnLCAnPG91dGZpbGUubWFlPic=

> <r_lp_tautomer_probability>
0.0517155

> <r_epik_Ionization_Penalty>
0.0139864

> <r_epik_Ionization_Penalty_Charging>
0.00465044

> <r_epik_Ionization_Penalty_Neutral>
0.00933595

> <r_epik_State_Penalty>
2.23303

> <r_epik_Charging_Adjusted_Penalty>
2.23768

> <i_epik_Tot_Q>
1

> <i_epik_Tot_abs_Q>
1

> <r_epik_Metal_State_Penalty>
2.43351

> <b_epik_Metal_Only>
0

> <s_lp_Force_Field>
OPLS_2005

> <r_lp_Energy>
2.69796

> <b_lp_Chiralities_Consistent>
1

> <s_lp_Variant>
AV-unprocessed.smi:964-3

> <Gold.Version>
5.8.1

> <Gold.Id.Protein>
6NUR|6NUR_protein|mol2

> <Gold.PLP.Fitness>
34.3127

> <Gold.PLP.PLP>
-19.7785

> <Gold.PLP.part.hbond>
-4.0000

> <Gold.PLP.part.metal>
0.0000

> <Gold.PLP.part.buried>
-0.7164

> <Gold.PLP.part.nonpolar>
-16.4834

> <Gold.PLP.part.repulsive>
0.6080

> <Gold.PLP.ligand.clash>
0.0000

> <Gold.PLP.ligand.torsion>
0.2331

> <Gold.PLP.Chemscore.Hbond>
5.0000

> <Gold.PLP.Chemscore.CHOScore>
0.0000

> <Gold.PLP.Chemscore.Metal>
0.0000

> <Gold.Chemscore.Hbonds>
donor molecule, donor type, donor heavy atom, donor atom, acceptor molecule, acceptor atom, score
      L1  H     3    10       P1  7921  1.00
      L1  H     7    18       P1  7921  0.49
      L1  H     7    19       P1 10186  2.00
      L1  H     7    20       P1 10195  1.00

> <Gold.PLP.Chemscore.Internal.Correction>
0.0004

> <Gold.Rescore>
     Score         DG    S(hbond)    S(metal)    S(lipo)     H(rot)  DE(clash)    DE(int)     intcor
     16.38     -18.50       3.87        0.00      33.78       1.51       0.47       1.65       ----

> <Gold.Chemscore.Fitness>
16.3828

> <Gold.Chemscore.DG>
-18.4999

> <Gold.Chemscore.ZeroCoef>
-5.4800

> <Gold.Chemscore.Hbond>
3.8710

> <Gold.Chemscore.Metal>
0.0000

> <Gold.Chemscore.Lipo>
33.7781

> <Gold.Chemscore.Internal_Hbond>
0.0000

> <Gold.Chemscore.DEClash>
0.4699

> <Gold.Chemscore.DEInternal>
1.6472

> <Gold.Chemscore.Rot>
1.5082

> <Gold.Chemscore.Internal.Correction>
   9.000000E+99

> <Gold.Chemscore.Hbonds>
donor molecule, donor type, donor heavy atom, donor atom, acceptor molecule, acceptor atom, score
      L1  H     3    10       P1  7921  0.99
      L1  H     7    18       P1  7921  0.49
      L1  H     7    19       P1 10186  1.00
      L1  H     7    20       P1 10195  1.00

> <Gold.Chemscore.Hbond.Weighted>
-12.9290

> <Gold.Chemscore.Metal.Weighted>
-0.0000

> <Gold.Chemscore.Lipo.Weighted>
-3.9520

> <Gold.Chemscore.Internal_Hbond.Weighted>
0.0000

> <Gold.Chemscore.DEClash.Weighted>
0.4699

> <Gold.Chemscore.DEInternal.Weighted>
1.6472

> <Gold.Chemscore.Rot.Weighted>
3.8611

> <Gold.Chemscore.Internal.Correction.Weighted>
   9.000000E+99

> <Gold.Protein.RotatedTorsions>
[ 6907 6896 6895 6894 ] final  -19.43 input  -60.11 | X-H torsion
[ 7974 7965 7964 7962 ] final  -56.92 input  175.53 | X-H torsion
[ 8008 7997 7996 7995 ] final  151.36 input   59.86 | X-H torsion
[ 10167 10162 10161 10158 ] final  -36.18 input  -65.29 | X-H torsion
[ 10718 10713 10712 10709 ] final   23.54 input   66.30 | X-H torsion
[ 10763 10752 10751 10750 ] final  -71.87 input  -60.55 | X-H torsion
[ 11005 11000 10999 10996 ] final  169.20 input  -57.11 | X-H torsion

> <Gold.Protein.ActiveResidues>
 VAL166  LYS551  ARG553  GLY616  TRP617  ASP618  TYR619  PRO620  LYS621  CYS622 
 ASP623  PHE694  ASN695  SER759  ASP760  ASP761  ALA762  ILE779  LEU786  VAL792 
 PHE793  MET794  SER795  GLU796  ALA797  LYS798  CYS799  TRP800  GLU811  SER814 

> <Gold.Protein.RotatedAtoms>
  151.2632  135.0660  159.9105 H   0  0  0  0  0  0  0  0  0  0  0  0  # atno 6907 bound_to 6896
  152.5362  134.0209  159.7991 H   0  0  0  0  0  0  0  0  0  0  0  0  # atno 6908 bound_to 6896
  151.0435  133.5635  159.2680 H   0  0  0  0  0  0  0  0  0  0  0  0  # atno 6909 bound_to 6896
  145.8571  140.8312  142.9956 H   0  0  0  0  0  0  0  0  0  0  0  0  # atno 7974 bound_to 7965
  156.2677  140.2050  156.6163 H   0  0  0  0  0  0  0  0  0  0  0  0  # atno 8008 bound_to 7997
  154.6792  140.0542  157.0272 H   0  0  0  0  0  0  0  0  0  0  0  0  # atno 8009 bound_to 7997
  155.1025  140.3207  155.4546 H   0  0  0  0  0  0  0  0  0  0  0  0  # atno 8010 bound_to 7997
  140.7148  143.3426  151.2324 H   0  0  0  0  0  0  0  0  0  0  0  0  # atno 10167 bound_to 10162
  157.1675  130.6744  149.6066 H   0  0  0  0  0  0  0  0  0  0  0  0  # atno 10718 bound_to 10713
  154.4378  135.5948  153.6110 H   0  0  0  0  0  0  0  0  0  0  0  0  # atno 10763 bound_to 10752
  152.9803  135.5990  154.3760 H   0  0  0  0  0  0  0  0  0  0  0  0  # atno 10764 bound_to 10752
  154.3606  135.2841  155.2301 H   0  0  0  0  0  0  0  0  0  0  0  0  # atno 10765 bound_to 10752
  140.2953  134.7640  157.3872 H   0  0  0  0  0  0  0  0  0  0  0  0  # atno 11005 bound_to 11000
  144.6727  140.1040  143.7459 LP  0  0  0  0  0  0  0  0  0  0  0  0  # atno 17320 bound_to 7965
  145.9291  139.2594  143.1336 LP  0  0  0  0  0  0  0  0  0  0  0  0  # atno 17321 bound_to 7965
  139.6937  143.9648  152.2872 LP  0  0  0  0  0  0  0  0  0  0  0  0  # atno 17342 bound_to 10162
  139.9318  144.6736  150.8355 LP  0  0  0  0  0  0  0  0  0  0  0  0  # atno 17343 bound_to 10162
  155.9743  130.4690  150.6381 LP  0  0  0  0  0  0  0  0  0  0  0  0  # atno 17370 bound_to 10713
  157.4074  131.0819  151.1252 LP  0  0  0  0  0  0  0  0  0  0  0  0  # atno 17371 bound_to 10713
  140.1158  134.5285  155.8226 LP  0  0  0  0  0  0  0  0  0  0  0  0  # atno 17394 bound_to 11000
  141.2138  133.6739  156.6774 LP  0  0  0  0  0  0  0  0  0  0  0  0  # atno 17395 bound_to 11000

$$$$
