AV-unprocessed.smi:2296|AV-procd|sdf|9220|dock10
  -GOLD-   2272012443D 1   1.00000     0.00000
 Structure written by MMmdl.
 24 24  0  0  0  0  0  0  0  0  2 V2000
  146.6629  135.7406  152.9288 N   0  3  0  0  0  0  0  0  0  0  0  0
  145.9898  136.2307  151.7103 C   0  0  2  0  0  0  0  0  0  0  0  0
  145.8467  137.7614  151.7605 C   0  0  0  0  0  0  0  0  0  0  0  0
  146.6283  138.3583  150.7469 O   0  0  0  0  0  0  0  0  0  0  0  0
  144.6213  135.5445  151.5332 C   0  0  0  0  0  0  0  0  0  0  0  0
  144.7297  134.1197  151.0180 C   0  0  0  0  0  0  0  0  0  0  0  0
  145.9682  133.5989  150.5888 C   0  0  0  0  0  0  0  0  0  0  0  0
  146.0111  132.2717  150.1154 C   0  0  0  0  0  0  0  0  0  0  0  0
  144.9245  131.4733  150.0486 N   0  0  0  0  0  0  0  0  0  0  0  0
  143.7424  131.9773  150.4633 C   0  0  0  0  0  0  0  0  0  0  0  0
  143.5913  133.2900  150.9540 C   0  0  0  0  0  0  0  0  0  0  0  0
  147.6528  135.6441  152.7539 H   0  0  0  0  0  0  0  0  0  0  0  0
  146.2769  134.8419  153.1813 H   0  0  0  0  0  0  0  0  0  0  0  0
  146.6177  135.9700  150.8567 H   0  0  0  0  0  0  0  0  0  0  0  0
  144.8080  138.0518  151.5988 H   0  0  0  0  0  0  0  0  0  0  0  0
  146.1438  138.1556  152.7332 H   0  0  0  0  0  0  0  0  0  0  0  0
  146.0499  138.7061  150.0843 H   0  0  0  0  0  0  0  0  0  0  0  0
  144.0726  135.5497  152.4763 H   0  0  0  0  0  0  0  0  0  0  0  0
  144.0127  136.1112  150.8270 H   0  0  0  0  0  0  0  0  0  0  0  0
  146.8677  134.1963  150.6212 H   0  0  0  0  0  0  0  0  0  0  0  0
  146.9428  131.8419  149.7789 H   0  0  0  0  0  0  0  0  0  0  0  0
  142.8911  131.3157  150.4007 H   0  0  0  0  0  0  0  0  0  0  0  0
  142.6228  133.6471  151.2729 H   0  0  0  0  0  0  0  0  0  0  0  0
  146.5146  136.3959  153.6831 H   0  0  0  0  0  0  0  0  0  0  0  0
  1  2  1  0  0  0  0
  1 12  1  0  0  0  0
  1 13  1  0  0  0  0
  1 24  1  0  0  0  0
  2  3  1  0  0  0  0
  2  5  1  0  0  0  0
  2 14  1  0  0  0  0
  3  4  1  0  0  0  0
  3 15  1  0  0  0  0
  3 16  1  0  0  0  0
  4 17  1  0  0  0  0
  5  6  1  0  0  0  0
  5 18  1  0  0  0  0
  5 19  1  0  0  0  0
  6 11  1  0  0  0  0
  6  7  2  0  0  0  0
  7  8  1  0  0  0  0
  7 20  1  0  0  0  0
  8  9  2  0  0  0  0
  8 21  1  0  0  0  0
  9 10  1  0  0  0  0
 10 11  2  0  0  0  0
 10 22  1  0  0  0  0
 11 23  1  0  0  0  0
M  CHG  1   1   1
M  END
> <s_m_source_file>
AV-unprocessed.smi

> <i_m_source_file_index>
2296

> <i_lp_mmshare_version>
43012

> <i_f3d_flags>
0

> <s_epik_input>
W09IXVtDSDJdW0NAQEhdKFtOSDJdKVtDSDJdYzFbY0hdW2NIXW5bY0hdW2NIXTE=

> <s_epik_cmdline>
J2VwaWtfcHl0aG9uJywgJy1waCcsICc3LjAnLCAnLXRuJywgJzgnLCAnLW1hJywgJzIwMCcsICctbWV0YWxfYmluZGluZycsICctaW1hZScsICc8aW5maWxlLm1hZT4nLCAnLW9tYWUnLCAnPG91dGZpbGUubWFlPic=

> <r_epik_Ionization_Penalty>
0.0199414

> <r_epik_Ionization_Penalty_Charging>
0.0188044

> <r_epik_Ionization_Penalty_Neutral>
0.00113699

> <r_epik_State_Penalty>
0.00788343

> <r_epik_Charging_Adjusted_Penalty>
0.0266878

> <i_epik_Tot_Q>
1

> <i_epik_Tot_abs_Q>
1

> <r_epik_Metal_State_Penalty>
-0

> <b_epik_Metal_Only>
0

> <s_lp_Force_Field>
OPLS_2005

> <r_lp_Energy>
8.03463

> <b_lp_Chiralities_Consistent>
1

> <s_lp_Variant>
AV-unprocessed.smi:2296-1

> <Gold.Version>
5.8.1

> <Gold.Id.Protein>
6NUR|6NUR_protein|mol2

> <Gold.PLP.Fitness>
37.2594

> <Gold.PLP.PLP>
-21.6878

> <Gold.PLP.part.hbond>
-3.5927

> <Gold.PLP.part.metal>
0.0000

> <Gold.PLP.part.buried>
1.2574

> <Gold.PLP.part.nonpolar>
-19.4324

> <Gold.PLP.part.repulsive>
0.1289

> <Gold.PLP.ligand.clash>
0.0000

> <Gold.PLP.ligand.torsion>
0.9532

> <Gold.PLP.Chemscore.Hbond>
3.8240

> <Gold.PLP.Chemscore.CHOScore>
2.0000

> <Gold.PLP.Chemscore.Metal>
0.0000

> <Gold.Chemscore.Hbonds>
donor molecule, donor type, donor heavy atom, donor atom, acceptor molecule, acceptor atom, score
      L1  H     1    12       P1  7948  1.79
      L1  H     4    17       P1 10171  0.44
      P1  H  7954  7966       L1     4  0.98
      L1  C     8    21       P1 10747  1.00
      L1  C    10    22       P1 10952  1.00

> <Gold.PLP.Chemscore.Internal.Correction>
0.0060

> <Gold.Rescore>
     Score         DG    S(hbond)    S(metal)    S(lipo)     H(rot)  DE(clash)    DE(int)     intcor
     13.00     -15.62       2.56        0.00      60.56       2.14       1.61       1.01       ----

> <Gold.Chemscore.Fitness>
13.0044

> <Gold.Chemscore.DG>
-15.6218

> <Gold.Chemscore.ZeroCoef>
-5.4800

> <Gold.Chemscore.Hbond>
2.5558

> <Gold.Chemscore.Metal>
0.0000

> <Gold.Chemscore.Lipo>
60.5558

> <Gold.Chemscore.Internal_Hbond>
0.0000

> <Gold.Chemscore.DEClash>
1.6051

> <Gold.Chemscore.DEInternal>
1.0124

> <Gold.Chemscore.Rot>
2.1405

> <Gold.Chemscore.Internal.Correction>
   9.000000E+99

> <Gold.Chemscore.Hbonds>
donor molecule, donor type, donor heavy atom, donor atom, acceptor molecule, acceptor atom, score
      L1  H     1    12       P1  7948  0.88
      L1  H     4    17       P1 10171  0.44
      P1  H  7954  7966       L1     4  0.52

> <Gold.Chemscore.Hbond.Weighted>
-8.5365

> <Gold.Chemscore.Metal.Weighted>
-0.0000

> <Gold.Chemscore.Lipo.Weighted>
-7.0850

> <Gold.Chemscore.Internal_Hbond.Weighted>
0.0000

> <Gold.Chemscore.DEClash.Weighted>
1.6051

> <Gold.Chemscore.DEInternal.Weighted>
1.0124

> <Gold.Chemscore.Rot.Weighted>
5.4797

> <Gold.Chemscore.Internal.Correction.Weighted>
   9.000000E+99

> <Gold.Protein.RotatedTorsions>
[ 6907 6896 6895 6894 ] final  -25.80 input  -60.11 | X-H torsion
[ 7974 7965 7964 7962 ] final   37.30 input  175.53 | X-H torsion
[ 8008 7997 7996 7995 ] final    3.55 input   59.86 | X-H torsion
[ 10167 10162 10161 10158 ] final   88.26 input  -65.29 | X-H torsion
[ 10718 10713 10712 10709 ] final -169.16 input   66.30 | X-H torsion
[ 10763 10752 10751 10750 ] final   78.95 input  -60.55 | X-H torsion
[ 11005 11000 10999 10996 ] final  -65.05 input  -57.11 | X-H torsion

> <Gold.Protein.ActiveResidues>
 VAL166  LYS551  ARG553  GLY616  TRP617  ASP618  TYR619  PRO620  LYS621  CYS622 
 ASP623  PHE694  ASN695  SER759  ASP760  ASP761  ALA762  ILE779  LEU786  VAL792 
 PHE793  MET794  SER795  GLU796  ALA797  LYS798  CYS799  TRP800  GLU811  SER814 

> <Gold.Protein.RotatedAtoms>
  151.1700  135.0313  159.8747 H   0  0  0  0  0  0  0  0  0  0  0  0  # atno 6907 bound_to 6896
  152.5449  134.1181  159.8397 H   0  0  0  0  0  0  0  0  0  0  0  0  # atno 6908 bound_to 6896
  151.1286  133.5006  159.2632 H   0  0  0  0  0  0  0  0  0  0  0  0  # atno 6909 bound_to 6896
  146.1147  139.5911  142.9329 H   0  0  0  0  0  0  0  0  0  0  0  0  # atno 7974 bound_to 7965
  154.7051  140.2681  155.6682 H   0  0  0  0  0  0  0  0  0  0  0  0  # atno 8008 bound_to 7997
  156.2777  140.2764  156.1598 H   0  0  0  0  0  0  0  0  0  0  0  0  # atno 8009 bound_to 7997
  155.0711  140.0372  157.2599 H   0  0  0  0  0  0  0  0  0  0  0  0  # atno 8010 bound_to 7997
  139.8691  144.6503  150.8970 H   0  0  0  0  0  0  0  0  0  0  0  0  # atno 10167 bound_to 10162
  156.7075  130.9220  151.3086 H   0  0  0  0  0  0  0  0  0  0  0  0  # atno 10718 bound_to 10713
  153.0914  135.4858  154.8697 H   0  0  0  0  0  0  0  0  0  0  0  0  # atno 10763 bound_to 10752
  154.7273  135.3052  154.8951 H   0  0  0  0  0  0  0  0  0  0  0  0  # atno 10764 bound_to 10752
  153.9598  135.6813  153.4798 H   0  0  0  0  0  0  0  0  0  0  0  0  # atno 10765 bound_to 10752
  141.1443  133.6675  156.5926 H   0  0  0  0  0  0  0  0  0  0  0  0  # atno 11005 bound_to 11000
  145.5590  141.0406  143.2236 LP  0  0  0  0  0  0  0  0  0  0  0  0  # atno 17320 bound_to 7965
  144.7543  139.7115  143.7260 LP  0  0  0  0  0  0  0  0  0  0  0  0  # atno 17321 bound_to 7965
  140.7763  143.3679  151.1704 LP  0  0  0  0  0  0  0  0  0  0  0  0  # atno 17342 bound_to 10162
  139.7301  143.9086  152.3016 LP  0  0  0  0  0  0  0  0  0  0  0  0  # atno 17343 bound_to 10162
  157.6949  130.9271  150.0616 LP  0  0  0  0  0  0  0  0  0  0  0  0  # atno 17370 bound_to 10713
  156.1685  130.3646  149.9199 LP  0  0  0  0  0  0  0  0  0  0  0  0  # atno 17371 bound_to 10713
  140.3751  134.7572  157.4624 LP  0  0  0  0  0  0  0  0  0  0  0  0  # atno 17394 bound_to 11000
  140.0681  134.5901  155.8673 LP  0  0  0  0  0  0  0  0  0  0  0  0  # atno 17395 bound_to 11000

$$$$
