#       Name:                AV-unprocessed.smi:212
#       Creating user name   scv26
#       Creation time:       Thu Mar 26 19:57:54 2020


#       File generated by GOLD software.
#

@<TRIPOS>MOLECULE
AV-unprocessed.smi:212
    75    78     1
SMALL
NO_CHARGES


@<TRIPOS>ATOM
      1 ****        -2.6328  -2.8333  -1.8513 C.3            1 S1                 0.0000
      2 ****        -2.9267  -1.3657  -1.4854 C.3            1 S1                 0.0000
      3 ****        -2.8268  -0.3997  -2.6866 C.3            1 S1                 0.0000
      4 ****        -3.1818   0.9878  -2.2889 N.4            1 S1                 1.0000
      5 ****        -3.1648   1.9442  -3.4276 C.3            1 S1                 0.0000
      6 ****        -4.4636   2.7788  -3.5258 C.3            1 S1                 0.0000
      7 ****        -4.3822   3.7443  -4.7203 C.3            1 S1                 0.0000
      8 ****        -5.7191   1.8943  -3.6409 C.3            1 S1                 0.0000
      9 ****        -4.5893   3.5816  -2.3687 O.3            1 S1                 0.0000
     10 ****        -2.4033   1.4589  -1.1130 C.3            1 S1                 0.0000
     11 ****        -2.5401   0.4823   0.0701 C.3            1 S1                 0.0000
     12 ****        -2.1675  -0.8715  -0.3295 N.3            1 S1                 0.0000
     13 ****        -0.8344  -1.1022  -0.2125 C.ar           1 S1                 0.0000
     14 ****        -0.0306  -1.1111  -1.3084 N.ar           1 S1                 0.0000
     15 ****         1.2850  -1.3074  -1.1772 C.ar           1 S1                 0.0000
     16 ****         1.9930  -1.5003  -0.0624 N.ar           1 S1                 0.0000
     17 ****         1.1915  -1.4813   1.0405 C.ar           1 S1                 0.0000
     18 ****        -0.2183  -1.2910   1.0542 C.ar           1 S1                 0.0000
     19 ****        -0.6929  -1.3355   2.3592 N.2            1 S1                 0.0000
     20 ****         0.3778  -1.5370   3.0783 C.2            1 S1                 0.0000
     21 ****         1.5536  -1.6271   2.3673 N.pl3          1 S1                 0.0000
     22 ****         2.8854  -1.8363   2.9062 C.3            1 S1                 0.0000
     23 ****         3.7822  -0.5695   2.8803 C.3            1 S1                 0.0000
     24 ****         3.1272   0.6356   3.6039 C.3            1 S1                 0.0000
     25 ****         2.1451   1.2636   2.8049 O.3            1 S1                 0.0000
     26 ****         5.1784  -0.8841   3.4786 C.3            1 S1                 0.0000
     27 ****         5.9290  -2.0163   2.7968 C.3            1 S1                 0.0000
     28 ****         7.3611  -1.7732   3.2551 C.3            1 S1                 0.0000
     29 ****         7.4944  -0.3601   3.3235 O.3            1 S1                 0.0000
     30 ****         6.2067   0.2488   3.3496 C.3            1 S1                 0.0000
     31 ****        -3.3406  -3.1909  -2.5996 H              1 S1                 0.0000
     32 ****        -2.7270  -3.4802  -0.9787 H              1 S1                 0.0000
     33 ****        -1.6343  -2.9711  -2.2648 H              1 S1                 0.0000
     34 ****        -3.9684  -1.3501  -1.1614 H              1 S1                 0.0000
     35 ****        -1.8256  -0.4093  -3.1176 H              1 S1                 0.0000
     36 ****        -3.5077  -0.7301  -3.4723 H              1 S1                 0.0000
     37 ****        -2.2911   2.5951  -3.3592 H              1 S1                 0.0000
     38 ****        -3.0427   1.3969  -4.3640 H              1 S1                 0.0000
     39 ****        -4.2894   3.2008  -5.6614 H              1 S1                 0.0000
     40 ****        -3.5209   4.4088  -4.6390 H              1 S1                 0.0000
     41 ****        -5.2735   4.3692  -4.7904 H              1 S1                 0.0000
     42 ****        -5.6639   1.2446  -4.5152 H              1 S1                 0.0000
     43 ****        -6.6214   2.4991  -3.7392 H              1 S1                 0.0000
     44 ****        -5.8511   1.2579  -2.7652 H              1 S1                 0.0000
     45 ****        -5.3577   4.1249  -2.4604 H              1 S1                 0.0000
     46 ****        -1.3534   1.5626  -1.3917 H              1 S1                 0.0000
     47 ****        -2.7463   2.4473  -0.8083 H              1 S1                 0.0000
     48 ****        -1.9364   0.8265   0.9112 H              1 S1                 0.0000
     49 ****        -3.5722   0.4672   0.4222 H              1 S1                 0.0000
     50 ****         1.8522  -1.3072  -2.0963 H              1 S1                 0.0000
     51 ****         0.3405  -1.6155   4.1550 H              1 S1                 0.0000
     52 ****         2.7886  -2.2047   3.9283 H              1 S1                 0.0000
     53 ****         3.3409  -2.6420   2.3305 H              1 S1                 0.0000
     54 ****         3.9375  -0.2878   1.8374 H              1 S1                 0.0000
     55 ****         2.6865   0.3255   4.5521 H              1 S1                 0.0000
     56 ****         3.8622   1.4041   3.8383 H              1 S1                 0.0000
     57 ****         1.7970   2.0020   3.2814 H              1 S1                 0.0000
     58 ****         5.0704  -1.1352   4.5353 H              1 S1                 0.0000
     59 ****         5.5691  -3.0061   3.0783 H              1 S1                 0.0000
     60 ****         5.8613  -1.9224   1.7118 H              1 S1                 0.0000
     61 ****         7.5166  -2.1873   4.2522 H              1 S1                 0.0000
     62 ****         8.0984  -2.2144   2.5838 H              1 S1                 0.0000
     63 ****         6.0709   0.7940   2.4147 H              1 S1                 0.0000
     64 ****         6.1390   0.9651   4.1686 H              1 S1                 0.0000
     65 ****        -4.1439   0.9429  -1.9851 H              1 S1                 0.0000
     66 ****        -3.7786   4.1587  -2.2694 LP             1 S1                 0.0000
     67 ****        -4.6838   2.9979  -1.5623 LP             1 S1                 0.0000
     68 ****        -2.4973  -1.5341   0.3430 LP             1 S1                 0.0000
     69 ****        -0.4250  -0.9702  -2.2165 LP             1 S1                 0.0000
     70 ****         2.9828  -1.6405  -0.0390 LP             1 S1                 0.0000
     71 ****        -1.6366  -1.2361   2.6747 LP             1 S1                 0.0000
     72 ****         1.4103   0.6161   2.6027 LP             1 S1                 0.0000
     73 ****         2.5569   1.5781   1.9496 LP             1 S1                 0.0000
     74 ****         7.9982  -0.0356   2.5229 LP             1 S1                 0.0000
     75 ****         7.9941  -0.1142   4.1540 LP             1 S1                 0.0000
@<TRIPOS>BOND
    1    1    2 1     
    2    1   31 1     
    3    1   32 1     
    4    1   33 1     
    5    2   12 1     
    6    2    3 1     
    7    2   34 1     
    8    3    4 1     
    9    3   35 1     
   10    3   36 1     
   11    4    5 1     
   12    4   10 1     
   13    4   65 1     
   14    5    6 1     
   15    5   37 1     
   16    5   38 1     
   17    6    7 1     
   18    6    8 1     
   19    6    9 1     
   20    7   39 1     
   21    7   40 1     
   22    7   41 1     
   23    8   42 1     
   24    8   43 1     
   25    8   44 1     
   26    9   45 1     
   27   10   11 1     
   28   10   46 1     
   29   10   47 1     
   30   11   12 1     
   31   11   48 1     
   32   11   49 1     
   33   12   13 1     
   34   13   18 ar    
   35   13   14 ar    
   36   14   15 ar    
   37   15   16 ar    
   38   15   50 1     
   39   16   17 ar    
   40   17   21 1     
   41   17   18 ar    
   42   18   19 1     
   43   19   20 2     
   44   20   21 1     
   45   20   51 1     
   46   21   22 1     
   47   22   23 1     
   48   22   52 1     
   49   22   53 1     
   50   23   24 1     
   51   23   26 1     
   52   23   54 1     
   53   24   25 1     
   54   24   55 1     
   55   24   56 1     
   56   25   57 1     
   57   26   30 1     
   58   26   27 1     
   59   26   58 1     
   60   27   28 1     
   61   27   59 1     
   62   27   60 1     
   63   28   29 1     
   64   28   61 1     
   65   28   62 1     
   66   29   30 1     
   67   30   63 1     
   68   30   64 1     
   69    9   66 1     
   70    9   67 1     
   71   12   68 1     
   72   14   69 1     
   73   16   70 1     
   74   19   71 1     
   75   25   72 1     
   76   25   73 1     
   77   29   74 1     
   78   29   75 1     
@<TRIPOS>SUBSTRUCTURE
      1 S1             1
@<TRIPOS>SET
LONE_PAIRS      STATIC     ATOMS    <user>   **** ""
10 66 67 68 69 70 71 72 73 74 75
DONOR_HYDROGENS      STATIC     ATOMS    <user>   **** ""
3 65 45 57
ATOM$BLUE        STATIC     ATOMS    COLORGROUP SYSTEM
10 66 67 68 69 70 71 72 73 74 75
ATOM$RED        STATIC     ATOMS    COLORGROUP SYSTEM
3 65 45 57
