#       Name:                AV-unprocessed.smi:1487
#       Creating user name   scv26
#       Creation time:       Fri Mar 27 06:11:08 2020


#       File generated by GOLD software.
#

@<TRIPOS>MOLECULE
AV-unprocessed.smi:1487
    53    55     1
SMALL
NO_CHARGES


@<TRIPOS>ATOM
      1 ****        -4.6382   4.2299  -2.7337 C.3            1 S1                 0.0000
      2 ****        -3.8782   3.2997  -1.8048 C.ar           1 S1                 0.0000
      3 ****        -3.4227   3.7924  -0.5614 C.ar           1 S1                 0.0000
      4 ****        -2.7137   2.9597   0.3317 C.ar           1 S1                 0.0000
      5 ****        -2.1824   3.2290   1.5813 N.2            1 S1                 0.0000
      6 ****        -1.6482   2.0554   1.9043 C.2            1 S1                 0.0000
      7 ****        -1.7653   1.0567   1.0083 N.pl3          1 S1                 0.0000
      8 ****        -1.2617  -0.2987   1.1435 C.3            1 S1                 0.0000
      9 ****         0.2495  -0.3941   0.8603 C.3            1 S1                 0.0000
     10 ****         0.5048   0.0344  -0.4637 O.3            1 S1                 0.0000
     11 ****         0.7712  -1.8356   1.0185 C.3            1 S1                 0.0000
     12 ****         2.2497  -1.9169   0.9042 N.4            1 S1                 1.0000
     13 ****         2.9575  -1.5323   2.1537 C.3            1 S1                 0.0000
     14 ****         4.4750  -1.4613   1.9253 C.3            1 S1                 0.0000
     15 ****         5.0135  -2.7972   1.3933 C.3            1 S1                 0.0000
     16 ****         4.2318  -3.2527   0.1494 C.3            1 S1                 0.0000
     17 ****         4.5442  -2.4319  -0.9586 O.3            1 S1                 0.0000
     18 ****         2.7097  -3.2350   0.3926 C.3            1 S1                 0.0000
     19 ****        -2.4698   1.6096  -0.0563 C.ar           1 S1                 0.0000
     20 ****        -2.9160   1.1085  -1.2920 C.ar           1 S1                 0.0000
     21 ****        -3.6239   1.9538  -2.1720 C.ar           1 S1                 0.0000
     22 ****        -4.1046   1.4027  -3.5027 C.3            1 S1                 0.0000
     23 ****        -4.7844   5.2116  -2.2822 H              1 S1                 0.0000
     24 ****        -5.6214   3.8203  -2.9662 H              1 S1                 0.0000
     25 ****        -4.0902   4.3684  -3.6660 H              1 S1                 0.0000
     26 ****        -3.6154   4.8179  -0.2820 H              1 S1                 0.0000
     27 ****        -1.1385   1.9135   2.8462 H              1 S1                 0.0000
     28 ****        -1.4775  -0.6404   2.1568 H              1 S1                 0.0000
     29 ****        -1.8208  -0.9508   0.4709 H              1 S1                 0.0000
     30 ****         0.7722   0.2769   1.5415 H              1 S1                 0.0000
     31 ****         0.1614   0.9092  -0.5693 H              1 S1                 0.0000
     32 ****         0.4627  -2.2543   1.9777 H              1 S1                 0.0000
     33 ****         0.3019  -2.4567   0.2537 H              1 S1                 0.0000
     34 ****         2.6080  -0.5627   2.5065 H              1 S1                 0.0000
     35 ****         2.7296  -2.2535   2.9405 H              1 S1                 0.0000
     36 ****         4.7019  -0.6616   1.2189 H              1 S1                 0.0000
     37 ****         4.9802  -1.2021   2.8561 H              1 S1                 0.0000
     38 ****         6.0785  -2.7180   1.1715 H              1 S1                 0.0000
     39 ****         4.9180  -3.5549   2.1722 H              1 S1                 0.0000
     40 ****         4.5379  -4.2660  -0.1128 H              1 S1                 0.0000
     41 ****         5.4677  -2.5137  -1.1442 H              1 S1                 0.0000
     42 ****         2.4421  -4.0081   1.1148 H              1 S1                 0.0000
     43 ****         2.1898  -3.4794  -0.5352 H              1 S1                 0.0000
     44 ****        -2.7153   0.0820  -1.5611 H              1 S1                 0.0000
     45 ****        -3.7956   0.3659  -3.6388 H              1 S1                 0.0000
     46 ****        -3.6954   1.9847  -4.3288 H              1 S1                 0.0000
     47 ****        -5.1927   1.4380  -3.5593 H              1 S1                 0.0000
     48 ****         2.5118  -1.2443   0.1968 H              1 S1                 0.0000
     49 ****        -2.1967   4.0818   2.1035 LP             1 S1                 0.0000
     50 ****         0.0571  -0.5835  -1.1100 LP             1 S1                 0.0000
     51 ****         1.4904   0.0367  -0.6329 LP             1 S1                 0.0000
     52 ****         4.3268  -1.4796  -0.7442 LP             1 S1                 0.0000
     53 ****         4.0136  -2.7239  -1.7543 LP             1 S1                 0.0000
@<TRIPOS>BOND
    1    1    2 1     
    2    1   23 1     
    3    1   24 1     
    4    1   25 1     
    5    2   21 ar    
    6    2    3 ar    
    7    3    4 ar    
    8    3   26 1     
    9    4   19 ar    
   10    4    5 1     
   11    5    6 2     
   12    6    7 1     
   13    6   27 1     
   14    7    8 1     
   15    7   19 1     
   16    8    9 1     
   17    8   28 1     
   18    8   29 1     
   19    9   10 1     
   20    9   11 1     
   21    9   30 1     
   22   10   31 1     
   23   11   12 1     
   24   11   32 1     
   25   11   33 1     
   26   12   18 1     
   27   12   13 1     
   28   12   48 1     
   29   13   14 1     
   30   13   34 1     
   31   13   35 1     
   32   14   15 1     
   33   14   36 1     
   34   14   37 1     
   35   15   16 1     
   36   15   38 1     
   37   15   39 1     
   38   16   17 1     
   39   16   18 1     
   40   16   40 1     
   41   17   41 1     
   42   18   42 1     
   43   18   43 1     
   44   19   20 ar    
   45   20   21 ar    
   46   20   44 1     
   47   21   22 1     
   48   22   45 1     
   49   22   46 1     
   50   22   47 1     
   51    5   49 1     
   52   10   50 1     
   53   10   51 1     
   54   17   52 1     
   55   17   53 1     
@<TRIPOS>SUBSTRUCTURE
      1 S1             1
@<TRIPOS>SET
LONE_PAIRS      STATIC     ATOMS    <user>   **** ""
5 49 50 51 52 53
DONOR_HYDROGENS      STATIC     ATOMS    <user>   **** ""
3 31 48 41
ATOM$BLUE        STATIC     ATOMS    COLORGROUP SYSTEM
5 49 50 51 52 53
ATOM$RED        STATIC     ATOMS    COLORGROUP SYSTEM
3 31 48 41
