AV-unprocessed.smi:2973|AV-procd|sdf|11343|dock10
  -GOLD-   2272016253D 1   1.00000     0.00000
 Structure written by MMmdl.
 50 52  0  0  0  0  0  0  0  0  2 V2000
  152.2711  139.1642  158.4782 C   0  0  0  0  0  0  0  0  0  0  0  0
  152.1899  140.6401  158.0339 C   0  0  2  0  0  0  0  0  0  0  0  0
  152.1410  141.5653  159.2694 C   0  0  0  0  0  0  0  0  0  0  0  0
  152.1239  143.0514  158.8774 C   0  0  0  0  0  0  0  0  0  0  0  0
  150.9560  143.3652  157.9326 C   0  0  0  0  0  0  0  0  0  0  0  0
  151.0023  142.4654  156.6883 C   0  0  0  0  0  0  0  0  0  0  0  0
  151.0158  140.9625  157.0587 C   0  0  2  0  0  0  0  0  0  0  0  0
  149.7263  140.5484  157.5864 N   0  0  0  0  0  0  0  0  0  0  0  0
  149.0940  139.6736  156.7936 C   0  0  0  0  0  0  0  0  0  0  0  0
  147.9802  139.1992  157.0091 O   0  0  0  0  0  0  0  0  0  0  0  0
  149.8825  139.4171  155.7339 N   0  0  0  0  0  0  0  0  0  0  0  0
  149.5130  138.5465  154.6108 C   0  0  0  0  0  0  0  0  0  0  0  0
  148.2606  139.0479  153.8796 C   0  0  0  0  0  0  0  0  0  0  0  0
  147.8249  140.1806  154.0909 O   0  0  0  0  0  0  0  0  0  0  0  0
  147.6920  138.1929  153.0152 N   0  0  0  0  0  0  0  0  0  0  0  0
  146.5243  138.4817  152.1849 C   0  0  0  0  0  0  0  0  0  0  0  0
  145.2619  137.7299  152.6548 C   0  0  0  0  0  0  0  0  0  0  0  0
  145.0880  136.3587  152.0237 C   0  0  0  0  0  0  0  0  0  0  0  0
  143.8382  135.7026  151.9835 C   0  0  0  0  0  0  0  0  0  0  0  0
  143.7522  134.4180  151.4082 C   0  0  0  0  0  0  0  0  0  0  0  0
  144.9152  133.8163  150.8853 C   0  0  0  0  0  0  0  0  0  0  0  0
  146.1361  134.5180  150.9469 C   0  0  0  0  0  0  0  0  0  0  0  0
  146.1777  135.7486  151.5034 N   0  3  0  0  0  0  0  0  0  0  0  0
  151.0279  140.1099  155.7968 C   0  0  0  0  0  0  0  0  0  0  0  0
  151.9510  140.0944  154.9820 O   0  0  0  0  0  0  0  0  0  0  0  0
  151.3763  138.8563  159.0193 H   0  0  0  0  0  0  0  0  0  0  0  0
  153.1227  139.0054  159.1402 H   0  0  0  0  0  0  0  0  0  0  0  0
  152.3978  138.4910  157.6305 H   0  0  0  0  0  0  0  0  0  0  0  0
  153.1206  140.8609  157.5084 H   0  0  0  0  0  0  0  0  0  0  0  0
  151.2588  141.3376  159.8694 H   0  0  0  0  0  0  0  0  0  0  0  0
  153.0025  141.3742  159.9106 H   0  0  0  0  0  0  0  0  0  0  0  0
  152.0538  143.6709  159.7720 H   0  0  0  0  0  0  0  0  0  0  0  0
  153.0657  143.3128  158.3937 H   0  0  0  0  0  0  0  0  0  0  0  0
  150.0098  143.2271  158.4572 H   0  0  0  0  0  0  0  0  0  0  0  0
  150.9924  144.4131  157.6335 H   0  0  0  0  0  0  0  0  0  0  0  0
  150.1533  142.6939  156.0415 H   0  0  0  0  0  0  0  0  0  0  0  0
  151.8961  142.7105  156.1127 H   0  0  0  0  0  0  0  0  0  0  0  0
  149.3497  140.9068  158.4519 H   0  0  0  0  0  0  0  0  0  0  0  0
  150.3487  138.4751  153.9120 H   0  0  0  0  0  0  0  0  0  0  0  0
  149.3273  137.5292  154.9586 H   0  0  0  0  0  0  0  0  0  0  0  0
  148.1092  137.2787  152.9121 H   0  0  0  0  0  0  0  0  0  0  0  0
  146.3407  139.5555  152.2224 H   0  0  0  0  0  0  0  0  0  0  0  0
  146.7330  138.2492  151.1393 H   0  0  0  0  0  0  0  0  0  0  0  0
  145.2897  137.6172  153.7394 H   0  0  0  0  0  0  0  0  0  0  0  0
  144.3772  138.3298  152.4380 H   0  0  0  0  0  0  0  0  0  0  0  0
  142.9577  136.1689  152.4011 H   0  0  0  0  0  0  0  0  0  0  0  0
  142.8065  133.8970  151.3778 H   0  0  0  0  0  0  0  0  0  0  0  0
  144.8716  132.8297  150.4477 H   0  0  0  0  0  0  0  0  0  0  0  0
  147.0743  134.1336  150.5740 H   0  0  0  0  0  0  0  0  0  0  0  0
  147.0742  136.2340  151.5444 H   0  0  0  0  0  0  0  0  0  0  0  0
  1  2  1  0  0  0  0
  1 26  1  0  0  0  0
  1 27  1  0  0  0  0
  1 28  1  0  0  0  0
  2  7  1  0  0  0  0
  2  3  1  0  0  0  0
  2 29  1  0  0  0  0
  3  4  1  0  0  0  0
  3 30  1  0  0  0  0
  3 31  1  0  0  0  0
  4  5  1  0  0  0  0
  4 32  1  0  0  0  0
  4 33  1  0  0  0  0
  5  6  1  0  0  0  0
  5 34  1  0  0  0  0
  5 35  1  0  0  0  0
  6  7  1  0  0  0  0
  6 36  1  0  0  0  0
  6 37  1  0  0  0  0
  7 24  1  0  0  0  0
  7  8  1  0  0  0  0
  8  9  1  0  0  0  0
  8 38  1  0  0  0  0
  9 10  2  0  0  0  0
  9 11  1  0  0  0  0
 11 12  1  0  0  0  0
 11 24  1  0  0  0  0
 12 13  1  0  0  0  0
 12 39  1  0  0  0  0
 12 40  1  0  0  0  0
 13 14  2  0  0  0  0
 13 15  1  0  0  0  0
 15 16  1  0  0  0  0
 15 41  1  0  0  0  0
 16 17  1  0  0  0  0
 16 42  1  0  0  0  0
 16 43  1  0  0  0  0
 17 18  1  0  0  0  0
 17 44  1  0  0  0  0
 17 45  1  0  0  0  0
 18 23  1  0  0  0  0
 18 19  2  0  0  0  0
 19 20  1  0  0  0  0
 19 46  1  0  0  0  0
 20 21  2  0  0  0  0
 20 47  1  0  0  0  0
 21 22  1  0  0  0  0
 21 48  1  0  0  0  0
 22 23  2  0  0  0  0
 22 49  1  0  0  0  0
 23 50  1  0  0  0  0
 24 25  2  0  0  0  0
M  CHG  1  23   1
M  END
> <s_m_source_file>
AV-unprocessed.smi

> <i_m_source_file_index>
2973

> <i_lp_mmshare_version>
43012

> <i_f3d_flags>
0

> <s_epik_input>
W0NIMl0xW0NIMl1bQ0gyXVtDSDJdW0NAQEhdKFtDSDNdKVtDQF0xMltOSF1DKD1PKU4oQzI9TylbQ0gyXUMoPU8pW05IXVtDSDJdW0NIMl1jM1tjSF1bY0hdW2NIXVtjSF1uMw==

> <s_epik_cmdline>
J2VwaWtfcHl0aG9uJywgJy1waCcsICc3LjAnLCAnLXRuJywgJzgnLCAnLW1hJywgJzIwMCcsICctbWV0YWxfYmluZGluZycsICctaW1hZScsICc8aW5maWxlLm1hZT4nLCAnLW9tYWUnLCAnPG91dGZpbGUubWFlPic=

> <r_lp_tautomer_probability>
1

> <r_epik_Ionization_Penalty>
1.90043

> <r_epik_Ionization_Penalty_Charging>
1.90039

> <r_epik_Ionization_Penalty_Neutral>
4.65525e-05

> <r_epik_State_Penalty>
2.02162

> <r_epik_Charging_Adjusted_Penalty>
3.922

> <i_epik_Tot_Q>
1

> <i_epik_Tot_abs_Q>
1

> <r_epik_Metal_State_Penalty>
2.06631

> <b_epik_Metal_Only>
0

> <s_lp_Force_Field>
OPLS_2005

> <r_lp_Energy>
26.4657

> <b_lp_Chiralities_Consistent>
1

> <s_lp_Variant>
AV-unprocessed.smi:2973-7

> <Gold.Version>
5.8.1

> <Gold.Id.Protein>
6NUR|6NUR_protein|mol2

> <Gold.PLP.Fitness>
50.4304

> <Gold.PLP.PLP>
-40.6900

> <Gold.PLP.part.hbond>
-3.3295

> <Gold.PLP.part.metal>
0.0000

> <Gold.PLP.part.buried>
-5.8323

> <Gold.PLP.part.nonpolar>
-33.3902

> <Gold.PLP.part.repulsive>
0.3956

> <Gold.PLP.ligand.clash>
0.0000

> <Gold.PLP.ligand.torsion>
0.6848

> <Gold.PLP.Chemscore.Hbond>
3.6960

> <Gold.PLP.Chemscore.CHOScore>
0.0000

> <Gold.PLP.Chemscore.Metal>
0.0000

> <Gold.Chemscore.Hbonds>
donor molecule, donor type, donor heavy atom, donor atom, acceptor molecule, acceptor atom, score
      L1  H    15    41       P1  7948  0.90
      L1  H    23    50       P1  7948  2.00
      P1  H  7989  7998       L1    25  0.85

> <Gold.PLP.Chemscore.Internal.Correction>
0.0220

> <Gold.Rescore>
     Score         DG    S(hbond)    S(metal)    S(lipo)     H(rot)  DE(clash)    DE(int)     intcor
     19.50     -20.84       2.59        0.00     100.33       1.96       0.04       1.30       ----

> <Gold.Chemscore.Fitness>
19.5012

> <Gold.Chemscore.DG>
-20.8434

> <Gold.Chemscore.ZeroCoef>
-5.4800

> <Gold.Chemscore.Hbond>
2.5905

> <Gold.Chemscore.Metal>
0.0000

> <Gold.Chemscore.Lipo>
100.3285

> <Gold.Chemscore.Internal_Hbond>
0.0000

> <Gold.Chemscore.DEClash>
0.0389

> <Gold.Chemscore.DEInternal>
1.3032

> <Gold.Chemscore.Rot>
1.9638

> <Gold.Chemscore.Internal.Correction>
   9.000000E+99

> <Gold.Chemscore.Hbonds>
donor molecule, donor type, donor heavy atom, donor atom, acceptor molecule, acceptor atom, score
      L1  H    15    41       P1  7948  0.86
      L1  H    23    50       P1  7948  0.95
      P1  H  7989  7998       L1    25  0.78

> <Gold.Chemscore.Hbond.Weighted>
-8.6524

> <Gold.Chemscore.Metal.Weighted>
-0.0000

> <Gold.Chemscore.Lipo.Weighted>
-11.7384

> <Gold.Chemscore.Internal_Hbond.Weighted>
0.0000

> <Gold.Chemscore.DEClash.Weighted>
0.0389

> <Gold.Chemscore.DEInternal.Weighted>
1.3032

> <Gold.Chemscore.Rot.Weighted>
5.0274

> <Gold.Chemscore.Internal.Correction.Weighted>
   9.000000E+99

> <Gold.Protein.RotatedTorsions>
[ 6907 6896 6895 6894 ] final -167.20 input  -60.11 | X-H torsion
[ 7974 7965 7964 7962 ] final -167.09 input  175.53 | X-H torsion
[ 8008 7997 7996 7995 ] final -177.35 input   59.86 | X-H torsion
[ 10167 10162 10161 10158 ] final -151.59 input  -65.29 | X-H torsion
[ 10718 10713 10712 10709 ] final  -60.22 input   66.30 | X-H torsion
[ 10763 10752 10751 10750 ] final  -54.11 input  -60.55 | X-H torsion
[ 11005 11000 10999 10996 ] final -179.78 input  -57.11 | X-H torsion

> <Gold.Protein.ActiveResidues>
 VAL166  LYS551  ARG553  GLY616  TRP617  ASP618  TYR619  PRO620  LYS621  CYS622 
 ASP623  PHE694  ASN695  SER759  ASP760  ASP761  ALA762  ILE779  LEU786  VAL792 
 PHE793  MET794  SER795  GLU796  ALA797  LYS798  CYS799  TRP800  GLU811  SER814 

> <Gold.Protein.RotatedAtoms>
  151.4557  133.3606  159.2801 H   0  0  0  0  0  0  0  0  0  0  0  0  # atno 6907 bound_to 6896
  150.9060  134.8476  159.7403 H   0  0  0  0  0  0  0  0  0  0  0  0  # atno 6908 bound_to 6896
  152.4906  134.4482  159.9618 H   0  0  0  0  0  0  0  0  0  0  0  0  # atno 6909 bound_to 6896
  144.7230  140.2570  143.6270 H   0  0  0  0  0  0  0  0  0  0  0  0  # atno 7974 bound_to 7965
  156.0059  140.1230  157.0502 H   0  0  0  0  0  0  0  0  0  0  0  0  # atno 8008 bound_to 7997
  154.4258  140.1097  156.5830 H   0  0  0  0  0  0  0  0  0  0  0  0  # atno 8009 bound_to 7997
  155.6148  140.3472  155.4636 H   0  0  0  0  0  0  0  0  0  0  0  0  # atno 8010 bound_to 7997
  139.7254  143.8891  152.2517 H   0  0  0  0  0  0  0  0  0  0  0  0  # atno 10167 bound_to 10162
  156.1006  130.4187  150.0823 H   0  0  0  0  0  0  0  0  0  0  0  0  # atno 10718 bound_to 10713
  154.1696  135.6461  153.5006 H   0  0  0  0  0  0  0  0  0  0  0  0  # atno 10763 bound_to 10752
  153.0088  135.5380  154.6626 H   0  0  0  0  0  0  0  0  0  0  0  0  # atno 10764 bound_to 10752
  154.5962  135.2939  155.0556 H   0  0  0  0  0  0  0  0  0  0  0  0  # atno 10765 bound_to 10752
  140.4148  134.6659  157.4633 H   0  0  0  0  0  0  0  0  0  0  0  0  # atno 11005 bound_to 11000
  145.8173  139.2028  143.1958 LP  0  0  0  0  0  0  0  0  0  0  0  0  # atno 17320 bound_to 7965
  146.0545  140.8035  142.9765 LP  0  0  0  0  0  0  0  0  0  0  0  0  # atno 17321 bound_to 7965
  139.8799  144.7023  150.8890 LP  0  0  0  0  0  0  0  0  0  0  0  0  # atno 17342 bound_to 10162
  140.7762  143.3670  151.1721 LP  0  0  0  0  0  0  0  0  0  0  0  0  # atno 17343 bound_to 10162
  156.8811  130.9557  151.3599 LP  0  0  0  0  0  0  0  0  0  0  0  0  # atno 17370 bound_to 10713
  157.6175  130.8630  149.9054 LP  0  0  0  0  0  0  0  0  0  0  0  0  # atno 17371 bound_to 10713
  140.0242  134.6502  155.9197 LP  0  0  0  0  0  0  0  0  0  0  0  0  # atno 17394 bound_to 11000
  141.1807  133.6546  156.5009 LP  0  0  0  0  0  0  0  0  0  0  0  0  # atno 17395 bound_to 11000

$$$$
