#       Name:                AV-unprocessed.smi:148
#       Creating user name   scv26
#       Creation time:       Thu Mar 26 18:37:02 2020


#       File generated by GOLD software.
#

@<TRIPOS>MOLECULE
AV-unprocessed.smi:148
    73    77     1
SMALL
NO_CHARGES


@<TRIPOS>ATOM
      1 ****        -1.9885  -2.7750   1.6830 O.3            1 S1                 0.0000
      2 ****        -2.1005  -1.4118   2.0366 C.3            1 S1                 0.0000
      3 ****        -1.3077  -1.0943   3.3286 C.3            1 S1                 0.0000
      4 ****         0.2180  -1.3047   3.1603 C.3            1 S1                 0.0000
      5 ****         0.7681  -0.5859   2.0246 N.pl3          1 S1                 0.0000
      6 ****         0.9907   0.7703   1.9430 C.2            1 S1                 0.0000
      7 ****         1.4766   1.1878   0.8059 N.2            1 S1                 0.0000
      8 ****         1.6017   0.0294   0.0502 C.ar           1 S1                 0.0000
      9 ****         2.0312  -0.2418  -1.2753 C.ar           1 S1                 0.0000
     10 ****         2.4263   0.7410  -2.1157 N.3            1 S1                 0.0000
     11 ****         3.8017   0.5234  -2.5704 C.3            1 S1                 0.0000
     12 ****         4.3738   1.7804  -3.2329 C.3            1 S1                 0.0000
     13 ****         3.4634   2.2229  -4.3796 C.3            1 S1                 0.0000
     14 ****         2.0341   2.4303  -3.8618 C.3            1 S1                 0.0000
     15 ****         1.4636   1.1724  -3.1530 C.3            1 S1                 0.0000
     16 ****         0.0114   1.4186  -2.6084 C.3            1 S1                 0.0000
     17 ****        -0.8008   0.1206  -2.3606 C.3            1 S1                 0.0000
     18 ****        -2.2385   0.3556  -2.8389 C.3            1 S1                 0.0000
     19 ****        -2.3387   1.8534  -3.0877 C.3            1 S1                 0.0000
     20 ****        -0.9272   2.2402  -3.5207 C.3            1 S1                 0.0000
     21 ****        -0.7565   3.6361  -3.3736 O.3            1 S1                 0.0000
     22 ****         2.0228  -1.5342  -1.6971 N.ar           1 S1                 0.0000
     23 ****         1.6051  -2.5005  -0.8736 C.ar           1 S1                 0.0000
     24 ****         1.1599  -2.3944   0.3805 N.ar           1 S1                 0.0000
     25 ****         1.1746  -1.0980   0.8051 C.ar           1 S1                 0.0000
     26 ****        -1.8548  -1.8569   4.5618 C.3            1 S1                 0.0000
     27 ****        -3.3202  -1.6070   4.8720 C.3            1 S1                 0.0000
     28 ****        -3.4237  -2.0747   6.3185 C.3            1 S1                 0.0000
     29 ****        -2.1722  -1.7490   6.9110 O.3            1 S1                 0.0000
     30 ****        -1.2146  -1.4580   5.8969 C.3            1 S1                 0.0000
     31 ****        -2.4581  -2.9163   0.8751 H              1 S1                 0.0000
     32 ****        -1.7512  -0.8046   1.2015 H              1 S1                 0.0000
     33 ****        -3.1557  -1.1691   2.1589 H              1 S1                 0.0000
     34 ****        -1.4575  -0.0308   3.5206 H              1 S1                 0.0000
     35 ****         0.7525  -0.9708   4.0498 H              1 S1                 0.0000
     36 ****         0.4437  -2.3656   3.0465 H              1 S1                 0.0000
     37 ****         0.7688   1.4456   2.7567 H              1 S1                 0.0000
     38 ****         4.4336   0.2393  -1.7271 H              1 S1                 0.0000
     39 ****         3.8249  -0.3054  -3.2797 H              1 S1                 0.0000
     40 ****         4.4585   2.5802  -2.4960 H              1 S1                 0.0000
     41 ****         5.3807   1.5864  -3.6030 H              1 S1                 0.0000
     42 ****         3.8399   3.1438  -4.8257 H              1 S1                 0.0000
     43 ****         3.4649   1.4686  -5.1677 H              1 S1                 0.0000
     44 ****         2.0241   3.2748  -3.1713 H              1 S1                 0.0000
     45 ****         1.4139   2.7124  -4.7116 H              1 S1                 0.0000
     46 ****         1.4146   0.3800  -3.9014 H              1 S1                 0.0000
     47 ****         0.0802   1.9564  -1.6610 H              1 S1                 0.0000
     48 ****        -0.3786  -0.7302  -2.8958 H              1 S1                 0.0000
     49 ****        -0.8016  -0.1340  -1.3012 H              1 S1                 0.0000
     50 ****        -2.4059  -0.1819  -3.7732 H              1 S1                 0.0000
     51 ****        -2.9799   0.0055  -2.1201 H              1 S1                 0.0000
     52 ****        -3.0946   2.1074  -3.8316 H              1 S1                 0.0000
     53 ****        -2.6012   2.3586  -2.1566 H              1 S1                 0.0000
     54 ****        -0.7852   1.9575  -4.5647 H              1 S1                 0.0000
     55 ****         0.1262   3.8586  -3.6275 H              1 S1                 0.0000
     56 ****         1.6249  -3.5011  -1.2795 H              1 S1                 0.0000
     57 ****        -1.7124  -2.9297   4.4209 H              1 S1                 0.0000
     58 ****        -3.5498  -0.5426   4.8049 H              1 S1                 0.0000
     59 ****        -3.9991  -2.1469   4.2116 H              1 S1                 0.0000
     60 ****        -4.2534  -1.6098   6.8513 H              1 S1                 0.0000
     61 ****        -3.5571  -3.1565   6.3591 H              1 S1                 0.0000
     62 ****        -0.2790  -1.9859   6.0825 H              1 S1                 0.0000
     63 ****        -1.0075  -0.3872   5.9248 H              1 S1                 0.0000
     64 ****        -2.3819  -3.3439   2.4053 LP             1 S1                 0.0000
     65 ****        -1.0252  -3.0129   1.5588 LP             1 S1                 0.0000
     66 ****         1.7056   2.1243   0.5405 LP             1 S1                 0.0000
     67 ****         2.4319   1.5725  -1.5602 LP             1 S1                 0.0000
     68 ****        -0.9089   3.8959  -2.4200 LP             1 S1                 0.0000
     69 ****        -1.4078   4.1191  -3.9588 LP             1 S1                 0.0000
     70 ****         2.3285  -1.7615  -2.6217 LP             1 S1                 0.0000
     71 ****         0.8545  -3.1667   0.9376 LP             1 S1                 0.0000
     72 ****        -1.8522  -2.5238   7.4563 LP             1 S1                 0.0000
     73 ****        -2.2832  -0.9494   7.5011 LP             1 S1                 0.0000
@<TRIPOS>BOND
    1    1    2 1     
    2    1   31 1     
    3    2    3 1     
    4    2   32 1     
    5    2   33 1     
    6    3    4 1     
    7    3   26 1     
    8    3   34 1     
    9    4    5 1     
   10    4   35 1     
   11    4   36 1     
   12    5   25 1     
   13    5    6 1     
   14    6    7 2     
   15    6   37 1     
   16    7    8 1     
   17    8   25 ar    
   18    8    9 ar    
   19    9   10 1     
   20    9   22 ar    
   21   10   15 1     
   22   10   11 1     
   23   11   12 1     
   24   11   38 1     
   25   11   39 1     
   26   12   13 1     
   27   12   40 1     
   28   12   41 1     
   29   13   14 1     
   30   13   42 1     
   31   13   43 1     
   32   14   15 1     
   33   14   44 1     
   34   14   45 1     
   35   15   16 1     
   36   15   46 1     
   37   16   20 1     
   38   16   17 1     
   39   16   47 1     
   40   17   18 1     
   41   17   48 1     
   42   17   49 1     
   43   18   19 1     
   44   18   50 1     
   45   18   51 1     
   46   19   20 1     
   47   19   52 1     
   48   19   53 1     
   49   20   21 1     
   50   20   54 1     
   51   21   55 1     
   52   22   23 ar    
   53   23   24 ar    
   54   23   56 1     
   55   24   25 ar    
   56   26   30 1     
   57   26   27 1     
   58   26   57 1     
   59   27   28 1     
   60   27   58 1     
   61   27   59 1     
   62   28   29 1     
   63   28   60 1     
   64   28   61 1     
   65   29   30 1     
   66   30   62 1     
   67   30   63 1     
   68    1   64 1     
   69    1   65 1     
   70    7   66 1     
   71   10   67 1     
   72   21   68 1     
   73   21   69 1     
   74   22   70 1     
   75   24   71 1     
   76   29   72 1     
   77   29   73 1     
@<TRIPOS>SUBSTRUCTURE
      1 S1             1
@<TRIPOS>SET
LONE_PAIRS      STATIC     ATOMS    <user>   **** ""
10 64 65 66 67 68 69 70 71 72 73
DONOR_HYDROGENS      STATIC     ATOMS    <user>   **** ""
2 31 55
ATOM$BLUE        STATIC     ATOMS    COLORGROUP SYSTEM
10 64 65 66 67 68 69 70 71 72 73
ATOM$RED        STATIC     ATOMS    COLORGROUP SYSTEM
2 31 55
