AV-unprocessed.smi:2137|AV-procd|sdf|8709|dock1
  -GOLD-   2272011473D 1   1.00000     0.00000
 Structure written by MMmdl.
 50 51  0  0  0  0  0  0  0  0  2 V2000
  145.6287  131.5498  150.6711 C   0  0  0  0  0  0  0  0  0  0  0  0
  145.9788  132.9797  151.1063 C   0  0  1  0  0  0  0  0  0  0  0  0
  144.8257  133.9544  150.8138 C   0  0  0  0  0  0  0  0  0  0  0  0
  145.1929  135.3678  151.2827 C   0  0  0  0  0  0  0  0  0  0  0  0
  145.5952  135.3681  152.7660 C   0  0  0  0  0  0  0  0  0  0  0  0
  146.7126  134.4217  153.0183 N   0  3  1  0  0  0  0  0  0  0  0  0
  147.2111  134.4997  154.4150 C   0  0  0  0  0  0  0  0  0  0  0  0
  148.3629  133.5155  154.6829 C   0  0  0  0  0  0  0  0  0  0  0  0
  149.4780  134.1412  155.5310 C   0  0  0  0  0  0  0  0  0  0  0  0
  150.0363  135.3073  154.8586 N   0  0  0  0  0  0  0  0  0  0  0  0
  151.0942  136.0086  155.2905 C   0  0  0  0  0  0  0  0  0  0  0  0
  151.6957  135.7513  156.3338 O   0  0  0  0  0  0  0  0  0  0  0  0
  151.5214  137.1954  154.4172 C   0  0  0  0  0  0  0  0  0  0  0  0
  150.7526  138.4129  154.7052 N   0  0  0  0  0  0  0  0  0  0  0  0
  149.4320  138.5024  154.3040 C   0  0  0  0  0  0  0  0  0  0  0  0
  148.6564  139.5848  154.5319 C   0  0  0  0  0  0  0  0  0  0  0  0
  149.1825  140.7478  155.2359 C   0  0  0  0  0  0  0  0  0  0  0  0
  148.5191  141.7646  155.4438 O   0  0  0  0  0  0  0  0  0  0  0  0
  150.5294  140.6228  155.6521 N   0  0  0  0  0  0  0  0  0  0  0  0
  151.1357  141.7412  156.3450 C   0  0  0  0  0  0  0  0  0  0  0  0
  151.3413  139.4951  155.3947 C   0  0  0  0  0  0  0  0  0  0  0  0
  152.5225  139.4446  155.7471 O   0  0  0  0  0  0  0  0  0  0  0  0
  146.3603  133.0378  152.5992 C   0  0  0  0  0  0  0  0  0  0  0  0
  144.7637  131.1693  151.2156 H   0  0  0  0  0  0  0  0  0  0  0  0
  146.4611  130.8686  150.8507 H   0  0  0  0  0  0  0  0  0  0  0  0
  145.3958  131.5099  149.6065 H   0  0  0  0  0  0  0  0  0  0  0  0
  146.8458  133.2965  150.5243 H   0  0  0  0  0  0  0  0  0  0  0  0
  144.5990  133.9646  149.7470 H   0  0  0  0  0  0  0  0  0  0  0  0
  143.9188  133.6239  151.3224 H   0  0  0  0  0  0  0  0  0  0  0  0
  146.0154  135.7531  150.6783 H   0  0  0  0  0  0  0  0  0  0  0  0
  144.3508  136.0423  151.1245 H   0  0  0  0  0  0  0  0  0  0  0  0
  145.8930  136.3777  153.0526 H   0  0  0  0  0  0  0  0  0  0  0  0
  144.7405  135.0999  153.3893 H   0  0  0  0  0  0  0  0  0  0  0  0
  147.5821  135.5072  154.6089 H   0  0  0  0  0  0  0  0  0  0  0  0
  146.3882  134.3365  155.1127 H   0  0  0  0  0  0  0  0  0  0  0  0
  147.9930  132.6274  155.1950 H   0  0  0  0  0  0  0  0  0  0  0  0
  148.7770  133.1752  153.7326 H   0  0  0  0  0  0  0  0  0  0  0  0
  149.0913  134.4479  156.5036 H   0  0  0  0  0  0  0  0  0  0  0  0
  150.2551  133.3969  155.7144 H   0  0  0  0  0  0  0  0  0  0  0  0
  149.5970  135.5957  153.9963 H   0  0  0  0  0  0  0  0  0  0  0  0
  152.5886  137.3892  154.5404 H   0  0  0  0  0  0  0  0  0  0  0  0
  151.3933  136.9106  153.3721 H   0  0  0  0  0  0  0  0  0  0  0  0
  148.9946  137.6648  153.7804 H   0  0  0  0  0  0  0  0  0  0  0  0
  147.6327  139.5909  154.1873 H   0  0  0  0  0  0  0  0  0  0  0  0
  151.8482  141.3646  157.0805 H   0  0  0  0  0  0  0  0  0  0  0  0
  150.3707  142.3061  156.8790 H   0  0  0  0  0  0  0  0  0  0  0  0
  151.6277  142.3536  155.5881 H   0  0  0  0  0  0  0  0  0  0  0  0
  145.5362  132.6712  153.2138 H   0  0  0  0  0  0  0  0  0  0  0  0
  147.2020  132.3685  152.7736 H   0  0  0  0  0  0  0  0  0  0  0  0
  147.4730  134.7246  152.4265 H   0  0  0  0  0  0  0  0  0  0  0  0
  1  2  1  0  0  0  0
  1 24  1  0  0  0  0
  1 25  1  0  0  0  0
  1 26  1  0  0  0  0
  2 23  1  0  0  0  0
  2  3  1  0  0  0  0
  2 27  1  0  0  0  0
  3  4  1  0  0  0  0
  3 28  1  0  0  0  0
  3 29  1  0  0  0  0
  4  5  1  0  0  0  0
  4 30  1  0  0  0  0
  4 31  1  0  0  0  0
  5  6  1  0  0  0  0
  5 32  1  0  0  0  0
  5 33  1  0  0  0  0
  6  7  1  0  0  0  0
  6 23  1  0  0  0  0
  6 50  1  0  0  0  0
  7  8  1  0  0  0  0
  7 34  1  0  0  0  0
  7 35  1  0  0  0  0
  8  9  1  0  0  0  0
  8 36  1  0  0  0  0
  8 37  1  0  0  0  0
  9 10  1  0  0  0  0
  9 38  1  0  0  0  0
  9 39  1  0  0  0  0
 10 11  1  0  0  0  0
 10 40  1  0  0  0  0
 11 12  2  0  0  0  0
 11 13  1  0  0  0  0
 13 14  1  0  0  0  0
 13 41  1  0  0  0  0
 13 42  1  0  0  0  0
 14 21  1  0  0  0  0
 14 15  1  0  0  0  0
 15 16  2  0  0  0  0
 15 43  1  0  0  0  0
 16 17  1  0  0  0  0
 16 44  1  0  0  0  0
 17 18  2  0  0  0  0
 17 19  1  0  0  0  0
 19 20  1  0  0  0  0
 19 21  1  0  0  0  0
 20 45  1  0  0  0  0
 20 46  1  0  0  0  0
 20 47  1  0  0  0  0
 21 22  2  0  0  0  0
 23 48  1  0  0  0  0
 23 49  1  0  0  0  0
M  CHG  1   6   1
M  END
> <s_m_source_file>
AV-unprocessed.smi

> <i_m_source_file_index>
2137

> <i_lp_mmshare_version>
43012

> <i_f3d_flags>
0

> <s_epik_input>
W0NIM11bQ0BASF0xW0NIMl1bQ0gyXVtDSDJdTihbQ0gyXTEpW0NIMl1bQ0gyXVtDSDJdW05IXUMoPU8pW0NIMl1uMltjSF1bY0hdYyg9TyluKFtDSDNdKWMyPU8=

> <s_epik_cmdline>
J2VwaWtfcHl0aG9uJywgJy1waCcsICc3LjAnLCAnLXRuJywgJzgnLCAnLW1hJywgJzIwMCcsICctbWV0YWxfYmluZGluZycsICctaW1hZScsICc8aW5maWxlLm1hZT4nLCAnLW9tYWUnLCAnPG91dGZpbGUubWFlPic=

> <r_lp_tautomer_probability>
1

> <r_epik_Ionization_Penalty>
0.000384839

> <r_epik_Ionization_Penalty_Charging>
0.000384812

> <r_epik_Ionization_Penalty_Neutral>
2.6907e-08

> <r_epik_State_Penalty>
0.000235226

> <r_epik_Charging_Adjusted_Penalty>
0.000620038

> <i_epik_Tot_Q>
1

> <i_epik_Tot_abs_Q>
1

> <r_epik_Metal_State_Penalty>
-0

> <b_epik_Metal_Only>
0

> <s_lp_Force_Field>
OPLS_2005

> <r_lp_Energy>
25.3587

> <b_lp_Chiralities_Consistent>
1

> <s_lp_Variant>
AV-unprocessed.smi:2137-4

> <Gold.Version>
5.8.1

> <Gold.Id.Protein>
6NUR|6NUR_protein|mol2

> <Gold.PLP.Fitness>
58.1054

> <Gold.PLP.PLP>
-41.6075

> <Gold.PLP.part.hbond>
-5.1551

> <Gold.PLP.part.metal>
0.0000

> <Gold.PLP.part.buried>
1.6028

> <Gold.PLP.part.nonpolar>
-39.1191

> <Gold.PLP.part.repulsive>
2.2066

> <Gold.PLP.ligand.clash>
0.0000

> <Gold.PLP.ligand.torsion>
0.8094

> <Gold.PLP.Chemscore.Hbond>
4.9913

> <Gold.PLP.Chemscore.CHOScore>
1.0000

> <Gold.PLP.Chemscore.Metal>
0.0000

> <Gold.Chemscore.Hbonds>
donor molecule, donor type, donor heavy atom, donor atom, acceptor molecule, acceptor atom, score
      L1  H     6    50       P1  7948  1.40
      L1  H    10    40       P1  7948  0.37
      P1  H  7997  8009       L1    22  0.88
      P1  H 10752 10764       L1    12  0.30
      L1  C    15    43       P1  7948  1.00

> <Gold.PLP.Chemscore.Internal.Correction>
0.1430

> <Gold.Rescore>
     Score         DG    S(hbond)    S(metal)    S(lipo)     H(rot)  DE(clash)    DE(int)     intcor
     18.35     -19.63       3.28        0.00      77.23       2.27       0.33       0.94       ----

> <Gold.Chemscore.Fitness>
18.3545

> <Gold.Chemscore.DG>
-19.6317

> <Gold.Chemscore.ZeroCoef>
-5.4800

> <Gold.Chemscore.Hbond>
3.2750

> <Gold.Chemscore.Metal>
0.0000

> <Gold.Chemscore.Lipo>
77.2342

> <Gold.Chemscore.Internal_Hbond>
0.0000

> <Gold.Chemscore.DEClash>
0.3332

> <Gold.Chemscore.DEInternal>
0.9439

> <Gold.Chemscore.Rot>
2.2748

> <Gold.Chemscore.Internal.Correction>
   9.000000E+99

> <Gold.Chemscore.Hbonds>
donor molecule, donor type, donor heavy atom, donor atom, acceptor molecule, acceptor atom, score
      L1  H     6    50       P1  7948  0.63
      L1  H    10    40       P1  7948  0.11
      P1  H  7997  8009       L1    22  0.83

> <Gold.Chemscore.Hbond.Weighted>
-10.9387

> <Gold.Chemscore.Metal.Weighted>
-0.0000

> <Gold.Chemscore.Lipo.Weighted>
-9.0364

> <Gold.Chemscore.Internal_Hbond.Weighted>
0.0000

> <Gold.Chemscore.DEClash.Weighted>
0.3332

> <Gold.Chemscore.DEInternal.Weighted>
0.9439

> <Gold.Chemscore.Rot.Weighted>
5.8234

> <Gold.Chemscore.Internal.Correction.Weighted>
   9.000000E+99

> <Gold.Protein.RotatedTorsions>
[ 6907 6896 6895 6894 ] final  -51.73 input  -60.11 | X-H torsion
[ 7974 7965 7964 7962 ] final -153.09 input  175.53 | X-H torsion
[ 8008 7997 7996 7995 ] final -134.29 input   59.86 | X-H torsion
[ 10167 10162 10161 10158 ] final   38.75 input  -65.29 | X-H torsion
[ 10718 10713 10712 10709 ] final  145.99 input   66.30 | X-H torsion
[ 10763 10752 10751 10750 ] final  -18.63 input  -60.55 | X-H torsion
[ 11005 11000 10999 10996 ] final  -86.41 input  -57.11 | X-H torsion

> <Gold.Protein.ActiveResidues>
 VAL166  LYS551  ARG553  GLY616  TRP617  ASP618  TYR619  PRO620  LYS621  CYS622 
 ASP623  PHE694  ASN695  SER759  ASP760  ASP761  ALA762  ILE779  LEU786  VAL792 
 PHE793  MET794  SER795  GLU796  ALA797  LYS798  CYS799  TRP800  GLU811  SER814 

> <Gold.Protein.RotatedAtoms>
  150.8584  134.7929  159.7063 H   0  0  0  0  0  0  0  0  0  0  0  0  # atno 6907 bound_to 6896
  152.4629  134.5140  159.9772 H   0  0  0  0  0  0  0  0  0  0  0  0  # atno 6908 bound_to 6896
  151.5248  133.3421  159.2943 H   0  0  0  0  0  0  0  0  0  0  0  0  # atno 6909 bound_to 6896
  144.7759  140.4573  143.5874 H   0  0  0  0  0  0  0  0  0  0  0  0  # atno 7974 bound_to 7965
  155.3596  140.0482  157.3046 H   0  0  0  0  0  0  0  0  0  0  0  0  # atno 8008 bound_to 7997
  154.5185  140.2216  155.8984 H   0  0  0  0  0  0  0  0  0  0  0  0  # atno 8009 bound_to 7997
  156.1663  140.3105  155.8900 H   0  0  0  0  0  0  0  0  0  0  0  0  # atno 8010 bound_to 7997
  140.3906  144.1857  150.6131 H   0  0  0  0  0  0  0  0  0  0  0  0  # atno 10167 bound_to 10162
  157.3386  131.0932  151.1102 H   0  0  0  0  0  0  0  0  0  0  0  0  # atno 10718 bound_to 10713
  153.5923  135.7002  153.5418 H   0  0  0  0  0  0  0  0  0  0  0  0  # atno 10763 bound_to 10752
  153.3168  135.4085  155.1382 H   0  0  0  0  0  0  0  0  0  0  0  0  # atno 10764 bound_to 10752
  154.8598  135.3685  154.5455 H   0  0  0  0  0  0  0  0  0  0  0  0  # atno 10765 bound_to 10752
  141.1630  133.7453  156.9157 H   0  0  0  0  0  0  0  0  0  0  0  0  # atno 11005 bound_to 11000
  145.6187  139.1521  143.3034 LP  0  0  0  0  0  0  0  0  0  0  0  0  # atno 17320 bound_to 7965
  146.1938  140.6299  142.9133 LP  0  0  0  0  0  0  0  0  0  0  0  0  # atno 17321 bound_to 7965
  140.4843  143.2368  151.8910 LP  0  0  0  0  0  0  0  0  0  0  0  0  # atno 17342 bound_to 10162
  139.4789  144.5235  151.8768 LP  0  0  0  0  0  0  0  0  0  0  0  0  # atno 17343 bound_to 10162
  157.2323  130.6531  149.5855 LP  0  0  0  0  0  0  0  0  0  0  0  0  # atno 17370 bound_to 10713
  155.9704  130.4595  150.6037 LP  0  0  0  0  0  0  0  0  0  0  0  0  # atno 17371 bound_to 10713
  140.1486  134.9245  157.2562 LP  0  0  0  0  0  0  0  0  0  0  0  0  # atno 17394 bound_to 11000
  140.2750  134.3416  155.7361 LP  0  0  0  0  0  0  0  0  0  0  0  0  # atno 17395 bound_to 11000

$$$$
