AV-unprocessed.smi:199|AV-procd|sdf|1566|dock10
  -GOLD-   2262019443D 1   1.00000     0.00000
 Structure written by MMmdl.
 51 55  0  0  0  0  0  0  0  0  1 V2000
  145.2229  133.8829  162.6409 C   0  0  0  0  0  0  0  0  0  0  0  0
  146.5384  134.4880  162.1241 C   0  0  2  0  0  0  0  0  0  0  0  0
  147.3764  134.8776  163.2119 O   0  0  0  0  0  0  0  0  0  0  0  0
  147.6926  136.2589  163.1152 C   0  0  0  0  0  0  0  0  0  0  0  0
  147.6031  136.5616  161.6257 C   0  0  0  0  0  0  0  0  0  0  0  0
  146.4170  135.7133  161.1874 C   0  0  2  0  0  0  0  0  0  0  0  0
  145.2279  136.4404  161.4543 O   0  0  0  0  0  0  0  0  0  0  0  0
  146.4334  135.3345  159.6873 C   0  0  0  0  0  0  0  0  0  0  0  0
  146.5574  136.4841  158.8043 N   0  0  0  0  0  0  0  0  0  0  0  0
  145.5775  137.4015  158.5051 C   0  0  0  0  0  0  0  0  0  0  0  0
  145.9335  138.3399  157.6727 N   0  0  0  0  0  0  0  0  0  0  0  0
  147.2655  138.0637  157.3825 C   0  0  0  0  0  0  0  0  0  0  0  0
  148.2634  138.6710  156.5616 C   0  0  0  0  0  0  0  0  0  0  0  0
  148.0817  139.7809  155.7926 N   0  0  0  0  0  0  0  0  0  0  0  0
  149.0920  140.2523  154.8568 C   0  0  2  0  0  0  0  0  0  0  0  0
  148.5082  141.5987  154.3940 C   0  0  0  0  0  0  0  0  0  0  0  0
  147.0035  141.2944  154.4021 C   0  0  0  0  0  0  0  0  0  0  0  0
  146.9977  139.8121  154.8192 C   0  0  1  0  0  0  0  0  0  0  0  0
  147.5215  138.8918  153.6838 C   0  0  1  0  0  0  0  0  0  0  0  0
  146.8362  139.0023  152.3088 C   0  0  0  0  0  0  0  0  0  0  0  0
  147.4534  138.1348  151.3821 O   0  0  0  0  0  0  0  0  0  0  0  0
  149.0192  139.2504  153.6860 C   0  0  0  0  0  0  0  0  0  0  0  0
  149.4846  138.0750  156.5291 N   0  0  0  0  0  0  0  0  0  0  0  0
  149.7285  136.9790  157.2518 C   0  0  0  0  0  0  0  0  0  0  0  0
  148.9030  136.3144  158.0605 N   0  0  0  0  0  0  0  0  0  0  0  0
  147.6707  136.8958  158.0930 C   0  0  0  0  0  0  0  0  0  0  0  0
  144.5741  133.5920  161.8142 H   0  0  0  0  0  0  0  0  0  0  0  0
  144.6756  134.5858  163.2698 H   0  0  0  0  0  0  0  0  0  0  0  0
  145.4169  132.9927  163.2392 H   0  0  0  0  0  0  0  0  0  0  0  0
  147.0886  133.7022  161.6051 H   0  0  0  0  0  0  0  0  0  0  0  0
  146.9514  136.8347  163.6711 H   0  0  0  0  0  0  0  0  0  0  0  0
  148.6765  136.4759  163.5315 H   0  0  0  0  0  0  0  0  0  0  0  0
  147.4886  137.6252  161.4111 H   0  0  0  0  0  0  0  0  0  0  0  0
  148.5150  136.2167  161.1359 H   0  0  0  0  0  0  0  0  0  0  0  0
  145.0712  137.0345  160.7360 H   0  0  0  0  0  0  0  0  0  0  0  0
  147.2661  134.6618  159.4772 H   0  0  0  0  0  0  0  0  0  0  0  0
  145.5265  134.7880  159.4246 H   0  0  0  0  0  0  0  0  0  0  0  0
  144.5812  137.3482  158.9195 H   0  0  0  0  0  0  0  0  0  0  0  0
  150.0933  140.3757  155.2655 H   0  0  0  0  0  0  0  0  0  0  0  0
  148.7418  142.3925  155.1048 H   0  0  0  0  0  0  0  0  0  0  0  0
  148.8751  141.9029  153.4132 H   0  0  0  0  0  0  0  0  0  0  0  0
  146.5024  141.9000  155.1585 H   0  0  0  0  0  0  0  0  0  0  0  0
  146.5129  141.4927  153.4505 H   0  0  0  0  0  0  0  0  0  0  0  0
  146.0276  139.5003  155.2077 H   0  0  0  0  0  0  0  0  0  0  0  0
  147.4232  137.8562  154.0150 H   0  0  0  0  0  0  0  0  0  0  0  0
  145.7700  138.7853  152.3619 H   0  0  0  0  0  0  0  0  0  0  0  0
  146.9254  140.0222  151.9339 H   0  0  0  0  0  0  0  0  0  0  0  0
  147.7096  137.3455  151.8344 H   0  0  0  0  0  0  0  0  0  0  0  0
  149.3627  139.6859  152.7469 H   0  0  0  0  0  0  0  0  0  0  0  0
  149.6247  138.3652  153.8845 H   0  0  0  0  0  0  0  0  0  0  0  0
  150.7271  136.5761  157.1679 H   0  0  0  0  0  0  0  0  0  0  0  0
  1  2  1  0  0  0  0
  1 27  1  0  0  0  0
  1 28  1  0  0  0  0
  1 29  1  0  0  0  0
  2  6  1  0  0  0  0
  2  3  1  0  0  0  0
  2 30  1  0  0  0  0
  3  4  1  0  0  0  0
  4  5  1  0  0  0  0
  4 31  1  0  0  0  0
  4 32  1  0  0  0  0
  5  6  1  0  0  0  0
  5 33  1  0  0  0  0
  5 34  1  0  0  0  0
  6  7  1  0  0  0  0
  6  8  1  0  0  0  0
  7 35  1  0  0  0  0
  8  9  1  0  0  0  0
  8 36  1  0  0  0  0
  8 37  1  0  0  0  0
  9 26  1  0  0  0  0
  9 10  1  0  0  0  0
 10 11  2  0  0  0  0
 10 38  1  0  0  0  0
 11 12  1  0  0  0  0
 12 26  2  0  0  0  0
 12 13  1  0  0  0  0
 13 14  1  0  0  0  0
 13 23  2  0  0  0  0
 14 18  1  0  0  0  0
 14 15  1  0  0  0  0
 15 22  1  0  0  0  0
 15 16  1  0  0  0  0
 15 39  1  0  0  0  0
 16 17  1  0  0  0  0
 16 40  1  0  0  0  0
 16 41  1  0  0  0  0
 17 18  1  0  0  0  0
 17 42  1  0  0  0  0
 17 43  1  0  0  0  0
 18 19  1  0  0  0  0
 18 44  1  0  0  0  0
 19 20  1  0  0  0  0
 19 22  1  0  0  0  0
 19 45  1  0  0  0  0
 20 21  1  0  0  0  0
 20 46  1  0  0  0  0
 20 47  1  0  0  0  0
 21 48  1  0  0  0  0
 22 49  1  0  0  0  0
 22 50  1  0  0  0  0
 23 24  1  0  0  0  0
 24 25  2  0  0  0  0
 24 51  1  0  0  0  0
 25 26  1  0  0  0  0
M  END
> <s_m_source_file>
AV-unprocessed.smi

> <i_m_source_file_index>
199

> <i_lp_mmshare_version>
43012

> <i_f3d_flags>
0

> <s_epik_input>
W0NIMl0xW0NIMl1PW0NAQEhdKFtDSDNdKVtDQEBdMShbT0hdKVtDSDJdbihbY0hdbjIpYyhjMjMpbltjSF1uYzNOKFtDQEBIXTQ1KVtDQEhdKFtDSDJdW0NIMl00KVtDQEhdKFtDSDJdNSlbQ0gyXVtPSF0=

> <s_epik_cmdline>
J2VwaWtfcHl0aG9uJywgJy1waCcsICc3LjAnLCAnLXRuJywgJzgnLCAnLW1hJywgJzIwMCcsICctbWV0YWxfYmluZGluZycsICctaW1hZScsICc8aW5maWxlLm1hZT4nLCAnLW9tYWUnLCAnPG91dGZpbGUubWFlPic=

> <r_lp_tautomer_probability>
1

> <r_epik_Ionization_Penalty>
0.00583903

> <r_epik_Ionization_Penalty_Charging>
0

> <r_epik_Ionization_Penalty_Neutral>
0.00583903

> <r_epik_State_Penalty>
-0

> <r_epik_Charging_Adjusted_Penalty>
0

> <i_epik_Tot_Q>
0

> <i_epik_Tot_abs_Q>
0

> <r_epik_Metal_State_Penalty>
-0

> <b_epik_Metal_Only>
0

> <s_lp_Force_Field>
OPLS_2005

> <r_lp_Energy>
84.6661

> <b_lp_Chiralities_Consistent>
1

> <s_lp_Variant>
AV-unprocessed.smi:199-7

> <Gold.Version>
5.8.1

> <Gold.Id.Protein>
6NUR|6NUR_protein|mol2

> <Gold.PLP.Fitness>
39.4499

> <Gold.PLP.PLP>
-34.7659

> <Gold.PLP.part.hbond>
-3.0212

> <Gold.PLP.part.metal>
0.0000

> <Gold.PLP.part.buried>
-1.5766

> <Gold.PLP.part.nonpolar>
-29.5249

> <Gold.PLP.part.repulsive>
0.0106

> <Gold.PLP.ligand.clash>
0.0000

> <Gold.PLP.ligand.torsion>
0.2982

> <Gold.PLP.Chemscore.Hbond>
1.7520

> <Gold.PLP.Chemscore.CHOScore>
0.0000

> <Gold.PLP.Chemscore.Metal>
0.0000

> <Gold.Chemscore.Hbonds>
donor molecule, donor type, donor heavy atom, donor atom, acceptor molecule, acceptor atom, score
      L1  H    21    48       P1  7948  0.77
      P1  H  7954  7966       L1    21  1.00

> <Gold.PLP.Chemscore.Internal.Correction>
0.0245

> <Gold.Rescore>
     Score         DG    S(hbond)    S(metal)    S(lipo)     H(rot)  DE(clash)    DE(int)     intcor
     11.05     -12.80       1.35        0.00      91.27       3.07       1.43       0.32       ----

> <Gold.Chemscore.Fitness>
11.0512

> <Gold.Chemscore.DG>
-12.8004

> <Gold.Chemscore.ZeroCoef>
-5.4800

> <Gold.Chemscore.Hbond>
1.3498

> <Gold.Chemscore.Metal>
0.0000

> <Gold.Chemscore.Lipo>
91.2715

> <Gold.Chemscore.Internal_Hbond>
0.0000

> <Gold.Chemscore.DEClash>
1.4288

> <Gold.Chemscore.DEInternal>
0.3203

> <Gold.Chemscore.Rot>
3.0729

> <Gold.Chemscore.Internal.Correction>
   9.000000E+99

> <Gold.Chemscore.Hbonds>
donor molecule, donor type, donor heavy atom, donor atom, acceptor molecule, acceptor atom, score
      L1  H    21    48       P1  7948  0.76
      P1  H  7954  7966       L1    21  0.26

> <Gold.Chemscore.Hbond.Weighted>
-4.5083

> <Gold.Chemscore.Metal.Weighted>
-0.0000

> <Gold.Chemscore.Lipo.Weighted>
-10.6788

> <Gold.Chemscore.Internal_Hbond.Weighted>
0.0000

> <Gold.Chemscore.DEClash.Weighted>
1.4288

> <Gold.Chemscore.DEInternal.Weighted>
0.3203

> <Gold.Chemscore.Rot.Weighted>
7.8667

> <Gold.Chemscore.Internal.Correction.Weighted>
   9.000000E+99

> <Gold.Protein.RotatedTorsions>
[ 6907 6896 6895 6894 ] final -107.31 input  -60.11 | X-H torsion
[ 7974 7965 7964 7962 ] final  -26.72 input  175.53 | X-H torsion
[ 8008 7997 7996 7995 ] final    8.20 input   59.86 | X-H torsion
[ 10167 10162 10161 10158 ] final -171.99 input  -65.29 | X-H torsion
[ 10718 10713 10712 10709 ] final  -88.44 input   66.30 | X-H torsion
[ 10763 10752 10751 10750 ] final  -14.24 input  -60.55 | X-H torsion
[ 11005 11000 10999 10996 ] final -117.68 input  -57.11 | X-H torsion

> <Gold.Protein.ActiveResidues>
 VAL166  LYS551  ARG553  GLY616  TRP617  ASP618  TYR619  PRO620  LYS621  CYS622 
 ASP623  PHE694  ASN695  SER759  ASP760  ASP761  ALA762  ILE779  LEU786  VAL792 
 PHE793  MET794  SER795  GLU796  ALA797  LYS798  CYS799  TRP800  GLU811  SER814 

> <Gold.Protein.RotatedAtoms>
  150.7437  133.9846  159.3587 H   0  0  0  0  0  0  0  0  0  0  0  0  # atno 6907 bound_to 6896
  151.7789  135.0764  160.0380 H   0  0  0  0  0  0  0  0  0  0  0  0  # atno 6908 bound_to 6896
  152.3287  133.5897  159.5831 H   0  0  0  0  0  0  0  0  0  0  0  0  # atno 6909 bound_to 6896
  146.1406  140.5057  142.8653 H   0  0  0  0  0  0  0  0  0  0  0  0  # atno 7974 bound_to 7965
  154.7637  140.2789  155.6193 H   0  0  0  0  0  0  0  0  0  0  0  0  # atno 8008 bound_to 7997
  156.2920  140.2655  156.2350 H   0  0  0  0  0  0  0  0  0  0  0  0  # atno 8009 bound_to 7997
  154.9985  140.0373  157.2340 H   0  0  0  0  0  0  0  0  0  0  0  0  # atno 8010 bound_to 7997
  139.5770  144.1509  152.1464 H   0  0  0  0  0  0  0  0  0  0  0  0  # atno 10167 bound_to 10162
  155.9983  130.4835  150.5019 H   0  0  0  0  0  0  0  0  0  0  0  0  # atno 10718 bound_to 10713
  153.5253  135.7015  153.5710 H   0  0  0  0  0  0  0  0  0  0  0  0  # atno 10763 bound_to 10752
  153.3742  135.3937  155.1810 H   0  0  0  0  0  0  0  0  0  0  0  0  # atno 10764 bound_to 10752
  154.8690  135.3819  154.4745 H   0  0  0  0  0  0  0  0  0  0  0  0  # atno 10765 bound_to 10752
  141.0338  133.9941  157.3102 H   0  0  0  0  0  0  0  0  0  0  0  0  # atno 11005 bound_to 11000
  144.7788  140.5797  143.6619 LP  0  0  0  0  0  0  0  0  0  0  0  0  # atno 17320 bound_to 7965
  145.5055  139.1481  143.3634 LP  0  0  0  0  0  0  0  0  0  0  0  0  # atno 17321 bound_to 7965
  140.1054  144.5503  150.6961 LP  0  0  0  0  0  0  0  0  0  0  0  0  # atno 17342 bound_to 10162
  140.7052  143.2463  151.4747 LP  0  0  0  0  0  0  0  0  0  0  0  0  # atno 17343 bound_to 10162
  157.3002  131.0643  151.2073 LP  0  0  0  0  0  0  0  0  0  0  0  0  # atno 17370 bound_to 10713
  157.3055  130.6864  149.6187 LP  0  0  0  0  0  0  0  0  0  0  0  0  # atno 17371 bound_to 10713
  139.9226  135.0201  156.8120 LP  0  0  0  0  0  0  0  0  0  0  0  0  # atno 17394 bound_to 11000
  140.6359  133.9863  155.7684 LP  0  0  0  0  0  0  0  0  0  0  0  0  # atno 17395 bound_to 11000

$$$$
