AV-unprocessed.smi:1970|AV-procd|sdf|7960|dock6
  -GOLD-   2272010133D 1   1.00000     0.00000
 Structure written by MMmdl.
 33 34  0  0  0  0  0  0  0  0  1 V2000
  151.9554  137.9366  157.1274 O   0  0  0  0  0  0  0  0  0  0  0  0
  151.2236  138.7861  157.6354 C   0  0  0  0  0  0  0  0  0  0  0  0
  151.3903  140.2607  157.2597 C   0  0  0  0  0  0  0  0  0  0  0  0
  151.8847  141.0412  158.3956 N   0  0  0  0  0  0  0  0  0  0  0  0
  151.1416  142.2228  158.8204 C   0  0  0  0  0  0  0  0  0  0  0  0
  152.2396  143.1564  159.9168 S   0  0  0  0  0  0  0  0  0  0  0  0
  153.3170  141.7394  160.1869 C   0  0  0  0  0  0  0  0  0  0  0  0
  153.0005  140.7440  159.0843 C   0  0  0  0  0  0  0  0  0  0  0  0
  153.7261  139.7735  158.8691 O   0  0  0  0  0  0  0  0  0  0  0  0
  150.2570  138.4977  158.5210 N   0  0  0  0  0  0  0  0  0  0  0  0
  149.9632  137.1694  159.0543 C   0  0  0  0  0  0  0  0  0  0  0  0
  148.4565  136.8384  159.0241 C   0  0  0  0  0  0  0  0  0  0  0  0
  147.9293  136.2528  160.3237 C   0  0  0  0  0  0  0  0  0  0  0  0
  147.7139  134.8640  160.4569 C   0  0  0  0  0  0  0  0  0  0  0  0
  147.1829  134.3799  161.6678 C   0  0  0  0  0  0  0  0  0  0  0  0
  146.8966  135.2968  162.6971 C   0  0  0  0  0  0  0  0  0  0  0  0
  147.1582  136.6626  162.4695 C   0  0  0  0  0  0  0  0  0  0  0  0
  147.6656  137.1376  161.3116 N   0  0  0  0  0  0  0  0  0  0  0  0
  152.0968  140.3311  156.4316 H   0  0  0  0  0  0  0  0  0  0  0  0
  150.4492  140.6746  156.8927 H   0  0  0  0  0  0  0  0  0  0  0  0
  150.8412  142.8397  157.9730 H   0  0  0  0  0  0  0  0  0  0  0  0
  150.2467  141.9191  159.3641 H   0  0  0  0  0  0  0  0  0  0  0  0
  154.3637  142.0422  160.1587 H   0  0  0  0  0  0  0  0  0  0  0  0
  153.1079  141.2910  161.1583 H   0  0  0  0  0  0  0  0  0  0  0  0
  149.7016  139.2622  158.8771 H   0  0  0  0  0  0  0  0  0  0  0  0
  150.5029  136.4423  158.4475 H   0  0  0  0  0  0  0  0  0  0  0  0
  150.3538  137.0667  160.0682 H   0  0  0  0  0  0  0  0  0  0  0  0
  147.8889  137.7375  158.7808 H   0  0  0  0  0  0  0  0  0  0  0  0
  148.2567  136.1306  158.2189 H   0  0  0  0  0  0  0  0  0  0  0  0
  147.9342  134.1865  159.6455 H   0  0  0  0  0  0  0  0  0  0  0  0
  146.9947  133.3251  161.8028 H   0  0  0  0  0  0  0  0  0  0  0  0
  146.4869  134.9620  163.6385 H   0  0  0  0  0  0  0  0  0  0  0  0
  146.9530  137.3937  163.2374 H   0  0  0  0  0  0  0  0  0  0  0  0
  1  2  2  0  0  0  0
  2  3  1  0  0  0  0
  2 10  1  0  0  0  0
  3  4  1  0  0  0  0
  3 19  1  0  0  0  0
  3 20  1  0  0  0  0
  4  8  1  0  0  0  0
  4  5  1  0  0  0  0
  5  6  1  0  0  0  0
  5 21  1  0  0  0  0
  5 22  1  0  0  0  0
  6  7  1  0  0  0  0
  7  8  1  0  0  0  0
  7 23  1  0  0  0  0
  7 24  1  0  0  0  0
  8  9  2  0  0  0  0
 10 11  1  0  0  0  0
 10 25  1  0  0  0  0
 11 12  1  0  0  0  0
 11 26  1  0  0  0  0
 11 27  1  0  0  0  0
 12 13  1  0  0  0  0
 12 28  1  0  0  0  0
 12 29  1  0  0  0  0
 13 18  1  0  0  0  0
 13 14  2  0  0  0  0
 14 15  1  0  0  0  0
 14 30  1  0  0  0  0
 15 16  2  0  0  0  0
 15 31  1  0  0  0  0
 16 17  1  0  0  0  0
 16 32  1  0  0  0  0
 17 18  2  0  0  0  0
 17 33  1  0  0  0  0
M  END
> <s_m_source_file>
AV-unprocessed.smi

> <i_m_source_file_index>
1970

> <i_lp_mmshare_version>
43012

> <i_f3d_flags>
0

> <s_epik_input>
Tz1DMVtDSDJdU1tDSDJdTjFbQ0gyXUMoPU8pW05IXVtDSDJdW0NIMl1jMltjSF1bY0hdW2NIXVtjSF1uMg==

> <s_epik_cmdline>
J2VwaWtfcHl0aG9uJywgJy1waCcsICc3LjAnLCAnLXRuJywgJzgnLCAnLW1hJywgJzIwMCcsICctbWV0YWxfYmluZGluZycsICctaW1hZScsICc8aW5maWxlLm1hZT4nLCAnLW9tYWUnLCAnPG91dGZpbGUubWFlPic=

> <r_epik_Ionization_Penalty>
0.0255556

> <r_epik_Ionization_Penalty_Charging>
0

> <r_epik_Ionization_Penalty_Neutral>
0.0255556

> <r_epik_State_Penalty>
0.0208108

> <r_epik_Charging_Adjusted_Penalty>
0.0208108

> <i_epik_Tot_Q>
0

> <i_epik_Tot_abs_Q>
0

> <r_epik_Metal_State_Penalty>
0.0199448

> <b_epik_Metal_Only>
0

> <s_epik_Chemistry_Notes>
This compound contains an acetal/aminal-like group ( X-CH(R)-Y where X, Y are N, S, or O) that may be acid/base labile, releasing an aldehyde.

> <s_lp_Force_Field>
OPLS_2005

> <r_lp_Energy>
5.35786

> <b_lp_Chiralities_Consistent>
1

> <s_lp_Variant>
AV-unprocessed.smi:1970-1

> <Gold.Version>
5.8.1

> <Gold.Id.Protein>
6NUR|6NUR_protein|mol2

> <Gold.PLP.Fitness>
45.2758

> <Gold.PLP.PLP>
-38.6854

> <Gold.PLP.part.hbond>
-3.0000

> <Gold.PLP.part.metal>
0.0000

> <Gold.PLP.part.buried>
-3.4620

> <Gold.PLP.part.nonpolar>
-31.9619

> <Gold.PLP.part.repulsive>
0.1742

> <Gold.PLP.ligand.clash>
0.0000

> <Gold.PLP.ligand.torsion>
0.7699

> <Gold.PLP.Chemscore.Hbond>
2.7040

> <Gold.PLP.Chemscore.CHOScore>
0.0000

> <Gold.PLP.Chemscore.Metal>
0.0000

> <Gold.Chemscore.Hbonds>
donor molecule, donor type, donor heavy atom, donor atom, acceptor molecule, acceptor atom, score
      P1  H  6931  6943       L1    18  0.99
      P1  H  6934  6947       L1    18  0.85
      P1  H  7997  8010       L1     9  1.00

> <Gold.PLP.Chemscore.Internal.Correction>
0.0182

> <Gold.Rescore>
     Score         DG    S(hbond)    S(metal)    S(lipo)     H(rot)  DE(clash)    DE(int)     intcor
     16.11     -17.79       2.21        0.00      84.06       1.92       0.03       1.65       ----

> <Gold.Chemscore.Fitness>
16.1128

> <Gold.Chemscore.DG>
-17.7894

> <Gold.Chemscore.ZeroCoef>
-5.4800

> <Gold.Chemscore.Hbond>
2.2136

> <Gold.Chemscore.Metal>
0.0000

> <Gold.Chemscore.Lipo>
84.0587

> <Gold.Chemscore.Internal_Hbond>
0.0000

> <Gold.Chemscore.DEClash>
0.0308

> <Gold.Chemscore.DEInternal>
1.6458

> <Gold.Chemscore.Rot>
1.9215

> <Gold.Chemscore.Internal.Correction>
   9.000000E+99

> <Gold.Chemscore.Hbonds>
donor molecule, donor type, donor heavy atom, donor atom, acceptor molecule, acceptor atom, score
      P1  H  6931  6943       L1    18  0.31
      P1  H  6934  6947       L1    18  0.71
      P1  H  7997  8010       L1     9  0.79

> <Gold.Chemscore.Hbond.Weighted>
-7.3935

> <Gold.Chemscore.Metal.Weighted>
-0.0000

> <Gold.Chemscore.Lipo.Weighted>
-9.8349

> <Gold.Chemscore.Internal_Hbond.Weighted>
0.0000

> <Gold.Chemscore.DEClash.Weighted>
0.0308

> <Gold.Chemscore.DEInternal.Weighted>
1.6458

> <Gold.Chemscore.Rot.Weighted>
4.9190

> <Gold.Chemscore.Internal.Correction.Weighted>
   9.000000E+99

> <Gold.Protein.RotatedTorsions>
[ 6907 6896 6895 6894 ] final  -54.47 input  -60.11 | X-H torsion
[ 7974 7965 7964 7962 ] final  156.93 input  175.53 | X-H torsion
[ 8008 7997 7996 7995 ] final   16.67 input   59.86 | X-H torsion
[ 10167 10162 10161 10158 ] final  -88.22 input  -65.29 | X-H torsion
[ 10718 10713 10712 10709 ] final  -53.58 input   66.30 | X-H torsion
[ 10763 10752 10751 10750 ] final   25.38 input  -60.55 | X-H torsion
[ 11005 11000 10999 10996 ] final    2.82 input  -57.11 | X-H torsion

> <Gold.Protein.ActiveResidues>
 VAL166  LYS551  ARG553  GLY616  TRP617  ASP618  TYR619  PRO620  LYS621  CYS622 
 ASP623  PHE694  ASN695  SER759  ASP760  ASP761  ALA762  ILE779  LEU786  VAL792 
 PHE793  MET794  SER795  GLU796  ALA797  LYS798  CYS799  TRP800  GLU811  SER814 

> <Gold.Protein.RotatedAtoms>
  150.8335  134.7599  159.6873 H   0  0  0  0  0  0  0  0  0  0  0  0  # atno 6907 bound_to 6896
  152.4436  134.5537  159.9884 H   0  0  0  0  0  0  0  0  0  0  0  0  # atno 6908 bound_to 6896
  151.5692  133.3354  159.3022 H   0  0  0  0  0  0  0  0  0  0  0  0  # atno 6909 bound_to 6896
  144.7933  139.7271  143.6212 H   0  0  0  0  0  0  0  0  0  0  0  0  # atno 7974 bound_to 7965
  154.8803  140.2972  155.5429 H   0  0  0  0  0  0  0  0  0  0  0  0  # atno 8008 bound_to 7997
  156.3022  140.2443  156.3738 H   0  0  0  0  0  0  0  0  0  0  0  0  # atno 8009 bound_to 7997
  154.8724  140.0401  157.1722 H   0  0  0  0  0  0  0  0  0  0  0  0  # atno 8010 bound_to 7997
  140.3768  143.2768  151.9433 H   0  0  0  0  0  0  0  0  0  0  0  0  # atno 10167 bound_to 10162
  156.1523  130.4151  149.9925 H   0  0  0  0  0  0  0  0  0  0  0  0  # atno 10718 bound_to 10713
  153.0696  135.6584  154.0277 H   0  0  0  0  0  0  0  0  0  0  0  0  # atno 10763 bound_to 10752
  153.9926  135.2944  155.3412 H   0  0  0  0  0  0  0  0  0  0  0  0  # atno 10764 bound_to 10752
  154.7066  135.5222  153.8674 H   0  0  0  0  0  0  0  0  0  0  0  0  # atno 10765 bound_to 10752
  140.6000  133.9845  155.8127 H   0  0  0  0  0  0  0  0  0  0  0  0  # atno 11005 bound_to 11000
  146.2193  139.5606  142.9629 LP  0  0  0  0  0  0  0  0  0  0  0  0  # atno 17320 bound_to 7965
  145.5737  141.0391  143.2160 LP  0  0  0  0  0  0  0  0  0  0  0  0  # atno 17321 bound_to 7965
  139.4799  144.5856  151.7859 LP  0  0  0  0  0  0  0  0  0  0  0  0  # atno 17342 bound_to 10162
  140.4978  144.1215  150.5964 LP  0  0  0  0  0  0  0  0  0  0  0  0  # atno 17343 bound_to 10162
  156.7778  130.9210  151.3645 LP  0  0  0  0  0  0  0  0  0  0  0  0  # atno 17370 bound_to 10713
  157.6667  130.9014  149.9948 LP  0  0  0  0  0  0  0  0  0  0  0  0  # atno 17371 bound_to 10713
  141.0878  133.9963  157.3285 LP  0  0  0  0  0  0  0  0  0  0  0  0  # atno 17394 bound_to 11000
  139.9236  135.0201  156.8156 LP  0  0  0  0  0  0  0  0  0  0  0  0  # atno 17395 bound_to 11000

$$$$
