AV-unprocessed.smi:3239|AV-procd|sdf|12380|dock2
  -GOLD-   2272018243D 1   1.00000     0.00000
 Structure written by MMmdl.
 35 35  0  0  0  0  0  0  0  0  1 V2000
  152.2453  143.9986  161.5648 C   0  0  0  0  0  0  0  0  0  0  0  0
  152.6405  143.0414  160.9178 C   0  0  0  0  0  0  0  0  0  0  0  0
  153.1172  141.8977  160.1220 C   0  0  0  0  0  0  0  0  0  0  0  0
  152.3276  141.6864  158.9142 N   0  0  0  0  0  0  0  0  0  0  0  0
  152.4782  140.6625  158.0567 C   0  0  0  0  0  0  0  0  0  0  0  0
  153.3060  139.7637  158.2093 O   0  0  0  0  0  0  0  0  0  0  0  0
  151.5120  140.6301  156.9079 C   0  0  0  0  0  0  0  0  0  0  0  0
  150.6582  141.7192  156.6217 C   0  0  0  0  0  0  0  0  0  0  0  0
  149.7900  141.6367  155.5159 C   0  0  0  0  0  0  0  0  0  0  0  0
  149.8051  140.4710  154.7226 C   0  0  0  0  0  0  0  0  0  0  0  0
  148.9397  140.4007  153.6205 N   0  0  0  0  0  0  0  0  0  0  0  0
  147.4936  140.5428  153.7585 C   0  0  1  0  0  0  0  0  0  0  0  0
  147.0892  142.0273  153.7922 C   0  0  0  0  0  0  0  0  0  0  0  0
  146.7830  139.7915  152.6216 C   0  0  0  0  0  0  0  0  0  0  0  0
  146.7839  138.4012  152.9011 O   0  0  0  0  0  0  0  0  0  0  0  0
  145.9494  137.6690  152.0210 C   0  0  0  0  0  0  0  0  0  0  0  0
  150.6295  139.4297  154.9837 N   0  0  0  0  0  0  0  0  0  0  0  0
  151.4599  139.5135  156.0451 C   0  0  0  0  0  0  0  0  0  0  0  0
  151.8984  144.8364  162.1270 H   0  0  0  0  0  0  0  0  0  0  0  0
  154.1510  142.0942  159.8379 H   0  0  0  0  0  0  0  0  0  0  0  0
  153.1220  141.0084  160.7542 H   0  0  0  0  0  0  0  0  0  0  0  0
  151.6033  142.3627  158.7217 H   0  0  0  0  0  0  0  0  0  0  0  0
  150.6622  142.6109  157.2316 H   0  0  0  0  0  0  0  0  0  0  0  0
  149.1278  142.4578  155.2825 H   0  0  0  0  0  0  0  0  0  0  0  0
  149.3296  140.3650  152.6898 H   0  0  0  0  0  0  0  0  0  0  0  0
  147.1882  140.0738  154.6946 H   0  0  0  0  0  0  0  0  0  0  0  0
  146.0123  142.1384  153.9209 H   0  0  0  0  0  0  0  0  0  0  0  0
  147.3665  142.5351  152.8680 H   0  0  0  0  0  0  0  0  0  0  0  0
  147.5689  142.5549  154.6169 H   0  0  0  0  0  0  0  0  0  0  0  0
  145.7610  140.1558  152.5016 H   0  0  0  0  0  0  0  0  0  0  0  0
  147.3049  139.9656  151.6788 H   0  0  0  0  0  0  0  0  0  0  0  0
  145.9879  136.6100  152.2761 H   0  0  0  0  0  0  0  0  0  0  0  0
  146.2756  137.7777  150.9859 H   0  0  0  0  0  0  0  0  0  0  0  0
  144.9118  137.9962  152.0980 H   0  0  0  0  0  0  0  0  0  0  0  0
  152.0968  138.6561  156.2075 H   0  0  0  0  0  0  0  0  0  0  0  0
  1  2  3  0  0  0  0
  1 19  1  0  0  0  0
  2  3  1  0  0  0  0
  3  4  1  0  0  0  0
  3 20  1  0  0  0  0
  3 21  1  0  0  0  0
  4  5  1  0  0  0  0
  4 22  1  0  0  0  0
  5  6  2  0  0  0  0
  5  7  1  0  0  0  0
  7 18  1  0  0  0  0
  7  8  2  0  0  0  0
  8  9  1  0  0  0  0
  8 23  1  0  0  0  0
  9 10  2  0  0  0  0
  9 24  1  0  0  0  0
 10 11  1  0  0  0  0
 10 17  1  0  0  0  0
 11 12  1  0  0  0  0
 11 25  1  0  0  0  0
 12 13  1  0  0  0  0
 12 14  1  0  0  0  0
 12 26  1  0  0  0  0
 13 27  1  0  0  0  0
 13 28  1  0  0  0  0
 13 29  1  0  0  0  0
 14 15  1  0  0  0  0
 14 30  1  0  0  0  0
 14 31  1  0  0  0  0
 15 16  1  0  0  0  0
 16 32  1  0  0  0  0
 16 33  1  0  0  0  0
 16 34  1  0  0  0  0
 17 18  2  0  0  0  0
 18 35  1  0  0  0  0
M  END
> <s_m_source_file>
AV-unprocessed.smi

> <i_m_source_file_index>
3239

> <i_lp_mmshare_version>
43012

> <i_f3d_flags>
0

> <s_epik_input>
W0NIXSNDW0NIMl1bTkhdQyg9TyljMVtjSF1bY0hdYyhuW2NIXTEpW05IXVtDQEhdKFtDSDNdKVtDSDJdT1tDSDNd

> <s_epik_cmdline>
J2VwaWtfcHl0aG9uJywgJy1waCcsICc3LjAnLCAnLXRuJywgJzgnLCAnLW1hJywgJzIwMCcsICctbWV0YWxfYmluZGluZycsICctaW1hZScsICc8aW5maWxlLm1hZT4nLCAnLW9tYWUnLCAnPG91dGZpbGUubWFlPic=

> <r_lp_tautomer_probability>
1

> <r_epik_Ionization_Penalty>
0.00321854

> <r_epik_Ionization_Penalty_Charging>
0

> <r_epik_Ionization_Penalty_Neutral>
0.00321854

> <r_epik_State_Penalty>
0.00226446

> <r_epik_Charging_Adjusted_Penalty>
0.00226446

> <i_epik_Tot_Q>
0

> <i_epik_Tot_abs_Q>
0

> <r_epik_Metal_State_Penalty>
-0

> <b_epik_Metal_Only>
0

> <s_lp_Force_Field>
OPLS_2005

> <r_lp_Energy>
6.06936

> <b_lp_Chiralities_Consistent>
1

> <s_lp_Variant>
AV-unprocessed.smi:3239-2

> <Gold.Version>
5.8.1

> <Gold.Id.Protein>
6NUR|6NUR_protein|mol2

> <Gold.PLP.Fitness>
41.9414

> <Gold.PLP.PLP>
-38.0864

> <Gold.PLP.part.hbond>
-2.1631

> <Gold.PLP.part.metal>
0.0000

> <Gold.PLP.part.buried>
-1.0824

> <Gold.PLP.part.nonpolar>
-34.2537

> <Gold.PLP.part.repulsive>
0.5966

> <Gold.PLP.ligand.clash>
0.0000

> <Gold.PLP.ligand.torsion>
1.1245

> <Gold.PLP.Chemscore.Hbond>
2.0000

> <Gold.PLP.Chemscore.CHOScore>
0.0000

> <Gold.PLP.Chemscore.Metal>
0.0000

> <Gold.Chemscore.Hbonds>
donor molecule, donor type, donor heavy atom, donor atom, acceptor molecule, acceptor atom, score
      L1  H    11    25       P1  7957  1.00
      P1  H  7997  8009       L1     6  1.00

> <Gold.PLP.Chemscore.Internal.Correction>
0.1039

> <Gold.Rescore>
     Score         DG    S(hbond)    S(metal)    S(lipo)     H(rot)  DE(clash)    DE(int)     intcor
     17.06     -18.36       1.91        0.00      90.82       1.62       0.06       1.23       ----

> <Gold.Chemscore.Fitness>
17.0620

> <Gold.Chemscore.DG>
-18.3579

> <Gold.Chemscore.ZeroCoef>
-5.4800

> <Gold.Chemscore.Hbond>
1.9150

> <Gold.Chemscore.Metal>
0.0000

> <Gold.Chemscore.Lipo>
90.8250

> <Gold.Chemscore.Internal_Hbond>
0.0000

> <Gold.Chemscore.DEClash>
0.0639

> <Gold.Chemscore.DEInternal>
1.2319

> <Gold.Chemscore.Rot>
1.6190

> <Gold.Chemscore.Internal.Correction>
   9.000000E+99

> <Gold.Chemscore.Hbonds>
donor molecule, donor type, donor heavy atom, donor atom, acceptor molecule, acceptor atom, score
      L1  H    11    25       P1  7957  0.98
      P1  H  7997  8009       L1     6  0.74

> <Gold.Chemscore.Hbond.Weighted>
-6.3961

> <Gold.Chemscore.Metal.Weighted>
-0.0000

> <Gold.Chemscore.Lipo.Weighted>
-10.6265

> <Gold.Chemscore.Internal_Hbond.Weighted>
0.0000

> <Gold.Chemscore.DEClash.Weighted>
0.0639

> <Gold.Chemscore.DEInternal.Weighted>
1.2319

> <Gold.Chemscore.Rot.Weighted>
4.1447

> <Gold.Chemscore.Internal.Correction.Weighted>
   9.000000E+99

> <Gold.Protein.RotatedTorsions>
[ 6907 6896 6895 6894 ] final -132.36 input  -60.11 | X-H torsion
[ 7974 7965 7964 7962 ] final  101.03 input  175.53 | X-H torsion
[ 8008 7997 7996 7995 ] final  144.83 input   59.86 | X-H torsion
[ 10167 10162 10161 10158 ] final  -24.70 input  -65.29 | X-H torsion
[ 10718 10713 10712 10709 ] final  158.77 input   66.30 | X-H torsion
[ 10763 10752 10751 10750 ] final -157.03 input  -60.55 | X-H torsion
[ 11005 11000 10999 10996 ] final -150.44 input  -57.11 | X-H torsion

> <Gold.Protein.ActiveResidues>
 VAL166  LYS551  ARG553  GLY616  TRP617  ASP618  TYR619  PRO620  LYS621  CYS622 
 ASP623  PHE694  ASN695  SER759  ASP760  ASP761  ALA762  ILE779  LEU786  VAL792 
 PHE793  MET794  SER795  GLU796  ALA797  LYS798  CYS799  TRP800  GLU811  SER814 

> <Gold.Protein.RotatedAtoms>
  150.9615  133.6440  159.2753 H   0  0  0  0  0  0  0  0  0  0  0  0  # atno 6907 bound_to 6896
  151.3761  135.0930  159.9491 H   0  0  0  0  0  0  0  0  0  0  0  0  # atno 6908 bound_to 6896
  152.5149  133.9159  159.7565 H   0  0  0  0  0  0  0  0  0  0  0  0  # atno 6909 bound_to 6896
  145.3777  139.2385  143.3420 H   0  0  0  0  0  0  0  0  0  0  0  0  # atno 7974 bound_to 7965
  156.2898  140.2225  156.5116 H   0  0  0  0  0  0  0  0  0  0  0  0  # atno 8008 bound_to 7997
  154.7604  140.0474  157.0990 H   0  0  0  0  0  0  0  0  0  0  0  0  # atno 8009 bound_to 7997
  154.9998  140.3100  155.4875 H   0  0  0  0  0  0  0  0  0  0  0  0  # atno 8010 bound_to 7997
  140.7288  143.4330  151.0773 H   0  0  0  0  0  0  0  0  0  0  0  0  # atno 10167 bound_to 10162
  157.1733  131.0615  151.2171 H   0  0  0  0  0  0  0  0  0  0  0  0  # atno 10718 bound_to 10713
  154.7667  135.3133  154.8271 H   0  0  0  0  0  0  0  0  0  0  0  0  # atno 10763 bound_to 10752
  153.9017  135.6815  153.4759 H   0  0  0  0  0  0  0  0  0  0  0  0  # atno 10764 bound_to 10752
  153.1275  135.4795  154.9228 H   0  0  0  0  0  0  0  0  0  0  0  0  # atno 10765 bound_to 10752
  140.7402  134.3523  157.5149 H   0  0  0  0  0  0  0  0  0  0  0  0  # atno 11005 bound_to 11000
  146.2856  140.4439  142.8759 LP  0  0  0  0  0  0  0  0  0  0  0  0  # atno 17320 bound_to 7965
  144.8530  140.7029  143.6156 LP  0  0  0  0  0  0  0  0  0  0  0  0  # atno 17321 bound_to 7965
  139.7989  143.8112  152.3160 LP  0  0  0  0  0  0  0  0  0  0  0  0  # atno 17342 bound_to 10162
  139.8122  144.7331  150.9682 LP  0  0  0  0  0  0  0  0  0  0  0  0  # atno 17343 bound_to 10162
  157.4022  130.7339  149.6776 LP  0  0  0  0  0  0  0  0  0  0  0  0  # atno 17370 bound_to 10713
  155.9735  130.4117  150.3998 LP  0  0  0  0  0  0  0  0  0  0  0  0  # atno 17371 bound_to 10713
  139.8808  134.9076  156.2948 LP  0  0  0  0  0  0  0  0  0  0  0  0  # atno 17394 bound_to 11000
  140.9843  133.7247  156.0719 LP  0  0  0  0  0  0  0  0  0  0  0  0  # atno 17395 bound_to 11000

$$$$
