#       Name:                AV-unprocessed.smi:756
#       Creating user name   scv26
#       Creation time:       Fri Mar 27 01:01:04 2020


#       File generated by GOLD software.
#

@<TRIPOS>MOLECULE
AV-unprocessed.smi:756
    48    49     1
SMALL
NO_CHARGES


@<TRIPOS>ATOM
      1 ****        -4.5485  -1.0372   2.8413 C.3            1 S1                 0.0000
      2 ****        -4.5739   0.4813   2.8337 C.2            1 S1                 0.0000
      3 ****        -5.1847   1.2541   3.7380 C.2            1 S1                 0.0000
      4 ****        -4.9662   2.9589   3.4273 S.3            1 S1                 0.0000
      5 ****        -3.9749   2.5761   1.9743 C.2            1 S1                 0.0000
      6 ****        -3.4780   3.4437   1.2576 O.2            1 S1                 0.0000
      7 ****        -3.8939   1.1910   1.8341 N.am           1 S1                 0.0000
      8 ****        -3.1619   0.5481   0.7347 C.3            1 S1                 0.0000
      9 ****        -1.6668   0.3695   1.0290 C.2            1 S1                 0.0000
     10 ****        -1.2324   0.4427   2.1794 O.2            1 S1                 0.0000
     11 ****        -0.8881   0.1170  -0.0316 N.am           1 S1                 0.0000
     12 ****         0.5541  -0.0952   0.0313 C.3            1 S1                 0.0000
     13 ****         1.2177  -0.1368  -1.3689 C.3            1 S1                 0.0000
     14 ****         0.7767   1.0514  -2.2521 C.3            1 S1                 0.0000
     15 ****         0.7920  -1.3287  -2.0048 O.3            1 S1                 0.0000
     16 ****         2.7677  -0.1744  -1.2275 C.3            1 S1                 0.0000
     17 ****         3.5657  -0.2878  -2.5347 C.3            1 S1                 0.0000
     18 ****         4.9756  -0.6743  -2.0859 C.3            1 S1                 0.0000
     19 ****         4.7975  -1.4938  -0.8011 C.3            1 S1                 0.0000
     20 ****         3.3347  -1.3189  -0.3689 C.3            1 S1                 0.0000
     21 ****        -4.8718  -1.4175   3.8107 H              1 S1                 0.0000
     22 ****        -3.5448  -1.4205   2.6571 H              1 S1                 0.0000
     23 ****        -5.2222  -1.4326   2.0812 H              1 S1                 0.0000
     24 ****        -5.7521   0.9149   4.5921 H              1 S1                 0.0000
     25 ****        -3.5961  -0.4192   0.4829 H              1 S1                 0.0000
     26 ****        -3.2693   1.1533  -0.1673 H              1 S1                 0.0000
     27 ****        -1.3191   0.0582  -0.9428 H              1 S1                 0.0000
     28 ****         0.9954   0.7169   0.6120 H              1 S1                 0.0000
     29 ****         0.7488  -1.0158   0.5837 H              1 S1                 0.0000
     30 ****         1.0642   2.0017  -1.8009 H              1 S1                 0.0000
     31 ****        -0.3025   1.0732  -2.4051 H              1 S1                 0.0000
     32 ****         1.2278   1.0085  -3.2433 H              1 S1                 0.0000
     33 ****         1.2152  -1.3863  -2.8478 H              1 S1                 0.0000
     34 ****         3.0776   0.7584  -0.7526 H              1 S1                 0.0000
     35 ****         3.1594  -1.0768  -3.1684 H              1 S1                 0.0000
     36 ****         3.5650   0.6365  -3.1126 H              1 S1                 0.0000
     37 ****         5.5175  -1.2224  -2.8573 H              1 S1                 0.0000
     38 ****         5.5472   0.2279  -1.8635 H              1 S1                 0.0000
     39 ****         5.0191  -2.5476  -0.9737 H              1 S1                 0.0000
     40 ****         5.4809  -1.1412  -0.0278 H              1 S1                 0.0000
     41 ****         3.2500  -1.1106   0.6981 H              1 S1                 0.0000
     42 ****         2.7954  -2.2473  -0.5600 H              1 S1                 0.0000
     43 ****        -3.6178   4.4103   1.4725 LP             1 S1                 0.0000
     44 ****        -2.9342   3.1824   0.4601 LP             1 S1                 0.0000
     45 ****        -1.8573   0.6211   2.9394 LP             1 S1                 0.0000
     46 ****        -0.2548   0.3238   2.3532 LP             1 S1                 0.0000
     47 ****        -0.2004  -1.3104  -2.1261 LP             1 S1                 0.0000
     48 ****         1.0450  -2.1182  -1.4457 LP             1 S1                 0.0000
@<TRIPOS>BOND
    1    1    2 1     
    2    1   21 1     
    3    1   22 1     
    4    1   23 1     
    5    2    7 1     
    6    2    3 2     
    7    3    4 1     
    8    3   24 1     
    9    4    5 1     
   10    5    6 2     
   11    5    7 am    
   12    7    8 1     
   13    8    9 1     
   14    8   25 1     
   15    8   26 1     
   16    9   10 2     
   17    9   11 am    
   18   11   12 1     
   19   11   27 1     
   20   12   13 1     
   21   12   28 1     
   22   12   29 1     
   23   13   14 1     
   24   13   15 1     
   25   13   16 1     
   26   14   30 1     
   27   14   31 1     
   28   14   32 1     
   29   15   33 1     
   30   16   20 1     
   31   16   17 1     
   32   16   34 1     
   33   17   18 1     
   34   17   35 1     
   35   17   36 1     
   36   18   19 1     
   37   18   37 1     
   38   18   38 1     
   39   19   20 1     
   40   19   39 1     
   41   19   40 1     
   42   20   41 1     
   43   20   42 1     
   44    6   43 1     
   45    6   44 1     
   46   10   45 1     
   47   10   46 1     
   48   15   47 1     
   49   15   48 1     
@<TRIPOS>SUBSTRUCTURE
      1 S1             1
@<TRIPOS>SET
LONE_PAIRS      STATIC     ATOMS    <user>   **** ""
6 43 44 45 46 47 48
DONOR_HYDROGENS      STATIC     ATOMS    <user>   **** ""
2 27 33
ATOM$BLUE        STATIC     ATOMS    COLORGROUP SYSTEM
6 43 44 45 46 47 48
ATOM$RED        STATIC     ATOMS    COLORGROUP SYSTEM
2 27 33
