AV-unprocessed.smi:1060|AV-procd|sdf|4657|dock1
  -GOLD-   22720 3163D 1   1.00000     0.00000
 Structure written by MMmdl.
 37 38  0  0  0  0  0  0  0  0  1 V2000
  150.4544  136.8349  159.4622 O   0  0  0  0  0  0  0  0  0  0  0  0
  149.3558  137.2209  159.0649 C   0  0  0  0  0  0  0  0  0  0  0  0
  149.2927  138.2945  157.9792 C   0  0  0  0  0  0  0  0  0  0  0  0
  150.1678  139.3571  158.3249 O   0  0  0  0  0  0  0  0  0  0  0  0
  151.0415  139.7137  157.2673 C   0  0  0  0  0  0  0  0  0  0  0  0
  151.9704  140.8355  157.7473 C   0  0  1  0  0  0  0  0  0  0  0  0
  151.3313  141.7597  158.7819 C   0  0  0  0  0  0  0  0  0  0  0  0
  152.5487  142.3168  159.4838 C   0  0  0  0  0  0  0  0  0  0  0  0
  153.4673  141.0990  159.5297 C   0  0  0  0  0  0  0  0  0  0  0  0
  153.1086  140.2906  158.4111 O   0  0  0  0  0  0  0  0  0  0  0  0
  148.1649  136.7980  159.5339 N   0  0  0  0  0  0  0  0  0  0  0  0
  147.8809  135.8176  160.4994 C   0  0  0  0  0  0  0  0  0  0  0  0
  148.0695  134.4825  160.3306 C   0  0  0  0  0  0  0  0  0  0  0  0
  147.7423  133.5196  161.3690 C   0  0  0  0  0  0  0  0  0  0  0  0
  147.9050  132.0235  161.1473 C   0  0  0  0  0  0  0  0  0  0  0  0
  146.7517  131.3786  161.3288 F   0  0  0  0  0  0  0  0  0  0  0  0
  148.3373  131.7672  159.9124 F   0  0  0  0  0  0  0  0  0  0  0  0
  148.7953  131.5321  162.0083 F   0  0  0  0  0  0  0  0  0  0  0  0
  147.2115  134.0160  162.5017 C   0  0  0  0  0  0  0  0  0  0  0  0
  147.0146  135.3867  162.6834 N   0  0  0  0  0  0  0  0  0  0  0  0
  147.3102  136.3264  161.7576 C   0  0  0  0  0  0  0  0  0  0  0  0
  147.1007  137.5162  161.9918 O   0  0  0  0  0  0  0  0  0  0  0  0
  146.6193  135.6808  163.5649 H   0  0  0  0  0  0  0  0  0  0  0  0
  149.5822  137.8539  157.0240 H   0  0  0  0  0  0  0  0  0  0  0  0
  148.2697  138.6625  157.8828 H   0  0  0  0  0  0  0  0  0  0  0  0
  151.6333  138.8417  156.9848 H   0  0  0  0  0  0  0  0  0  0  0  0
  150.4802  140.0313  156.3869 H   0  0  0  0  0  0  0  0  0  0  0  0
  152.3145  141.4333  156.9018 H   0  0  0  0  0  0  0  0  0  0  0  0
  150.7043  142.5312  158.3342 H   0  0  0  0  0  0  0  0  0  0  0  0
  150.7240  141.1890  159.4859 H   0  0  0  0  0  0  0  0  0  0  0  0
  152.9993  143.1063  158.8807 H   0  0  0  0  0  0  0  0  0  0  0  0
  152.3287  142.7233  160.4713 H   0  0  0  0  0  0  0  0  0  0  0  0
  154.5217  141.3744  159.4997 H   0  0  0  0  0  0  0  0  0  0  0  0
  153.2938  140.5239  160.4399 H   0  0  0  0  0  0  0  0  0  0  0  0
  147.3514  137.2649  159.1586 H   0  0  0  0  0  0  0  0  0  0  0  0
  148.4583  134.0892  159.4058 H   0  0  0  0  0  0  0  0  0  0  0  0
  146.8968  133.4140  163.3413 H   0  0  0  0  0  0  0  0  0  0  0  0
  1  2  2  0  0  0  0
  2  3  1  0  0  0  0
  2 11  1  0  0  0  0
  3  4  1  0  0  0  0
  3 24  1  0  0  0  0
  3 25  1  0  0  0  0
  4  5  1  0  0  0  0
  5  6  1  0  0  0  0
  5 26  1  0  0  0  0
  5 27  1  0  0  0  0
  6 10  1  0  0  0  0
  6  7  1  0  0  0  0
  6 28  1  0  0  0  0
  7  8  1  0  0  0  0
  7 29  1  0  0  0  0
  7 30  1  0  0  0  0
  8  9  1  0  0  0  0
  8 31  1  0  0  0  0
  8 32  1  0  0  0  0
  9 10  1  0  0  0  0
  9 33  1  0  0  0  0
  9 34  1  0  0  0  0
 11 12  1  0  0  0  0
 11 35  1  0  0  0  0
 12 21  1  0  0  0  0
 12 13  2  0  0  0  0
 13 14  1  0  0  0  0
 13 36  1  0  0  0  0
 14 15  1  0  0  0  0
 14 19  2  0  0  0  0
 15 16  1  0  0  0  0
 15 17  1  0  0  0  0
 15 18  1  0  0  0  0
 19 20  1  0  0  0  0
 19 37  1  0  0  0  0
 20 23  1  0  0  0  0
 20 21  1  0  0  0  0
 21 22  2  0  0  0  0
M  END
> <s_m_source_file>
AV-unprocessed.smi

> <i_m_source_file_index>
1060

> <i_lp_mmshare_version>
43012

> <i_f3d_flags>
0

> <s_epik_input>
Tz1jMVtuSF1bY0hdYyhDKEYpKEYpRilbY0hdYzFbTkhdQyg9TylbQ0gyXU9bQ0gyXVtDQEBIXTJbQ0gyXVtDSDJdW0NIMl1PMg==

> <s_epik_cmdline>
J2VwaWtfcHl0aG9uJywgJy1waCcsICc3LjAnLCAnLXRuJywgJzgnLCAnLW1hJywgJzIwMCcsICctbWV0YWxfYmluZGluZycsICctaW1hZScsICc8aW5maWxlLm1hZT4nLCAnLW9tYWUnLCAnPG91dGZpbGUubWFlPic=

> <r_lp_tautomer_probability>
0.999

> <r_epik_Ionization_Penalty>
0.00950091

> <r_epik_Ionization_Penalty_Charging>
0.00950081

> <r_epik_Ionization_Penalty_Neutral>
1.00143e-07

> <r_epik_State_Penalty>
0.00721819

> <r_epik_Charging_Adjusted_Penalty>
0.016719

> <i_epik_Tot_Q>
0

> <i_epik_Tot_abs_Q>
0

> <r_epik_Metal_State_Penalty>
0.323303

> <b_epik_Metal_Only>
0

> <s_lp_Force_Field>
OPLS_2005

> <r_lp_Energy>
32.1884

> <b_lp_Chiralities_Consistent>
1

> <s_lp_Variant>
AV-unprocessed.smi:1060-2

> <Gold.Version>
5.8.1

> <Gold.Id.Protein>
6NUR|6NUR_protein|mol2

> <Gold.PLP.Fitness>
46.2235

> <Gold.PLP.PLP>
-38.9825

> <Gold.PLP.part.hbond>
-4.0000

> <Gold.PLP.part.metal>
0.0000

> <Gold.PLP.part.buried>
-4.9937

> <Gold.PLP.part.nonpolar>
-29.1254

> <Gold.PLP.part.repulsive>
0.3184

> <Gold.PLP.ligand.clash>
0.0000

> <Gold.PLP.ligand.torsion>
1.5042

> <Gold.PLP.Chemscore.Hbond>
3.3040

> <Gold.PLP.Chemscore.CHOScore>
0.0000

> <Gold.PLP.Chemscore.Metal>
0.0000

> <Gold.Chemscore.Hbonds>
donor molecule, donor type, donor heavy atom, donor atom, acceptor molecule, acceptor atom, score
      P1  H  6896  6909       L1     1  1.00
      P1  H  6931  6943       L1    22  0.63
      P1  H  6934  6947       L1    22  0.72
      P1  H  7997  8010       L1    10  0.89

> <Gold.PLP.Chemscore.Internal.Correction>
0.3373

> <Gold.Rescore>
     Score         DG    S(hbond)    S(metal)    S(lipo)     H(rot)  DE(clash)    DE(int)     intcor
     17.05     -18.68       3.08        0.00      67.61       1.95       0.17       1.46       ----

> <Gold.Chemscore.Fitness>
17.0456

> <Gold.Chemscore.DG>
-18.6791

> <Gold.Chemscore.ZeroCoef>
-5.4800

> <Gold.Chemscore.Hbond>
3.0801

> <Gold.Chemscore.Metal>
0.0000

> <Gold.Chemscore.Lipo>
67.6131

> <Gold.Chemscore.Internal_Hbond>
0.0000

> <Gold.Chemscore.DEClash>
0.1700

> <Gold.Chemscore.DEInternal>
1.4635

> <Gold.Chemscore.Rot>
1.9527

> <Gold.Chemscore.Internal.Correction>
   9.000000E+99

> <Gold.Chemscore.Hbonds>
donor molecule, donor type, donor heavy atom, donor atom, acceptor molecule, acceptor atom, score
      P1  H  6896  6909       L1     1  1.00
      P1  H  6931  6943       L1    22  0.18
      P1  H  6934  6947       L1    22  0.72
      P1  H  7997  8010       L1    10  0.51

> <Gold.Chemscore.Hbond.Weighted>
-10.2874

> <Gold.Chemscore.Metal.Weighted>
-0.0000

> <Gold.Chemscore.Lipo.Weighted>
-7.9107

> <Gold.Chemscore.Internal_Hbond.Weighted>
0.0000

> <Gold.Chemscore.DEClash.Weighted>
0.1700

> <Gold.Chemscore.DEInternal.Weighted>
1.4635

> <Gold.Chemscore.Rot.Weighted>
4.9990

> <Gold.Chemscore.Internal.Correction.Weighted>
   9.000000E+99

> <Gold.Protein.RotatedTorsions>
[ 6907 6896 6895 6894 ] final   86.74 input  -60.11 | X-H torsion
[ 7974 7965 7964 7962 ] final  152.88 input  175.53 | X-H torsion
[ 8008 7997 7996 7995 ] final   30.44 input   59.86 | X-H torsion
[ 10167 10162 10161 10158 ] final  131.33 input  -65.29 | X-H torsion
[ 10718 10713 10712 10709 ] final  -21.26 input   66.30 | X-H torsion
[ 10763 10752 10751 10750 ] final    9.38 input  -60.55 | X-H torsion
[ 11005 11000 10999 10996 ] final   25.51 input  -57.11 | X-H torsion

> <Gold.Protein.ActiveResidues>
 VAL166  LYS551  ARG553  GLY616  TRP617  ASP618  TYR619  PRO620  LYS621  CYS622 
 ASP623  PHE694  ASN695  SER759  ASP760  ASP761  ALA762  ILE779  LEU786  VAL792 
 PHE793  MET794  SER795  GLU796  ALA797  LYS798  CYS799  TRP800  GLU811  SER814 

> <Gold.Protein.RotatedAtoms>
  152.5399  134.2384  159.8852 H   0  0  0  0  0  0  0  0  0  0  0  0  # atno 6907 bound_to 6896
  151.2352  133.4422  159.2613 H   0  0  0  0  0  0  0  0  0  0  0  0  # atno 6908 bound_to 6896
  151.0678  134.9792  159.8349 H   0  0  0  0  0  0  0  0  0  0  0  0  # atno 6909 bound_to 6896
  144.8192  139.6726  143.6108 H   0  0  0  0  0  0  0  0  0  0  0  0  # atno 7974 bound_to 7965
  155.0905  140.3219  155.4575 H   0  0  0  0  0  0  0  0  0  0  0  0  # atno 8008 bound_to 7997
  156.2744  140.2079  156.5978 H   0  0  0  0  0  0  0  0  0  0  0  0  # atno 8009 bound_to 7997
  154.6907  140.0516  157.0348 H   0  0  0  0  0  0  0  0  0  0  0  0  # atno 8010 bound_to 7997
  139.5389  144.6711  151.4692 H   0  0  0  0  0  0  0  0  0  0  0  0  # atno 10167 bound_to 10162
  156.5206  130.4631  149.6599 H   0  0  0  0  0  0  0  0  0  0  0  0  # atno 10718 bound_to 10713
  153.2146  135.6873  153.8072 H   0  0  0  0  0  0  0  0  0  0  0  0  # atno 10763 bound_to 10752
  153.7293  135.3255  155.3283 H   0  0  0  0  0  0  0  0  0  0  0  0  # atno 10764 bound_to 10752
  154.8239  135.4632  154.0968 H   0  0  0  0  0  0  0  0  0  0  0  0  # atno 10765 bound_to 10752
  140.3470  134.2270  155.7684 H   0  0  0  0  0  0  0  0  0  0  0  0  # atno 11005 bound_to 11000
  146.2497  139.6173  142.9435 LP  0  0  0  0  0  0  0  0  0  0  0  0  # atno 17320 bound_to 7965
  145.5143  141.0434  143.2470 LP  0  0  0  0  0  0  0  0  0  0  0  0  # atno 17321 bound_to 7965
  140.6609  143.8500  150.6887 LP  0  0  0  0  0  0  0  0  0  0  0  0  # atno 17342 bound_to 10162
  140.1894  143.4049  152.1874 LP  0  0  0  0  0  0  0  0  0  0  0  0  # atno 17343 bound_to 10162
  156.3153  130.7251  151.2152 LP  0  0  0  0  0  0  0  0  0  0  0  0  # atno 17370 bound_to 10713
  157.7437  131.0470  150.4923 LP  0  0  0  0  0  0  0  0  0  0  0  0  # atno 17371 bound_to 10713
  141.2023  133.7942  157.0399 LP  0  0  0  0  0  0  0  0  0  0  0  0  # atno 17394 bound_to 11000
  140.0734  134.9689  157.1505 LP  0  0  0  0  0  0  0  0  0  0  0  0  # atno 17395 bound_to 11000

$$$$
