AV-unprocessed.smi:1196|AV-procd|sdf|4997|dock9
  -GOLD-   22720 4 03D 1   1.00000     0.00000
 Structure written by MMmdl.
 37 38  0  0  0  0  0  0  0  0  1 V2000
  150.1699  141.5501  156.9939 C   0  0  0  0  0  0  0  0  0  0  0  0
  151.5124  140.8041  157.0524 C   0  0  1  0  0  0  0  0  0  0  0  0
  152.0532  140.7313  158.4936 C   0  0  0  0  0  0  0  0  0  0  0  0
  152.2125  142.0455  159.0911 N   0  0  0  0  0  0  0  0  0  0  0  0
  152.4762  142.3595  160.4075 C   0  0  0  0  0  0  0  0  0  0  0  0
  152.5310  143.7209  160.4972 C   0  0  0  0  0  0  0  0  0  0  0  0
  152.2850  144.1577  159.1654 C   0  0  0  0  0  0  0  0  0  0  0  0
  152.0939  143.1526  158.3258 N   0  0  0  0  0  0  0  0  0  0  0  0
  151.3605  139.4573  156.5063 N   0  0  0  0  0  0  0  0  0  0  0  0
  150.9764  139.1600  155.2558 C   0  0  0  0  0  0  0  0  0  0  0  0
  150.6805  140.0121  154.4179 O   0  0  0  0  0  0  0  0  0  0  0  0
  150.9292  137.6724  154.8990 C   0  0  0  0  0  0  0  0  0  0  0  0
  150.0392  136.8593  155.8576 C   0  0  0  0  0  0  0  0  0  0  0  0
  149.9657  135.3655  155.4872 C   0  0  2  0  0  0  0  0  0  0  0  0
  148.8813  135.0663  154.5673 N   0  0  0  0  0  0  0  0  0  0  0  0
  148.0077  134.1859  155.0743 C   0  0  0  0  0  0  0  0  0  0  0  0
  147.0039  133.7580  154.5094 O   0  0  0  0  0  0  0  0  0  0  0  0
  148.4201  133.8560  156.3029 N   0  0  0  0  0  0  0  0  0  0  0  0
  149.5388  134.4893  156.6512 C   0  0  0  0  0  0  0  0  0  0  0  0
  150.1388  134.3985  157.7203 O   0  0  0  0  0  0  0  0  0  0  0  0
  150.2671  142.5620  157.3878 H   0  0  0  0  0  0  0  0  0  0  0  0
  149.4052  141.0375  157.5785 H   0  0  0  0  0  0  0  0  0  0  0  0
  149.8067  141.6325  155.9691 H   0  0  0  0  0  0  0  0  0  0  0  0
  152.2350  141.3569  156.4488 H   0  0  0  0  0  0  0  0  0  0  0  0
  151.3669  140.1619  159.1215 H   0  0  0  0  0  0  0  0  0  0  0  0
  153.0090  140.2049  158.5230 H   0  0  0  0  0  0  0  0  0  0  0  0
  152.5991  141.5965  161.1621 H   0  0  0  0  0  0  0  0  0  0  0  0
  152.7177  144.3146  161.3798 H   0  0  0  0  0  0  0  0  0  0  0  0
  152.2395  145.1681  158.7866 H   0  0  0  0  0  0  0  0  0  0  0  0
  151.5925  138.6917  157.1226 H   0  0  0  0  0  0  0  0  0  0  0  0
  150.5645  137.5814  153.8754 H   0  0  0  0  0  0  0  0  0  0  0  0
  151.9412  137.2644  154.9074 H   0  0  0  0  0  0  0  0  0  0  0  0
  150.4290  136.9534  156.8729 H   0  0  0  0  0  0  0  0  0  0  0  0
  149.0336  137.2841  155.8781 H   0  0  0  0  0  0  0  0  0  0  0  0
  150.9123  135.0083  155.0800 H   0  0  0  0  0  0  0  0  0  0  0  0
  148.8084  135.4809  153.6496 H   0  0  0  0  0  0  0  0  0  0  0  0
  147.9323  133.2073  156.9034 H   0  0  0  0  0  0  0  0  0  0  0  0
  1  2  1  0  0  0  0
  1 21  1  0  0  0  0
  1 22  1  0  0  0  0
  1 23  1  0  0  0  0
  2  3  1  0  0  0  0
  2  9  1  0  0  0  0
  2 24  1  0  0  0  0
  3  4  1  0  0  0  0
  3 25  1  0  0  0  0
  3 26  1  0  0  0  0
  4  8  1  0  0  0  0
  4  5  1  0  0  0  0
  5  6  2  0  0  0  0
  5 27  1  0  0  0  0
  6  7  1  0  0  0  0
  6 28  1  0  0  0  0
  7  8  2  0  0  0  0
  7 29  1  0  0  0  0
  9 10  1  0  0  0  0
  9 30  1  0  0  0  0
 10 11  2  0  0  0  0
 10 12  1  0  0  0  0
 12 13  1  0  0  0  0
 12 31  1  0  0  0  0
 12 32  1  0  0  0  0
 13 14  1  0  0  0  0
 13 33  1  0  0  0  0
 13 34  1  0  0  0  0
 14 19  1  0  0  0  0
 14 15  1  0  0  0  0
 14 35  1  0  0  0  0
 15 16  1  0  0  0  0
 15 36  1  0  0  0  0
 16 17  2  0  0  0  0
 16 18  1  0  0  0  0
 18 19  1  0  0  0  0
 18 37  1  0  0  0  0
 19 20  2  0  0  0  0
M  END
> <s_m_source_file>
AV-unprocessed.smi

> <i_m_source_file_index>
1196

> <i_lp_mmshare_version>
43012

> <i_f3d_flags>
0

> <s_epik_input>
bjFbY0hdW2NIXVtjSF1uMVtDSDJdW0NAQEhdKFtDSDNdKVtOSF1DKD1PKVtDSDJdW0NIMl1bQ0BASF0yW05IXUMoPU8pW05IXUMyPU8=

> <s_epik_cmdline>
J2VwaWtfcHl0aG9uJywgJy1waCcsICc3LjAnLCAnLXRuJywgJzgnLCAnLW1hJywgJzIwMCcsICctbWV0YWxfYmluZGluZycsICctaW1hZScsICc8aW5maWxlLm1hZT4nLCAnLW9tYWUnLCAnPG91dGZpbGUubWFlPic=

> <r_lp_tautomer_probability>
1

> <r_epik_Ionization_Penalty>
0.00815973

> <r_epik_Ionization_Penalty_Charging>
0

> <r_epik_Ionization_Penalty_Neutral>
0.00815973

> <r_epik_State_Penalty>
0.00583796

> <r_epik_Charging_Adjusted_Penalty>
0.00583796

> <i_epik_Tot_Q>
0

> <i_epik_Tot_abs_Q>
0

> <r_epik_Metal_State_Penalty>
0.409204

> <b_epik_Metal_Only>
0

> <s_lp_Force_Field>
OPLS_2005

> <r_lp_Energy>
16.5203

> <b_lp_Chiralities_Consistent>
1

> <s_lp_Variant>
AV-unprocessed.smi:1196-2

> <Gold.Version>
5.8.1

> <Gold.Id.Protein>
6NUR|6NUR_protein|mol2

> <Gold.PLP.Fitness>
43.2636

> <Gold.PLP.PLP>
-37.1366

> <Gold.PLP.part.hbond>
-2.9858

> <Gold.PLP.part.metal>
0.0000

> <Gold.PLP.part.buried>
-6.3801

> <Gold.PLP.part.nonpolar>
-28.9220

> <Gold.PLP.part.repulsive>
0.3792

> <Gold.PLP.ligand.clash>
0.0000

> <Gold.PLP.ligand.torsion>
0.4183

> <Gold.PLP.Chemscore.Hbond>
2.3013

> <Gold.PLP.Chemscore.CHOScore>
0.0000

> <Gold.PLP.Chemscore.Metal>
0.0000

> <Gold.Chemscore.Hbonds>
donor molecule, donor type, donor heavy atom, donor atom, acceptor molecule, acceptor atom, score
      L1  H    15    36       P1  7948  1.00
      P1  H  6896  6909       L1    20  0.59
      P1  H  7989  7998       L1    11  1.00

> <Gold.PLP.Chemscore.Internal.Correction>
0.0596

> <Gold.Rescore>
     Score         DG    S(hbond)    S(metal)    S(lipo)     H(rot)  DE(clash)    DE(int)     intcor
     12.34     -14.82       2.77        0.00      65.37       2.96       0.00       2.48       ----

> <Gold.Chemscore.Fitness>
12.3392

> <Gold.Chemscore.DG>
-14.8200

> <Gold.Chemscore.ZeroCoef>
-5.4800

> <Gold.Chemscore.Hbond>
2.7733

> <Gold.Chemscore.Metal>
0.0000

> <Gold.Chemscore.Lipo>
65.3716

> <Gold.Chemscore.Internal_Hbond>
0.0000

> <Gold.Chemscore.DEClash>
0.0000

> <Gold.Chemscore.DEInternal>
2.4808

> <Gold.Chemscore.Rot>
2.9575

> <Gold.Chemscore.Internal.Correction>
   9.000000E+99

> <Gold.Chemscore.Hbonds>
donor molecule, donor type, donor heavy atom, donor atom, acceptor molecule, acceptor atom, score
      L1  H    15    36       P1  7948  0.90
      P1  H  6896  6909       L1    20  0.60
      P1  H  7989  7998       L1    11  0.97

> <Gold.Chemscore.Hbond.Weighted>
-9.2629

> <Gold.Chemscore.Metal.Weighted>
-0.0000

> <Gold.Chemscore.Lipo.Weighted>
-7.6485

> <Gold.Chemscore.Internal_Hbond.Weighted>
0.0000

> <Gold.Chemscore.DEClash.Weighted>
0.0000

> <Gold.Chemscore.DEInternal.Weighted>
2.4808

> <Gold.Chemscore.Rot.Weighted>
7.5713

> <Gold.Chemscore.Internal.Correction.Weighted>
   9.000000E+99

> <Gold.Protein.RotatedTorsions>
[ 6907 6896 6895 6894 ] final  -10.74 input  -60.11 | X-H torsion
[ 7974 7965 7964 7962 ] final   99.68 input  175.53 | X-H torsion
[ 8008 7997 7996 7995 ] final  -34.48 input   59.86 | X-H torsion
[ 10167 10162 10161 10158 ] final -115.64 input  -65.29 | X-H torsion
[ 10718 10713 10712 10709 ] final  129.24 input   66.30 | X-H torsion
[ 10763 10752 10751 10750 ] final  168.84 input  -60.55 | X-H torsion
[ 11005 11000 10999 10996 ] final -157.67 input  -57.11 | X-H torsion

> <Gold.Protein.ActiveResidues>
 VAL166  LYS551  ARG553  GLY616  TRP617  ASP618  TYR619  PRO620  LYS621  CYS622 
 ASP623  PHE694  ASN695  SER759  ASP760  ASP761  ALA762  ILE779  LEU786  VAL792 
 PHE793  MET794  SER795  GLU796  ALA797  LYS798  CYS799  TRP800  GLU811  SER814 

> <Gold.Protein.RotatedAtoms>
  151.3972  135.0965  159.9544 H   0  0  0  0  0  0  0  0  0  0  0  0  # atno 6907 bound_to 6896
  152.5062  133.8923  159.7410 H   0  0  0  0  0  0  0  0  0  0  0  0  # atno 6908 bound_to 6896
  150.9389  133.6623  159.2823 H   0  0  0  0  0  0  0  0  0  0  0  0  # atno 6909 bound_to 6896
  145.3956  139.2356  143.3328 H   0  0  0  0  0  0  0  0  0  0  0  0  # atno 7974 bound_to 7965
  154.4120  140.1683  156.2057 H   0  0  0  0  0  0  0  0  0  0  0  0  # atno 8008 bound_to 7997
  155.9487  140.3402  155.6365 H   0  0  0  0  0  0  0  0  0  0  0  0  # atno 8009 bound_to 7997
  155.6898  140.0732  157.2443 H   0  0  0  0  0  0  0  0  0  0  0  0  # atno 8010 bound_to 7997
  140.0879  143.4727  152.1887 H   0  0  0  0  0  0  0  0  0  0  0  0  # atno 10167 bound_to 10162
  157.5172  131.1097  150.9207 H   0  0  0  0  0  0  0  0  0  0  0  0  # atno 10718 bound_to 10713
  154.3745  135.2753  155.2247 H   0  0  0  0  0  0  0  0  0  0  0  0  # atno 10763 bound_to 10752
  154.4381  135.5961  153.6115 H   0  0  0  0  0  0  0  0  0  0  0  0  # atno 10764 bound_to 10752
  152.9837  135.6012  154.3980 H   0  0  0  0  0  0  0  0  0  0  0  0  # atno 10765 bound_to 10752
  140.6621  134.4338  157.5234 H   0  0  0  0  0  0  0  0  0  0  0  0  # atno 11005 bound_to 11000
  146.2776  140.4646  142.8789 LP  0  0  0  0  0  0  0  0  0  0  0  0  # atno 17320 bound_to 7965
  144.8409  140.6856  143.6230 LP  0  0  0  0  0  0  0  0  0  0  0  0  # atno 17321 bound_to 7965
  139.5742  144.7478  151.3810 LP  0  0  0  0  0  0  0  0  0  0  0  0  # atno 17342 bound_to 10162
  140.7044  143.7551  150.7457 LP  0  0  0  0  0  0  0  0  0  0  0  0  # atno 17343 bound_to 10162
  156.9829  130.5534  149.5297 LP  0  0  0  0  0  0  0  0  0  0  0  0  # atno 17370 bound_to 10713
  156.0328  130.5418  150.8578 LP  0  0  0  0  0  0  0  0  0  0  0  0  # atno 17371 bound_to 10713
  139.9009  134.8557  156.1899 LP  0  0  0  0  0  0  0  0  0  0  0  0  # atno 17394 bound_to 11000
  141.0457  133.6914  156.1679 LP  0  0  0  0  0  0  0  0  0  0  0  0  # atno 17395 bound_to 11000

$$$$
