AV-unprocessed.smi:81|AV-procd|sdf|787|dock7
  -GOLD-   2262017153D 1   1.00000     0.00000
 Structure written by MMmdl.
 64 67  0  0  0  0  0  0  0  0  2 V2000
  140.8472  138.8881  153.7139 C   0  0  0  0  0  0  0  0  0  0  0  0
  141.2860  137.5423  153.1132 C   0  0  0  0  0  0  0  0  0  0  0  0
  140.9328  136.3884  154.0620 C   0  0  0  0  0  0  0  0  0  0  0  0
  142.7958  137.5269  152.7846 C   0  0  0  0  0  0  0  0  0  0  0  0
  143.5323  136.4315  153.4221 N   0  0  0  0  0  0  0  0  0  0  0  0
  144.4817  136.8278  154.3060 C   0  0  0  0  0  0  0  0  0  0  0  0
  144.4672  136.3527  155.5794 N   0  0  0  0  0  0  0  0  0  0  0  0
  145.4095  136.7350  156.4466 C   0  0  0  0  0  0  0  0  0  0  0  0
  146.4373  137.5635  156.2505 N   0  0  0  0  0  0  0  0  0  0  0  0
  146.4571  138.0357  154.9711 C   0  0  0  0  0  0  0  0  0  0  0  0
  145.5262  137.7193  153.9433 C   0  0  0  0  0  0  0  0  0  0  0  0
  145.8681  138.3783  152.7696 N   0  0  0  0  0  0  0  0  0  0  0  0
  146.9419  139.0495  153.0860 C   0  0  0  0  0  0  0  0  0  0  0  0
  147.3605  138.9080  154.3902 N   0  0  0  0  0  0  0  0  0  0  0  0
  148.5155  139.5387  155.0090 C   0  0  0  0  0  0  0  0  0  0  0  0
  149.8135  138.7073  154.8798 C   0  0  2  0  0  0  0  0  0  0  0  0
  150.4500  139.0428  153.6566 O   0  0  0  0  0  0  0  0  0  0  0  0
  149.5915  137.2023  154.9092 C   0  0  0  0  0  0  0  0  0  0  0  0
  150.9431  136.6781  155.3784 C   0  0  0  0  0  0  0  0  0  0  0  0
  151.4033  137.6460  156.3123 O   0  0  0  0  0  0  0  0  0  0  0  0
  150.7757  138.9050  156.0721 C   0  0  1  0  0  0  0  0  0  0  0  0
  151.8218  140.0229  155.9340 C   0  0  0  0  0  0  0  0  0  0  0  0
  143.8785  135.2884  152.5651 C   0  0  2  0  0  0  0  0  0  0  0  0
  144.3789  135.6904  151.1611 C   0  0  0  0  0  0  0  0  0  0  0  0
  144.7986  134.4533  150.3511 C   0  0  0  0  0  0  0  0  0  0  0  0
  143.6831  133.4797  150.2499 N   0  3  1  0  0  0  0  0  0  0  0  0
  144.0129  132.3362  149.3725 C   0  0  0  0  0  0  0  0  0  0  0  0
  143.1997  133.0474  151.5849 C   0  0  0  0  0  0  0  0  0  0  0  0
  142.7427  134.2518  152.4241 C   0  0  0  0  0  0  0  0  0  0  0  0
  141.3794  139.1001  154.6415 H   0  0  0  0  0  0  0  0  0  0  0  0
  139.7796  138.8887  153.9353 H   0  0  0  0  0  0  0  0  0  0  0  0
  141.0354  139.7131  153.0266 H   0  0  0  0  0  0  0  0  0  0  0  0
  140.7172  137.3812  152.1968 H   0  0  0  0  0  0  0  0  0  0  0  0
  141.4638  136.4771  155.0102 H   0  0  0  0  0  0  0  0  0  0  0  0
  141.1941  135.4254  153.6224 H   0  0  0  0  0  0  0  0  0  0  0  0
  139.8644  136.3699  154.2789 H   0  0  0  0  0  0  0  0  0  0  0  0
  142.9248  137.4585  151.7038 H   0  0  0  0  0  0  0  0  0  0  0  0
  143.2433  138.4771  153.0788 H   0  0  0  0  0  0  0  0  0  0  0  0
  145.3293  136.3172  157.4392 H   0  0  0  0  0  0  0  0  0  0  0  0
  147.4597  139.6740  152.3726 H   0  0  0  0  0  0  0  0  0  0  0  0
  148.6527  140.5244  154.5626 H   0  0  0  0  0  0  0  0  0  0  0  0
  148.2799  139.7107  156.0599 H   0  0  0  0  0  0  0  0  0  0  0  0
  149.7846  139.1621  152.9962 H   0  0  0  0  0  0  0  0  0  0  0  0
  148.8322  136.9488  155.6506 H   0  0  0  0  0  0  0  0  0  0  0  0
  149.2778  136.7837  153.9520 H   0  0  0  0  0  0  0  0  0  0  0  0
  150.8774  135.6872  155.8282 H   0  0  0  0  0  0  0  0  0  0  0  0
  151.6455  136.6282  154.5456 H   0  0  0  0  0  0  0  0  0  0  0  0
  150.1833  139.1050  156.9659 H   0  0  0  0  0  0  0  0  0  0  0  0
  151.3451  140.9835  155.7378 H   0  0  0  0  0  0  0  0  0  0  0  0
  152.5229  139.8218  155.1238 H   0  0  0  0  0  0  0  0  0  0  0  0
  152.4028  140.1222  156.8510 H   0  0  0  0  0  0  0  0  0  0  0  0
  144.7116  134.7905  153.0635 H   0  0  0  0  0  0  0  0  0  0  0  0
  143.6009  136.2220  150.6115 H   0  0  0  0  0  0  0  0  0  0  0  0
  145.2250  136.3730  151.2470 H   0  0  0  0  0  0  0  0  0  0  0  0
  145.1059  134.7621  149.3510 H   0  0  0  0  0  0  0  0  0  0  0  0
  145.6624  133.9744  150.8149 H   0  0  0  0  0  0  0  0  0  0  0  0
  144.8396  131.7542  149.7821 H   0  0  0  0  0  0  0  0  0  0  0  0
  144.2974  132.6830  148.3786 H   0  0  0  0  0  0  0  0  0  0  0  0
  143.1520  131.6765  149.2596 H   0  0  0  0  0  0  0  0  0  0  0  0
  142.3673  132.3527  151.4649 H   0  0  0  0  0  0  0  0  0  0  0  0
  143.9923  132.5064  152.1046 H   0  0  0  0  0  0  0  0  0  0  0  0
  142.4182  133.9033  153.4049 H   0  0  0  0  0  0  0  0  0  0  0  0
  141.8706  134.7027  151.9499 H   0  0  0  0  0  0  0  0  0  0  0  0
  142.9147  133.9658  149.8095 H   0  0  0  0  0  0  0  0  0  0  0  0
  1  2  1  0  0  0  0
  1 30  1  0  0  0  0
  1 31  1  0  0  0  0
  1 32  1  0  0  0  0
  2  3  1  0  0  0  0
  2  4  1  0  0  0  0
  2 33  1  0  0  0  0
  3 34  1  0  0  0  0
  3 35  1  0  0  0  0
  3 36  1  0  0  0  0
  4  5  1  0  0  0  0
  4 37  1  0  0  0  0
  4 38  1  0  0  0  0
  5  6  1  0  0  0  0
  5 23  1  0  0  0  0
  6 11  1  0  0  0  0
  6  7  2  0  0  0  0
  7  8  1  0  0  0  0
  8  9  2  0  0  0  0
  8 39  1  0  0  0  0
  9 10  1  0  0  0  0
 10 14  1  0  0  0  0
 10 11  2  0  0  0  0
 11 12  1  0  0  0  0
 12 13  2  0  0  0  0
 13 14  1  0  0  0  0
 13 40  1  0  0  0  0
 14 15  1  0  0  0  0
 15 16  1  0  0  0  0
 15 41  1  0  0  0  0
 15 42  1  0  0  0  0
 16 21  1  0  0  0  0
 16 17  1  0  0  0  0
 16 18  1  0  0  0  0
 17 43  1  0  0  0  0
 18 19  1  0  0  0  0
 18 44  1  0  0  0  0
 18 45  1  0  0  0  0
 19 20  1  0  0  0  0
 19 46  1  0  0  0  0
 19 47  1  0  0  0  0
 20 21  1  0  0  0  0
 21 22  1  0  0  0  0
 21 48  1  0  0  0  0
 22 49  1  0  0  0  0
 22 50  1  0  0  0  0
 22 51  1  0  0  0  0
 23 29  1  0  0  0  0
 23 24  1  0  0  0  0
 23 52  1  0  0  0  0
 24 25  1  0  0  0  0
 24 53  1  0  0  0  0
 24 54  1  0  0  0  0
 25 26  1  0  0  0  0
 25 55  1  0  0  0  0
 25 56  1  0  0  0  0
 26 27  1  0  0  0  0
 26 28  1  0  0  0  0
 26 64  1  0  0  0  0
 27 57  1  0  0  0  0
 27 58  1  0  0  0  0
 27 59  1  0  0  0  0
 28 29  1  0  0  0  0
 28 60  1  0  0  0  0
 28 61  1  0  0  0  0
 29 62  1  0  0  0  0
 29 63  1  0  0  0  0
M  CHG  1  26   1
M  END
> <s_m_source_file>
AV-unprocessed.smi

> <i_m_source_file_index>
81

> <i_lp_mmshare_version>
43012

> <i_f3d_flags>
0

> <s_epik_input>
W0NIMl0xW0NIMl1OKFtDSDNdKVtDSDJdW0NIMl1bQ0hdMU4oW0NIMl1bQ0hdKFtDSDNdKVtDSDNdKWMobltjSF1uMiljKGMyMyluW2NIXW4zW0NIMl1bQ0BAXTQoW09IXSlbQ0gyXVtDSDJdT1tDQEhdNFtDSDNd

> <s_epik_cmdline>
J2VwaWtfcHl0aG9uJywgJy1waCcsICc3LjAnLCAnLXRuJywgJzgnLCAnLW1hJywgJzIwMCcsICctbWV0YWxfYmluZGluZycsICctaW1hZScsICc8aW5maWxlLm1hZT4nLCAnLW9tYWUnLCAnPG91dGZpbGUubWFlPic=

> <r_lp_tautomer_probability>
1

> <r_epik_Ionization_Penalty>
0.00272708

> <r_epik_Ionization_Penalty_Charging>
0.00158983

> <r_epik_Ionization_Penalty_Neutral>
0.00113725

> <r_epik_State_Penalty>
-0

> <r_epik_Charging_Adjusted_Penalty>
0.00158983

> <i_epik_Tot_Q>
1

> <i_epik_Tot_abs_Q>
1

> <r_epik_Metal_State_Penalty>
-0

> <b_epik_Metal_Only>
0

> <s_lp_Force_Field>
OPLS_2005

> <r_lp_Energy>
45.4509

> <b_lp_Chiralities_Consistent>
1

> <s_lp_Variant>
AV-unprocessed.smi:81-2

> <Gold.Version>
5.8.1

> <Gold.Id.Protein>
6NUR|6NUR_protein|mol2

> <Gold.PLP.Fitness>
42.0536

> <Gold.PLP.PLP>
-34.1331

> <Gold.PLP.part.hbond>
-3.0000

> <Gold.PLP.part.metal>
0.0000

> <Gold.PLP.part.buried>
-1.4497

> <Gold.PLP.part.nonpolar>
-31.6992

> <Gold.PLP.part.repulsive>
1.1647

> <Gold.PLP.ligand.clash>
0.0000

> <Gold.PLP.ligand.torsion>
3.4645

> <Gold.PLP.Chemscore.Hbond>
3.6640

> <Gold.PLP.Chemscore.CHOScore>
1.0000

> <Gold.PLP.Chemscore.Metal>
0.0000

> <Gold.Chemscore.Hbonds>
donor molecule, donor type, donor heavy atom, donor atom, acceptor molecule, acceptor atom, score
      L1  H    17    43       P1  7957  0.75
      L1  H    26    64       P1 10186  2.00
      P1  H  7989  7998       L1    17  0.62
      L1  C    13    40       P1  7957  1.00

> <Gold.PLP.Chemscore.Internal.Correction>
0.8574

> <Gold.Rescore>
     Score         DG    S(hbond)    S(metal)    S(lipo)     H(rot)  DE(clash)    DE(int)     intcor
     12.73     -18.15       2.39        0.00      96.56       2.58       1.81       3.61       ----

> <Gold.Chemscore.Fitness>
12.7257

> <Gold.Chemscore.DG>
-18.1496

> <Gold.Chemscore.ZeroCoef>
-5.4800

> <Gold.Chemscore.Hbond>
2.3862

> <Gold.Chemscore.Metal>
0.0000

> <Gold.Chemscore.Lipo>
96.5644

> <Gold.Chemscore.Internal_Hbond>
0.0000

> <Gold.Chemscore.DEClash>
1.8148

> <Gold.Chemscore.DEInternal>
3.6091

> <Gold.Chemscore.Rot>
2.5774

> <Gold.Chemscore.Internal.Correction>
   9.000000E+99

> <Gold.Chemscore.Hbonds>
donor molecule, donor type, donor heavy atom, donor atom, acceptor molecule, acceptor atom, score
      L1  H    17    43       P1  7957  0.68
      L1  H    26    64       P1 10186  0.96
      P1  H  7989  7998       L1    17  0.20

> <Gold.Chemscore.Hbond.Weighted>
-7.9699

> <Gold.Chemscore.Metal.Weighted>
-0.0000

> <Gold.Chemscore.Lipo.Weighted>
-11.2980

> <Gold.Chemscore.Internal_Hbond.Weighted>
0.0000

> <Gold.Chemscore.DEClash.Weighted>
1.8148

> <Gold.Chemscore.DEInternal.Weighted>
3.6091

> <Gold.Chemscore.Rot.Weighted>
6.5982

> <Gold.Chemscore.Internal.Correction.Weighted>
   9.000000E+99

> <Gold.Protein.RotatedTorsions>
[ 6907 6896 6895 6894 ] final -176.50 input  -60.11 | X-H torsion
[ 7974 7965 7964 7962 ] final  -90.43 input  175.53 | X-H torsion
[ 8008 7997 7996 7995 ] final -172.28 input   59.86 | X-H torsion
[ 10167 10162 10161 10158 ] final   88.87 input  -65.29 | X-H torsion
[ 10718 10713 10712 10709 ] final  -70.26 input   66.30 | X-H torsion
[ 10763 10752 10751 10750 ] final   42.39 input  -60.55 | X-H torsion
[ 11005 11000 10999 10996 ] final  -78.37 input  -57.11 | X-H torsion

> <Gold.Protein.ActiveResidues>
 VAL166  LYS551  ARG553  GLY616  TRP617  ASP618  TYR619  PRO620  LYS621  CYS622 
 ASP623  PHE694  ASN695  SER759  ASP760  ASP761  ALA762  ILE779  LEU786  VAL792 
 PHE793  MET794  SER795  GLU796  ALA797  LYS798  CYS799  TRP800  GLU811  SER814 

> <Gold.Protein.RotatedAtoms>
  151.6059  133.3352  159.3056 H   0  0  0  0  0  0  0  0  0  0  0  0  # atno 6907 bound_to 6896
  150.8183  134.7380  159.6761 H   0  0  0  0  0  0  0  0  0  0  0  0  # atno 6908 bound_to 6896
  152.4277  134.5842  160.0007 H   0  0  0  0  0  0  0  0  0  0  0  0  # atno 6909 bound_to 6896
  145.4265  140.9554  143.2151 H   0  0  0  0  0  0  0  0  0  0  0  0  # atno 7974 bound_to 7965
  155.9425  140.1111  157.1044 H   0  0  0  0  0  0  0  0  0  0  0  0  # atno 8008 bound_to 7997
  154.4092  140.1216  156.5012 H   0  0  0  0  0  0  0  0  0  0  0  0  # atno 8009 bound_to 7997
  155.6944  140.3472  155.4909 H   0  0  0  0  0  0  0  0  0  0  0  0  # atno 8010 bound_to 7997
  139.8629  144.6534  150.9037 H   0  0  0  0  0  0  0  0  0  0  0  0  # atno 10167 bound_to 10162
  156.0416  130.4328  150.2269 H   0  0  0  0  0  0  0  0  0  0  0  0  # atno 10718 bound_to 10713
  152.9884  135.6133  154.2941 H   0  0  0  0  0  0  0  0  0  0  0  0  # atno 10763 bound_to 10752
  154.2665  135.2781  155.2758 H   0  0  0  0  0  0  0  0  0  0  0  0  # atno 10764 bound_to 10752
  154.5160  135.5828  153.6699 H   0  0  0  0  0  0  0  0  0  0  0  0  # atno 10765 bound_to 10752
  141.1664  133.7060  156.7961 H   0  0  0  0  0  0  0  0  0  0  0  0  # atno 11005 bound_to 11000
  144.8210  139.5791  143.6986 LP  0  0  0  0  0  0  0  0  0  0  0  0  # atno 17320 bound_to 7965
  146.2629  139.6452  142.9349 LP  0  0  0  0  0  0  0  0  0  0  0  0  # atno 17321 bound_to 7965
  140.7772  143.3729  151.1617 LP  0  0  0  0  0  0  0  0  0  0  0  0  # atno 17342 bound_to 10162
  139.7356  143.9004  152.3034 LP  0  0  0  0  0  0  0  0  0  0  0  0  # atno 17343 bound_to 10162
  157.0363  131.0022  151.3297 LP  0  0  0  0  0  0  0  0  0  0  0  0  # atno 17370 bound_to 10713
  157.5241  130.8017  149.7842 LP  0  0  0  0  0  0  0  0  0  0  0  0  # atno 17371 bound_to 10713
  140.2290  134.8700  157.3457 LP  0  0  0  0  0  0  0  0  0  0  0  0  # atno 17394 bound_to 11000
  140.1910  134.4371  155.7716 LP  0  0  0  0  0  0  0  0  0  0  0  0  # atno 17395 bound_to 11000

$$$$
