AV-unprocessed.smi:3213|AV-procd|sdf|12282|dock5
  -GOLD-   2272018123D 1   1.00000     0.00000
 Structure written by MMmdl.
 35 35  0  0  0  0  0  0  0  0  1 V2000
  152.4892  145.0318  158.6036 C   0  0  0  0  0  0  0  0  0  0  0  0
  151.7003  143.7898  159.0549 C   0  0  0  0  0  0  0  0  0  0  0  0
  152.3312  143.2409  160.3525 C   0  0  0  0  0  0  0  0  0  0  0  0
  150.2288  144.1893  159.2920 C   0  0  0  0  0  0  0  0  0  0  0  0
  151.7973  142.8056  157.9700 N   0  0  0  0  0  0  0  0  0  0  0  0
  151.1210  141.6520  157.8228 C   0  0  0  0  0  0  0  0  0  0  0  0
  150.2873  141.2364  158.6280 O   0  0  0  0  0  0  0  0  0  0  0  0
  151.4475  140.8389  156.5664 C   0  0  0  0  0  0  0  0  0  0  0  0
  150.2804  140.6617  155.7196 N   0  0  0  0  0  0  0  0  0  0  0  0
  148.9834  141.0680  155.9531 C   0  0  0  0  0  0  0  0  0  0  0  0
  148.2326  140.6863  154.8773 C   0  0  0  0  0  0  0  0  0  0  0  0
  146.7629  140.8895  154.6365 C   0  0  0  0  0  0  0  0  0  0  0  0
  146.3520  142.3510  154.8578 C   0  0  0  0  0  0  0  0  0  0  0  0
  147.1372  143.1976  154.0462 O   0  0  0  0  0  0  0  0  0  0  0  0
  149.1773  140.0453  154.0259 C   0  0  0  0  0  0  0  0  0  0  0  0
  150.3998  140.0308  154.5315 N   0  0  0  0  0  0  0  0  0  0  0  0
  152.4658  145.8150  159.3623 H   0  0  0  0  0  0  0  0  0  0  0  0
  152.0774  145.4539  157.6860 H   0  0  0  0  0  0  0  0  0  0  0  0
  153.5363  144.7918  158.4142 H   0  0  0  0  0  0  0  0  0  0  0  0
  153.3575  142.9109  160.1871 H   0  0  0  0  0  0  0  0  0  0  0  0
  151.7737  142.3959  160.7561 H   0  0  0  0  0  0  0  0  0  0  0  0
  152.3548  144.0052  161.1300 H   0  0  0  0  0  0  0  0  0  0  0  0
  150.1530  144.9815  160.0376 H   0  0  0  0  0  0  0  0  0  0  0  0
  149.6293  143.3532  159.6517 H   0  0  0  0  0  0  0  0  0  0  0  0
  149.7653  144.5569  158.3757 H   0  0  0  0  0  0  0  0  0  0  0  0
  152.4545  143.0348  157.2386 H   0  0  0  0  0  0  0  0  0  0  0  0
  152.2375  141.3196  155.9865 H   0  0  0  0  0  0  0  0  0  0  0  0
  151.8187  139.8573  156.8623 H   0  0  0  0  0  0  0  0  0  0  0  0
  148.7060  141.5921  156.8561 H   0  0  0  0  0  0  0  0  0  0  0  0
  146.5008  140.5913  153.6206 H   0  0  0  0  0  0  0  0  0  0  0  0
  146.1763  140.2474  155.2948 H   0  0  0  0  0  0  0  0  0  0  0  0
  145.2998  142.4969  154.6108 H   0  0  0  0  0  0  0  0  0  0  0  0
  146.4861  142.6357  155.9019 H   0  0  0  0  0  0  0  0  0  0  0  0
  147.6932  143.7189  154.6049 H   0  0  0  0  0  0  0  0  0  0  0  0
  149.0104  139.5932  153.0592 H   0  0  0  0  0  0  0  0  0  0  0  0
  1  2  1  0  0  0  0
  1 17  1  0  0  0  0
  1 18  1  0  0  0  0
  1 19  1  0  0  0  0
  2  3  1  0  0  0  0
  2  4  1  0  0  0  0
  2  5  1  0  0  0  0
  3 20  1  0  0  0  0
  3 21  1  0  0  0  0
  3 22  1  0  0  0  0
  4 23  1  0  0  0  0
  4 24  1  0  0  0  0
  4 25  1  0  0  0  0
  5  6  1  0  0  0  0
  5 26  1  0  0  0  0
  6  7  2  0  0  0  0
  6  8  1  0  0  0  0
  8  9  1  0  0  0  0
  8 27  1  0  0  0  0
  8 28  1  0  0  0  0
  9 16  1  0  0  0  0
  9 10  1  0  0  0  0
 10 11  2  0  0  0  0
 10 29  1  0  0  0  0
 11 12  1  0  0  0  0
 11 15  1  0  0  0  0
 12 13  1  0  0  0  0
 12 30  1  0  0  0  0
 12 31  1  0  0  0  0
 13 14  1  0  0  0  0
 13 32  1  0  0  0  0
 13 33  1  0  0  0  0
 14 34  1  0  0  0  0
 15 16  2  0  0  0  0
 15 35  1  0  0  0  0
M  END
> <s_m_source_file>
AV-unprocessed.smi

> <i_m_source_file_index>
3213

> <i_lp_mmshare_version>
43012

> <i_f3d_flags>
0

> <s_epik_input>
W0NIM11DKFtDSDNdKShbQ0gzXSlbTkhdQyg9TylbQ0gyXW4xW2NIXWMoW2NIXW4xKVtDSDJdW0NIMl1bT0hd

> <s_epik_cmdline>
J2VwaWtfcHl0aG9uJywgJy1waCcsICc3LjAnLCAnLXRuJywgJzgnLCAnLW1hJywgJzIwMCcsICctbWV0YWxfYmluZGluZycsICctaW1hZScsICc8aW5maWxlLm1hZT4nLCAnLW9tYWUnLCAnPG91dGZpbGUubWFlPic=

> <r_lp_tautomer_probability>
1

> <r_epik_Ionization_Penalty>
3.05354e-05

> <r_epik_Ionization_Penalty_Charging>
0

> <r_epik_Ionization_Penalty_Neutral>
3.05354e-05

> <r_epik_State_Penalty>
-0

> <r_epik_Charging_Adjusted_Penalty>
0

> <i_epik_Tot_Q>
0

> <i_epik_Tot_abs_Q>
0

> <r_epik_Metal_State_Penalty>
-0

> <b_epik_Metal_Only>
0

> <s_lp_Force_Field>
OPLS_2005

> <r_lp_Energy>
4.97676

> <b_lp_Chiralities_Consistent>
1

> <s_lp_Variant>
AV-unprocessed.smi:3213-1

> <Gold.Version>
5.8.1

> <Gold.Id.Protein>
6NUR|6NUR_protein|mol2

> <Gold.PLP.Fitness>
40.4303

> <Gold.PLP.PLP>
-31.9108

> <Gold.PLP.part.hbond>
-3.0311

> <Gold.PLP.part.metal>
0.0000

> <Gold.PLP.part.buried>
-1.7556

> <Gold.PLP.part.nonpolar>
-26.6387

> <Gold.PLP.part.repulsive>
0.1381

> <Gold.PLP.ligand.clash>
0.0000

> <Gold.PLP.ligand.torsion>
0.2543

> <Gold.PLP.Chemscore.Hbond>
2.0000

> <Gold.PLP.Chemscore.CHOScore>
1.0000

> <Gold.PLP.Chemscore.Metal>
0.0000

> <Gold.Chemscore.Hbonds>
donor molecule, donor type, donor heavy atom, donor atom, acceptor molecule, acceptor atom, score
      L1  H    14    34       P1  8028  1.00
      P1  H  7989  7998       L1    16  1.00
      L1  C    15    35       P1  7957  1.00

> <Gold.PLP.Chemscore.Internal.Correction>
0.0282

> <Gold.Rescore>
     Score         DG    S(hbond)    S(metal)    S(lipo)     H(rot)  DE(clash)    DE(int)     intcor
     10.01     -12.53       1.17        0.00      81.10       2.48       1.23       1.28       ----

> <Gold.Chemscore.Fitness>
10.0134

> <Gold.Chemscore.DG>
-12.5277

> <Gold.Chemscore.ZeroCoef>
-5.4800

> <Gold.Chemscore.Hbond>
1.1667

> <Gold.Chemscore.Metal>
0.0000

> <Gold.Chemscore.Lipo>
81.1003

> <Gold.Chemscore.Internal_Hbond>
0.0000

> <Gold.Chemscore.DEClash>
1.2313

> <Gold.Chemscore.DEInternal>
1.2829

> <Gold.Chemscore.Rot>
2.4758

> <Gold.Chemscore.Internal.Correction>
   9.000000E+99

> <Gold.Chemscore.Hbonds>
donor molecule, donor type, donor heavy atom, donor atom, acceptor molecule, acceptor atom, score
      L1  H    14    34       P1  8028  0.26
      P1  H  7989  7998       L1    16  0.63

> <Gold.Chemscore.Hbond.Weighted>
-3.8969

> <Gold.Chemscore.Metal.Weighted>
-0.0000

> <Gold.Chemscore.Lipo.Weighted>
-9.4887

> <Gold.Chemscore.Internal_Hbond.Weighted>
0.0000

> <Gold.Chemscore.DEClash.Weighted>
1.2313

> <Gold.Chemscore.DEInternal.Weighted>
1.2829

> <Gold.Chemscore.Rot.Weighted>
6.3380

> <Gold.Chemscore.Internal.Correction.Weighted>
   9.000000E+99

> <Gold.Protein.RotatedTorsions>
[ 6907 6896 6895 6894 ] final -157.62 input  -60.11 | X-H torsion
[ 7974 7965 7964 7962 ] final  -26.44 input  175.53 | X-H torsion
[ 8008 7997 7996 7995 ] final  133.05 input   59.86 | X-H torsion
[ 10167 10162 10161 10158 ] final -141.36 input  -65.29 | X-H torsion
[ 10718 10713 10712 10709 ] final  -47.37 input   66.30 | X-H torsion
[ 10763 10752 10751 10750 ] final -172.02 input  -60.55 | X-H torsion
[ 11005 11000 10999 10996 ] final   -4.41 input  -57.11 | X-H torsion

> <Gold.Protein.ActiveResidues>
 VAL166  LYS551  ARG553  GLY616  TRP617  ASP618  TYR619  PRO620  LYS621  CYS622 
 ASP623  PHE694  ASN695  SER759  ASP760  ASP761  ALA762  ILE779  LEU786  VAL792 
 PHE793  MET794  SER795  GLU796  ALA797  LYS798  CYS799  TRP800  GLU811  SER814 

> <Gold.Protein.RotatedAtoms>
  151.3056  133.4103  159.2642 H   0  0  0  0  0  0  0  0  0  0  0  0  # atno 6907 bound_to 6896
  151.0158  134.9432  159.8042 H   0  0  0  0  0  0  0  0  0  0  0  0  # atno 6908 bound_to 6896
  152.5312  134.3020  159.9134 H   0  0  0  0  0  0  0  0  0  0  0  0  # atno 6909 bound_to 6896
  146.1425  140.5020  142.8646 H   0  0  0  0  0  0  0  0  0  0  0  0  # atno 7974 bound_to 7965
  156.2989  140.2531  156.3190 H   0  0  0  0  0  0  0  0  0  0  0  0  # atno 8008 bound_to 7997
  154.9254  140.0399  157.2039 H   0  0  0  0  0  0  0  0  0  0  0  0  # atno 8009 bound_to 7997
  154.8270  140.2869  155.5752 H   0  0  0  0  0  0  0  0  0  0  0  0  # atno 8010 bound_to 7997
  139.8193  143.7596  152.2666 H   0  0  0  0  0  0  0  0  0  0  0  0  # atno 10167 bound_to 10162
  156.2091  130.4160  149.9138 H   0  0  0  0  0  0  0  0  0  0  0  0  # atno 10718 bound_to 10713
  154.6240  135.2878  155.0294 H   0  0  0  0  0  0  0  0  0  0  0  0  # atno 10763 bound_to 10752
  154.1479  135.6508  153.4960 H   0  0  0  0  0  0  0  0  0  0  0  0  # atno 10764 bound_to 10752
  153.0248  135.5348  154.7040 H   0  0  0  0  0  0  0  0  0  0  0  0  # atno 10765 bound_to 10752
  140.6800  133.9162  155.8549 H   0  0  0  0  0  0  0  0  0  0  0  0  # atno 11005 bound_to 11000
  144.7808  140.5837  143.6606 LP  0  0  0  0  0  0  0  0  0  0  0  0  # atno 17320 bound_to 7965
  145.5014  139.1483  143.3655 LP  0  0  0  0  0  0  0  0  0  0  0  0  # atno 17321 bound_to 7965
  139.7769  144.7458  151.0143 LP  0  0  0  0  0  0  0  0  0  0  0  0  # atno 17342 bound_to 10162
  140.7814  143.4584  151.0313 LP  0  0  0  0  0  0  0  0  0  0  0  0  # atno 17343 bound_to 10162
  156.6822  130.8862  151.3577 LP  0  0  0  0  0  0  0  0  0  0  0  0  # atno 17370 bound_to 10713
  157.7029  130.9352  150.0840 LP  0  0  0  0  0  0  0  0  0  0  0  0  # atno 17371 bound_to 10713
  141.0325  134.0736  157.3997 LP  0  0  0  0  0  0  0  0  0  0  0  0  # atno 17394 bound_to 11000
  139.8955  135.0141  156.7004 LP  0  0  0  0  0  0  0  0  0  0  0  0  # atno 17395 bound_to 11000

$$$$
