AV-unprocessed.smi:3239|AV-procd|sdf|12379|dock4
  -GOLD-   2272018243D 1   1.00000     0.00000
 Structure written by MMmdl.
 35 35  0  0  0  0  0  0  0  0  1 V2000
  152.2225  145.0130  159.0550 C   0  0  0  0  0  0  0  0  0  0  0  0
  152.2427  143.7943  159.1290 C   0  0  0  0  0  0  0  0  0  0  0  0
  152.2836  142.3237  159.2059 C   0  0  0  0  0  0  0  0  0  0  0  0
  151.6171  141.6807  158.0791 N   0  0  0  0  0  0  0  0  0  0  0  0
  152.0031  140.5290  157.5039 C   0  0  0  0  0  0  0  0  0  0  0  0
  152.9687  139.8679  157.8863 O   0  0  0  0  0  0  0  0  0  0  0  0
  151.1321  140.0385  156.3839 C   0  0  0  0  0  0  0  0  0  0  0  0
  151.6533  139.2753  155.3151 C   0  0  0  0  0  0  0  0  0  0  0  0
  150.7793  138.8218  154.3079 C   0  0  0  0  0  0  0  0  0  0  0  0
  149.4082  139.1380  154.4016 C   0  0  0  0  0  0  0  0  0  0  0  0
  148.5463  138.6857  153.3910 N   0  0  0  0  0  0  0  0  0  0  0  0
  147.1975  139.2181  153.2232 C   0  0  2  0  0  0  0  0  0  0  0  0
  146.5135  138.6049  151.9884 C   0  0  0  0  0  0  0  0  0  0  0  0
  147.2482  140.7511  153.1330 C   0  0  0  0  0  0  0  0  0  0  0  0
  146.6007  141.3132  154.2627 O   0  0  0  0  0  0  0  0  0  0  0  0
  146.5264  142.7266  154.2005 C   0  0  0  0  0  0  0  0  0  0  0  0
  148.9019  139.8622  155.4270 N   0  0  0  0  0  0  0  0  0  0  0  0
  149.7430  140.2918  156.3917 C   0  0  0  0  0  0  0  0  0  0  0  0
  152.2092  146.0777  158.9867 H   0  0  0  0  0  0  0  0  0  0  0  0
  153.3295  142.0170  159.2194 H   0  0  0  0  0  0  0  0  0  0  0  0
  151.8450  142.0108  160.1546 H   0  0  0  0  0  0  0  0  0  0  0  0
  150.7956  142.1407  157.7146 H   0  0  0  0  0  0  0  0  0  0  0  0
  152.7044  139.0313  155.2600 H   0  0  0  0  0  0  0  0  0  0  0  0
  151.1588  138.2388  153.4813 H   0  0  0  0  0  0  0  0  0  0  0  0
  148.8343  137.9170  152.8031 H   0  0  0  0  0  0  0  0  0  0  0  0
  146.6157  138.9654  154.1105 H   0  0  0  0  0  0  0  0  0  0  0  0
  145.4976  138.9831  151.8725 H   0  0  0  0  0  0  0  0  0  0  0  0
  146.4462  137.5196  152.0649 H   0  0  0  0  0  0  0  0  0  0  0  0
  147.0612  138.8389  151.0749 H   0  0  0  0  0  0  0  0  0  0  0  0
  148.2862  141.0877  153.1130 H   0  0  0  0  0  0  0  0  0  0  0  0
  146.7754  141.0961  152.2116 H   0  0  0  0  0  0  0  0  0  0  0  0
  146.0237  143.1058  155.0902 H   0  0  0  0  0  0  0  0  0  0  0  0
  145.9591  143.0540  153.3282 H   0  0  0  0  0  0  0  0  0  0  0  0
  147.5208  143.1732  154.1598 H   0  0  0  0  0  0  0  0  0  0  0  0
  149.2865  140.8596  157.1895 H   0  0  0  0  0  0  0  0  0  0  0  0
  1  2  3  0  0  0  0
  1 19  1  0  0  0  0
  2  3  1  0  0  0  0
  3  4  1  0  0  0  0
  3 20  1  0  0  0  0
  3 21  1  0  0  0  0
  4  5  1  0  0  0  0
  4 22  1  0  0  0  0
  5  6  2  0  0  0  0
  5  7  1  0  0  0  0
  7 18  1  0  0  0  0
  7  8  2  0  0  0  0
  8  9  1  0  0  0  0
  8 23  1  0  0  0  0
  9 10  2  0  0  0  0
  9 24  1  0  0  0  0
 10 11  1  0  0  0  0
 10 17  1  0  0  0  0
 11 12  1  0  0  0  0
 11 25  1  0  0  0  0
 12 13  1  0  0  0  0
 12 14  1  0  0  0  0
 12 26  1  0  0  0  0
 13 27  1  0  0  0  0
 13 28  1  0  0  0  0
 13 29  1  0  0  0  0
 14 15  1  0  0  0  0
 14 30  1  0  0  0  0
 14 31  1  0  0  0  0
 15 16  1  0  0  0  0
 16 32  1  0  0  0  0
 16 33  1  0  0  0  0
 16 34  1  0  0  0  0
 17 18  2  0  0  0  0
 18 35  1  0  0  0  0
M  END
> <s_m_source_file>
AV-unprocessed.smi

> <i_m_source_file_index>
3239

> <i_lp_mmshare_version>
43012

> <i_f3d_flags>
0

> <s_epik_input>
W0NIXSNDW0NIMl1bTkhdQyg9TyljMVtjSF1bY0hdYyhuW2NIXTEpW05IXVtDQEhdKFtDSDNdKVtDSDJdT1tDSDNd

> <s_epik_cmdline>
J2VwaWtfcHl0aG9uJywgJy1waCcsICc3LjAnLCAnLXRuJywgJzgnLCAnLW1hJywgJzIwMCcsICctbWV0YWxfYmluZGluZycsICctaW1hZScsICc8aW5maWxlLm1hZT4nLCAnLW9tYWUnLCAnPG91dGZpbGUubWFlPic=

> <r_lp_tautomer_probability>
1

> <r_epik_Ionization_Penalty>
0.00321854

> <r_epik_Ionization_Penalty_Charging>
0

> <r_epik_Ionization_Penalty_Neutral>
0.00321854

> <r_epik_State_Penalty>
0.00226446

> <r_epik_Charging_Adjusted_Penalty>
0.00226446

> <i_epik_Tot_Q>
0

> <i_epik_Tot_abs_Q>
0

> <r_epik_Metal_State_Penalty>
-0

> <b_epik_Metal_Only>
0

> <s_lp_Force_Field>
OPLS_2005

> <r_lp_Energy>
6.08626

> <b_lp_Chiralities_Consistent>
1

> <s_lp_Variant>
AV-unprocessed.smi:3239-1

> <Gold.Version>
5.8.1

> <Gold.Id.Protein>
6NUR|6NUR_protein|mol2

> <Gold.PLP.Fitness>
44.1705

> <Gold.PLP.PLP>
-40.9761

> <Gold.PLP.part.hbond>
-3.0000

> <Gold.PLP.part.metal>
0.0000

> <Gold.PLP.part.buried>
-4.1189

> <Gold.PLP.part.nonpolar>
-34.9744

> <Gold.PLP.part.repulsive>
0.3175

> <Gold.PLP.ligand.clash>
0.0000

> <Gold.PLP.ligand.torsion>
1.4305

> <Gold.PLP.Chemscore.Hbond>
2.0000

> <Gold.PLP.Chemscore.CHOScore>
0.0000

> <Gold.PLP.Chemscore.Metal>
0.0000

> <Gold.Chemscore.Hbonds>
donor molecule, donor type, donor heavy atom, donor atom, acceptor molecule, acceptor atom, score
      L1  H    11    25       P1  7948  1.00
      P1  H  7997  8010       L1     6  1.00

> <Gold.PLP.Chemscore.Internal.Correction>
0.0553

> <Gold.Rescore>
     Score         DG    S(hbond)    S(metal)    S(lipo)     H(rot)  DE(clash)    DE(int)     intcor
     17.74     -18.87       1.99        0.00      93.19       1.62       0.01       1.13       ----

> <Gold.Chemscore.Fitness>
17.7407

> <Gold.Chemscore.DG>
-18.8747

> <Gold.Chemscore.ZeroCoef>
-5.4800

> <Gold.Chemscore.Hbond>
1.9870

> <Gold.Chemscore.Metal>
0.0000

> <Gold.Chemscore.Lipo>
93.1851

> <Gold.Chemscore.Internal_Hbond>
0.0000

> <Gold.Chemscore.DEClash>
0.0085

> <Gold.Chemscore.DEInternal>
1.1255

> <Gold.Chemscore.Rot>
1.6190

> <Gold.Chemscore.Internal.Correction>
   9.000000E+99

> <Gold.Chemscore.Hbonds>
donor molecule, donor type, donor heavy atom, donor atom, acceptor molecule, acceptor atom, score
      L1  H    11    25       P1  7948  1.00
      P1  H  7997  8010       L1     6  0.90

> <Gold.Chemscore.Hbond.Weighted>
-6.6367

> <Gold.Chemscore.Metal.Weighted>
-0.0000

> <Gold.Chemscore.Lipo.Weighted>
-10.9027

> <Gold.Chemscore.Internal_Hbond.Weighted>
0.0000

> <Gold.Chemscore.DEClash.Weighted>
0.0085

> <Gold.Chemscore.DEInternal.Weighted>
1.1255

> <Gold.Chemscore.Rot.Weighted>
4.1447

> <Gold.Chemscore.Internal.Correction.Weighted>
   9.000000E+99

> <Gold.Protein.RotatedTorsions>
[ 6907 6896 6895 6894 ] final   69.61 input  -60.11 | X-H torsion
[ 7974 7965 7964 7962 ] final   31.57 input  175.53 | X-H torsion
[ 8008 7997 7996 7995 ] final   44.10 input   59.86 | X-H torsion
[ 10167 10162 10161 10158 ] final  -31.64 input  -65.29 | X-H torsion
[ 10718 10713 10712 10709 ] final  170.61 input   66.30 | X-H torsion
[ 10763 10752 10751 10750 ] final  -30.36 input  -60.55 | X-H torsion
[ 11005 11000 10999 10996 ] final   68.10 input  -57.11 | X-H torsion

> <Gold.Protein.ActiveResidues>
 VAL166  LYS551  ARG553  GLY616  TRP617  ASP618  TYR619  PRO620  LYS621  CYS622 
 ASP623  PHE694  ASN695  SER759  ASP760  ASP761  ALA762  ILE779  LEU786  VAL792 
 PHE793  MET794  SER795  GLU796  ALA797  LYS798  CYS799  TRP800  GLU811  SER814 

> <Gold.Protein.RotatedAtoms>
  152.4697  134.4990  159.9718 H   0  0  0  0  0  0  0  0  0  0  0  0  # atno 6907 bound_to 6896
  151.5020  133.3496  159.2878 H   0  0  0  0  0  0  0  0  0  0  0  0  # atno 6908 bound_to 6896
  150.8700  134.8100  159.7209 H   0  0  0  0  0  0  0  0  0  0  0  0  # atno 6909 bound_to 6896
  146.1542  139.6639  142.9078 H   0  0  0  0  0  0  0  0  0  0  0  0  # atno 7974 bound_to 7965
  155.3137  140.3392  155.4243 H   0  0  0  0  0  0  0  0  0  0  0  0  # atno 8008 bound_to 7997
  156.1943  140.1709  156.8068 H   0  0  0  0  0  0  0  0  0  0  0  0  # atno 8009 bound_to 7997
  154.5479  140.0711  156.8604 H   0  0  0  0  0  0  0  0  0  0  0  0  # atno 8010 bound_to 7997
  140.7233  143.3755  151.1698 H   0  0  0  0  0  0  0  0  0  0  0  0  # atno 10167 bound_to 10162
  157.0056  131.0189  151.2818 H   0  0  0  0  0  0  0  0  0  0  0  0  # atno 10718 bound_to 10713
  153.7798  135.6906  153.4890 H   0  0  0  0  0  0  0  0  0  0  0  0  # atno 10763 bound_to 10752
  153.1819  135.4503  155.0038 H   0  0  0  0  0  0  0  0  0  0  0  0  # atno 10764 bound_to 10752
  154.8086  135.3367  154.7301 H   0  0  0  0  0  0  0  0  0  0  0  0  # atno 10765 bound_to 10752
  139.9731  134.6866  156.0406 H   0  0  0  0  0  0  0  0  0  0  0  0  # atno 11005 bound_to 11000
  145.4750  141.0437  143.2677 LP  0  0  0  0  0  0  0  0  0  0  0  0  # atno 17320 bound_to 7965
  144.7942  139.6268  143.7100 LP  0  0  0  0  0  0  0  0  0  0  0  0  # atno 17321 bound_to 7965
  139.7334  143.9036  152.3027 LP  0  0  0  0  0  0  0  0  0  0  0  0  # atno 17342 bound_to 10162
  139.8833  144.7006  150.8853 LP  0  0  0  0  0  0  0  0  0  0  0  0  # atno 17343 bound_to 10162
  157.5358  130.8088  149.7970 LP  0  0  0  0  0  0  0  0  0  0  0  0  # atno 17370 bound_to 10713
  156.0155  130.3815  150.2126 LP  0  0  0  0  0  0  0  0  0  0  0  0  # atno 17371 bound_to 10713
  141.1410  133.6565  156.3730 LP  0  0  0  0  0  0  0  0  0  0  0  0  # atno 17394 bound_to 11000
  140.5250  134.6267  157.5331 LP  0  0  0  0  0  0  0  0  0  0  0  0  # atno 17395 bound_to 11000

$$$$
