AV-unprocessed.smi:20|AV-procd|sdf|115|dock7
  -GOLD-   2262015283D 1   1.00000     0.00000
 Structure written by MMmdl.
 57 61  0  0  0  0  0  0  0  0  1 V2000
  143.5316  134.3071  150.8880 O   0  0  0  0  0  0  0  0  0  0  0  0
  144.3131  133.3823  150.6780 C   0  0  0  0  0  0  0  0  0  0  0  0
  144.6401  132.3048  151.6980 C   0  0  0  0  0  0  0  0  0  0  0  0
  145.9082  131.6365  151.1165 C   0  0  2  0  0  0  0  0  0  0  0  0
  145.9533  130.1093  151.3521 C   0  0  0  0  0  0  0  0  0  0  0  0
  146.1747  129.7764  152.8364 C   0  0  0  0  0  0  0  0  0  0  0  0
  147.4386  130.4650  153.3712 C   0  0  0  0  0  0  0  0  0  0  0  0
  147.3952  131.8997  153.1040 N   0  0  0  0  0  0  0  0  0  0  0  0
  148.1839  132.7292  153.8333 C   0  0  0  0  0  0  0  0  0  0  0  0
  149.3770  132.2367  154.2567 N   0  0  0  0  0  0  0  0  0  0  0  0
  150.2078  132.9959  154.9757 C   0  0  0  0  0  0  0  0  0  0  0  0
  150.0436  134.2544  155.3842 N   0  0  0  0  0  0  0  0  0  0  0  0
  148.8444  134.7551  154.9724 C   0  0  0  0  0  0  0  0  0  0  0  0
  147.8645  134.0727  154.1943 C   0  0  0  0  0  0  0  0  0  0  0  0
  146.7769  134.9130  153.9775 N   0  0  0  0  0  0  0  0  0  0  0  0
  147.0956  136.0221  154.5856 C   0  0  0  0  0  0  0  0  0  0  0  0
  148.3111  136.0060  155.2301 N   0  0  0  0  0  0  0  0  0  0  0  0
  148.9079  137.0952  155.9827 C   0  0  0  0  0  0  0  0  0  0  0  0
  150.1252  137.7783  155.2972 C   0  0  1  0  0  0  0  0  0  0  0  0
  149.7153  139.2000  154.8417 C   0  0  0  0  0  0  0  0  0  0  0  0
  150.4682  139.6209  153.7225 O   0  0  0  0  0  0  0  0  0  0  0  0
  151.3990  137.8113  156.1957 C   0  0  2  0  0  0  0  0  0  0  0  0
  151.1858  138.3541  157.6016 C   0  0  0  0  0  0  0  0  0  0  0  0
  152.6024  138.6954  158.0375 C   0  0  0  0  0  0  0  0  0  0  0  0
  153.2071  139.2267  156.8704 O   0  0  0  0  0  0  0  0  0  0  0  0
  152.5339  138.7342  155.7155 C   0  0  0  0  0  0  0  0  0  0  0  0
  147.1892  132.2822  151.7058 C   0  0  0  0  0  0  0  0  0  0  0  0
  145.8104  131.9753  149.6108 C   0  0  0  0  0  0  0  0  0  0  0  0
  144.9883  133.1687  149.5511 N   0  0  0  0  0  0  0  0  0  0  0  0
  144.7915  132.7265  152.6923 H   0  0  0  0  0  0  0  0  0  0  0  0
  143.8015  131.6093  151.7471 H   0  0  0  0  0  0  0  0  0  0  0  0
  145.0344  129.6399  150.9991 H   0  0  0  0  0  0  0  0  0  0  0  0
  146.7635  129.6746  150.7648 H   0  0  0  0  0  0  0  0  0  0  0  0
  145.3100  130.0961  153.4191 H   0  0  0  0  0  0  0  0  0  0  0  0
  146.2551  128.6973  152.9701 H   0  0  0  0  0  0  0  0  0  0  0  0
  147.5231  130.2827  154.4432 H   0  0  0  0  0  0  0  0  0  0  0  0
  148.3216  130.0376  152.8946 H   0  0  0  0  0  0  0  0  0  0  0  0
  151.1362  132.5270  155.2668 H   0  0  0  0  0  0  0  0  0  0  0  0
  146.4407  136.8810  154.5942 H   0  0  0  0  0  0  0  0  0  0  0  0
  148.1147  137.8209  156.1644 H   0  0  0  0  0  0  0  0  0  0  0  0
  149.2018  136.7164  156.9625 H   0  0  0  0  0  0  0  0  0  0  0  0
  150.3750  137.2174  154.3957 H   0  0  0  0  0  0  0  0  0  0  0  0
  148.6530  139.2381  154.5978 H   0  0  0  0  0  0  0  0  0  0  0  0
  149.8915  139.9373  155.6234 H   0  0  0  0  0  0  0  0  0  0  0  0
  149.9299  139.5405  152.9497 H   0  0  0  0  0  0  0  0  0  0  0  0
  151.7933  136.7981  156.2902 H   0  0  0  0  0  0  0  0  0  0  0  0
  150.5757  139.2583  157.5763 H   0  0  0  0  0  0  0  0  0  0  0  0
  150.7134  137.6376  158.2742 H   0  0  0  0  0  0  0  0  0  0  0  0
  152.6322  139.4045  158.8648 H   0  0  0  0  0  0  0  0  0  0  0  0
  153.1388  137.7942  158.3376 H   0  0  0  0  0  0  0  0  0  0  0  0
  153.2421  138.2133  155.0727 H   0  0  0  0  0  0  0  0  0  0  0  0
  152.1440  139.5914  155.1656 H   0  0  0  0  0  0  0  0  0  0  0  0
  148.0628  131.9537  151.1409 H   0  0  0  0  0  0  0  0  0  0  0  0
  147.1426  133.3657  151.5911 H   0  0  0  0  0  0  0  0  0  0  0  0
  146.7838  132.1410  149.1477 H   0  0  0  0  0  0  0  0  0  0  0  0
  145.3067  131.1843  149.0534 H   0  0  0  0  0  0  0  0  0  0  0  0
  144.9313  133.7558  148.7315 H   0  0  0  0  0  0  0  0  0  0  0  0
  1  2  2  0  0  0  0
  2 29  1  0  0  0  0
  2  3  1  0  0  0  0
  3  4  1  0  0  0  0
  3 30  1  0  0  0  0
  3 31  1  0  0  0  0
  4 27  1  0  0  0  0
  4  5  1  0  0  0  0
  4 28  1  0  0  0  0
  5  6  1  0  0  0  0
  5 32  1  0  0  0  0
  5 33  1  0  0  0  0
  6  7  1  0  0  0  0
  6 34  1  0  0  0  0
  6 35  1  0  0  0  0
  7  8  1  0  0  0  0
  7 36  1  0  0  0  0
  7 37  1  0  0  0  0
  8  9  1  0  0  0  0
  8 27  1  0  0  0  0
  9 14  1  0  0  0  0
  9 10  2  0  0  0  0
 10 11  1  0  0  0  0
 11 12  2  0  0  0  0
 11 38  1  0  0  0  0
 12 13  1  0  0  0  0
 13 17  1  0  0  0  0
 13 14  2  0  0  0  0
 14 15  1  0  0  0  0
 15 16  2  0  0  0  0
 16 17  1  0  0  0  0
 16 39  1  0  0  0  0
 17 18  1  0  0  0  0
 18 19  1  0  0  0  0
 18 40  1  0  0  0  0
 18 41  1  0  0  0  0
 19 20  1  0  0  0  0
 19 22  1  0  0  0  0
 19 42  1  0  0  0  0
 20 21  1  0  0  0  0
 20 43  1  0  0  0  0
 20 44  1  0  0  0  0
 21 45  1  0  0  0  0
 22 26  1  0  0  0  0
 22 23  1  0  0  0  0
 22 46  1  0  0  0  0
 23 24  1  0  0  0  0
 23 47  1  0  0  0  0
 23 48  1  0  0  0  0
 24 25  1  0  0  0  0
 24 49  1  0  0  0  0
 24 50  1  0  0  0  0
 25 26  1  0  0  0  0
 26 51  1  0  0  0  0
 26 52  1  0  0  0  0
 27 53  1  0  0  0  0
 27 54  1  0  0  0  0
 28 29  1  0  0  0  0
 28 55  1  0  0  0  0
 28 56  1  0  0  0  0
 29 57  1  0  0  0  0
M  END
> <s_m_source_file>
AV-unprocessed.smi

> <i_m_source_file_index>
20

> <i_lp_mmshare_version>
43012

> <i_f3d_flags>
0

> <s_epik_input>
W0NIMl0xW05IXUMoPU8pW0NIMl1bQ0BAXTEyW0NIMl1bQ0gyXVtDSDJdTihbQ0gyXTIpYyhuW2NIXW4zKWMoYzM0KW5bY0hdbjRbQ0gyXVtDQEhdKFtDSDJdW09IXSlbQ0BASF01W0NIMl1bQ0gyXU9bQ0gyXTU=

> <s_epik_cmdline>
J2VwaWtfcHl0aG9uJywgJy1waCcsICc3LjAnLCAnLXRuJywgJzgnLCAnLW1hJywgJzIwMCcsICctbWV0YWxfYmluZGluZycsICctaW1hZScsICc8aW5maWxlLm1hZT4nLCAnLW9tYWUnLCAnPG91dGZpbGUubWFlPic=

> <r_lp_tautomer_probability>
1

> <r_epik_Ionization_Penalty>
0.0019697

> <r_epik_Ionization_Penalty_Charging>
0

> <r_epik_Ionization_Penalty_Neutral>
0.0019697

> <r_epik_State_Penalty>
0.00113613

> <r_epik_Charging_Adjusted_Penalty>
0.00113613

> <i_epik_Tot_Q>
0

> <i_epik_Tot_abs_Q>
0

> <r_epik_Metal_State_Penalty>
-0

> <b_epik_Metal_Only>
0

> <s_lp_Force_Field>
OPLS_2005

> <r_lp_Energy>
60.5509

> <b_lp_Chiralities_Consistent>
1

> <s_lp_Variant>
AV-unprocessed.smi:20-3

> <Gold.Version>
5.8.1

> <Gold.Id.Protein>
6NUR|6NUR_protein|mol2

> <Gold.PLP.Fitness>
44.2381

> <Gold.PLP.PLP>
-37.0137

> <Gold.PLP.part.hbond>
-3.9960

> <Gold.PLP.part.metal>
0.0000

> <Gold.PLP.part.buried>
-3.2782

> <Gold.PLP.part.nonpolar>
-32.4878

> <Gold.PLP.part.repulsive>
2.2484

> <Gold.PLP.ligand.clash>
0.0000

> <Gold.PLP.ligand.torsion>
2.1118

> <Gold.PLP.Chemscore.Hbond>
3.7120

> <Gold.PLP.Chemscore.CHOScore>
0.0000

> <Gold.PLP.Chemscore.Metal>
0.0000

> <Gold.Chemscore.Hbonds>
donor molecule, donor type, donor heavy atom, donor atom, acceptor molecule, acceptor atom, score
      L1  H    21    45       P1  7957  0.96
      L1  H    29    57       P1  7921  0.77
      P1  H  7989  7998       L1    21  0.96
      P1  H  7997  8009       L1    25  0.84

> <Gold.PLP.Chemscore.Internal.Correction>
0.3119

> <Gold.Rescore>
     Score         DG    S(hbond)    S(metal)    S(lipo)     H(rot)  DE(clash)    DE(int)     intcor
     15.76     -20.33       3.07        0.00      92.45       2.43       2.34       2.23       ----

> <Gold.Chemscore.Fitness>
15.7577

> <Gold.Chemscore.DG>
-20.3331

> <Gold.Chemscore.ZeroCoef>
-5.4800

> <Gold.Chemscore.Hbond>
3.0718

> <Gold.Chemscore.Metal>
0.0000

> <Gold.Chemscore.Lipo>
92.4489

> <Gold.Chemscore.Internal_Hbond>
0.0000

> <Gold.Chemscore.DEClash>
2.3438

> <Gold.Chemscore.DEInternal>
2.2316

> <Gold.Chemscore.Rot>
2.4309

> <Gold.Chemscore.Internal.Correction>
   9.000000E+99

> <Gold.Chemscore.Hbonds>
donor molecule, donor type, donor heavy atom, donor atom, acceptor molecule, acceptor atom, score
      L1  H    21    45       P1  7957  0.92
      L1  H    29    57       P1  7921  0.72
      P1  H  7989  7998       L1    21  0.65
      P1  H  7997  8009       L1    25  0.72

> <Gold.Chemscore.Hbond.Weighted>
-10.2597

> <Gold.Chemscore.Metal.Weighted>
-0.0000

> <Gold.Chemscore.Lipo.Weighted>
-10.8165

> <Gold.Chemscore.Internal_Hbond.Weighted>
0.0000

> <Gold.Chemscore.DEClash.Weighted>
2.3438

> <Gold.Chemscore.DEInternal.Weighted>
2.2316

> <Gold.Chemscore.Rot.Weighted>
6.2231

> <Gold.Chemscore.Internal.Correction.Weighted>
   9.000000E+99

> <Gold.Protein.RotatedTorsions>
[ 6907 6896 6895 6894 ] final   16.31 input  -60.11 | X-H torsion
[ 7974 7965 7964 7962 ] final    5.54 input  175.53 | X-H torsion
[ 8008 7997 7996 7995 ] final -173.29 input   59.86 | X-H torsion
[ 10167 10162 10161 10158 ] final  162.88 input  -65.29 | X-H torsion
[ 10718 10713 10712 10709 ] final  113.15 input   66.30 | X-H torsion
[ 10763 10752 10751 10750 ] final -103.43 input  -60.55 | X-H torsion
[ 11005 11000 10999 10996 ] final   46.45 input  -57.11 | X-H torsion

> <Gold.Protein.ActiveResidues>
 VAL166  LYS551  ARG553  GLY616  TRP617  ASP618  TYR619  PRO620  LYS621  CYS622 
 ASP623  PHE694  ASN695  SER759  ASP760  ASP761  ALA762  ILE779  LEU786  VAL792 
 PHE793  MET794  SER795  GLU796  ALA797  LYS798  CYS799  TRP800  GLU811  SER814 

> <Gold.Protein.RotatedAtoms>
  151.8318  135.0619  160.0437 H   0  0  0  0  0  0  0  0  0  0  0  0  # atno 6907 bound_to 6896
  152.2874  133.5524  159.5544 H   0  0  0  0  0  0  0  0  0  0  0  0  # atno 6908 bound_to 6896
  150.7215  134.0393  159.3802 H   0  0  0  0  0  0  0  0  0  0  0  0  # atno 6909 bound_to 6896
  146.2440  140.0369  142.8385 H   0  0  0  0  0  0  0  0  0  0  0  0  # atno 7974 bound_to 7965
  155.9555  140.1134  157.0940 H   0  0  0  0  0  0  0  0  0  0  0  0  # atno 8008 bound_to 7997
  154.4119  140.1192  156.5176 H   0  0  0  0  0  0  0  0  0  0  0  0  # atno 8009 bound_to 7997
  155.6788  140.3473  155.4849 H   0  0  0  0  0  0  0  0  0  0  0  0  # atno 8010 bound_to 7997
  139.4866  144.4394  151.8971 H   0  0  0  0  0  0  0  0  0  0  0  0  # atno 10167 bound_to 10162
  157.6354  131.0979  150.6999 H   0  0  0  0  0  0  0  0  0  0  0  0  # atno 10718 bound_to 10713
  154.7807  135.4824  153.9838 H   0  0  0  0  0  0  0  0  0  0  0  0  # atno 10763 bound_to 10752
  153.1489  135.6787  153.8919 H   0  0  0  0  0  0  0  0  0  0  0  0  # atno 10764 bound_to 10752
  153.8570  135.3160  155.3414 H   0  0  0  0  0  0  0  0  0  0  0  0  # atno 10765 bound_to 10752
  140.1368  134.4635  155.8480 H   0  0  0  0  0  0  0  0  0  0  0  0  # atno 11005 bound_to 11000
  145.1104  140.9402  143.4659 LP  0  0  0  0  0  0  0  0  0  0  0  0  # atno 17320 bound_to 7965
  145.0581  139.3127  143.5894 LP  0  0  0  0  0  0  0  0  0  0  0  0  # atno 17321 bound_to 7965
  140.3845  144.2694  150.5905 LP  0  0  0  0  0  0  0  0  0  0  0  0  # atno 17342 bound_to 10162
  140.5203  143.2267  151.8399 LP  0  0  0  0  0  0  0  0  0  0  0  0  # atno 17343 bound_to 10162
  156.7332  130.4716  149.5495 LP  0  0  0  0  0  0  0  0  0  0  0  0  # atno 17370 bound_to 10713
  156.1588  130.6360  151.0692 LP  0  0  0  0  0  0  0  0  0  0  0  0  # atno 17371 bound_to 10713
  141.2179  133.6817  156.7172 LP  0  0  0  0  0  0  0  0  0  0  0  0  # atno 17394 bound_to 11000
  140.2773  134.8345  157.3901 LP  0  0  0  0  0  0  0  0  0  0  0  0  # atno 17395 bound_to 11000

$$$$
