AV-unprocessed.smi:3240|AV-procd|sdf|12384|dock7
  -GOLD-   2272018253D 1   1.00000     0.00000
 Structure written by MMmdl.
 43 44  0  0  0  0  0  0  0  0  1 V2000
  144.0903  132.7567  148.6963 C   0  0  0  0  0  0  0  0  0  0  0  0
  144.1655  133.3214  150.0855 C   0  0  0  0  0  0  0  0  0  0  0  0
  143.6382  132.7634  151.2847 C   0  0  0  0  0  0  0  0  0  0  0  0
  143.8741  133.5137  152.3484 N   0  0  0  0  0  0  0  0  0  0  0  0
  144.5523  134.5774  151.8675 N   0  0  0  0  0  0  0  0  0  0  0  0
  144.9835  135.6319  152.7689 C   0  0  0  0  0  0  0  0  0  0  0  0
  144.1804  136.9384  152.5967 C   0  0  1  0  0  0  0  0  0  0  0  0
  143.1288  137.1378  153.7083 C   0  0  0  0  0  0  0  0  0  0  0  0
  145.1139  138.0665  152.5203 N   0  0  0  0  0  0  0  0  0  0  0  0
  146.2214  138.0405  153.4808 C   0  0  0  0  0  0  0  0  0  0  0  0
  147.1091  139.3029  153.3954 C   0  0  0  0  0  0  0  0  0  0  0  0
  147.3560  139.5390  152.0210 O   0  0  0  0  0  0  0  0  0  0  0  0
  146.4427  140.5484  154.0342 C   0  0  0  0  0  0  0  0  0  0  0  0
  147.3758  141.7724  154.0792 C   0  0  0  0  0  0  0  0  0  0  0  0
  148.7002  141.4448  154.7821 C   0  0  0  0  0  0  0  0  0  0  0  0
  149.3941  140.2510  154.1128 C   0  0  0  0  0  0  0  0  0  0  0  0
  148.4715  139.0197  154.0724 C   0  0  0  0  0  0  0  0  0  0  0  0
  144.7463  134.4845  150.5057 C   0  0  0  0  0  0  0  0  0  0  0  0
  144.1197  131.6670  148.7015 H   0  0  0  0  0  0  0  0  0  0  0  0
  144.9192  133.0965  148.0752 H   0  0  0  0  0  0  0  0  0  0  0  0
  143.1690  133.0515  148.1935 H   0  0  0  0  0  0  0  0  0  0  0  0
  143.0944  131.8389  151.4125 H   0  0  0  0  0  0  0  0  0  0  0  0
  144.9069  135.2727  153.7970 H   0  0  0  0  0  0  0  0  0  0  0  0
  146.0428  135.8154  152.5836 H   0  0  0  0  0  0  0  0  0  0  0  0
  143.6475  136.8664  151.6478 H   0  0  0  0  0  0  0  0  0  0  0  0
  142.4451  136.2912  153.7688 H   0  0  0  0  0  0  0  0  0  0  0  0
  142.5092  138.0163  153.5334 H   0  0  0  0  0  0  0  0  0  0  0  0
  143.6024  137.2493  154.6843 H   0  0  0  0  0  0  0  0  0  0  0  0
  144.6019  138.9373  152.6195 H   0  0  0  0  0  0  0  0  0  0  0  0
  145.8160  137.9611  154.4903 H   0  0  0  0  0  0  0  0  0  0  0  0
  146.8421  137.1577  153.3288 H   0  0  0  0  0  0  0  0  0  0  0  0
  148.2612  139.7925  151.9215 H   0  0  0  0  0  0  0  0  0  0  0  0
  145.5319  140.8174  153.4981 H   0  0  0  0  0  0  0  0  0  0  0  0
  146.1345  140.3060  155.0521 H   0  0  0  0  0  0  0  0  0  0  0  0
  147.5767  142.1203  153.0652 H   0  0  0  0  0  0  0  0  0  0  0  0
  146.8798  142.5964  154.5924 H   0  0  0  0  0  0  0  0  0  0  0  0
  149.3569  142.3151  154.7635 H   0  0  0  0  0  0  0  0  0  0  0  0
  148.5126  141.2192  155.8326 H   0  0  0  0  0  0  0  0  0  0  0  0
  149.6946  140.5225  153.1002 H   0  0  0  0  0  0  0  0  0  0  0  0
  150.3111  140.0077  154.6496 H   0  0  0  0  0  0  0  0  0  0  0  0
  148.3007  138.6830  155.0959 H   0  0  0  0  0  0  0  0  0  0  0  0
  148.9811  138.1975  153.5680 H   0  0  0  0  0  0  0  0  0  0  0  0
  145.2739  135.2482  149.9539 H   0  0  0  0  0  0  0  0  0  0  0  0
  1  2  1  0  0  0  0
  1 19  1  0  0  0  0
  1 20  1  0  0  0  0
  1 21  1  0  0  0  0
  2 18  2  0  0  0  0
  2  3  1  0  0  0  0
  3  4  2  0  0  0  0
  3 22  1  0  0  0  0
  4  5  1  0  0  0  0
  5  6  1  0  0  0  0
  5 18  1  0  0  0  0
  6  7  1  0  0  0  0
  6 23  1  0  0  0  0
  6 24  1  0  0  0  0
  7  8  1  0  0  0  0
  7  9  1  0  0  0  0
  7 25  1  0  0  0  0
  8 26  1  0  0  0  0
  8 27  1  0  0  0  0
  8 28  1  0  0  0  0
  9 10  1  0  0  0  0
  9 29  1  0  0  0  0
 10 11  1  0  0  0  0
 10 30  1  0  0  0  0
 10 31  1  0  0  0  0
 11 17  1  0  0  0  0
 11 12  1  0  0  0  0
 11 13  1  0  0  0  0
 12 32  1  0  0  0  0
 13 14  1  0  0  0  0
 13 33  1  0  0  0  0
 13 34  1  0  0  0  0
 14 15  1  0  0  0  0
 14 35  1  0  0  0  0
 14 36  1  0  0  0  0
 15 16  1  0  0  0  0
 15 37  1  0  0  0  0
 15 38  1  0  0  0  0
 16 17  1  0  0  0  0
 16 39  1  0  0  0  0
 16 40  1  0  0  0  0
 17 41  1  0  0  0  0
 17 42  1  0  0  0  0
 18 43  1  0  0  0  0
M  END
> <s_m_source_file>
AV-unprocessed.smi

> <i_m_source_file_index>
3240

> <i_lp_mmshare_version>
43012

> <i_f3d_flags>
0

> <s_epik_input>
W0NIM11jMVtjSF1ubihbY0hdMSlbQ0gyXVtDQEhdKFtDSDNdKVtOSF1bQ0gyXUMyKFtPSF0pW0NIMl1bQ0gyXVtDSDJdW0NIMl1bQ0gyXTI=

> <s_epik_cmdline>
J2VwaWtfcHl0aG9uJywgJy1waCcsICc3LjAnLCAnLXRuJywgJzgnLCAnLW1hJywgJzIwMCcsICctbWV0YWxfYmluZGluZycsICctaW1hZScsICc8aW5maWxlLm1hZT4nLCAnLW9tYWUnLCAnPG91dGZpbGUubWFlPic=

> <r_lp_tautomer_probability>
1

> <r_epik_Ionization_Penalty>
2.35969

> <r_epik_Ionization_Penalty_Charging>
0

> <r_epik_Ionization_Penalty_Neutral>
2.35969

> <r_epik_State_Penalty>
2.51455

> <r_epik_Charging_Adjusted_Penalty>
2.51455

> <i_epik_Tot_Q>
0

> <i_epik_Tot_abs_Q>
0

> <r_epik_Metal_State_Penalty>
2.51446

> <b_epik_Metal_Only>
0

> <s_lp_Force_Field>
OPLS_2005

> <r_lp_Energy>
22.6589

> <b_lp_Chiralities_Consistent>
1

> <s_lp_Variant>
AV-unprocessed.smi:3240-4

> <Gold.Version>
5.8.1

> <Gold.Id.Protein>
6NUR|6NUR_protein|mol2

> <Gold.PLP.Fitness>
41.0719

> <Gold.PLP.PLP>
-34.7022

> <Gold.PLP.part.hbond>
-2.5746

> <Gold.PLP.part.metal>
0.0000

> <Gold.PLP.part.buried>
-1.9374

> <Gold.PLP.part.nonpolar>
-30.2310

> <Gold.PLP.part.repulsive>
0.1638

> <Gold.PLP.ligand.clash>
0.0000

> <Gold.PLP.ligand.torsion>
1.1366

> <Gold.PLP.Chemscore.Hbond>
1.9913

> <Gold.PLP.Chemscore.CHOScore>
0.8684

> <Gold.PLP.Chemscore.Metal>
0.0000

> <Gold.Chemscore.Hbonds>
donor molecule, donor type, donor heavy atom, donor atom, acceptor molecule, acceptor atom, score
      L1  H     9    29       P1 10175  1.00
      L1  H    12    32       P1  7957  1.00
      L1  C    18    43       P1  7921  0.83

> <Gold.PLP.Chemscore.Internal.Correction>
0.0640

> <Gold.Rescore>
     Score         DG    S(hbond)    S(metal)    S(lipo)     H(rot)  DE(clash)    DE(int)     intcor
     15.84     -17.28       1.99        0.00      88.86       2.04       0.30       1.14       ----

> <Gold.Chemscore.Fitness>
15.8373

> <Gold.Chemscore.DG>
-17.2758

> <Gold.Chemscore.ZeroCoef>
-5.4800

> <Gold.Chemscore.Hbond>
1.9862

> <Gold.Chemscore.Metal>
0.0000

> <Gold.Chemscore.Lipo>
88.8583

> <Gold.Chemscore.Internal_Hbond>
0.0000

> <Gold.Chemscore.DEClash>
0.3034

> <Gold.Chemscore.DEInternal>
1.1351

> <Gold.Chemscore.Rot>
2.0447

> <Gold.Chemscore.Internal.Correction>
   9.000000E+99

> <Gold.Chemscore.Hbonds>
donor molecule, donor type, donor heavy atom, donor atom, acceptor molecule, acceptor atom, score
      L1  H     9    29       P1 10175  1.00
      L1  H    12    32       P1  7957  0.93

> <Gold.Chemscore.Hbond.Weighted>
-6.6338

> <Gold.Chemscore.Metal.Weighted>
-0.0000

> <Gold.Chemscore.Lipo.Weighted>
-10.3964

> <Gold.Chemscore.Internal_Hbond.Weighted>
0.0000

> <Gold.Chemscore.DEClash.Weighted>
0.3034

> <Gold.Chemscore.DEInternal.Weighted>
1.1351

> <Gold.Chemscore.Rot.Weighted>
5.2344

> <Gold.Chemscore.Internal.Correction.Weighted>
   9.000000E+99

> <Gold.Protein.RotatedTorsions>
[ 6907 6896 6895 6894 ] final  -49.67 input  -60.11 | X-H torsion
[ 7974 7965 7964 7962 ] final  104.18 input  175.53 | X-H torsion
[ 8008 7997 7996 7995 ] final  -62.27 input   59.86 | X-H torsion
[ 10167 10162 10161 10158 ] final  -80.41 input  -65.29 | X-H torsion
[ 10718 10713 10712 10709 ] final   33.68 input   66.30 | X-H torsion
[ 10763 10752 10751 10750 ] final   67.21 input  -60.55 | X-H torsion
[ 11005 11000 10999 10996 ] final  -13.69 input  -57.11 | X-H torsion

> <Gold.Protein.ActiveResidues>
 VAL166  LYS551  ARG553  GLY616  TRP617  ASP618  TYR619  PRO620  LYS621  CYS622 
 ASP623  PHE694  ASN695  SER759  ASP760  ASP761  ALA762  ILE779  LEU786  VAL792 
 PHE793  MET794  SER795  GLU796  ALA797  LYS798  CYS799  TRP800  GLU811  SER814 

> <Gold.Protein.RotatedAtoms>
  150.8782  134.8168  159.7204 H   0  0  0  0  0  0  0  0  0  0  0  0  # atno 6907 bound_to 6896
  152.4760  134.4838  159.9684 H   0  0  0  0  0  0  0  0  0  0  0  0  # atno 6908 bound_to 6896
  151.4917  133.3485  159.2890 H   0  0  0  0  0  0  0  0  0  0  0  0  # atno 6909 bound_to 6896
  145.3361  139.2474  143.3634 H   0  0  0  0  0  0  0  0  0  0  0  0  # atno 7974 bound_to 7965
  154.4491  140.1000  156.6560 H   0  0  0  0  0  0  0  0  0  0  0  0  # atno 8008 bound_to 7997
  155.5345  140.3482  155.4415 H   0  0  0  0  0  0  0  0  0  0  0  0  # atno 8009 bound_to 7997
  156.0641  140.1333  156.9896 H   0  0  0  0  0  0  0  0  0  0  0  0  # atno 8010 bound_to 7997
  140.4506  143.2484  151.8495 H   0  0  0  0  0  0  0  0  0  0  0  0  # atno 10167 bound_to 10162
  157.3009  130.7350  149.6666 H   0  0  0  0  0  0  0  0  0  0  0  0  # atno 10718 bound_to 10713
  153.0175  135.5292  154.6944 H   0  0  0  0  0  0  0  0  0  0  0  0  # atno 10763 bound_to 10752
  154.6070  135.2874  155.0476 H   0  0  0  0  0  0  0  0  0  0  0  0  # atno 10764 bound_to 10752
  154.1512  135.6562  153.5016 H   0  0  0  0  0  0  0  0  0  0  0  0  # atno 10765 bound_to 10752
  140.7787  133.8380  155.9272 H   0  0  0  0  0  0  0  0  0  0  0  0  # atno 11005 bound_to 11000
  146.3026  140.3949  142.8698 LP  0  0  0  0  0  0  0  0  0  0  0  0  # atno 17320 bound_to 7965
  144.8826  140.7420  143.5977 LP  0  0  0  0  0  0  0  0  0  0  0  0  # atno 17321 bound_to 7965
  139.4796  144.5125  151.8913 LP  0  0  0  0  0  0  0  0  0  0  0  0  # atno 17342 bound_to 10162
  140.4212  144.2241  150.5887 LP  0  0  0  0  0  0  0  0  0  0  0  0  # atno 17343 bound_to 10162
  155.9671  130.4280  150.4770 LP  0  0  0  0  0  0  0  0  0  0  0  0  # atno 17370 bound_to 10713
  157.2750  131.0595  151.2235 LP  0  0  0  0  0  0  0  0  0  0  0  0  # atno 17371 bound_to 10713
  140.9504  134.1786  157.4732 LP  0  0  0  0  0  0  0  0  0  0  0  0  # atno 17394 bound_to 11000
  139.8745  134.9907  156.5513 LP  0  0  0  0  0  0  0  0  0  0  0  0  # atno 17395 bound_to 11000

$$$$
