AV-unprocessed.smi:155|AV-procd|sdf|1286|dock2
  -GOLD-   2262018563D 1   1.00000     0.00000
 Structure written by MMmdl.
 64 67  0  0  0  0  0  0  0  0  3 V2000
  145.6391  130.5260  151.6001 C   0  0  0  0  0  0  0  0  0  0  0  0
  146.6990  131.4609  152.0421 N   0  3  0  0  0  0  0  0  0  0  0  0
  147.1773  131.1357  153.4043 C   0  0  0  0  0  0  0  0  0  0  0  0
  146.3112  132.8883  151.9112 C   0  0  0  0  0  0  0  0  0  0  0  0
  147.4581  133.8515  152.2838 C   0  0  0  0  0  0  0  0  0  0  0  0
  146.9957  135.2558  152.4449 N   0  3  1  0  0  0  0  0  0  0  0  0
  146.4759  135.8476  151.1828 C   0  0  0  0  0  0  0  0  0  0  0  0
  146.9984  137.2841  151.0053 C   0  0  0  0  0  0  0  0  0  0  0  0
  146.3515  138.3083  151.9544 C   0  0  0  0  0  0  0  0  0  0  0  0
  146.4576  137.9248  153.3609 N   0  0  0  0  0  0  0  0  0  0  0  0
  147.5799  138.1813  154.1000 C   0  0  0  0  0  0  0  0  0  0  0  0
  148.1995  137.1244  154.6925 N   0  0  0  0  0  0  0  0  0  0  0  0
  149.3016  137.2897  155.4270 C   0  0  0  0  0  0  0  0  0  0  0  0
  149.9589  138.4161  155.6949 N   0  0  0  0  0  0  0  0  0  0  0  0
  149.3551  139.4885  155.1111 C   0  0  0  0  0  0  0  0  0  0  0  0
  148.1757  139.4668  154.3071 C   0  0  0  0  0  0  0  0  0  0  0  0
  147.8869  140.7650  153.8948 N   0  0  0  0  0  0  0  0  0  0  0  0
  148.8252  141.5011  154.4223 C   0  0  0  0  0  0  0  0  0  0  0  0
  149.7496  140.8133  155.1702 N   0  0  0  0  0  0  0  0  0  0  0  0
  150.8950  141.3782  155.8639 C   0  0  0  0  0  0  0  0  0  0  0  0
  150.5704  141.7687  157.3218 C   0  0  1  0  0  0  0  0  0  0  0  0
  150.3388  140.5817  158.0562 O   0  0  0  0  0  0  0  0  0  0  0  0
  151.7171  142.5325  158.0149 C   0  0  1  0  0  0  0  0  0  0  0  0
  151.9273  143.9656  157.5233 C   0  0  0  0  0  0  0  0  0  0  0  0
  152.6273  144.6398  158.6904 C   0  0  0  0  0  0  0  0  0  0  0  0
  152.2828  143.7488  159.8860 C   0  0  0  0  0  0  0  0  0  0  0  0
  151.3913  142.7653  159.3774 O   0  0  0  0  0  0  0  0  0  0  0  0
  145.5355  136.8706  153.7945 C   0  0  0  0  0  0  0  0  0  0  0  0
  146.0848  135.4371  153.6110 C   0  0  0  0  0  0  0  0  0  0  0  0
  144.7402  130.6369  152.2080 H   0  0  0  0  0  0  0  0  0  0  0  0
  145.9797  129.4934  151.6847 H   0  0  0  0  0  0  0  0  0  0  0  0
  145.3704  130.6934  150.5575 H   0  0  0  0  0  0  0  0  0  0  0  0
  146.3873  131.2818  154.1422 H   0  0  0  0  0  0  0  0  0  0  0  0
  148.0238  131.7654  153.6797 H   0  0  0  0  0  0  0  0  0  0  0  0
  147.5092  130.0982  153.4600 H   0  0  0  0  0  0  0  0  0  0  0  0
  145.9453  133.0760  150.9008 H   0  0  0  0  0  0  0  0  0  0  0  0
  145.4752  133.0793  152.5865 H   0  0  0  0  0  0  0  0  0  0  0  0
  147.8738  133.5107  153.2333 H   0  0  0  0  0  0  0  0  0  0  0  0
  148.2671  133.8113  151.5533 H   0  0  0  0  0  0  0  0  0  0  0  0
  146.8191  135.2707  150.3236 H   0  0  0  0  0  0  0  0  0  0  0  0
  145.3861  135.8073  151.1465 H   0  0  0  0  0  0  0  0  0  0  0  0
  148.0826  137.2917  151.1203 H   0  0  0  0  0  0  0  0  0  0  0  0
  146.8076  137.6043  149.9806 H   0  0  0  0  0  0  0  0  0  0  0  0
  146.7477  139.3084  151.7890 H   0  0  0  0  0  0  0  0  0  0  0  0
  145.2932  138.3939  151.7049 H   0  0  0  0  0  0  0  0  0  0  0  0
  149.7152  136.3918  155.8622 H   0  0  0  0  0  0  0  0  0  0  0  0
  148.8695  142.5713  154.2799 H   0  0  0  0  0  0  0  0  0  0  0  0
  151.7157  140.6605  155.8351 H   0  0  0  0  0  0  0  0  0  0  0  0
  151.2256  142.2492  155.2980 H   0  0  0  0  0  0  0  0  0  0  0  0
  149.6636  142.3746  157.3385 H   0  0  0  0  0  0  0  0  0  0  0  0
  151.1729  140.2110  158.3002 H   0  0  0  0  0  0  0  0  0  0  0  0
  152.6566  141.9800  157.9459 H   0  0  0  0  0  0  0  0  0  0  0  0
  152.5048  144.0176  156.5999 H   0  0  0  0  0  0  0  0  0  0  0  0
  150.9643  144.4476  157.3483 H   0  0  0  0  0  0  0  0  0  0  0  0
  153.7068  144.6670  158.5376 H   0  0  0  0  0  0  0  0  0  0  0  0
  152.2800  145.6644  158.8257 H   0  0  0  0  0  0  0  0  0  0  0  0
  153.1782  143.2614  160.2740 H   0  0  0  0  0  0  0  0  0  0  0  0
  151.8178  144.3053  160.6995 H   0  0  0  0  0  0  0  0  0  0  0  0
  145.2189  137.0289  154.8263 H   0  0  0  0  0  0  0  0  0  0  0  0
  144.6196  136.9648  153.2101 H   0  0  0  0  0  0  0  0  0  0  0  0
  145.2508  134.7369  153.5477 H   0  0  0  0  0  0  0  0  0  0  0  0
  146.6347  135.1768  154.5148 H   0  0  0  0  0  0  0  0  0  0  0  0
  147.4891  131.3160  151.4295 H   0  0  0  0  0  0  0  0  0  0  0  0
  147.8272  135.7901  152.6529 H   0  0  0  0  0  0  0  0  0  0  0  0
  1  2  1  0  0  0  0
  1 30  1  0  0  0  0
  1 31  1  0  0  0  0
  1 32  1  0  0  0  0
  2  3  1  0  0  0  0
  2  4  1  0  0  0  0
  2 63  1  0  0  0  0
  3 33  1  0  0  0  0
  3 34  1  0  0  0  0
  3 35  1  0  0  0  0
  4  5  1  0  0  0  0
  4 36  1  0  0  0  0
  4 37  1  0  0  0  0
  5  6  1  0  0  0  0
  5 38  1  0  0  0  0
  5 39  1  0  0  0  0
  6 29  1  0  0  0  0
  6  7  1  0  0  0  0
  6 64  1  0  0  0  0
  7  8  1  0  0  0  0
  7 40  1  0  0  0  0
  7 41  1  0  0  0  0
  8  9  1  0  0  0  0
  8 42  1  0  0  0  0
  8 43  1  0  0  0  0
  9 10  1  0  0  0  0
  9 44  1  0  0  0  0
  9 45  1  0  0  0  0
 10 11  1  0  0  0  0
 10 28  1  0  0  0  0
 11 16  1  0  0  0  0
 11 12  2  0  0  0  0
 12 13  1  0  0  0  0
 13 14  2  0  0  0  0
 13 46  1  0  0  0  0
 14 15  1  0  0  0  0
 15 19  1  0  0  0  0
 15 16  2  0  0  0  0
 16 17  1  0  0  0  0
 17 18  2  0  0  0  0
 18 19  1  0  0  0  0
 18 47  1  0  0  0  0
 19 20  1  0  0  0  0
 20 21  1  0  0  0  0
 20 48  1  0  0  0  0
 20 49  1  0  0  0  0
 21 22  1  0  0  0  0
 21 23  1  0  0  0  0
 21 50  1  0  0  0  0
 22 51  1  0  0  0  0
 23 27  1  0  0  0  0
 23 24  1  0  0  0  0
 23 52  1  0  0  0  0
 24 25  1  0  0  0  0
 24 53  1  0  0  0  0
 24 54  1  0  0  0  0
 25 26  1  0  0  0  0
 25 55  1  0  0  0  0
 25 56  1  0  0  0  0
 26 27  1  0  0  0  0
 26 57  1  0  0  0  0
 26 58  1  0  0  0  0
 28 29  1  0  0  0  0
 28 59  1  0  0  0  0
 28 60  1  0  0  0  0
 29 61  1  0  0  0  0
 29 62  1  0  0  0  0
M  CHG  1   2   1
M  CHG  1   6   1
M  END
> <s_m_source_file>
AV-unprocessed.smi

> <i_m_source_file_index>
155

> <i_lp_mmshare_version>
43012

> <i_f3d_flags>
0

> <s_epik_input>
W0NIM11OKFtDSDNdKVtDSDJdW0NIMl1OMVtDSDJdW0NIMl1bQ0gyXU4oW0NIMl1bQ0gyXTEpYyhuW2NIXW4yKWMoYzIzKW5bY0hdbjNbQ0gyXVtDQEhdKFtPSF0pW0NAQEhdNFtDSDJdW0NIMl1bQ0gyXU80

> <s_epik_cmdline>
J2VwaWtfcHl0aG9uJywgJy1waCcsICc3LjAnLCAnLXRuJywgJzgnLCAnLW1hJywgJzIwMCcsICctbWV0YWxfYmluZGluZycsICctaW1hZScsICc8aW5maWxlLm1hZT4nLCAnLW9tYWUnLCAnPG91dGZpbGUubWFlPic=

> <r_lp_tautomer_probability>
1

> <r_epik_Ionization_Penalty>
3.0333

> <r_epik_Ionization_Penalty_Charging>
3.03317

> <r_epik_Ionization_Penalty_Neutral>
0.000131872

> <r_epik_State_Penalty>
1.99939

> <r_epik_Charging_Adjusted_Penalty>
5.03256

> <i_epik_Tot_Q>
2

> <i_epik_Tot_abs_Q>
2

> <r_epik_Metal_State_Penalty>
2.00021

> <b_epik_Metal_Only>
0

> <s_lp_Force_Field>
OPLS_2005

> <r_lp_Energy>
62.6942

> <b_lp_Chiralities_Consistent>
1

> <s_lp_Variant>
AV-unprocessed.smi:155-20

> <Gold.Version>
5.8.1

> <Gold.Id.Protein>
6NUR|6NUR_protein|mol2

> <Gold.PLP.Fitness>
48.9801

> <Gold.PLP.PLP>
-40.3243

> <Gold.PLP.part.hbond>
-2.0000

> <Gold.PLP.part.metal>
0.0000

> <Gold.PLP.part.buried>
1.6074

> <Gold.PLP.part.nonpolar>
-40.7730

> <Gold.PLP.part.repulsive>
0.6774

> <Gold.PLP.ligand.clash>
0.0000

> <Gold.PLP.ligand.torsion>
1.3159

> <Gold.PLP.Chemscore.Hbond>
2.6320

> <Gold.PLP.Chemscore.CHOScore>
0.9584

> <Gold.PLP.Chemscore.Metal>
0.0000

> <Gold.Chemscore.Hbonds>
donor molecule, donor type, donor heavy atom, donor atom, acceptor molecule, acceptor atom, score
      L1  H     2    63       P1 10747  1.00
      L1  H     6    64       P1  7948  1.00
      L1  C    18    47       P1  8028  1.00

> <Gold.PLP.Chemscore.Internal.Correction>
0.5164

> <Gold.Rescore>
     Score         DG    S(hbond)    S(metal)    S(lipo)     H(rot)  DE(clash)    DE(int)     intcor
     12.81     -17.91       1.71        0.00     117.54       2.75       2.48       2.62       ----

> <Gold.Chemscore.Fitness>
12.8133

> <Gold.Chemscore.DG>
-17.9109

> <Gold.Chemscore.ZeroCoef>
-5.4800

> <Gold.Chemscore.Hbond>
1.7116

> <Gold.Chemscore.Metal>
0.0000

> <Gold.Chemscore.Lipo>
117.5404

> <Gold.Chemscore.Internal_Hbond>
0.0000

> <Gold.Chemscore.DEClash>
2.4756

> <Gold.Chemscore.DEInternal>
2.6220

> <Gold.Chemscore.Rot>
2.7493

> <Gold.Chemscore.Internal.Correction>
   9.000000E+99

> <Gold.Chemscore.Hbonds>
donor molecule, donor type, donor heavy atom, donor atom, acceptor molecule, acceptor atom, score
      L1  H     2    63       P1 10747  0.99
      L1  H     6    64       P1  7948  0.48

> <Gold.Chemscore.Hbond.Weighted>
-5.7169

> <Gold.Chemscore.Metal.Weighted>
-0.0000

> <Gold.Chemscore.Lipo.Weighted>
-13.7522

> <Gold.Chemscore.Internal_Hbond.Weighted>
0.0000

> <Gold.Chemscore.DEClash.Weighted>
2.4756

> <Gold.Chemscore.DEInternal.Weighted>
2.6220

> <Gold.Chemscore.Rot.Weighted>
7.0383

> <Gold.Chemscore.Internal.Correction.Weighted>
   9.000000E+99

> <Gold.Protein.RotatedTorsions>
[ 6907 6896 6895 6894 ] final  179.61 input  -60.11 | X-H torsion
[ 7974 7965 7964 7962 ] final  -27.99 input  175.53 | X-H torsion
[ 8008 7997 7996 7995 ] final  -60.50 input   59.86 | X-H torsion
[ 10167 10162 10161 10158 ] final  172.03 input  -65.29 | X-H torsion
[ 10718 10713 10712 10709 ] final -160.06 input   66.30 | X-H torsion
[ 10763 10752 10751 10750 ] final   38.82 input  -60.55 | X-H torsion
[ 11005 11000 10999 10996 ] final   11.30 input  -57.11 | X-H torsion

> <Gold.Protein.ActiveResidues>
 VAL166  LYS551  ARG553  GLY616  TRP617  ASP618  TYR619  PRO620  LYS621  CYS622 
 ASP623  PHE694  ASN695  SER759  ASP760  ASP761  ALA762  ILE779  LEU786  VAL792 
 PHE793  MET794  SER795  GLU796  ALA797  LYS798  CYS799  TRP800  GLU811  SER814 

> <Gold.Protein.RotatedAtoms>
  151.6689  133.3314  159.3191 H   0  0  0  0  0  0  0  0  0  0  0  0  # atno 6907 bound_to 6896
  150.7877  134.6880  159.6490 H   0  0  0  0  0  0  0  0  0  0  0  0  # atno 6908 bound_to 6896
  152.3951  134.6383  160.0144 H   0  0  0  0  0  0  0  0  0  0  0  0  # atno 6909 bound_to 6896
  146.1319  140.5225  142.8689 H   0  0  0  0  0  0  0  0  0  0  0  0  # atno 7974 bound_to 7965
  154.4402  140.1038  156.6284 H   0  0  0  0  0  0  0  0  0  0  0  0  # atno 8008 bound_to 7997
  155.5632  140.3488  155.4478 H   0  0  0  0  0  0  0  0  0  0  0  0  # atno 8009 bound_to 7997
  156.0444  140.1289  157.0109 H   0  0  0  0  0  0  0  0  0  0  0  0  # atno 8010 bound_to 7997
  139.5064  144.3419  152.0009 H   0  0  0  0  0  0  0  0  0  0  0  0  # atno 10167 bound_to 10162
  156.5769  130.8712  151.2853 H   0  0  0  0  0  0  0  0  0  0  0  0  # atno 10718 bound_to 10713
  152.9988  135.6238  154.2367 H   0  0  0  0  0  0  0  0  0  0  0  0  # atno 10763 bound_to 10752
  154.2108  135.2800  155.2961 H   0  0  0  0  0  0  0  0  0  0  0  0  # atno 10764 bound_to 10752
  154.5608  135.5705  153.7064 H   0  0  0  0  0  0  0  0  0  0  0  0  # atno 10765 bound_to 10752
  140.5048  134.0710  155.7803 H   0  0  0  0  0  0  0  0  0  0  0  0  # atno 11005 bound_to 11000
  144.7699  140.5615  143.6677 LP  0  0  0  0  0  0  0  0  0  0  0  0  # atno 17320 bound_to 7965
  145.5241  139.1476  143.3536 LP  0  0  0  0  0  0  0  0  0  0  0  0  # atno 17321 bound_to 7965
  140.2857  144.3810  150.6104 LP  0  0  0  0  0  0  0  0  0  0  0  0  # atno 17342 bound_to 10162
  140.5984  143.2167  151.7119 LP  0  0  0  0  0  0  0  0  0  0  0  0  # atno 17343 bound_to 10162
  157.7335  130.9732  150.1984 LP  0  0  0  0  0  0  0  0  0  0  0  0  # atno 17370 bound_to 10713
  156.2666  130.3717  149.8075 LP  0  0  0  0  0  0  0  0  0  0  0  0  # atno 17371 bound_to 10713
  141.1417  133.9127  157.2311 LP  0  0  0  0  0  0  0  0  0  0  0  0  # atno 17394 bound_to 11000
  139.9692  135.0133  156.9469 LP  0  0  0  0  0  0  0  0  0  0  0  0  # atno 17395 bound_to 11000

$$$$
