AV-unprocessed.smi:290|AV-procd|sdf|2220|dock9
  -GOLD-   2262022 63D 1   1.00000     0.00000
 Structure written by MMmdl.
 59 62  0  0  0  0  0  0  0  0  2 V2000
  151.3632  144.0685  159.0867 C   0  0  0  0  0  0  0  0  0  0  0  0
  151.7266  142.6706  158.5600 C   0  0  1  0  0  0  0  0  0  0  0  0
  151.9650  141.7798  159.6409 O   0  0  0  0  0  0  0  0  0  0  0  0
  151.8669  140.4640  159.1272 C   0  0  0  0  0  0  0  0  0  0  0  0
  150.6231  140.5425  158.2516 C   0  0  0  0  0  0  0  0  0  0  0  0
  150.6746  141.9573  157.6682 C   0  0  1  0  0  0  0  0  0  0  0  0
  149.3875  142.5372  157.8020 O   0  0  0  0  0  0  0  0  0  0  0  0
  151.0554  141.9504  156.1668 C   0  0  0  0  0  0  0  0  0  0  0  0
  150.3025  140.9855  155.3797 N   0  0  0  0  0  0  0  0  0  0  0  0
  150.7217  139.7350  154.9820 C   0  0  0  0  0  0  0  0  0  0  0  0
  149.8607  139.0562  154.2735 N   0  0  0  0  0  0  0  0  0  0  0  0
  148.7615  139.8998  154.1864 C   0  0  0  0  0  0  0  0  0  0  0  0
  147.4861  139.7941  153.5746 C   0  0  0  0  0  0  0  0  0  0  0  0
  147.1163  138.6851  152.8943 N   0  0  0  0  0  0  0  0  0  0  0  0
  146.7186  138.9227  151.5197 C   0  0  0  0  0  0  0  0  0  0  0  0
  145.9837  137.6559  151.0842 C   0  0  0  0  0  0  0  0  0  0  0  0
  145.6145  136.9097  152.3841 C   0  0  2  0  0  0  0  0  0  0  0  0
  144.1736  136.5024  152.3877 N   0  3  1  0  0  0  0  0  0  0  0  0
  143.7963  135.8668  151.0980 C   0  0  0  0  0  0  0  0  0  0  0  0
  143.7384  135.6958  153.5641 C   0  0  0  0  0  0  0  0  0  0  0  0
  142.2770  135.2146  153.4844 C   0  0  0  0  0  0  0  0  0  0  0  0
  142.0169  134.2653  154.4974 O   0  0  0  0  0  0  0  0  0  0  0  0
  146.0606  137.8845  153.5021 C   0  0  1  0  0  0  0  0  0  0  0  0
  146.5858  137.1860  154.7760 C   0  0  0  0  0  0  0  0  0  0  0  0
  146.6270  140.8394  153.7067 N   0  0  0  0  0  0  0  0  0  0  0  0
  146.9994  141.9249  154.3927 C   0  0  0  0  0  0  0  0  0  0  0  0
  148.1565  142.1636  155.0145 N   0  0  0  0  0  0  0  0  0  0  0  0
  149.0174  141.1135  154.8824 C   0  0  0  0  0  0  0  0  0  0  0  0
  146.2303  136.0108  152.4520 H   0  0  0  0  0  0  0  0  0  0  0  0
  145.2332  138.5488  153.7565 H   0  0  0  0  0  0  0  0  0  0  0  0
  151.1601  144.7576  158.2663 H   0  0  0  0  0  0  0  0  0  0  0  0
  152.1821  144.4847  159.6733 H   0  0  0  0  0  0  0  0  0  0  0  0
  150.4825  144.0382  159.7288 H   0  0  0  0  0  0  0  0  0  0  0  0
  152.6713  142.7402  158.0192 H   0  0  0  0  0  0  0  0  0  0  0  0
  152.7522  140.2306  158.5330 H   0  0  0  0  0  0  0  0  0  0  0  0
  151.7776  139.7245  159.9231 H   0  0  0  0  0  0  0  0  0  0  0  0
  150.5971  139.7577  157.4947 H   0  0  0  0  0  0  0  0  0  0  0  0
  149.7434  140.4124  158.8844 H   0  0  0  0  0  0  0  0  0  0  0  0
  149.2287  143.0933  157.0547 H   0  0  0  0  0  0  0  0  0  0  0  0
  150.8957  142.9393  155.7348 H   0  0  0  0  0  0  0  0  0  0  0  0
  152.1180  141.7349  156.0454 H   0  0  0  0  0  0  0  0  0  0  0  0
  151.6956  139.3392  155.2309 H   0  0  0  0  0  0  0  0  0  0  0  0
  146.0519  139.7837  151.4495 H   0  0  0  0  0  0  0  0  0  0  0  0
  147.5870  139.1176  150.8894 H   0  0  0  0  0  0  0  0  0  0  0  0
  145.1137  137.9219  150.4820 H   0  0  0  0  0  0  0  0  0  0  0  0
  146.6296  137.0309  150.4663 H   0  0  0  0  0  0  0  0  0  0  0  0
  144.2083  134.8595  151.0254 H   0  0  0  0  0  0  0  0  0  0  0  0
  144.1609  136.4355  150.2432 H   0  0  0  0  0  0  0  0  0  0  0  0
  142.7155  135.8061  150.9808 H   0  0  0  0  0  0  0  0  0  0  0  0
  144.4041  134.8391  153.6782 H   0  0  0  0  0  0  0  0  0  0  0  0
  143.8158  136.2826  154.4773 H   0  0  0  0  0  0  0  0  0  0  0  0
  141.5630  136.0344  153.5480 H   0  0  0  0  0  0  0  0  0  0  0  0
  142.1018  134.7354  152.5209 H   0  0  0  0  0  0  0  0  0  0  0  0
  142.4080  133.4411  154.2494 H   0  0  0  0  0  0  0  0  0  0  0  0
  145.8484  136.5298  155.2333 H   0  0  0  0  0  0  0  0  0  0  0  0
  146.8750  137.9141  155.5343 H   0  0  0  0  0  0  0  0  0  0  0  0
  147.4645  136.5789  154.5557 H   0  0  0  0  0  0  0  0  0  0  0  0
  146.2658  142.7152  154.4526 H   0  0  0  0  0  0  0  0  0  0  0  0
  143.6497  137.3644  152.4472 H   0  0  0  0  0  0  0  0  0  0  0  0
  1  2  1  0  0  0  0
  1 31  1  0  0  0  0
  1 32  1  0  0  0  0
  1 33  1  0  0  0  0
  2  6  1  0  0  0  0
  2  3  1  0  0  0  0
  2 34  1  0  0  0  0
  3  4  1  0  0  0  0
  4  5  1  0  0  0  0
  4 35  1  0  0  0  0
  4 36  1  0  0  0  0
  5  6  1  0  0  0  0
  5 37  1  0  0  0  0
  5 38  1  0  0  0  0
  6  7  1  0  0  0  0
  6  8  1  0  0  0  0
  7 39  1  0  0  0  0
  8  9  1  0  0  0  0
  8 40  1  0  0  0  0
  8 41  1  0  0  0  0
  9 28  1  0  0  0  0
  9 10  1  0  0  0  0
 10 11  2  0  0  0  0
 10 42  1  0  0  0  0
 11 12  1  0  0  0  0
 12 28  2  0  0  0  0
 12 13  1  0  0  0  0
 13 14  1  0  0  0  0
 13 25  2  0  0  0  0
 14 23  1  0  0  0  0
 14 15  1  0  0  0  0
 15 16  1  0  0  0  0
 15 43  1  0  0  0  0
 15 44  1  0  0  0  0
 16 17  1  0  0  0  0
 16 45  1  0  0  0  0
 16 46  1  0  0  0  0
 17 29  1  0  0  0  0
 17 18  1  0  0  0  0
 17 23  1  0  0  0  0
 18 19  1  0  0  0  0
 18 20  1  0  0  0  0
 18 59  1  0  0  0  0
 19 47  1  0  0  0  0
 19 48  1  0  0  0  0
 19 49  1  0  0  0  0
 20 21  1  0  0  0  0
 20 50  1  0  0  0  0
 20 51  1  0  0  0  0
 21 22  1  0  0  0  0
 21 52  1  0  0  0  0
 21 53  1  0  0  0  0
 22 54  1  0  0  0  0
 23 30  1  0  0  0  0
 23 24  1  0  0  0  0
 24 55  1  0  0  0  0
 24 56  1  0  0  0  0
 24 57  1  0  0  0  0
 25 26  1  0  0  0  0
 26 27  2  0  0  0  0
 26 58  1  0  0  0  0
 27 28  1  0  0  0  0
M  CHG  1  18   1
M  END
> <s_m_source_file>
AV-unprocessed.smi

> <i_m_source_file_index>
290

> <i_lp_mmshare_version>
43012

> <i_f3d_flags>
0

> <s_epik_input>
W0NIMl0xW0NIMl1PW0NAQEhdKFtDSDNdKVtDQEBdMShbT0hdKVtDSDJdbihbY0hdbjIpYyhjMjMpbltjSF1uYzNONFtDSDJdW0NIMl1bQ0BIXShbQ0BIXTRbQ0gzXSlOKFtDSDNdKVtDSDJdW0NIMl1bT0hd

> <s_epik_cmdline>
J2VwaWtfcHl0aG9uJywgJy1waCcsICc3LjAnLCAnLXRuJywgJzgnLCAnLW1hJywgJzIwMCcsICctbWV0YWxfYmluZGluZycsICctaW1hZScsICc8aW5maWxlLm1hZT4nLCAnLW9tYWUnLCAnPG91dGZpbGUubWFlPic=

> <r_lp_tautomer_probability>
1

> <r_epik_Ionization_Penalty>
0.0036983

> <r_epik_Ionization_Penalty_Charging>
0.0032725

> <r_epik_Ionization_Penalty_Neutral>
0.000425798

> <r_epik_State_Penalty>
-0

> <r_epik_Charging_Adjusted_Penalty>
0.0032725

> <i_epik_Tot_Q>
1

> <i_epik_Tot_abs_Q>
1

> <r_epik_Metal_State_Penalty>
-0

> <b_epik_Metal_Only>
0

> <s_lp_Force_Field>
OPLS_2005

> <r_lp_Energy>
65.0723

> <b_lp_Chiralities_Consistent>
1

> <s_lp_Variant>
AV-unprocessed.smi:290-6

> <Gold.Version>
5.8.1

> <Gold.Id.Protein>
6NUR|6NUR_protein|mol2

> <Gold.PLP.Fitness>
50.5001

> <Gold.PLP.PLP>
-42.6428

> <Gold.PLP.part.hbond>
-3.0099

> <Gold.PLP.part.metal>
0.0000

> <Gold.PLP.part.buried>
-0.0633

> <Gold.PLP.part.nonpolar>
-41.7531

> <Gold.PLP.part.repulsive>
3.1120

> <Gold.PLP.ligand.clash>
0.0000

> <Gold.PLP.ligand.torsion>
0.6707

> <Gold.PLP.Chemscore.Hbond>
2.9920

> <Gold.PLP.Chemscore.CHOScore>
0.0000

> <Gold.PLP.Chemscore.Metal>
0.0000

> <Gold.Chemscore.Hbonds>
donor molecule, donor type, donor heavy atom, donor atom, acceptor molecule, acceptor atom, score
      L1  H     7    39       P1  8028  0.67
      L1  H    22    54       P1 10957  0.86
      P1  H 11000 11005       L1    22  0.99

> <Gold.PLP.Chemscore.Internal.Correction>
0.2226

> <Gold.Rescore>
     Score         DG    S(hbond)    S(metal)    S(lipo)     H(rot)  DE(clash)    DE(int)     intcor
     11.53     -15.34       2.49        0.00      93.53       3.67       2.89       0.92       ----

> <Gold.Chemscore.Fitness>
11.5304

> <Gold.Chemscore.DG>
-15.3449

> <Gold.Chemscore.ZeroCoef>
-5.4800

> <Gold.Chemscore.Hbond>
2.4871

> <Gold.Chemscore.Metal>
0.0000

> <Gold.Chemscore.Lipo>
93.5257

> <Gold.Chemscore.Internal_Hbond>
0.0000

> <Gold.Chemscore.DEClash>
2.8935

> <Gold.Chemscore.DEInternal>
0.9211

> <Gold.Chemscore.Rot>
3.6658

> <Gold.Chemscore.Internal.Correction>
   9.000000E+99

> <Gold.Chemscore.Hbonds>
donor molecule, donor type, donor heavy atom, donor atom, acceptor molecule, acceptor atom, score
      L1  H     7    39       P1  8028  0.62
      L1  H    22    54       P1 10957  0.85
      P1  H 11000 11005       L1    22  0.57

> <Gold.Chemscore.Hbond.Weighted>
-8.3068

> <Gold.Chemscore.Metal.Weighted>
-0.0000

> <Gold.Chemscore.Lipo.Weighted>
-10.9425

> <Gold.Chemscore.Internal_Hbond.Weighted>
0.0000

> <Gold.Chemscore.DEClash.Weighted>
2.8935

> <Gold.Chemscore.DEInternal.Weighted>
0.9211

> <Gold.Chemscore.Rot.Weighted>
9.3844

> <Gold.Chemscore.Internal.Correction.Weighted>
   9.000000E+99

> <Gold.Protein.RotatedTorsions>
[ 6907 6896 6895 6894 ] final   25.79 input  -60.11 | X-H torsion
[ 7974 7965 7964 7962 ] final  157.20 input  175.53 | X-H torsion
[ 8008 7997 7996 7995 ] final   76.76 input   59.86 | X-H torsion
[ 10167 10162 10161 10158 ] final -109.32 input  -65.29 | X-H torsion
[ 10718 10713 10712 10709 ] final -155.59 input   66.30 | X-H torsion
[ 10763 10752 10751 10750 ] final   85.41 input  -60.55 | X-H torsion
[ 11005 11000 10999 10996 ] final   -9.64 input  -57.11 | X-H torsion

> <Gold.Protein.ActiveResidues>
 VAL166  LYS551  ARG553  GLY616  TRP617  ASP618  TYR619  PRO620  LYS621  CYS622 
 ASP623  PHE694  ASN695  SER759  ASP760  ASP761  ALA762  ILE779  LEU786  VAL792 
 PHE793  MET794  SER795  GLU796  ALA797  LYS798  CYS799  TRP800  GLU811  SER814 

> <Gold.Protein.RotatedAtoms>
  151.9778  135.0044  160.0555 H   0  0  0  0  0  0  0  0  0  0  0  0  # atno 6907 bound_to 6896
  152.1724  133.4648  159.4924 H   0  0  0  0  0  0  0  0  0  0  0  0  # atno 6908 bound_to 6896
  150.6904  134.1853  159.4307 H   0  0  0  0  0  0  0  0  0  0  0  0  # atno 6909 bound_to 6896
  144.7917  139.7308  143.6218 H   0  0  0  0  0  0  0  0  0  0  0  0  # atno 7974 bound_to 7965
  155.8320  140.3466  155.5578 H   0  0  0  0  0  0  0  0  0  0  0  0  # atno 8008 bound_to 7997
  155.8232  140.0916  157.1856 H   0  0  0  0  0  0  0  0  0  0  0  0  # atno 8009 bound_to 7997
  154.4004  140.1426  156.3512 H   0  0  0  0  0  0  0  0  0  0  0  0  # atno 8010 bound_to 7997
  140.1566  143.4155  152.1456 H   0  0  0  0  0  0  0  0  0  0  0  0  # atno 10167 bound_to 10162
  156.5149  130.8452  151.2660 H   0  0  0  0  0  0  0  0  0  0  0  0  # atno 10718 bound_to 10713
  153.1472  135.4618  154.9584 H   0  0  0  0  0  0  0  0  0  0  0  0  # atno 10763 bound_to 10752
  154.7796  135.3184  154.8021 H   0  0  0  0  0  0  0  0  0  0  0  0  # atno 10764 bound_to 10752
  153.8533  135.6919  153.4844 H   0  0  0  0  0  0  0  0  0  0  0  0  # atno 10765 bound_to 10752
  140.7363  133.8707  155.8932 H   0  0  0  0  0  0  0  0  0  0  0  0  # atno 11005 bound_to 11000
  146.2171  139.5569  142.9642 LP  0  0  0  0  0  0  0  0  0  0  0  0  # atno 17320 bound_to 7965
  145.5777  141.0386  143.2139 LP  0  0  0  0  0  0  0  0  0  0  0  0  # atno 17321 bound_to 7965
  139.5401  144.7248  151.4763 LP  0  0  0  0  0  0  0  0  0  0  0  0  # atno 17342 bound_to 10162
  140.6669  143.8378  150.6953 LP  0  0  0  0  0  0  0  0  0  0  0  0  # atno 17343 bound_to 10162
  157.7445  130.9937  150.2681 LP  0  0  0  0  0  0  0  0  0  0  0  0  # atno 17370 bound_to 10713
  156.3204  130.3785  149.7580 LP  0  0  0  0  0  0  0  0  0  0  0  0  # atno 17371 bound_to 10713
  140.9876  134.1321  157.4437 LP  0  0  0  0  0  0  0  0  0  0  0  0  # atno 17394 bound_to 11000
  139.8815  135.0030  156.6163 LP  0  0  0  0  0  0  0  0  0  0  0  0  # atno 17395 bound_to 11000

$$$$
