AV-unprocessed.smi:3165|AV-procd|sdf|12087|dock2
  -GOLD-   2272017513D 1   1.00000     0.00000
 Structure written by MMmdl.
 38 39  0  0  0  0  0  0  0  0  2 V2000
  143.8410  136.8440  152.3595 C   0  0  0  0  0  0  0  0  0  0  0  0
  145.1797  136.2273  151.9324 C   0  0  2  0  0  0  0  0  0  0  0  0
  145.2544  134.7430  152.3482 C   0  0  0  0  0  0  0  0  0  0  0  0
  145.2015  133.8352  151.2164 N   0  0  0  0  0  0  0  0  0  0  0  0
  144.1626  133.6232  150.3347 C   0  0  0  0  0  0  0  0  0  0  0  0
  144.5809  132.6872  149.4329 C   0  0  0  0  0  0  0  0  0  0  0  0
  145.9058  132.3809  149.8521 C   0  0  0  0  0  0  0  0  0  0  0  0
  146.2748  133.0701  150.9198 N   0  0  0  0  0  0  0  0  0  0  0  0
  146.2901  137.0066  152.5254 N   0  3  0  0  0  0  0  0  0  0  0  0
  146.3615  138.4188  152.0945 C   0  0  0  0  0  0  0  0  0  0  0  0
  146.7237  139.3348  153.2707 C   0  0  1  0  0  0  0  0  0  0  0  0
  148.1208  139.0149  153.8376 C   0  0  0  0  0  0  0  0  0  0  0  0
  148.4945  140.0077  154.9441 C   0  0  0  0  0  0  0  0  0  0  0  0
  148.3401  141.4413  154.4256 C   0  0  0  0  0  0  0  0  0  0  0  0
  146.9401  141.6430  153.8248 C   0  0  0  0  0  0  0  0  0  0  0  0
  146.7098  140.6811  152.7997 O   0  0  0  0  0  0  0  0  0  0  0  0
  143.0020  136.3136  151.9079 H   0  0  0  0  0  0  0  0  0  0  0  0
  143.7724  137.8875  152.0503 H   0  0  0  0  0  0  0  0  0  0  0  0
  143.7130  136.8079  153.4422 H   0  0  0  0  0  0  0  0  0  0  0  0
  145.2342  136.2939  150.8443 H   0  0  0  0  0  0  0  0  0  0  0  0
  146.1649  134.5480  152.9177 H   0  0  0  0  0  0  0  0  0  0  0  0
  144.4206  134.4997  153.0079 H   0  0  0  0  0  0  0  0  0  0  0  0
  143.2239  134.1508  150.4203 H   0  0  0  0  0  0  0  0  0  0  0  0
  144.0245  132.2810  148.6010 H   0  0  0  0  0  0  0  0  0  0  0  0
  146.6055  131.6836  149.4151 H   0  0  0  0  0  0  0  0  0  0  0  0
  146.1784  137.0027  153.5293 H   0  0  0  0  0  0  0  0  0  0  0  0
  147.1135  138.5179  151.3116 H   0  0  0  0  0  0  0  0  0  0  0  0
  145.4071  138.7180  151.6590 H   0  0  0  0  0  0  0  0  0  0  0  0
  145.9777  139.2154  154.0587 H   0  0  0  0  0  0  0  0  0  0  0  0
  148.1479  137.9970  154.2277 H   0  0  0  0  0  0  0  0  0  0  0  0
  148.8628  139.0636  153.0394 H   0  0  0  0  0  0  0  0  0  0  0  0
  147.8459  139.8570  155.8079 H   0  0  0  0  0  0  0  0  0  0  0  0
  149.5158  139.8336  155.2838 H   0  0  0  0  0  0  0  0  0  0  0  0
  148.5135  142.1553  155.2313 H   0  0  0  0  0  0  0  0  0  0  0  0
  149.0951  141.6394  153.6638 H   0  0  0  0  0  0  0  0  0  0  0  0
  146.1702  141.5620  154.5937 H   0  0  0  0  0  0  0  0  0  0  0  0
  146.8567  142.6417  153.3957 H   0  0  0  0  0  0  0  0  0  0  0  0
  147.1608  136.5467  152.2990 H   0  0  0  0  0  0  0  0  0  0  0  0
  1  2  1  0  0  0  0
  1 17  1  0  0  0  0
  1 18  1  0  0  0  0
  1 19  1  0  0  0  0
  2  3  1  0  0  0  0
  2  9  1  0  0  0  0
  2 20  1  0  0  0  0
  3  4  1  0  0  0  0
  3 21  1  0  0  0  0
  3 22  1  0  0  0  0
  4  8  1  0  0  0  0
  4  5  1  0  0  0  0
  5  6  2  0  0  0  0
  5 23  1  0  0  0  0
  6  7  1  0  0  0  0
  6 24  1  0  0  0  0
  7  8  2  0  0  0  0
  7 25  1  0  0  0  0
  9 10  1  0  0  0  0
  9 26  1  0  0  0  0
  9 38  1  0  0  0  0
 10 11  1  0  0  0  0
 10 27  1  0  0  0  0
 10 28  1  0  0  0  0
 11 16  1  0  0  0  0
 11 12  1  0  0  0  0
 11 29  1  0  0  0  0
 12 13  1  0  0  0  0
 12 30  1  0  0  0  0
 12 31  1  0  0  0  0
 13 14  1  0  0  0  0
 13 32  1  0  0  0  0
 13 33  1  0  0  0  0
 14 15  1  0  0  0  0
 14 34  1  0  0  0  0
 14 35  1  0  0  0  0
 15 16  1  0  0  0  0
 15 36  1  0  0  0  0
 15 37  1  0  0  0  0
M  CHG  1   9   1
M  END
> <s_m_source_file>
AV-unprocessed.smi

> <i_m_source_file_index>
3165

> <i_lp_mmshare_version>
43012

> <i_f3d_flags>
0

> <s_epik_input>
bjFbY0hdW2NIXVtjSF1uMVtDSDJdW0NAQEhdKFtDSDNdKVtOSF1bQ0gyXVtDQEBIXTJbQ0gyXVtDSDJdW0NIMl1bQ0gyXU8y

> <s_epik_cmdline>
J2VwaWtfcHl0aG9uJywgJy1waCcsICc3LjAnLCAnLXRuJywgJzgnLCAnLW1hJywgJzIwMCcsICctbWV0YWxfYmluZGluZycsICctaW1hZScsICc8aW5maWxlLm1hZT4nLCAnLW9tYWUnLCAnPG91dGZpbGUubWFlPic=

> <r_lp_tautomer_probability>
1

> <r_epik_Ionization_Penalty>
0.00849196

> <r_epik_Ionization_Penalty_Charging>
0.00848754

> <r_epik_Ionization_Penalty_Neutral>
4.42049e-06

> <r_epik_State_Penalty>
0.00639836

> <r_epik_Charging_Adjusted_Penalty>
0.0148859

> <i_epik_Tot_Q>
1

> <i_epik_Tot_abs_Q>
1

> <r_epik_Metal_State_Penalty>
0.00639878

> <b_epik_Metal_Only>
0

> <s_lp_Force_Field>
OPLS_2005

> <r_lp_Energy>
13.1527

> <b_lp_Chiralities_Consistent>
1

> <s_lp_Variant>
AV-unprocessed.smi:3165-3

> <Gold.Version>
5.8.1

> <Gold.Id.Protein>
6NUR|6NUR_protein|mol2

> <Gold.PLP.Fitness>
41.4547

> <Gold.PLP.PLP>
-31.4739

> <Gold.PLP.part.hbond>
-1.0000

> <Gold.PLP.part.metal>
0.0000

> <Gold.PLP.part.buried>
-2.7723

> <Gold.PLP.part.nonpolar>
-28.3723

> <Gold.PLP.part.repulsive>
0.4554

> <Gold.PLP.ligand.clash>
0.0000

> <Gold.PLP.ligand.torsion>
1.0324

> <Gold.PLP.Chemscore.Hbond>
2.0000

> <Gold.PLP.Chemscore.CHOScore>
1.9997

> <Gold.PLP.Chemscore.Metal>
0.0000

> <Gold.Chemscore.Hbonds>
donor molecule, donor type, donor heavy atom, donor atom, acceptor molecule, acceptor atom, score
      L1  H     9    38       P1  7948  2.00
      L1  C     5    23       P1 10186  1.00
      L1  C     7    25       P1 10747  0.75

> <Gold.PLP.Chemscore.Internal.Correction>
0.0465

> <Gold.Rescore>
     Score         DG    S(hbond)    S(metal)    S(lipo)     H(rot)  DE(clash)    DE(int)     intcor
     13.29     -14.59       1.00        0.00      85.41       1.64       0.28       1.02       ----

> <Gold.Chemscore.Fitness>
13.2912

> <Gold.Chemscore.DG>
-14.5947

> <Gold.Chemscore.ZeroCoef>
-5.4800

> <Gold.Chemscore.Hbond>
0.9976

> <Gold.Chemscore.Metal>
0.0000

> <Gold.Chemscore.Lipo>
85.4071

> <Gold.Chemscore.Internal_Hbond>
0.0000

> <Gold.Chemscore.DEClash>
0.2839

> <Gold.Chemscore.DEInternal>
1.0196

> <Gold.Chemscore.Rot>
1.6444

> <Gold.Chemscore.Internal.Correction>
   9.000000E+99

> <Gold.Chemscore.Hbonds>
donor molecule, donor type, donor heavy atom, donor atom, acceptor molecule, acceptor atom, score
      L1  H     9    38       P1  7948  1.00

> <Gold.Chemscore.Hbond.Weighted>
-3.3318

> <Gold.Chemscore.Metal.Weighted>
-0.0000

> <Gold.Chemscore.Lipo.Weighted>
-9.9926

> <Gold.Chemscore.Internal_Hbond.Weighted>
0.0000

> <Gold.Chemscore.DEClash.Weighted>
0.2839

> <Gold.Chemscore.DEInternal.Weighted>
1.0196

> <Gold.Chemscore.Rot.Weighted>
4.2097

> <Gold.Chemscore.Internal.Correction.Weighted>
   9.000000E+99

> <Gold.Protein.RotatedTorsions>
[ 6907 6896 6895 6894 ] final  -56.41 input  -60.11 | X-H torsion
[ 7974 7965 7964 7962 ] final  111.23 input  175.53 | X-H torsion
[ 8008 7997 7996 7995 ] final   -6.73 input   59.86 | X-H torsion
[ 10167 10162 10161 10158 ] final  -96.67 input  -65.29 | X-H torsion
[ 10718 10713 10712 10709 ] final -117.20 input   66.30 | X-H torsion
[ 10763 10752 10751 10750 ] final  116.40 input  -60.55 | X-H torsion
[ 11005 11000 10999 10996 ] final  145.13 input  -57.11 | X-H torsion

> <Gold.Protein.ActiveResidues>
 VAL166  LYS551  ARG553  GLY616  TRP617  ASP618  TYR619  PRO620  LYS621  CYS622 
 ASP623  PHE694  ASN695  SER759  ASP760  ASP761  ALA762  ILE779  LEU786  VAL792 
 PHE793  MET794  SER795  GLU796  ALA797  LYS798  CYS799  TRP800  GLU811  SER814 

> <Gold.Protein.RotatedAtoms>
  150.8170  134.7358  159.6738 H   0  0  0  0  0  0  0  0  0  0  0  0  # atno 6907 bound_to 6896
  152.4288  134.5814  159.9958 H   0  0  0  0  0  0  0  0  0  0  0  0  # atno 6908 bound_to 6896
  151.6008  133.3319  159.3083 H   0  0  0  0  0  0  0  0  0  0  0  0  # atno 6909 bound_to 6896
  145.2449  139.2763  143.4098 H   0  0  0  0  0  0  0  0  0  0  0  0  # atno 7974 bound_to 7965
  154.5909  140.2425  155.7923 H   0  0  0  0  0  0  0  0  0  0  0  0  # atno 8008 bound_to 7997
  156.2246  140.2986  155.9990 H   0  0  0  0  0  0  0  0  0  0  0  0  # atno 8009 bound_to 7997
  155.2376  140.0406  157.2961 H   0  0  0  0  0  0  0  0  0  0  0  0  # atno 8010 bound_to 7997
  140.2914  143.3219  152.0341 H   0  0  0  0  0  0  0  0  0  0  0  0  # atno 10167 bound_to 10162
  156.1017  130.6177  150.9134 H   0  0  0  0  0  0  0  0  0  0  0  0  # atno 10718 bound_to 10713
  153.5366  135.3567  155.2700 H   0  0  0  0  0  0  0  0  0  0  0  0  # atno 10763 bound_to 10752
  154.8721  135.4081  154.3091 H   0  0  0  0  0  0  0  0  0  0  0  0  # atno 10764 bound_to 10752
  153.3790  135.7067  153.6648 H   0  0  0  0  0  0  0  0  0  0  0  0  # atno 10765 bound_to 10752
  140.0688  134.9164  157.1309 H   0  0  0  0  0  0  0  0  0  0  0  0  # atno 11005 bound_to 11000
  146.3318  140.2823  142.8611 LP  0  0  0  0  0  0  0  0  0  0  0  0  # atno 17320 bound_to 7965
  144.9555  140.8222  143.5545 LP  0  0  0  0  0  0  0  0  0  0  0  0  # atno 17321 bound_to 7965
  139.4937  144.6522  151.6651 LP  0  0  0  0  0  0  0  0  0  0  0  0  # atno 17342 bound_to 10162
  140.5729  144.0079  150.6226 LP  0  0  0  0  0  0  0  0  0  0  0  0  # atno 17343 bound_to 10162
  157.6188  131.0931  150.8660 LP  0  0  0  0  0  0  0  0  0  0  0  0  # atno 17370 bound_to 10713
  156.8787  130.5171  149.5292 LP  0  0  0  0  0  0  0  0  0  0  0  0  # atno 17371 bound_to 10713
  140.3659  134.2443  155.7182 LP  0  0  0  0  0  0  0  0  0  0  0  0  # atno 17394 bound_to 11000
  141.2003  133.7990  157.0494 LP  0  0  0  0  0  0  0  0  0  0  0  0  # atno 17395 bound_to 11000

$$$$
