AV-unprocessed.smi:7|AV-procd|sdf|44|dock5
  -GOLD-   2262015163D 1   1.00000     0.00000
 Structure written by MMmdl.
 45 48  0  0  0  0  0  0  0  0  1 V2000
  151.4568  138.8122  154.9653 O   0  0  0  0  0  0  0  0  0  0  0  0
  151.1581  139.8018  155.6347 C   0  0  0  0  0  0  0  0  0  0  0  0
  151.8437  140.1380  156.9041 C   0  0  0  0  0  0  0  0  0  0  0  0
  152.8635  139.4754  157.5860 N   0  0  0  0  0  0  0  0  0  0  0  0
  153.0536  140.2471  158.6555 C   0  0  0  0  0  0  0  0  0  0  0  0
  152.2472  141.3243  158.6999 N   0  0  0  0  0  0  0  0  0  0  0  0
  152.3354  142.2481  159.7672 C   0  0  0  0  0  0  0  0  0  0  0  0
  152.8784  141.8615  161.0133 C   0  0  0  0  0  0  0  0  0  0  0  0
  152.9566  142.7897  162.0702 C   0  0  0  0  0  0  0  0  0  0  0  0
  152.4918  144.1065  161.8884 C   0  0  0  0  0  0  0  0  0  0  0  0
  151.9475  144.4953  160.6493 C   0  0  0  0  0  0  0  0  0  0  0  0
  151.8684  143.5686  159.5914 C   0  0  0  0  0  0  0  0  0  0  0  0
  151.4535  141.2716  157.5629 C   0  0  0  0  0  0  0  0  0  0  0  0
  150.4809  142.1787  157.2084 N   0  0  0  0  0  0  0  0  0  0  0  0
  149.8888  141.8507  156.0895 C   0  0  0  0  0  0  0  0  0  0  0  0
  150.1784  140.6941  155.3030 N   0  0  0  0  0  0  0  0  0  0  0  0
  149.3731  140.5093  154.0868 C   0  0  0  0  0  0  0  0  0  0  0  0
  147.8905  140.1965  154.4150 C   0  0  1  0  0  0  0  0  0  0  0  0
  147.1242  141.3323  154.0589 O   0  0  0  0  0  0  0  0  0  0  0  0
  147.3442  138.9488  153.6680 C   0  0  0  0  0  0  0  0  0  0  0  0
  148.1825  137.8529  153.9957 O   0  0  0  0  0  0  0  0  0  0  0  0
  145.9127  138.5405  154.0533 C   0  0  0  0  0  0  0  0  0  0  0  0
  145.4363  137.6324  152.9144 C   0  0  0  0  0  0  0  0  0  0  0  0
  146.2237  138.0618  151.6669 C   0  0  0  0  0  0  0  0  0  0  0  0
  147.2826  139.0716  152.1354 C   0  0  0  0  0  0  0  0  0  0  0  0
  153.7967  140.0216  159.4069 H   0  0  0  0  0  0  0  0  0  0  0  0
  153.2318  140.8524  161.1672 H   0  0  0  0  0  0  0  0  0  0  0  0
  153.3717  142.4905  163.0214 H   0  0  0  0  0  0  0  0  0  0  0  0
  152.5518  144.8177  162.6993 H   0  0  0  0  0  0  0  0  0  0  0  0
  151.5907  145.5051  160.5095 H   0  0  0  0  0  0  0  0  0  0  0  0
  151.4525  143.8768  158.6435 H   0  0  0  0  0  0  0  0  0  0  0  0
  149.1001  142.4780  155.6702 H   0  0  0  0  0  0  0  0  0  0  0  0
  149.4513  141.3728  153.4226 H   0  0  0  0  0  0  0  0  0  0  0  0
  149.8123  139.7001  153.5009 H   0  0  0  0  0  0  0  0  0  0  0  0
  147.7650  140.0367  155.4874 H   0  0  0  0  0  0  0  0  0  0  0  0
  147.6291  141.8593  153.4579 H   0  0  0  0  0  0  0  0  0  0  0  0
  148.6727  137.6124  153.2245 H   0  0  0  0  0  0  0  0  0  0  0  0
  145.8532  138.0566  155.0292 H   0  0  0  0  0  0  0  0  0  0  0  0
  145.2613  139.4141  154.0898 H   0  0  0  0  0  0  0  0  0  0  0  0
  145.6674  136.5931  153.1516 H   0  0  0  0  0  0  0  0  0  0  0  0
  144.3581  137.6987  152.7651 H   0  0  0  0  0  0  0  0  0  0  0  0
  146.6956  137.1943  151.2043 H   0  0  0  0  0  0  0  0  0  0  0  0
  145.5688  138.5111  150.9195 H   0  0  0  0  0  0  0  0  0  0  0  0
  146.9546  140.0728  151.8536 H   0  0  0  0  0  0  0  0  0  0  0  0
  148.2498  138.9102  151.6573 H   0  0  0  0  0  0  0  0  0  0  0  0
  1  2  2  0  0  0  0
  2 16  1  0  0  0  0
  2  3  1  0  0  0  0
  3 13  2  0  0  0  0
  3  4  1  0  0  0  0
  4  5  2  0  0  0  0
  5  6  1  0  0  0  0
  5 26  1  0  0  0  0
  6  7  1  0  0  0  0
  6 13  1  0  0  0  0
  7 12  1  0  0  0  0
  7  8  2  0  0  0  0
  8  9  1  0  0  0  0
  8 27  1  0  0  0  0
  9 10  2  0  0  0  0
  9 28  1  0  0  0  0
 10 11  1  0  0  0  0
 10 29  1  0  0  0  0
 11 12  2  0  0  0  0
 11 30  1  0  0  0  0
 12 31  1  0  0  0  0
 13 14  1  0  0  0  0
 14 15  2  0  0  0  0
 15 16  1  0  0  0  0
 15 32  1  0  0  0  0
 16 17  1  0  0  0  0
 17 18  1  0  0  0  0
 17 33  1  0  0  0  0
 17 34  1  0  0  0  0
 18 19  1  0  0  0  0
 18 20  1  0  0  0  0
 18 35  1  0  0  0  0
 19 36  1  0  0  0  0
 20 25  1  0  0  0  0
 20 21  1  0  0  0  0
 20 22  1  0  0  0  0
 21 37  1  0  0  0  0
 22 23  1  0  0  0  0
 22 38  1  0  0  0  0
 22 39  1  0  0  0  0
 23 24  1  0  0  0  0
 23 40  1  0  0  0  0
 23 41  1  0  0  0  0
 24 25  1  0  0  0  0
 24 42  1  0  0  0  0
 24 43  1  0  0  0  0
 25 44  1  0  0  0  0
 25 45  1  0  0  0  0
M  END
> <s_m_source_file>
AV-unprocessed.smi

> <i_m_source_file_index>
7

> <i_lp_mmshare_version>
43012

> <i_f3d_flags>
0

> <s_epik_input>
W0NIMl0xW0NIMl1bQ0gyXVtDSDJdQzEoW09IXSlbQ0BASF0oW09IXSlbQ0gyXW4oYzI9TylbY0hdbmMoYzIzKW4oW2NIXW4zKS1jNFtjSF1bY0hdW2NIXVtjSF1bY0hdNA==

> <s_epik_cmdline>
J2VwaWtfcHl0aG9uJywgJy1waCcsICc3LjAnLCAnLXRuJywgJzgnLCAnLW1hJywgJzIwMCcsICctbWV0YWxfYmluZGluZycsICctaW1hZScsICc8aW5maWxlLm1hZT4nLCAnLW9tYWUnLCAnPG91dGZpbGUubWFlPic=

> <r_lp_tautomer_probability>
1

> <r_epik_Ionization_Penalty>
0.000116694

> <r_epik_Ionization_Penalty_Charging>
6.60428e-09

> <r_epik_Ionization_Penalty_Neutral>
0.000116688

> <r_epik_State_Penalty>
-0

> <r_epik_Charging_Adjusted_Penalty>
6.60428e-09

> <i_epik_Tot_Q>
0

> <i_epik_Tot_abs_Q>
0

> <r_epik_Metal_State_Penalty>
-0

> <b_epik_Metal_Only>
0

> <s_lp_Force_Field>
OPLS_2005

> <r_lp_Energy>
52.8935

> <b_lp_Chiralities_Consistent>
1

> <s_lp_Variant>
AV-unprocessed.smi:7-2

> <Gold.Version>
5.8.1

> <Gold.Id.Protein>
6NUR|6NUR_protein|mol2

> <Gold.PLP.Fitness>
53.5823

> <Gold.PLP.PLP>
-47.4478

> <Gold.PLP.part.hbond>
-2.0000

> <Gold.PLP.part.metal>
0.0000

> <Gold.PLP.part.buried>
3.7833

> <Gold.PLP.part.nonpolar>
-48.1500

> <Gold.PLP.part.repulsive>
0.1793

> <Gold.PLP.ligand.clash>
0.0000

> <Gold.PLP.ligand.torsion>
0.9934

> <Gold.PLP.Chemscore.Hbond>
1.7040

> <Gold.PLP.Chemscore.CHOScore>
0.9990

> <Gold.PLP.Chemscore.Metal>
0.0000

> <Gold.Chemscore.Hbonds>
donor molecule, donor type, donor heavy atom, donor atom, acceptor molecule, acceptor atom, score
      L1  H    21    37       P1  7948  0.93
      P1  H  7997  8009       L1     4  0.69
      L1  C    15    32       P1  8028  1.00

> <Gold.PLP.Chemscore.Internal.Correction>
0.0123

> <Gold.Rescore>
     Score         DG    S(hbond)    S(metal)    S(lipo)     H(rot)  DE(clash)    DE(int)     intcor
     13.22     -14.73       0.98        0.00     111.91       2.79       0.42       1.08       ----

> <Gold.Chemscore.Fitness>
13.2196

> <Gold.Chemscore.DG>
-14.7262

> <Gold.Chemscore.ZeroCoef>
-5.4800

> <Gold.Chemscore.Hbond>
0.9833

> <Gold.Chemscore.Metal>
0.0000

> <Gold.Chemscore.Lipo>
111.9148

> <Gold.Chemscore.Internal_Hbond>
0.0000

> <Gold.Chemscore.DEClash>
0.4218

> <Gold.Chemscore.DEInternal>
1.0848

> <Gold.Chemscore.Rot>
2.7860

> <Gold.Chemscore.Internal.Correction>
   9.000000E+99

> <Gold.Chemscore.Hbonds>
donor molecule, donor type, donor heavy atom, donor atom, acceptor molecule, acceptor atom, score
      L1  H    21    37       P1  7948  0.89
      P1  H  7997  8009       L1     4  0.02

> <Gold.Chemscore.Hbond.Weighted>
-3.2843

> <Gold.Chemscore.Metal.Weighted>
-0.0000

> <Gold.Chemscore.Lipo.Weighted>
-13.0940

> <Gold.Chemscore.Internal_Hbond.Weighted>
0.0000

> <Gold.Chemscore.DEClash.Weighted>
0.4218

> <Gold.Chemscore.DEInternal.Weighted>
1.0848

> <Gold.Chemscore.Rot.Weighted>
7.1322

> <Gold.Chemscore.Internal.Correction.Weighted>
   9.000000E+99

> <Gold.Protein.RotatedTorsions>
[ 6907 6896 6895 6894 ] final  -59.99 input  -60.11 | X-H torsion
[ 7974 7965 7964 7962 ] final  -17.78 input  175.53 | X-H torsion
[ 8008 7997 7996 7995 ] final -165.66 input   59.86 | X-H torsion
[ 10167 10162 10161 10158 ] final   30.47 input  -65.29 | X-H torsion
[ 10718 10713 10712 10709 ] final   34.37 input   66.30 | X-H torsion
[ 10763 10752 10751 10750 ] final  -63.40 input  -60.55 | X-H torsion
[ 11005 11000 10999 10996 ] final -113.75 input  -57.11 | X-H torsion

> <Gold.Protein.ActiveResidues>
 VAL166  LYS551  ARG553  GLY616  TRP617  ASP618  TYR619  PRO620  LYS621  CYS622 
 ASP623  PHE694  ASN695  SER759  ASP760  ASP761  ALA762  ILE779  LEU786  VAL792 
 PHE793  MET794  SER795  GLU796  ALA797  LYS798  CYS799  TRP800  GLU811  SER814 

> <Gold.Protein.RotatedAtoms>
  150.7889  134.6897  159.6489 H   0  0  0  0  0  0  0  0  0  0  0  0  # atno 6907 bound_to 6896
  152.3991  134.6313  160.0086 H   0  0  0  0  0  0  0  0  0  0  0  0  # atno 6908 bound_to 6896
  151.6589  133.3281  159.3205 H   0  0  0  0  0  0  0  0  0  0  0  0  # atno 6909 bound_to 6896
  146.1924  140.3827  142.8453 H   0  0  0  0  0  0  0  0  0  0  0  0  # atno 7974 bound_to 7965
  155.8529  140.0966  157.1663 H   0  0  0  0  0  0  0  0  0  0  0  0  # atno 8008 bound_to 7997
  154.3986  140.1379  156.3928 H   0  0  0  0  0  0  0  0  0  0  0  0  # atno 8009 bound_to 7997
  155.7941  140.3455  155.5368 H   0  0  0  0  0  0  0  0  0  0  0  0  # atno 8010 bound_to 7997
  140.4674  144.0814  150.6228 H   0  0  0  0  0  0  0  0  0  0  0  0  # atno 10167 bound_to 10162
  157.3094  130.7391  149.6716 H   0  0  0  0  0  0  0  0  0  0  0  0  # atno 10718 bound_to 10713
  154.3144  135.6209  153.5480 H   0  0  0  0  0  0  0  0  0  0  0  0  # atno 10763 bound_to 10752
  152.9826  135.5709  154.5140 H   0  0  0  0  0  0  0  0  0  0  0  0  # atno 10764 bound_to 10752
  154.4796  135.2862  155.1557 H   0  0  0  0  0  0  0  0  0  0  0  0  # atno 10765 bound_to 10752
  141.0595  133.9559  157.2694 H   0  0  0  0  0  0  0  0  0  0  0  0  # atno 11005 bound_to 11000
  144.8513  140.7006  143.6166 LP  0  0  0  0  0  0  0  0  0  0  0  0  # atno 17320 bound_to 7965
  145.3749  139.1650  143.4312 LP  0  0  0  0  0  0  0  0  0  0  0  0  # atno 17321 bound_to 7965
  140.4019  143.2700  151.9938 LP  0  0  0  0  0  0  0  0  0  0  0  0  # atno 17342 bound_to 10162
  139.4814  144.5990  151.7639 LP  0  0  0  0  0  0  0  0  0  0  0  0  # atno 17343 bound_to 10162
  155.9677  130.4256  150.4660 LP  0  0  0  0  0  0  0  0  0  0  0  0  # atno 17370 bound_to 10713
  157.2655  131.0576  151.2293 LP  0  0  0  0  0  0  0  0  0  0  0  0  # atno 17371 bound_to 10713
  139.9419  135.0190  156.8735 LP  0  0  0  0  0  0  0  0  0  0  0  0  # atno 17394 bound_to 11000
  140.5898  134.0273  155.7495 LP  0  0  0  0  0  0  0  0  0  0  0  0  # atno 17395 bound_to 11000

$$$$
