AV-unprocessed.smi:21|AV-procd|sdf|153|dock9
  -GOLD-   2262015383D 1   1.00000     0.00000
 Structure written by MMmdl.
 61 64  0  0  0  0  0  0  0  0  1 V2000
  147.3076  129.7405  152.9076 C   0  0  0  0  0  0  0  0  0  0  0  0
  147.3756  130.9627  153.6249 O   0  0  0  0  0  0  0  0  0  0  0  0
  148.5732  131.6904  153.3884 C   0  0  1  0  0  0  0  0  0  0  0  0
  148.3732  133.2040  153.5775 C   0  0  0  0  0  0  0  0  0  0  0  0
  149.5232  133.6196  154.5012 C   0  0  1  0  0  0  0  0  0  0  0  0
  149.2504  134.9351  155.2614 C   0  0  0  0  0  0  0  0  0  0  0  0
  149.2627  134.7674  156.7148 N   0  0  0  0  0  0  0  0  0  0  0  0
  148.2545  133.8888  157.3038 C   0  0  0  0  0  0  0  0  0  0  0  0
  149.6323  135.8604  157.4337 C   0  0  0  0  0  0  0  0  0  0  0  0
  149.4420  135.8743  158.7808 N   0  0  0  0  0  0  0  0  0  0  0  0
  149.7922  136.9414  159.5039 C   0  0  0  0  0  0  0  0  0  0  0  0
  150.3466  138.0820  159.0915 N   0  0  0  0  0  0  0  0  0  0  0  0
  150.5543  138.0746  157.7445 C   0  0  0  0  0  0  0  0  0  0  0  0
  150.2240  137.0171  156.8486 C   0  0  0  0  0  0  0  0  0  0  0  0
  150.5820  137.3712  155.5540 N   0  0  0  0  0  0  0  0  0  0  0  0
  151.0820  138.5694  155.6746 C   0  0  0  0  0  0  0  0  0  0  0  0
  151.1236  139.0634  156.9590 N   0  0  0  0  0  0  0  0  0  0  0  0
  151.6383  140.3629  157.3695 C   0  0  0  0  0  0  0  0  0  0  0  0
  150.5641  141.3305  157.9405 C   0  0  2  0  0  0  0  0  0  0  0  0
  149.5104  141.7361  156.8822 C   0  0  0  0  0  0  0  0  0  0  0  0
  148.5157  142.5644  157.4479 O   0  0  0  0  0  0  0  0  0  0  0  0
  151.1946  142.5777  158.6135 C   0  0  2  0  0  0  0  0  0  0  0  0
  151.5483  143.7039  157.6555 C   0  0  0  0  0  0  0  0  0  0  0  0
  152.5155  144.5410  158.4841 C   0  0  0  0  0  0  0  0  0  0  0  0
  153.2036  143.6157  159.3174 O   0  0  0  0  0  0  0  0  0  0  0  0
  152.5656  142.3440  159.2590 C   0  0  0  0  0  0  0  0  0  0  0  0
  149.7238  132.4590  155.3526 N   0  0  0  0  0  0  0  0  0  0  0  0
  150.9848  132.4707  156.0821 C   0  0  0  0  0  0  0  0  0  0  0  0
  149.6241  131.3275  154.4467 C   0  0  0  0  0  0  0  0  0  0  0  0
  148.9702  131.4618  152.3977 H   0  0  0  0  0  0  0  0  0  0  0  0
  150.4151  133.7429  153.8851 H   0  0  0  0  0  0  0  0  0  0  0  0
  146.3729  129.2312  153.1423 H   0  0  0  0  0  0  0  0  0  0  0  0
  148.1284  129.0768  153.1824 H   0  0  0  0  0  0  0  0  0  0  0  0
  147.3364  129.9035  151.8298 H   0  0  0  0  0  0  0  0  0  0  0  0
  148.3747  133.7500  152.6336 H   0  0  0  0  0  0  0  0  0  0  0  0
  147.4191  133.3886  154.0703 H   0  0  0  0  0  0  0  0  0  0  0  0
  149.9604  135.6964  154.9380 H   0  0  0  0  0  0  0  0  0  0  0  0
  148.2663  135.3185  154.9913 H   0  0  0  0  0  0  0  0  0  0  0  0
  148.4497  133.7225  158.3642 H   0  0  0  0  0  0  0  0  0  0  0  0
  148.2542  132.9130  156.8196 H   0  0  0  0  0  0  0  0  0  0  0  0
  147.2588  134.3208  157.1981 H   0  0  0  0  0  0  0  0  0  0  0  0
  149.6020  136.8707  160.5646 H   0  0  0  0  0  0  0  0  0  0  0  0
  151.4470  139.1255  154.8234 H   0  0  0  0  0  0  0  0  0  0  0  0
  152.4107  140.1901  158.1196 H   0  0  0  0  0  0  0  0  0  0  0  0
  152.1575  140.8131  156.5237 H   0  0  0  0  0  0  0  0  0  0  0  0
  150.0333  140.7845  158.7219 H   0  0  0  0  0  0  0  0  0  0  0  0
  149.9701  142.3016  156.0722 H   0  0  0  0  0  0  0  0  0  0  0  0
  149.0446  140.8623  156.4266 H   0  0  0  0  0  0  0  0  0  0  0  0
  148.3186  143.2578  156.8366 H   0  0  0  0  0  0  0  0  0  0  0  0
  150.5216  142.9632  159.3805 H   0  0  0  0  0  0  0  0  0  0  0  0
  152.0582  143.3092  156.7754 H   0  0  0  0  0  0  0  0  0  0  0  0
  150.6899  144.2815  157.3154 H   0  0  0  0  0  0  0  0  0  0  0  0
  153.2073  145.1137  157.8663 H   0  0  0  0  0  0  0  0  0  0  0  0
  151.9673  145.2391  159.1183 H   0  0  0  0  0  0  0  0  0  0  0  0
  152.4907  141.9028  160.2530 H   0  0  0  0  0  0  0  0  0  0  0  0
  153.1768  141.6842  158.6415 H   0  0  0  0  0  0  0  0  0  0  0  0
  151.1018  131.5532  156.6599 H   0  0  0  0  0  0  0  0  0  0  0  0
  151.0253  133.3053  156.7816 H   0  0  0  0  0  0  0  0  0  0  0  0
  151.8349  132.5537  155.4034 H   0  0  0  0  0  0  0  0  0  0  0  0
  149.3815  130.4095  154.9832 H   0  0  0  0  0  0  0  0  0  0  0  0
  150.5806  131.1682  153.9461 H   0  0  0  0  0  0  0  0  0  0  0  0
  1  2  1  0  0  0  0
  1 32  1  0  0  0  0
  1 33  1  0  0  0  0
  1 34  1  0  0  0  0
  2  3  1  0  0  0  0
  3 30  1  0  0  0  0
  3 29  1  0  0  0  0
  3  4  1  0  0  0  0
  4  5  1  0  0  0  0
  4 35  1  0  0  0  0
  4 36  1  0  0  0  0
  5 31  1  0  0  0  0
  5  6  1  0  0  0  0
  5 27  1  0  0  0  0
  6  7  1  0  0  0  0
  6 37  1  0  0  0  0
  6 38  1  0  0  0  0
  7  8  1  0  0  0  0
  7  9  1  0  0  0  0
  8 39  1  0  0  0  0
  8 40  1  0  0  0  0
  8 41  1  0  0  0  0
  9 14  1  0  0  0  0
  9 10  2  0  0  0  0
 10 11  1  0  0  0  0
 11 12  2  0  0  0  0
 11 42  1  0  0  0  0
 12 13  1  0  0  0  0
 13 17  1  0  0  0  0
 13 14  2  0  0  0  0
 14 15  1  0  0  0  0
 15 16  2  0  0  0  0
 16 17  1  0  0  0  0
 16 43  1  0  0  0  0
 17 18  1  0  0  0  0
 18 19  1  0  0  0  0
 18 44  1  0  0  0  0
 18 45  1  0  0  0  0
 19 20  1  0  0  0  0
 19 22  1  0  0  0  0
 19 46  1  0  0  0  0
 20 21  1  0  0  0  0
 20 47  1  0  0  0  0
 20 48  1  0  0  0  0
 21 49  1  0  0  0  0
 22 26  1  0  0  0  0
 22 23  1  0  0  0  0
 22 50  1  0  0  0  0
 23 24  1  0  0  0  0
 23 51  1  0  0  0  0
 23 52  1  0  0  0  0
 24 25  1  0  0  0  0
 24 53  1  0  0  0  0
 24 54  1  0  0  0  0
 25 26  1  0  0  0  0
 26 55  1  0  0  0  0
 26 56  1  0  0  0  0
 27 28  1  0  0  0  0
 27 29  1  0  0  0  0
 28 57  1  0  0  0  0
 28 58  1  0  0  0  0
 28 59  1  0  0  0  0
 29 60  1  0  0  0  0
 29 61  1  0  0  0  0
M  END
> <s_m_source_file>
AV-unprocessed.smi

> <i_m_source_file_index>
21

> <i_lp_mmshare_version>
43012

> <i_f3d_flags>
0

> <s_epik_input>
W0NIM11PW0NASF0xW0NIMl1bQ0BIXShOKFtDSDNdKVtDSDJdMSlbQ0gyXU4oW0NIM10pYyhuW2NIXW4yKWMoYzIzKW5bY0hdbjNbQ0gyXVtDQEhdKFtDSDJdW09IXSlbQ0BASF00W0NIMl1bQ0gyXU9bQ0gyXTQ=

> <s_epik_cmdline>
J2VwaWtfcHl0aG9uJywgJy1waCcsICc3LjAnLCAnLXRuJywgJzgnLCAnLW1hJywgJzIwMCcsICctbWV0YWxfYmluZGluZycsICctaW1hZScsICc8aW5maWxlLm1hZT4nLCAnLW9tYWUnLCAnPG91dGZpbGUubWFlPic=

> <r_lp_tautomer_probability>
1

> <r_epik_Ionization_Penalty>
2.17574

> <r_epik_Ionization_Penalty_Charging>
0

> <r_epik_Ionization_Penalty_Neutral>
2.17574

> <r_epik_State_Penalty>
2.31336

> <r_epik_Charging_Adjusted_Penalty>
2.31336

> <i_epik_Tot_Q>
0

> <i_epik_Tot_abs_Q>
0

> <r_epik_Metal_State_Penalty>
2.31025

> <b_epik_Metal_Only>
0

> <s_lp_Force_Field>
OPLS_2005

> <r_lp_Energy>
70.2261

> <b_lp_Chiralities_Consistent>
1

> <s_lp_Variant>
AV-unprocessed.smi:21-33

> <Gold.Version>
5.8.1

> <Gold.Id.Protein>
6NUR|6NUR_protein|mol2

> <Gold.PLP.Fitness>
46.9420

> <Gold.PLP.PLP>
-44.1635

> <Gold.PLP.part.hbond>
-2.5902

> <Gold.PLP.part.metal>
0.0000

> <Gold.PLP.part.buried>
-6.4610

> <Gold.PLP.part.nonpolar>
-36.0222

> <Gold.PLP.part.repulsive>
0.1514

> <Gold.PLP.ligand.clash>
0.0000

> <Gold.PLP.ligand.torsion>
2.0125

> <Gold.PLP.Chemscore.Hbond>
2.0000

> <Gold.PLP.Chemscore.CHOScore>
0.0000

> <Gold.PLP.Chemscore.Metal>
0.0000

> <Gold.Chemscore.Hbonds>
donor molecule, donor type, donor heavy atom, donor atom, acceptor molecule, acceptor atom, score
      L1  H    21    49       P1  8028  1.00
      P1  H  6896  6907       L1    10  1.00

> <Gold.PLP.Chemscore.Internal.Correction>
0.8034

> <Gold.Rescore>
     Score         DG    S(hbond)    S(metal)    S(lipo)     H(rot)  DE(clash)    DE(int)     intcor
      8.56     -14.00       1.04        0.00     108.80       3.00       0.04       5.39       ----

> <Gold.Chemscore.Fitness>
8.5649

> <Gold.Chemscore.DG>
-13.9976

> <Gold.Chemscore.ZeroCoef>
-5.4800

> <Gold.Chemscore.Hbond>
1.0409

> <Gold.Chemscore.Metal>
0.0000

> <Gold.Chemscore.Lipo>
108.7956

> <Gold.Chemscore.Internal_Hbond>
0.0000

> <Gold.Chemscore.DEClash>
0.0393

> <Gold.Chemscore.DEInternal>
5.3934

> <Gold.Chemscore.Rot>
3.0031

> <Gold.Chemscore.Internal.Correction>
   9.000000E+99

> <Gold.Chemscore.Hbonds>
donor molecule, donor type, donor heavy atom, donor atom, acceptor molecule, acceptor atom, score
      L1  H    21    49       P1  8028  0.24
      P1  H  6896  6907       L1    10  0.16

> <Gold.Chemscore.Hbond.Weighted>
-3.4765

> <Gold.Chemscore.Metal.Weighted>
-0.0000

> <Gold.Chemscore.Lipo.Weighted>
-12.7291

> <Gold.Chemscore.Internal_Hbond.Weighted>
0.0000

> <Gold.Chemscore.DEClash.Weighted>
0.0393

> <Gold.Chemscore.DEInternal.Weighted>
5.3934

> <Gold.Chemscore.Rot.Weighted>
7.6880

> <Gold.Chemscore.Internal.Correction.Weighted>
   9.000000E+99

> <Gold.Protein.RotatedTorsions>
[ 6907 6896 6895 6894 ] final  -77.07 input  -60.11 | X-H torsion
[ 7974 7965 7964 7962 ] final  -82.13 input  175.53 | X-H torsion
[ 8008 7997 7996 7995 ] final  -56.06 input   59.86 | X-H torsion
[ 10167 10162 10161 10158 ] final   53.44 input  -65.29 | X-H torsion
[ 10718 10713 10712 10709 ] final  147.98 input   66.30 | X-H torsion
[ 10763 10752 10751 10750 ] final   59.76 input  -60.55 | X-H torsion
[ 11005 11000 10999 10996 ] final -177.22 input  -57.11 | X-H torsion

> <Gold.Protein.ActiveResidues>
 VAL166  LYS551  ARG553  GLY616  TRP617  ASP618  TYR619  PRO620  LYS621  CYS622 
 ASP623  PHE694  ASN695  SER759  ASP760  ASP761  ALA762  ILE779  LEU786  VAL792 
 PHE793  MET794  SER795  GLU796  ALA797  LYS798  CYS799  TRP800  GLU811  SER814 

> <Gold.Protein.RotatedAtoms>
  150.7009  134.4478  159.5321 H   0  0  0  0  0  0  0  0  0  0  0  0  # atno 6907 bound_to 6896
  152.2176  134.8440  160.0499 H   0  0  0  0  0  0  0  0  0  0  0  0  # atno 6908 bound_to 6896
  151.9302  133.3574  159.3965 H   0  0  0  0  0  0  0  0  0  0  0  0  # atno 6909 bound_to 6896
  145.5374  140.9514  143.1570 H   0  0  0  0  0  0  0  0  0  0  0  0  # atno 7974 bound_to 7965
  154.4216  140.1138  156.5577 H   0  0  0  0  0  0  0  0  0  0  0  0  # atno 8008 bound_to 7997
  155.6344  140.3496  155.4674 H   0  0  0  0  0  0  0  0  0  0  0  0  # atno 8009 bound_to 7997
  155.9922  140.1181  157.0617 H   0  0  0  0  0  0  0  0  0  0  0  0  # atno 8010 bound_to 7997
  140.2408  144.3586  150.6381 H   0  0  0  0  0  0  0  0  0  0  0  0  # atno 10167 bound_to 10162
  157.3143  131.0893  151.1291 H   0  0  0  0  0  0  0  0  0  0  0  0  # atno 10718 bound_to 10713
  152.9903  135.5560  154.5765 H   0  0  0  0  0  0  0  0  0  0  0  0  # atno 10763 bound_to 10752
  154.5155  135.2804  155.1309 H   0  0  0  0  0  0  0  0  0  0  0  0  # atno 10764 bound_to 10752
  154.2683  135.6368  153.5353 H   0  0  0  0  0  0  0  0  0  0  0  0  # atno 10765 bound_to 10752
  140.4433  134.6411  157.4768 H   0  0  0  0  0  0  0  0  0  0  0  0  # atno 11005 bound_to 11000
  144.7594  139.6993  143.7240 LP  0  0  0  0  0  0  0  0  0  0  0  0  # atno 17320 bound_to 7965
  146.2004  139.5295  142.9747 LP  0  0  0  0  0  0  0  0  0  0  0  0  # atno 17321 bound_to 7965
  140.6115  143.2170  151.6876 LP  0  0  0  0  0  0  0  0  0  0  0  0  # atno 17342 bound_to 10162
  139.5078  144.3633  152.0541 LP  0  0  0  0  0  0  0  0  0  0  0  0  # atno 17343 bound_to 10162
  157.2601  130.6655  149.5971 LP  0  0  0  0  0  0  0  0  0  0  0  0  # atno 17370 bound_to 10713
  155.9680  130.4511  150.5723 LP  0  0  0  0  0  0  0  0  0  0  0  0  # atno 17371 bound_to 10713
  140.0055  134.6771  155.9462 LP  0  0  0  0  0  0  0  0  0  0  0  0  # atno 17394 bound_to 11000
  141.1696  133.6537  156.4603 LP  0  0  0  0  0  0  0  0  0  0  0  0  # atno 17395 bound_to 11000

$$$$
