AV-unprocessed.smi:688|AV-procd|sdf|3356|dock6
  -GOLD-   22720 0333D 1   1.00000     0.00000
 Structure written by MMmdl.
 35 36  0  0  0  0  0  0  0  0  2 V2000
  149.2858  135.5032  158.6632 O   0  0  0  0  0  0  0  0  0  0  0  0
  149.4435  136.2053  157.6652 C   0  0  0  0  0  0  0  0  0  0  0  0
  150.4747  136.0200  156.7899 N   0  5  0  0  0  0  0  0  0  0  0  0
  150.6625  136.7861  155.6711 C   0  0  0  0  0  0  0  0  0  0  0  0
  151.6053  136.6052  154.9000 O   0  0  0  0  0  0  0  0  0  0  0  0
  149.7723  137.7871  155.4022 N   0  0  0  0  0  0  0  0  0  0  0  0
  149.8921  138.6551  154.2221 C   0  0  0  0  0  0  0  0  0  0  0  0
  149.5243  140.1207  154.5433 C   0  0  2  0  0  0  0  0  0  0  0  0
  149.4933  140.8346  153.3225 O   0  0  0  0  0  0  0  0  0  0  0  0
  150.5793  140.7945  155.4370 C   0  0  0  0  0  0  0  0  0  0  0  0
  150.4301  140.3202  156.7654 O   0  0  0  0  0  0  0  0  0  0  0  0
  151.6039  140.4757  157.5458 C   0  0  0  0  0  0  0  0  0  0  0  0
  151.6706  141.8472  158.1898 C   0  0  0  0  0  0  0  0  0  0  0  0
  152.0493  141.9746  159.5430 C   0  0  0  0  0  0  0  0  0  0  0  0
  152.0988  143.2454  160.1487 C   0  0  0  0  0  0  0  0  0  0  0  0
  151.7650  144.3939  159.4048 C   0  0  0  0  0  0  0  0  0  0  0  0
  151.8270  145.9508  160.1459 Cl  0  0  0  0  0  0  0  0  0  0  0  0
  151.3784  144.2699  158.0559 C   0  0  0  0  0  0  0  0  0  0  0  0
  151.3280  142.9991  157.4503 C   0  0  0  0  0  0  0  0  0  0  0  0
  148.7002  138.0272  156.2775 C   0  0  0  0  0  0  0  0  0  0  0  0
  148.5015  137.2870  157.3855 C   0  0  0  0  0  0  0  0  0  0  0  0
  147.1751  137.6071  158.4455 Cl  0  0  0  0  0  0  0  0  0  0  0  0
  150.9189  138.5999  153.8565 H   0  0  0  0  0  0  0  0  0  0  0  0
  149.2904  138.2779  153.3933 H   0  0  0  0  0  0  0  0  0  0  0  0
  148.5502  140.1723  155.0317 H   0  0  0  0  0  0  0  0  0  0  0  0
  149.4289  140.2130  152.6141 H   0  0  0  0  0  0  0  0  0  0  0  0
  151.5792  140.5262  155.0923 H   0  0  0  0  0  0  0  0  0  0  0  0
  150.5030  141.8825  155.3920 H   0  0  0  0  0  0  0  0  0  0  0  0
  151.6358  139.7045  158.3173 H   0  0  0  0  0  0  0  0  0  0  0  0
  152.4890  140.3474  156.9209 H   0  0  0  0  0  0  0  0  0  0  0  0
  152.3046  141.0977  160.1197 H   0  0  0  0  0  0  0  0  0  0  0  0
  152.3925  143.3367  161.1842 H   0  0  0  0  0  0  0  0  0  0  0  0
  151.1194  145.1487  157.4838 H   0  0  0  0  0  0  0  0  0  0  0  0
  151.0284  142.9130  156.4160 H   0  0  0  0  0  0  0  0  0  0  0  0
  148.0568  138.8484  155.9965 H   0  0  0  0  0  0  0  0  0  0  0  0
  1  2  2  0  0  0  0
  2 21  1  0  0  0  0
  2  3  1  0  0  0  0
  3  4  1  0  0  0  0
  4  5  2  0  0  0  0
  4  6  1  0  0  0  0
  6  7  1  0  0  0  0
  6 20  1  0  0  0  0
  7  8  1  0  0  0  0
  7 23  1  0  0  0  0
  7 24  1  0  0  0  0
  8  9  1  0  0  0  0
  8 10  1  0  0  0  0
  8 25  1  0  0  0  0
  9 26  1  0  0  0  0
 10 11  1  0  0  0  0
 10 27  1  0  0  0  0
 10 28  1  0  0  0  0
 11 12  1  0  0  0  0
 12 13  1  0  0  0  0
 12 29  1  0  0  0  0
 12 30  1  0  0  0  0
 13 19  1  0  0  0  0
 13 14  2  0  0  0  0
 14 15  1  0  0  0  0
 14 31  1  0  0  0  0
 15 16  2  0  0  0  0
 15 32  1  0  0  0  0
 16 17  1  0  0  0  0
 16 18  1  0  0  0  0
 18 19  2  0  0  0  0
 18 33  1  0  0  0  0
 19 34  1  0  0  0  0
 20 21  2  0  0  0  0
 20 35  1  0  0  0  0
 21 22  1  0  0  0  0
M  CHG  1   3  -1
M  END
> <s_m_source_file>
AV-unprocessed.smi

> <i_m_source_file_index>
688

> <i_lp_mmshare_version>
43012

> <i_f3d_flags>
0

> <s_epik_input>
Tz1jMVtuSF1jKD1PKW4oW2NIXWMxQ2wpW0NIMl1bQ0BIXShbT0hdKVtDSDJdT1tDSDJdYzJbY0hdW2NIXWMoQ2wpW2NIXVtjSF0y

> <s_epik_cmdline>
J2VwaWtfcHl0aG9uJywgJy1waCcsICc3LjAnLCAnLXRuJywgJzgnLCAnLW1hJywgJzIwMCcsICctbWV0YWxfYmluZGluZycsICctaW1hZScsICc8aW5maWxlLm1hZT4nLCAnLW9tYWUnLCAnPG91dGZpbGUubWFlPic=

> <r_epik_Ionization_Penalty>
1.82111

> <r_epik_Ionization_Penalty_Charging>
5.03334e-08

> <r_epik_Ionization_Penalty_Neutral>
1.82111

> <r_epik_State_Penalty>
1.93633

> <r_epik_Charging_Adjusted_Penalty>
1.93633

> <i_epik_Tot_Q>
-1

> <i_epik_Tot_abs_Q>
1

> <r_epik_Metal_State_Penalty>
0.0147818

> <b_epik_Metal_Only>
0

> <s_lp_Force_Field>
OPLS_2005

> <r_lp_Energy>
25.7398

> <b_lp_Chiralities_Consistent>
1

> <s_lp_Variant>
AV-unprocessed.smi:688-3

> <Gold.Version>
5.8.1

> <Gold.Id.Protein>
6NUR|6NUR_protein|mol2

> <Gold.PLP.Fitness>
51.4501

> <Gold.PLP.PLP>
-41.5153

> <Gold.PLP.part.hbond>
-4.3851

> <Gold.PLP.part.metal>
0.0000

> <Gold.PLP.part.buried>
-5.0216

> <Gold.PLP.part.nonpolar>
-32.6686

> <Gold.PLP.part.repulsive>
0.1348

> <Gold.PLP.ligand.clash>
0.0000

> <Gold.PLP.ligand.torsion>
0.9213

> <Gold.PLP.Chemscore.Hbond>
3.8536

> <Gold.PLP.Chemscore.CHOScore>
0.0000

> <Gold.PLP.Chemscore.Metal>
0.0000

> <Gold.Chemscore.Hbonds>
donor molecule, donor type, donor heavy atom, donor atom, acceptor molecule, acceptor atom, score
      L1  H     9    26       P1  7957  0.74
      P1  H  6896  6908       L1     1  1.00
      P1  H  7989  7998       L1     9  0.07
      P1  H  8011  8017       L1     9  0.95
      P1  H 10752 10765       L1     5  1.00

> <Gold.PLP.Chemscore.Internal.Correction>
0.2166

> <Gold.Rescore>
     Score         DG    S(hbond)    S(metal)    S(lipo)     H(rot)  DE(clash)    DE(int)     intcor
     17.60     -20.55       2.97        0.00     106.43       2.85       0.07       2.88       ----

> <Gold.Chemscore.Fitness>
17.6016

> <Gold.Chemscore.DG>
-20.5483

> <Gold.Chemscore.ZeroCoef>
-5.4800

> <Gold.Chemscore.Hbond>
2.9709

> <Gold.Chemscore.Metal>
0.0000

> <Gold.Chemscore.Lipo>
106.4301

> <Gold.Chemscore.Internal_Hbond>
0.0000

> <Gold.Chemscore.DEClash>
0.0706

> <Gold.Chemscore.DEInternal>
2.8761

> <Gold.Chemscore.Rot>
2.8542

> <Gold.Chemscore.Internal.Correction>
   9.000000E+99

> <Gold.Chemscore.Hbonds>
donor molecule, donor type, donor heavy atom, donor atom, acceptor molecule, acceptor atom, score
      L1  H     9    26       P1  7957  0.73
      P1  H  6896  6908       L1     1  0.98
      P1  H  8011  8017       L1     9  0.21
      P1  H 10752 10765       L1     5  0.97

> <Gold.Chemscore.Hbond.Weighted>
-9.9227

> <Gold.Chemscore.Metal.Weighted>
-0.0000

> <Gold.Chemscore.Lipo.Weighted>
-12.4523

> <Gold.Chemscore.Internal_Hbond.Weighted>
0.0000

> <Gold.Chemscore.DEClash.Weighted>
0.0706

> <Gold.Chemscore.DEInternal.Weighted>
2.8761

> <Gold.Chemscore.Rot.Weighted>
7.3067

> <Gold.Chemscore.Internal.Correction.Weighted>
   9.000000E+99

> <Gold.Protein.RotatedTorsions>
[ 6907 6896 6895 6894 ] final -176.86 input  -60.11 | X-H torsion
[ 7974 7965 7964 7962 ] final  -56.49 input  175.53 | X-H torsion
[ 8008 7997 7996 7995 ] final  -11.63 input   59.86 | X-H torsion
[ 10167 10162 10161 10158 ] final    2.18 input  -65.29 | X-H torsion
[ 10718 10713 10712 10709 ] final   45.54 input   66.30 | X-H torsion
[ 10763 10752 10751 10750 ] final -165.66 input  -60.55 | X-H torsion
[ 11005 11000 10999 10996 ] final  116.34 input  -57.11 | X-H torsion

> <Gold.Protein.ActiveResidues>
 VAL166  LYS551  ARG553  GLY616  TRP617  ASP618  TYR619  PRO620  LYS621  CYS622 
 ASP623  PHE694  ASN695  SER759  ASP760  ASP761  ALA762  ILE779  LEU786  VAL792 
 PHE793  MET794  SER795  GLU796  ALA797  LYS798  CYS799  TRP800  GLU811  SER814 

> <Gold.Protein.RotatedAtoms>
  151.6116  133.3347  159.3068 H   0  0  0  0  0  0  0  0  0  0  0  0  # atno 6907 bound_to 6896
  150.8153  134.7335  159.6736 H   0  0  0  0  0  0  0  0  0  0  0  0  # atno 6908 bound_to 6896
  152.4249  134.5892  160.0021 H   0  0  0  0  0  0  0  0  0  0  0  0  # atno 6909 bound_to 6896
  145.8621  140.8278  142.9932 H   0  0  0  0  0  0  0  0  0  0  0  0  # atno 7974 bound_to 7965
  154.5447  140.2297  155.8582 H   0  0  0  0  0  0  0  0  0  0  0  0  # atno 8008 bound_to 7997
  156.1892  140.3081  155.9260 H   0  0  0  0  0  0  0  0  0  0  0  0  # atno 8009 bound_to 7997
  155.3187  140.0439  157.3029 H   0  0  0  0  0  0  0  0  0  0  0  0  # atno 8010 bound_to 7997
  140.6647  143.7211  150.7805 H   0  0  0  0  0  0  0  0  0  0  0  0  # atno 10167 bound_to 10162
  157.4386  130.8068  149.7672 H   0  0  0  0  0  0  0  0  0  0  0  0  # atno 10718 bound_to 10713
  154.6910  135.2970  154.9480 H   0  0  0  0  0  0  0  0  0  0  0  0  # atno 10763 bound_to 10752
  154.0443  135.6653  153.4797 H   0  0  0  0  0  0  0  0  0  0  0  0  # atno 10764 bound_to 10752
  153.0612  135.5115  154.8002 H   0  0  0  0  0  0  0  0  0  0  0  0  # atno 10765 bound_to 10752
  139.9038  134.9596  156.7183 H   0  0  0  0  0  0  0  0  0  0  0  0  # atno 11005 bound_to 11000
  144.6726  140.1111  143.7455 LP  0  0  0  0  0  0  0  0  0  0  0  0  # atno 17320 bound_to 7965
  145.9236  139.2561  143.1367 LP  0  0  0  0  0  0  0  0  0  0  0  0  # atno 17321 bound_to 7965
  140.0886  143.4900  152.2491 LP  0  0  0  0  0  0  0  0  0  0  0  0  # atno 17342 bound_to 10162
  139.5892  144.7543  151.3443 LP  0  0  0  0  0  0  0  0  0  0  0  0  # atno 17343 bound_to 10162
  155.9940  130.3921  150.2877 LP  0  0  0  0  0  0  0  0  0  0  0  0  # atno 17370 bound_to 10713
  157.1040  131.0203  151.3074 LP  0  0  0  0  0  0  0  0  0  0  0  0  # atno 17371 bound_to 10713
  140.7021  133.9297  155.8031 LP  0  0  0  0  0  0  0  0  0  0  0  0  # atno 17394 bound_to 11000
  141.0364  134.0684  157.3954 LP  0  0  0  0  0  0  0  0  0  0  0  0  # atno 17395 bound_to 11000

$$$$
