AV-unprocessed.smi:2855|AV-procd|sdf|10988|dock1
  -GOLD-   2272015443D 1   1.00000     0.00000
 Structure written by MMmdl.
 46 47  0  0  0  0  0  0  0  0  2 V2000
  152.1796  145.1254  158.8569 C   0  0  0  0  0  0  0  0  0  0  0  0
  152.4885  143.6415  158.6124 C   0  0  1  0  0  0  0  0  0  0  0  0
  152.8228  142.9131  159.9241 C   0  0  0  0  0  0  0  0  0  0  0  0
  153.1416  141.4321  159.6743 C   0  0  0  0  0  0  0  0  0  0  0  0
  151.9803  140.6994  158.9606 C   0  0  2  0  0  0  0  0  0  0  0  0
  152.2414  139.1727  158.7837 C   0  0  0  0  0  0  0  0  0  0  0  0
  153.1443  138.5993  159.8894 C   0  0  0  0  0  0  0  0  0  0  0  0
  152.7760  138.7830  157.3931 C   0  0  0  0  0  0  0  0  0  0  0  0
  151.6096  141.4414  157.6436 C   0  0  1  0  0  0  0  0  0  0  0  0
  150.4224  140.8558  157.0222 N   0  0  0  0  0  0  0  0  0  0  0  0
  150.3583  140.2901  155.8068 C   0  0  0  0  0  0  0  0  0  0  0  0
  151.3220  140.2098  155.0446 O   0  0  0  0  0  0  0  0  0  0  0  0
  148.9840  139.7413  155.4015 C   0  0  0  0  0  0  0  0  0  0  0  0
  147.9775  140.7975  155.2102 N   0  0  0  0  0  0  0  0  0  0  0  0
  147.9828  141.4745  153.9781 C   0  0  0  0  0  0  0  0  0  0  0  0
  147.1013  142.4536  153.7003 C   0  0  0  0  0  0  0  0  0  0  0  0
  146.1209  142.8077  154.7190 C   0  0  0  0  0  0  0  0  0  0  0  0
  145.3009  143.6918  154.4790 O   0  0  0  0  0  0  0  0  0  0  0  0
  146.1633  142.1300  155.9034 N   0  5  0  0  0  0  0  0  0  0  0  0
  147.0688  141.1386  156.1733 C   0  0  0  0  0  0  0  0  0  0  0  0
  147.0907  140.5433  157.2511 O   0  0  0  0  0  0  0  0  0  0  0  0
  151.3228  142.9346  157.9003 C   0  0  0  0  0  0  0  0  0  0  0  0
  151.3094  145.2486  159.5025 H   0  0  0  0  0  0  0  0  0  0  0  0
  151.9744  145.6431  157.9195 H   0  0  0  0  0  0  0  0  0  0  0  0
  153.0215  145.6286  159.3336 H   0  0  0  0  0  0  0  0  0  0  0  0
  153.3638  143.5895  157.9629 H   0  0  0  0  0  0  0  0  0  0  0  0
  153.6743  143.3913  160.4098 H   0  0  0  0  0  0  0  0  0  0  0  0
  151.9857  142.9942  160.6191 H   0  0  0  0  0  0  0  0  0  0  0  0
  154.0514  141.3647  159.0775 H   0  0  0  0  0  0  0  0  0  0  0  0
  153.3639  140.9597  160.6303 H   0  0  0  0  0  0  0  0  0  0  0  0
  151.1103  140.7861  159.6138 H   0  0  0  0  0  0  0  0  0  0  0  0
  151.2882  138.6588  158.9050 H   0  0  0  0  0  0  0  0  0  0  0  0
  154.1672  138.9674  159.8126 H   0  0  0  0  0  0  0  0  0  0  0  0
  153.1873  137.5116  159.8288 H   0  0  0  0  0  0  0  0  0  0  0  0
  152.7683  138.8552  160.8801 H   0  0  0  0  0  0  0  0  0  0  0  0
  153.7711  139.1893  157.2129 H   0  0  0  0  0  0  0  0  0  0  0  0
  152.1231  139.1303  156.5938 H   0  0  0  0  0  0  0  0  0  0  0  0
  152.8472  137.6992  157.2975 H   0  0  0  0  0  0  0  0  0  0  0  0
  152.4570  141.3892  156.9584 H   0  0  0  0  0  0  0  0  0  0  0  0
  149.5736  140.8787  157.5680 H   0  0  0  0  0  0  0  0  0  0  0  0
  149.0818  139.1669  154.4787 H   0  0  0  0  0  0  0  0  0  0  0  0
  148.6635  139.0176  156.1522 H   0  0  0  0  0  0  0  0  0  0  0  0
  148.7447  141.1537  153.2825 H   0  0  0  0  0  0  0  0  0  0  0  0
  147.1201  142.9649  152.7490 H   0  0  0  0  0  0  0  0  0  0  0  0
  150.4178  143.0356  158.5017 H   0  0  0  0  0  0  0  0  0  0  0  0
  151.1172  143.4346  156.9524 H   0  0  0  0  0  0  0  0  0  0  0  0
  1  2  1  0  0  0  0
  1 23  1  0  0  0  0
  1 24  1  0  0  0  0
  1 25  1  0  0  0  0
  2 22  1  0  0  0  0
  2  3  1  0  0  0  0
  2 26  1  0  0  0  0
  3  4  1  0  0  0  0
  3 27  1  0  0  0  0
  3 28  1  0  0  0  0
  4  5  1  0  0  0  0
  4 29  1  0  0  0  0
  4 30  1  0  0  0  0
  5  6  1  0  0  0  0
  5  9  1  0  0  0  0
  5 31  1  0  0  0  0
  6  7  1  0  0  0  0
  6  8  1  0  0  0  0
  6 32  1  0  0  0  0
  7 33  1  0  0  0  0
  7 34  1  0  0  0  0
  7 35  1  0  0  0  0
  8 36  1  0  0  0  0
  8 37  1  0  0  0  0
  8 38  1  0  0  0  0
  9 10  1  0  0  0  0
  9 22  1  0  0  0  0
  9 39  1  0  0  0  0
 10 11  1  0  0  0  0
 10 40  1  0  0  0  0
 11 12  2  0  0  0  0
 11 13  1  0  0  0  0
 13 14  1  0  0  0  0
 13 41  1  0  0  0  0
 13 42  1  0  0  0  0
 14 20  1  0  0  0  0
 14 15  1  0  0  0  0
 15 16  2  0  0  0  0
 15 43  1  0  0  0  0
 16 17  1  0  0  0  0
 16 44  1  0  0  0  0
 17 18  2  0  0  0  0
 17 19  1  0  0  0  0
 19 20  1  0  0  0  0
 20 21  2  0  0  0  0
 22 45  1  0  0  0  0
 22 46  1  0  0  0  0
M  CHG  1  19  -1
M  END
> <s_m_source_file>
AV-unprocessed.smi

> <i_m_source_file_index>
2855

> <i_lp_mmshare_version>
43012

> <i_f3d_flags>
0

> <s_epik_input>
W0NIM11bQ0BASF0xW0NIMl1bQ0gyXVtDQEBIXShbQ0hdKFtDSDNdKVtDSDNdKVtDQEhdKFtDSDJdMSlbTkhdQyg9TylbQ0gyXW4yW2NIXVtjSF1jKD1PKVtuSF1jMj1P

> <s_epik_cmdline>
J2VwaWtfcHl0aG9uJywgJy1waCcsICc3LjAnLCAnLXRuJywgJzgnLCAnLW1hJywgJzIwMCcsICctbWV0YWxfYmluZGluZycsICctaW1hZScsICc8aW5maWxlLm1hZT4nLCAnLW9tYWUnLCAnPG91dGZpbGUubWFlPic=

> <r_lp_tautomer_probability>
0.999537

> <r_epik_Ionization_Penalty>
3.12102

> <r_epik_Ionization_Penalty_Charging>
2.9581e-08

> <r_epik_Ionization_Penalty_Neutral>
3.12102

> <r_epik_State_Penalty>
3.12011

> <r_epik_Charging_Adjusted_Penalty>
3.12011

> <i_epik_Tot_Q>
-1

> <i_epik_Tot_abs_Q>
1

> <r_epik_Metal_State_Penalty>
0.463583

> <b_epik_Metal_Only>
1

> <s_lp_Force_Field>
OPLS_2005

> <r_lp_Energy>
25.0063

> <b_lp_Chiralities_Consistent>
1

> <s_lp_Variant>
AV-unprocessed.smi:2855-12

> <Gold.Version>
5.8.1

> <Gold.Id.Protein>
6NUR|6NUR_protein|mol2

> <Gold.PLP.Fitness>
45.5126

> <Gold.PLP.PLP>
-41.7349

> <Gold.PLP.part.hbond>
-1.0000

> <Gold.PLP.part.metal>
0.0000

> <Gold.PLP.part.buried>
-6.8867

> <Gold.PLP.part.nonpolar>
-34.2589

> <Gold.PLP.part.repulsive>
0.4067

> <Gold.PLP.ligand.clash>
0.0000

> <Gold.PLP.ligand.torsion>
1.1517

> <Gold.PLP.Chemscore.Hbond>
1.0000

> <Gold.PLP.Chemscore.CHOScore>
0.9917

> <Gold.PLP.Chemscore.Metal>
0.0000

> <Gold.Chemscore.Hbonds>
donor molecule, donor type, donor heavy atom, donor atom, acceptor molecule, acceptor atom, score
      P1  H  7989  7998       L1    12  1.00
      L1  C    15    43       P1  7957  0.98

> <Gold.PLP.Chemscore.Internal.Correction>
0.1060

> <Gold.Rescore>
     Score         DG    S(hbond)    S(metal)    S(lipo)     H(rot)  DE(clash)    DE(int)     intcor
     15.64     -16.69       0.99        0.00     107.08       1.81       0.06       0.99       ----

> <Gold.Chemscore.Fitness>
15.6405

> <Gold.Chemscore.DG>
-16.6859

> <Gold.Chemscore.ZeroCoef>
-5.4800

> <Gold.Chemscore.Hbond>
0.9915

> <Gold.Chemscore.Metal>
0.0000

> <Gold.Chemscore.Lipo>
107.0764

> <Gold.Chemscore.Internal_Hbond>
0.0000

> <Gold.Chemscore.DEClash>
0.0560

> <Gold.Chemscore.DEInternal>
0.9894

> <Gold.Chemscore.Rot>
1.8100

> <Gold.Chemscore.Internal.Correction>
   9.000000E+99

> <Gold.Chemscore.Hbonds>
donor molecule, donor type, donor heavy atom, donor atom, acceptor molecule, acceptor atom, score
      P1  H  7989  7998       L1    12  0.98

> <Gold.Chemscore.Hbond.Weighted>
-3.3115

> <Gold.Chemscore.Metal.Weighted>
-0.0000

> <Gold.Chemscore.Lipo.Weighted>
-12.5279

> <Gold.Chemscore.Internal_Hbond.Weighted>
0.0000

> <Gold.Chemscore.DEClash.Weighted>
0.0560

> <Gold.Chemscore.DEInternal.Weighted>
0.9894

> <Gold.Chemscore.Rot.Weighted>
4.6335

> <Gold.Chemscore.Internal.Correction.Weighted>
   9.000000E+99

> <Gold.Protein.RotatedTorsions>
[ 6907 6896 6895 6894 ] final -110.61 input  -60.11 | X-H torsion
[ 7974 7965 7964 7962 ] final -107.42 input  175.53 | X-H torsion
[ 8008 7997 7996 7995 ] final  -45.99 input   59.86 | X-H torsion
[ 10167 10162 10161 10158 ] final   72.92 input  -65.29 | X-H torsion
[ 10718 10713 10712 10709 ] final  -59.21 input   66.30 | X-H torsion
[ 10763 10752 10751 10750 ] final  154.42 input  -60.55 | X-H torsion
[ 11005 11000 10999 10996 ] final  104.36 input  -57.11 | X-H torsion

> <Gold.Protein.ActiveResidues>
 VAL166  LYS551  ARG553  GLY616  TRP617  ASP618  TYR619  PRO620  LYS621  CYS622 
 ASP623  PHE694  ASN695  SER759  ASP760  ASP761  ALA762  ILE779  LEU786  VAL792 
 PHE793  MET794  SER795  GLU796  ALA797  LYS798  CYS799  TRP800  GLU811  SER814 

> <Gold.Protein.RotatedAtoms>
  150.7636  133.9357  159.3440 H   0  0  0  0  0  0  0  0  0  0  0  0  # atno 6907 bound_to 6896
  151.7260  135.0883  160.0301 H   0  0  0  0  0  0  0  0  0  0  0  0  # atno 6908 bound_to 6896
  152.3620  133.6271  159.6058 H   0  0  0  0  0  0  0  0  0  0  0  0  # atno 6909 bound_to 6896
  145.2055  140.9074  143.3345 H   0  0  0  0  0  0  0  0  0  0  0  0  # atno 7974 bound_to 7965
  154.4004  140.1383  156.3938 H   0  0  0  0  0  0  0  0  0  0  0  0  # atno 8008 bound_to 7997
  155.7889  140.3479  155.5318 H   0  0  0  0  0  0  0  0  0  0  0  0  # atno 8009 bound_to 7997
  155.8599  140.0955  157.1610 H   0  0  0  0  0  0  0  0  0  0  0  0  # atno 8010 bound_to 7997
  140.0301  144.5473  150.7514 H   0  0  0  0  0  0  0  0  0  0  0  0  # atno 10167 bound_to 10162
  156.1079  130.4178  150.0683 H   0  0  0  0  0  0  0  0  0  0  0  0  # atno 10718 bound_to 10713
  154.1521  135.2814  155.3132 H   0  0  0  0  0  0  0  0  0  0  0  0  # atno 10763 bound_to 10752
  154.6210  135.5467  153.7578 H   0  0  0  0  0  0  0  0  0  0  0  0  # atno 10764 bound_to 10752
  153.0218  135.6439  154.1665 H   0  0  0  0  0  0  0  0  0  0  0  0  # atno 10765 bound_to 10752
  139.8791  134.9297  156.5349 H   0  0  0  0  0  0  0  0  0  0  0  0  # atno 11005 bound_to 11000
  144.9906  139.3693  143.6216 LP  0  0  0  0  0  0  0  0  0  0  0  0  # atno 17320 bound_to 7965
  146.3409  139.9087  142.8783 LP  0  0  0  0  0  0  0  0  0  0  0  0  # atno 17321 bound_to 7965
  140.7306  143.2685  151.3966 LP  0  0  0  0  0  0  0  0  0  0  0  0  # atno 17342 bound_to 10162
  139.6082  144.1153  152.2271 LP  0  0  0  0  0  0  0  0  0  0  0  0  # atno 17343 bound_to 10162
  156.8654  130.9506  151.3614 LP  0  0  0  0  0  0  0  0  0  0  0  0  # atno 17370 bound_to 10713
  157.6257  130.8690  149.9185 LP  0  0  0  0  0  0  0  0  0  0  0  0  # atno 17371 bound_to 10713
  140.8353  133.8247  155.9023 LP  0  0  0  0  0  0  0  0  0  0  0  0  # atno 17394 bound_to 11000
  140.9290  134.2046  157.4877 LP  0  0  0  0  0  0  0  0  0  0  0  0  # atno 17395 bound_to 11000

$$$$
