AV-unprocessed.smi:2659|AV-procd|sdf|10313|dock8
  -GOLD-   2272014333D 1   1.00000     0.00000
 Structure written by MMmdl.
 47 48  0  0  0  0  0  0  0  0  1 V2000
  151.4022  137.9026  154.0410 C   0  0  0  0  0  0  0  0  0  0  0  0
  150.5571  139.0279  154.3889 N   0  0  0  0  0  0  0  0  0  0  0  0
  151.0648  140.0622  155.0926 N   0  0  0  0  0  0  0  0  0  0  0  0
  150.0560  140.9150  155.2394 C   0  0  0  0  0  0  0  0  0  0  0  0
  150.2735  142.2086  155.9828 C   0  0  0  0  0  0  0  0  0  0  0  0
  150.7373  142.0547  157.4593 C   0  0  0  0  0  0  0  0  0  0  0  0
  149.5353  141.6985  158.3569 C   0  0  0  0  0  0  0  0  0  0  0  0
  151.3215  143.3991  157.9355 C   0  0  0  0  0  0  0  0  0  0  0  0
  151.8225  140.9676  157.6164 C   0  0  0  0  0  0  0  0  0  0  0  0
  148.8513  140.4462  154.6380 C   0  0  0  0  0  0  0  0  0  0  0  0
  149.2267  139.2428  154.1068 C   0  0  0  0  0  0  0  0  0  0  0  0
  148.4809  138.3461  153.4084 N   0  0  0  0  0  0  0  0  0  0  0  0
  147.1451  138.2919  153.2679 C   0  0  0  0  0  0  0  0  0  0  0  0
  146.3406  139.0776  153.7694 O   0  0  0  0  0  0  0  0  0  0  0  0
  146.7826  137.2558  152.4987 N   0  0  0  0  0  0  0  0  0  0  0  0
  145.4084  136.9050  152.1591 C   0  0  0  0  0  0  0  0  0  0  0  0
  145.3532  135.7804  151.1122 C   0  0  1  0  0  0  0  0  0  0  0  0
  146.2348  134.5815  151.4520 C   0  0  0  0  0  0  0  0  0  0  0  0
  145.5769  133.4859  150.6447 C   0  0  0  0  0  0  0  0  0  0  0  0
  144.0966  133.8356  150.7791 C   0  0  0  0  0  0  0  0  0  0  0  0
  144.0379  135.2397  151.0218 O   0  0  0  0  0  0  0  0  0  0  0  0
  151.3713  137.7407  152.9634 H   0  0  0  0  0  0  0  0  0  0  0  0
  151.0436  137.0063  154.5473 H   0  0  0  0  0  0  0  0  0  0  0  0
  152.4345  138.0902  154.3395 H   0  0  0  0  0  0  0  0  0  0  0  0
  151.0288  142.7757  155.4369 H   0  0  0  0  0  0  0  0  0  0  0  0
  149.3749  142.8254  155.9347 H   0  0  0  0  0  0  0  0  0  0  0  0
  149.8281  141.6366  159.4057 H   0  0  0  0  0  0  0  0  0  0  0  0
  149.1024  140.7355  158.0858 H   0  0  0  0  0  0  0  0  0  0  0  0
  148.7452  142.4465  158.2823 H   0  0  0  0  0  0  0  0  0  0  0  0
  150.5916  144.2043  157.8430 H   0  0  0  0  0  0  0  0  0  0  0  0
  152.1985  143.6818  157.3521 H   0  0  0  0  0  0  0  0  0  0  0  0
  151.6280  143.3533  158.9811 H   0  0  0  0  0  0  0  0  0  0  0  0
  152.1976  140.9294  158.6396 H   0  0  0  0  0  0  0  0  0  0  0  0
  152.6738  141.1616  156.9629 H   0  0  0  0  0  0  0  0  0  0  0  0
  151.4430  139.9728  157.3808 H   0  0  0  0  0  0  0  0  0  0  0  0
  147.8874  140.9311  154.6098 H   0  0  0  0  0  0  0  0  0  0  0  0
  149.0068  137.6312  152.9277 H   0  0  0  0  0  0  0  0  0  0  0  0
  147.5072  136.6569  152.1312 H   0  0  0  0  0  0  0  0  0  0  0  0
  144.8681  136.6097  153.0600 H   0  0  0  0  0  0  0  0  0  0  0  0
  144.9099  137.7967  151.7780 H   0  0  0  0  0  0  0  0  0  0  0  0
  145.6342  136.1571  150.1271 H   0  0  0  0  0  0  0  0  0  0  0  0
  147.2821  134.7358  151.1913 H   0  0  0  0  0  0  0  0  0  0  0  0
  146.1763  134.3481  152.5161 H   0  0  0  0  0  0  0  0  0  0  0  0
  145.8859  133.5558  149.6010 H   0  0  0  0  0  0  0  0  0  0  0  0
  145.8132  132.4844  151.0050 H   0  0  0  0  0  0  0  0  0  0  0  0
  143.5282  133.5637  149.8894 H   0  0  0  0  0  0  0  0  0  0  0  0
  143.6564  133.3193  151.6327 H   0  0  0  0  0  0  0  0  0  0  0  0
  1  2  1  0  0  0  0
  1 22  1  0  0  0  0
  1 23  1  0  0  0  0
  1 24  1  0  0  0  0
  2 11  1  0  0  0  0
  2  3  1  0  0  0  0
  3  4  2  0  0  0  0
  4  5  1  0  0  0  0
  4 10  1  0  0  0  0
  5  6  1  0  0  0  0
  5 25  1  0  0  0  0
  5 26  1  0  0  0  0
  6  7  1  0  0  0  0
  6  8  1  0  0  0  0
  6  9  1  0  0  0  0
  7 27  1  0  0  0  0
  7 28  1  0  0  0  0
  7 29  1  0  0  0  0
  8 30  1  0  0  0  0
  8 31  1  0  0  0  0
  8 32  1  0  0  0  0
  9 33  1  0  0  0  0
  9 34  1  0  0  0  0
  9 35  1  0  0  0  0
 10 11  2  0  0  0  0
 10 36  1  0  0  0  0
 11 12  1  0  0  0  0
 12 13  1  0  0  0  0
 12 37  1  0  0  0  0
 13 14  2  0  0  0  0
 13 15  1  0  0  0  0
 15 16  1  0  0  0  0
 15 38  1  0  0  0  0
 16 17  1  0  0  0  0
 16 39  1  0  0  0  0
 16 40  1  0  0  0  0
 17 21  1  0  0  0  0
 17 18  1  0  0  0  0
 17 41  1  0  0  0  0
 18 19  1  0  0  0  0
 18 42  1  0  0  0  0
 18 43  1  0  0  0  0
 19 20  1  0  0  0  0
 19 44  1  0  0  0  0
 19 45  1  0  0  0  0
 20 21  1  0  0  0  0
 20 46  1  0  0  0  0
 20 47  1  0  0  0  0
M  END
> <s_m_source_file>
AV-unprocessed.smi

> <i_m_source_file_index>
2659

> <i_lp_mmshare_version>
43012

> <i_f3d_flags>
0

> <s_epik_input>
W0NIM11uMW5jKFtDSDJdQyhbQ0gzXSkoW0NIM10pW0NIM10pW2NIXWMxW05IXUMoPU8pW05IXVtDSDJdW0NAQEhdMltDSDJdW0NIMl1bQ0gyXU8y

> <s_epik_cmdline>
J2VwaWtfcHl0aG9uJywgJy1waCcsICc3LjAnLCAnLXRuJywgJzgnLCAnLW1hJywgJzIwMCcsICctbWV0YWxfYmluZGluZycsICctaW1hZScsICc8aW5maWxlLm1hZT4nLCAnLW9tYWUnLCAnPG91dGZpbGUubWFlPic=

> <r_lp_tautomer_probability>
1

> <r_epik_Ionization_Penalty>
9.6187e-05

> <r_epik_Ionization_Penalty_Charging>
0

> <r_epik_Ionization_Penalty_Neutral>
9.6187e-05

> <r_epik_State_Penalty>
-0

> <r_epik_Charging_Adjusted_Penalty>
0

> <i_epik_Tot_Q>
0

> <i_epik_Tot_abs_Q>
0

> <r_epik_Metal_State_Penalty>
-0

> <b_epik_Metal_Only>
0

> <s_lp_Force_Field>
OPLS_2005

> <r_lp_Energy>
21.1922

> <b_lp_Chiralities_Consistent>
1

> <s_lp_Variant>
AV-unprocessed.smi:2659-2

> <Gold.Version>
5.8.1

> <Gold.Id.Protein>
6NUR|6NUR_protein|mol2

> <Gold.PLP.Fitness>
43.7176

> <Gold.PLP.PLP>
-37.5796

> <Gold.PLP.part.hbond>
-3.6799

> <Gold.PLP.part.metal>
0.0000

> <Gold.PLP.part.buried>
-1.0528

> <Gold.PLP.part.nonpolar>
-32.8069

> <Gold.PLP.part.repulsive>
0.5019

> <Gold.PLP.ligand.clash>
0.0000

> <Gold.PLP.ligand.torsion>
0.3648

> <Gold.PLP.Chemscore.Hbond>
2.2850

> <Gold.PLP.Chemscore.CHOScore>
0.0000

> <Gold.PLP.Chemscore.Metal>
0.0000

> <Gold.Chemscore.Hbonds>
donor molecule, donor type, donor heavy atom, donor atom, acceptor molecule, acceptor atom, score
      L1  H    12    37       P1  7948  0.96
      L1  H    15    38       P1  7948  0.96
      P1  H  7989  7998       L1     3  0.32

> <Gold.PLP.Chemscore.Internal.Correction>
0.0127

> <Gold.Rescore>
     Score         DG    S(hbond)    S(metal)    S(lipo)     H(rot)  DE(clash)    DE(int)     intcor
     15.66     -18.17       1.95        0.00      85.37       1.49       0.10       2.41       ----

> <Gold.Chemscore.Fitness>
15.6593

> <Gold.Chemscore.DG>
-18.1686

> <Gold.Chemscore.ZeroCoef>
-5.4800

> <Gold.Chemscore.Hbond>
1.9501

> <Gold.Chemscore.Metal>
0.0000

> <Gold.Chemscore.Lipo>
85.3691

> <Gold.Chemscore.Internal_Hbond>
0.0000

> <Gold.Chemscore.DEClash>
0.0976

> <Gold.Chemscore.DEInternal>
2.4117

> <Gold.Chemscore.Rot>
1.4894

> <Gold.Chemscore.Internal.Correction>
   9.000000E+99

> <Gold.Chemscore.Hbonds>
donor molecule, donor type, donor heavy atom, donor atom, acceptor molecule, acceptor atom, score
      L1  H    12    37       P1  7948  0.92
      L1  H    15    38       P1  7948  0.90

> <Gold.Chemscore.Hbond.Weighted>
-6.5133

> <Gold.Chemscore.Metal.Weighted>
-0.0000

> <Gold.Chemscore.Lipo.Weighted>
-9.9882

> <Gold.Chemscore.Internal_Hbond.Weighted>
0.0000

> <Gold.Chemscore.DEClash.Weighted>
0.0976

> <Gold.Chemscore.DEInternal.Weighted>
2.4117

> <Gold.Chemscore.Rot.Weighted>
3.8129

> <Gold.Chemscore.Internal.Correction.Weighted>
   9.000000E+99

> <Gold.Protein.RotatedTorsions>
[ 6907 6896 6895 6894 ] final -137.67 input  -60.11 | X-H torsion
[ 7974 7965 7964 7962 ] final   66.75 input  175.53 | X-H torsion
[ 8008 7997 7996 7995 ] final  -31.18 input   59.86 | X-H torsion
[ 10167 10162 10161 10158 ] final   27.71 input  -65.29 | X-H torsion
[ 10718 10713 10712 10709 ] final  161.15 input   66.30 | X-H torsion
[ 10763 10752 10751 10750 ] final  -95.96 input  -60.55 | X-H torsion
[ 11005 11000 10999 10996 ] final -131.36 input  -57.11 | X-H torsion

> <Gold.Protein.ActiveResidues>
 VAL166  LYS551  ARG553  GLY616  TRP617  ASP618  TYR619  PRO620  LYS621  CYS622 
 ASP623  PHE694  ASN695  SER759  ASP760  ASP761  ALA762  ILE779  LEU786  VAL792 
 PHE793  MET794  SER795  GLU796  ALA797  LYS798  CYS799  TRP800  GLU811  SER814 

> <Gold.Protein.RotatedAtoms>
  151.0254  133.5838  159.2666 H   0  0  0  0  0  0  0  0  0  0  0  0  # atno 6907 bound_to 6896
  151.2940  135.0749  159.9224 H   0  0  0  0  0  0  0  0  0  0  0  0  # atno 6908 bound_to 6896
  152.5333  133.9947  159.7921 H   0  0  0  0  0  0  0  0  0  0  0  0  # atno 6909 bound_to 6896
  145.8228  139.3094  143.1033 H   0  0  0  0  0  0  0  0  0  0  0  0  # atno 7974 bound_to 7965
  154.4223  140.1771  156.1525 H   0  0  0  0  0  0  0  0  0  0  0  0  # atno 8008 bound_to 7997
  155.9904  140.3369  155.6723 H   0  0  0  0  0  0  0  0  0  0  0  0  # atno 8009 bound_to 7997
  155.6380  140.0677  157.2618 H   0  0  0  0  0  0  0  0  0  0  0  0  # atno 8010 bound_to 7997
  140.4915  144.0459  150.6299 H   0  0  0  0  0  0  0  0  0  0  0  0  # atno 10167 bound_to 10162
  157.1405  131.0539  151.2329 H   0  0  0  0  0  0  0  0  0  0  0  0  # atno 10718 bound_to 10713
  154.7196  135.5101  153.8791 H   0  0  0  0  0  0  0  0  0  0  0  0  # atno 10763 bound_to 10752
  153.0850  135.6643  153.9975 H   0  0  0  0  0  0  0  0  0  0  0  0  # atno 10764 bound_to 10752
  153.9801  135.3030  155.3400 H   0  0  0  0  0  0  0  0  0  0  0  0  # atno 10765 bound_to 10752
  140.9265  134.1375  157.4270 H   0  0  0  0  0  0  0  0  0  0  0  0  # atno 11005 bound_to 11000
  145.9656  140.8801  143.0189 LP  0  0  0  0  0  0  0  0  0  0  0  0  # atno 17320 bound_to 7965
  144.6746  140.1873  143.7400 LP  0  0  0  0  0  0  0  0  0  0  0  0  # atno 17321 bound_to 7965
  140.3730  143.2844  152.0257 LP  0  0  0  0  0  0  0  0  0  0  0  0  # atno 17342 bound_to 10162
  139.4852  144.6215  151.7246 LP  0  0  0  0  0  0  0  0  0  0  0  0  # atno 17343 bound_to 10162
  157.4311  130.7491  149.6991 LP  0  0  0  0  0  0  0  0  0  0  0  0  # atno 17370 bound_to 10713
  155.9789  130.4045  150.3617 LP  0  0  0  0  0  0  0  0  0  0  0  0  # atno 17371 bound_to 10713
  139.8787  134.9990  156.5931 LP  0  0  0  0  0  0  0  0  0  0  0  0  # atno 17394 bound_to 11000
  140.7919  133.8576  155.8653 LP  0  0  0  0  0  0  0  0  0  0  0  0  # atno 17395 bound_to 11000

$$$$
