AV-unprocessed.smi:2987|AV-procd|sdf|11386|dock3
  -GOLD-   2272016313D 1   1.00000     0.00000
 Structure written by MMmdl.
 26 27  0  0  0  0  0  0  0  0  2 V2000
  149.7132  141.4001  155.0043 C   0  0  0  0  0  0  0  0  0  0  0  0
  150.5098  141.8765  156.1721 C   0  0  0  0  0  0  0  0  0  0  0  0
  150.6597  143.1723  156.5675 N   0  3  0  0  0  0  0  0  0  0  0  0
  151.4761  143.2298  157.6982 C   0  0  0  0  0  0  0  0  0  0  0  0
  151.9114  144.3133  158.4552 C   0  0  0  0  0  0  0  0  0  0  0  0
  152.7456  144.0222  159.5548 C   0  0  0  0  0  0  0  0  0  0  0  0
  153.1171  142.6978  159.8651 C   0  0  0  0  0  0  0  0  0  0  0  0
  152.6696  141.6073  159.0903 C   0  0  0  0  0  0  0  0  0  0  0  0
  151.8437  141.9038  158.0065 C   0  0  0  0  0  0  0  0  0  0  0  0
  151.2235  141.1045  157.0402 N   0  0  0  0  0  0  0  0  0  0  0  0
  151.4138  139.6493  157.0815 C   0  0  0  0  0  0  0  0  0  0  0  0
  151.8987  139.0985  155.7334 C   0  0  0  0  0  0  0  0  0  0  0  0
  153.3085  139.1069  155.6986 O   0  0  0  0  0  0  0  0  0  0  0  0
  149.3113  142.2443  154.4434 H   0  0  0  0  0  0  0  0  0  0  0  0
  148.8821  140.7817  155.3437 H   0  0  0  0  0  0  0  0  0  0  0  0
  150.3401  140.8076  154.3375 H   0  0  0  0  0  0  0  0  0  0  0  0
  151.6294  145.3289  158.2190 H   0  0  0  0  0  0  0  0  0  0  0  0
  153.1086  144.8314  160.1720 H   0  0  0  0  0  0  0  0  0  0  0  0
  153.7587  142.5138  160.7148 H   0  0  0  0  0  0  0  0  0  0  0  0
  152.9604  140.5962  159.3352 H   0  0  0  0  0  0  0  0  0  0  0  0
  152.1125  139.4085  157.8837 H   0  0  0  0  0  0  0  0  0  0  0  0
  150.4600  139.1961  157.3550 H   0  0  0  0  0  0  0  0  0  0  0  0
  151.5444  138.0781  155.5845 H   0  0  0  0  0  0  0  0  0  0  0  0
  151.5205  139.7007  154.9069 H   0  0  0  0  0  0  0  0  0  0  0  0
  153.6185  138.2201  155.8032 H   0  0  0  0  0  0  0  0  0  0  0  0
  150.2336  143.9593  156.0952 H   0  0  0  0  0  0  0  0  0  0  0  0
  1  2  1  0  0  0  0
  1 14  1  0  0  0  0
  1 15  1  0  0  0  0
  1 16  1  0  0  0  0
  2 10  1  0  0  0  0
  2  3  2  0  0  0  0
  3  4  1  0  0  0  0
  3 26  1  0  0  0  0
  4  9  2  0  0  0  0
  4  5  1  0  0  0  0
  5  6  2  0  0  0  0
  5 17  1  0  0  0  0
  6  7  1  0  0  0  0
  6 18  1  0  0  0  0
  7  8  2  0  0  0  0
  7 19  1  0  0  0  0
  8  9  1  0  0  0  0
  8 20  1  0  0  0  0
  9 10  1  0  0  0  0
 10 11  1  0  0  0  0
 11 12  1  0  0  0  0
 11 21  1  0  0  0  0
 11 22  1  0  0  0  0
 12 13  1  0  0  0  0
 12 23  1  0  0  0  0
 12 24  1  0  0  0  0
 13 25  1  0  0  0  0
M  CHG  1   3   1
M  END
> <s_m_source_file>
AV-unprocessed.smi

> <i_m_source_file_index>
2987

> <i_lp_mmshare_version>
43012

> <i_f3d_flags>
0

> <s_epik_input>
W09IXVtDSDJdW0NIMl1uKGMobjEpW0NIM10pYyhjMTIpW2NIXVtjSF1bY0hdW2NIXTI=

> <s_epik_cmdline>
J2VwaWtfcHl0aG9uJywgJy1waCcsICc3LjAnLCAnLXRuJywgJzgnLCAnLW1hJywgJzIwMCcsICctbWV0YWxfYmluZGluZycsICctaW1hZScsICc8aW5maWxlLm1hZT4nLCAnLW9tYWUnLCAnPG91dGZpbGUubWFlPic=

> <r_epik_Ionization_Penalty>
0.963868

> <r_epik_Ionization_Penalty_Charging>
0.963868

> <r_epik_Ionization_Penalty_Neutral>
5.76694e-08

> <r_epik_State_Penalty>
1.00924

> <r_epik_Charging_Adjusted_Penalty>
1.9731

> <i_epik_Tot_Q>
1

> <i_epik_Tot_abs_Q>
1

> <r_epik_Metal_State_Penalty>
4.98304

> <b_epik_Metal_Only>
0

> <s_lp_Force_Field>
OPLS_2005

> <r_lp_Energy>
11.6112

> <b_lp_Chiralities_Consistent>
1

> <s_lp_Variant>
AV-unprocessed.smi:2987-2

> <Gold.Version>
5.8.1

> <Gold.Id.Protein>
6NUR|6NUR_protein|mol2

> <Gold.PLP.Fitness>
42.1700

> <Gold.PLP.PLP>
-33.6976

> <Gold.PLP.part.hbond>
-1.8606

> <Gold.PLP.part.metal>
0.0000

> <Gold.PLP.part.buried>
-3.8839

> <Gold.PLP.part.nonpolar>
-28.0937

> <Gold.PLP.part.repulsive>
0.0678

> <Gold.PLP.ligand.clash>
0.0000

> <Gold.PLP.ligand.torsion>
0.2399

> <Gold.PLP.Chemscore.Hbond>
2.9840

> <Gold.PLP.Chemscore.CHOScore>
0.0000

> <Gold.PLP.Chemscore.Metal>
0.0000

> <Gold.Chemscore.Hbonds>
donor molecule, donor type, donor heavy atom, donor atom, acceptor molecule, acceptor atom, score
      L1  H     3    26       P1  8028  1.98
      P1  H  7997  8010       L1    13  1.00

> <Gold.PLP.Chemscore.Internal.Correction>
0.0002

> <Gold.Rescore>
     Score         DG    S(hbond)    S(metal)    S(lipo)     H(rot)  DE(clash)    DE(int)     intcor
     17.26     -17.51       1.91        0.00      86.53       1.74       0.02       0.23       ----

> <Gold.Chemscore.Fitness>
17.2555

> <Gold.Chemscore.DG>
-17.5064

> <Gold.Chemscore.ZeroCoef>
-5.4800

> <Gold.Chemscore.Hbond>
1.9056

> <Gold.Chemscore.Metal>
0.0000

> <Gold.Chemscore.Lipo>
86.5303

> <Gold.Chemscore.Internal_Hbond>
0.0000

> <Gold.Chemscore.DEClash>
0.0234

> <Gold.Chemscore.DEInternal>
0.2274

> <Gold.Chemscore.Rot>
1.7431

> <Gold.Chemscore.Internal.Correction>
   9.000000E+99

> <Gold.Chemscore.Hbonds>
donor molecule, donor type, donor heavy atom, donor atom, acceptor molecule, acceptor atom, score
      L1  H     3    26       P1  8028  0.92
      P1  H  7997  8010       L1    13  0.73

> <Gold.Chemscore.Hbond.Weighted>
-6.3647

> <Gold.Chemscore.Metal.Weighted>
-0.0000

> <Gold.Chemscore.Lipo.Weighted>
-10.1240

> <Gold.Chemscore.Internal_Hbond.Weighted>
0.0000

> <Gold.Chemscore.DEClash.Weighted>
0.0234

> <Gold.Chemscore.DEInternal.Weighted>
0.2274

> <Gold.Chemscore.Rot.Weighted>
4.4624

> <Gold.Chemscore.Internal.Correction.Weighted>
   9.000000E+99

> <Gold.Protein.RotatedTorsions>
[ 6907 6896 6895 6894 ] final -101.19 input  -60.11 | X-H torsion
[ 7974 7965 7964 7962 ] final  -65.40 input  175.53 | X-H torsion
[ 8008 7997 7996 7995 ] final   85.89 input   59.86 | X-H torsion
[ 10167 10162 10161 10158 ] final  -12.41 input  -65.29 | X-H torsion
[ 10718 10713 10712 10709 ] final  -85.90 input   66.30 | X-H torsion
[ 10763 10752 10751 10750 ] final -109.80 input  -60.55 | X-H torsion
[ 11005 11000 10999 10996 ] final  133.76 input  -57.11 | X-H torsion

> <Gold.Protein.ActiveResidues>
 VAL166  LYS551  ARG553  GLY616  TRP617  ASP618  TYR619  PRO620  LYS621  CYS622 
 ASP623  PHE694  ASN695  SER759  ASP760  ASP761  ALA762  ILE779  LEU786  VAL792 
 PHE793  MET794  SER795  GLU796  ALA797  LYS798  CYS799  TRP800  GLU811  SER814 

> <Gold.Protein.RotatedAtoms>
  150.7145  134.0772  159.3884 H   0  0  0  0  0  0  0  0  0  0  0  0  # atno 6907 bound_to 6896
  151.8756  135.0471  160.0493 H   0  0  0  0  0  0  0  0  0  0  0  0  # atno 6908 bound_to 6896
  152.2609  133.5261  159.5417 H   0  0  0  0  0  0  0  0  0  0  0  0  # atno 6909 bound_to 6896
  145.7548  140.8891  143.0461 H   0  0  0  0  0  0  0  0  0  0  0  0  # atno 7974 bound_to 7965
  155.9557  140.3397  155.6447 H   0  0  0  0  0  0  0  0  0  0  0  0  # atno 8008 bound_to 7997
  155.6862  140.0743  157.2484 H   0  0  0  0  0  0  0  0  0  0  0  0  # atno 8009 bound_to 7997
  154.4132  140.1665  156.2024 H   0  0  0  0  0  0  0  0  0  0  0  0  # atno 8010 bound_to 7997
  140.7161  143.5535  150.9275 H   0  0  0  0  0  0  0  0  0  0  0  0  # atno 10167 bound_to 10162
  155.9993  130.4746  150.4632 H   0  0  0  0  0  0  0  0  0  0  0  0  # atno 10718 bound_to 10713
  154.8213  135.4587  154.0788 H   0  0  0  0  0  0  0  0  0  0  0  0  # atno 10763 bound_to 10752
  153.2139  135.6885  153.8087 H   0  0  0  0  0  0  0  0  0  0  0  0  # atno 10764 bound_to 10752
  153.7528  135.3295  155.3301 H   0  0  0  0  0  0  0  0  0  0  0  0  # atno 10765 bound_to 10752
  139.9872  134.9528  156.9770 H   0  0  0  0  0  0  0  0  0  0  0  0  # atno 11005 bound_to 11000
  144.6842  139.9640  143.7481 LP  0  0  0  0  0  0  0  0  0  0  0  0  # atno 17320 bound_to 7965
  146.0322  139.3345  143.0748 LP  0  0  0  0  0  0  0  0  0  0  0  0  # atno 17321 bound_to 7965
  139.9259  143.6550  152.3087 LP  0  0  0  0  0  0  0  0  0  0  0  0  # atno 17342 bound_to 10162
  139.6984  144.7638  151.1316 LP  0  0  0  0  0  0  0  0  0  0  0  0  # atno 17343 bound_to 10162
  157.2654  131.0576  151.2293 LP  0  0  0  0  0  0  0  0  0  0  0  0  # atno 17370 bound_to 10713
  157.3393  130.7025  149.6371 LP  0  0  0  0  0  0  0  0  0  0  0  0  # atno 17371 bound_to 10713
  140.4980  134.1126  155.7245 LP  0  0  0  0  0  0  0  0  0  0  0  0  # atno 17394 bound_to 11000
  141.1534  133.8926  157.2039 LP  0  0  0  0  0  0  0  0  0  0  0  0  # atno 17395 bound_to 11000

$$$$
