#       Name:                AV-unprocessed.smi:1632
#       Creating user name   scv26
#       Creation time:       Fri Mar 27 07:20:57 2020


#       File generated by GOLD software.
#

@<TRIPOS>MOLECULE
AV-unprocessed.smi:1632
    47    49     1
SMALL
NO_CHARGES


@<TRIPOS>ATOM
      1 ****        -3.2241   3.3936  -0.2808 O.3            1 S1                 0.0000
      2 ****        -2.4373   2.2548  -0.0083 C.3            1 S1                 0.0000
      3 ****        -2.8021   1.6892   1.3720 C.3            1 S1                 0.0000
      4 ****        -1.9667   0.4641   1.7870 C.3            1 S1                 0.0000
      5 ****        -0.4996   0.7566   1.9463 C.2            1 S1                 0.0000
      6 ****        -0.0707   1.6850   2.8030 N.2            1 S1                 0.0000
      7 ****         1.3007   1.6301   2.6577 C.ar           1 S1                 0.0000
      8 ****         2.3209   2.3815   3.2835 C.ar           1 S1                 0.0000
      9 ****         3.6757   2.1428   2.9731 C.ar           1 S1                 0.0000
     10 ****         4.0283   1.1510   2.0353 C.ar           1 S1                 0.0000
     11 ****         3.0268   0.3904   1.4016 C.ar           1 S1                 0.0000
     12 ****         1.6755   0.6335   1.7139 C.ar           1 S1                 0.0000
     13 ****         0.4738   0.0761   1.2849 N.pl3          1 S1                 0.0000
     14 ****         0.3377  -1.0177   0.3307 C.3            1 S1                 0.0000
     15 ****         0.0353  -0.5346  -1.1008 C.3            1 S1                 0.0000
     16 ****         1.0566   0.3404  -1.5418 O.3            1 S1                 0.0000
     17 ****        -0.1709  -1.7103  -2.0457 C.ar           1 S1                 0.0000
     18 ****         0.9408  -2.3862  -2.5969 C.ar           1 S1                 0.0000
     19 ****         0.7515  -3.4788  -3.4649 C.ar           1 S1                 0.0000
     20 ****        -0.5507  -3.9062  -3.7853 C.ar           1 S1                 0.0000
     21 ****        -1.6630  -3.2426  -3.2335 C.ar           1 S1                 0.0000
     22 ****        -1.4762  -2.1498  -2.3643 C.ar           1 S1                 0.0000
     23 ****        -2.5584  -1.5289  -1.8358 F              1 S1                 0.0000
     24 ****        -2.9851   3.7273  -1.1320 H              1 S1                 0.0000
     25 ****        -2.6189   1.5139  -0.7863 H              1 S1                 0.0000
     26 ****        -1.3843   2.5344  -0.0541 H              1 S1                 0.0000
     27 ****        -2.6982   2.4703   2.1264 H              1 S1                 0.0000
     28 ****        -3.8564   1.4100   1.3720 H              1 S1                 0.0000
     29 ****        -2.3362   0.0816   2.7389 H              1 S1                 0.0000
     30 ****        -2.1288  -0.3312   1.0620 H              1 S1                 0.0000
     31 ****         2.0601   3.1430   4.0033 H              1 S1                 0.0000
     32 ****         4.4474   2.7235   3.4566 H              1 S1                 0.0000
     33 ****         5.0681   0.9744   1.8020 H              1 S1                 0.0000
     34 ****         3.2947  -0.3680   0.6812 H              1 S1                 0.0000
     35 ****         1.2594  -1.6004   0.3391 H              1 S1                 0.0000
     36 ****        -0.4386  -1.6975   0.6818 H              1 S1                 0.0000
     37 ****        -0.8780   0.0561  -1.0861 H              1 S1                 0.0000
     38 ****         0.7984   0.7078  -2.3733 H              1 S1                 0.0000
     39 ****         1.9448  -2.0704  -2.3534 H              1 S1                 0.0000
     40 ****         1.6059  -3.9897  -3.8837 H              1 S1                 0.0000
     41 ****        -0.6965  -4.7442  -4.4511 H              1 S1                 0.0000
     42 ****        -2.6620  -3.5736  -3.4761 H              1 S1                 0.0000
     43 ****        -3.0574   4.0928   0.4145 LP             1 S1                 0.0000
     44 ****        -4.1923   3.1434  -0.2764 LP             1 S1                 0.0000
     45 ****        -0.6103   2.2756   3.4031 LP             1 S1                 0.0000
     46 ****         1.9122  -0.1662  -1.6479 LP             1 S1                 0.0000
     47 ****         1.1841   1.0737  -0.8740 LP             1 S1                 0.0000
@<TRIPOS>BOND
    1    1    2 1     
    2    1   24 1     
    3    2    3 1     
    4    2   25 1     
    5    2   26 1     
    6    3    4 1     
    7    3   27 1     
    8    3   28 1     
    9    4    5 1     
   10    4   29 1     
   11    4   30 1     
   12    5   13 1     
   13    5    6 2     
   14    6    7 1     
   15    7   12 ar    
   16    7    8 ar    
   17    8    9 ar    
   18    8   31 1     
   19    9   10 ar    
   20    9   32 1     
   21   10   11 ar    
   22   10   33 1     
   23   11   12 ar    
   24   11   34 1     
   25   12   13 1     
   26   13   14 1     
   27   14   15 1     
   28   14   35 1     
   29   14   36 1     
   30   15   16 1     
   31   15   17 1     
   32   15   37 1     
   33   16   38 1     
   34   17   22 ar    
   35   17   18 ar    
   36   18   19 ar    
   37   18   39 1     
   38   19   20 ar    
   39   19   40 1     
   40   20   21 ar    
   41   20   41 1     
   42   21   22 ar    
   43   21   42 1     
   44   22   23 1     
   45    1   43 1     
   46    1   44 1     
   47    6   45 1     
   48   16   46 1     
   49   16   47 1     
@<TRIPOS>SUBSTRUCTURE
      1 S1             1
@<TRIPOS>SET
LONE_PAIRS      STATIC     ATOMS    <user>   **** ""
5 43 44 45 46 47
DONOR_HYDROGENS      STATIC     ATOMS    <user>   **** ""
2 24 38
ATOM$BLUE        STATIC     ATOMS    COLORGROUP SYSTEM
5 43 44 45 46 47
ATOM$RED        STATIC     ATOMS    COLORGROUP SYSTEM
2 24 38
