AV-unprocessed.smi:3095|AV-procd|sdf|11793|dock8
  -GOLD-   2272017173D 1   1.00000     0.00000
 Structure written by MMmdl.
 25 26  0  0  0  0  0  0  0  0  2 V2000
  152.7736  143.1618  162.2208 C   0  0  0  0  0  0  0  0  0  0  0  0
  152.5840  142.4026  160.9452 C   0  0  0  0  0  0  0  0  0  0  0  0
  153.3819  141.3985  160.4570 C   0  0  0  0  0  0  0  0  0  0  0  0
  152.7955  140.7848  158.9359 S   0  0  0  0  0  0  0  0  0  0  0  0
  151.4745  141.9456  159.0095 C   0  0  0  0  0  0  0  0  0  0  0  0
  150.4082  142.0263  157.9638 C   0  0  1  0  0  0  0  0  0  0  0  0
  150.9824  142.2484  156.5518 C   0  0  0  0  0  0  0  0  0  0  0  0
  149.8909  142.2384  155.5583 N   0  3  0  0  0  0  0  0  0  0  0  0
  149.0864  141.0038  155.6493 C   0  0  0  0  0  0  0  0  0  0  0  0
  148.5800  140.8044  157.0890 C   0  0  0  0  0  0  0  0  0  0  0  0
  149.6812  140.7998  157.9918 O   0  0  0  0  0  0  0  0  0  0  0  0
  151.4968  142.6951  160.1167 N   0  0  0  0  0  0  0  0  0  0  0  0
  153.6407  142.8009  162.7747 H   0  0  0  0  0  0  0  0  0  0  0  0
  151.9043  143.0641  162.8713 H   0  0  0  0  0  0  0  0  0  0  0  0
  152.9257  144.2239  162.0282 H   0  0  0  0  0  0  0  0  0  0  0  0
  154.2749  140.9824  160.9000 H   0  0  0  0  0  0  0  0  0  0  0  0
  149.7386  142.8464  158.2289 H   0  0  0  0  0  0  0  0  0  0  0  0
  151.5119  143.1999  156.4953 H   0  0  0  0  0  0  0  0  0  0  0  0
  151.6993  141.4644  156.3027 H   0  0  0  0  0  0  0  0  0  0  0  0
  149.2883  143.0301  155.7328 H   0  0  0  0  0  0  0  0  0  0  0  0
  148.2498  141.0649  154.9528 H   0  0  0  0  0  0  0  0  0  0  0  0
  149.6984  140.1538  155.3444 H   0  0  0  0  0  0  0  0  0  0  0  0
  147.8737  141.5890  157.3655 H   0  0  0  0  0  0  0  0  0  0  0  0
  148.0502  139.8554  157.1729 H   0  0  0  0  0  0  0  0  0  0  0  0
  150.2799  142.3193  154.6295 H   0  0  0  0  0  0  0  0  0  0  0  0
  1  2  1  0  0  0  0
  1 13  1  0  0  0  0
  1 14  1  0  0  0  0
  1 15  1  0  0  0  0
  2 12  1  0  0  0  0
  2  3  2  0  0  0  0
  3  4  1  0  0  0  0
  3 16  1  0  0  0  0
  4  5  1  0  0  0  0
  5  6  1  0  0  0  0
  5 12  2  0  0  0  0
  6 11  1  0  0  0  0
  6  7  1  0  0  0  0
  6 17  1  0  0  0  0
  7  8  1  0  0  0  0
  7 18  1  0  0  0  0
  7 19  1  0  0  0  0
  8  9  1  0  0  0  0
  8 20  1  0  0  0  0
  8 25  1  0  0  0  0
  9 10  1  0  0  0  0
  9 21  1  0  0  0  0
  9 22  1  0  0  0  0
 10 11  1  0  0  0  0
 10 23  1  0  0  0  0
 10 24  1  0  0  0  0
M  CHG  1   8   1
M  END
> <s_m_source_file>
AV-unprocessed.smi

> <i_m_source_file_index>
3095

> <i_lp_mmshare_version>
43012

> <i_f3d_flags>
0

> <s_epik_input>
W0NIM11jMVtjSF1zYyhuMSlbQ0BASF0yW0NIMl1bTkhdW0NIMl1bQ0gyXU8y

> <s_epik_cmdline>
J2VwaWtfcHl0aG9uJywgJy1waCcsICc3LjAnLCAnLXRuJywgJzgnLCAnLW1hJywgJzIwMCcsICctbWV0YWxfYmluZGluZycsICctaW1hZScsICc8aW5maWxlLm1hZT4nLCAnLW9tYWUnLCAnPG91dGZpbGUubWFlPic=

> <r_epik_Ionization_Penalty>
0.125709

> <r_epik_Ionization_Penalty_Charging>
0.125708

> <r_epik_Ionization_Penalty_Neutral>
7.00244e-07

> <r_epik_State_Penalty>
0.0155371

> <r_epik_Charging_Adjusted_Penalty>
0.141245

> <i_epik_Tot_Q>
1

> <i_epik_Tot_abs_Q>
1

> <r_epik_Metal_State_Penalty>
0.0155948

> <b_epik_Metal_Only>
0

> <s_lp_Force_Field>
OPLS_2005

> <r_lp_Energy>
6.74863

> <b_lp_Chiralities_Consistent>
1

> <s_lp_Variant>
AV-unprocessed.smi:3095-2

> <Gold.Version>
5.8.1

> <Gold.Id.Protein>
6NUR|6NUR_protein|mol2

> <Gold.PLP.Fitness>
31.7036

> <Gold.PLP.PLP>
-25.8251

> <Gold.PLP.part.hbond>
-1.7519

> <Gold.PLP.part.metal>
0.0000

> <Gold.PLP.part.buried>
-4.0405

> <Gold.PLP.part.nonpolar>
-19.2001

> <Gold.PLP.part.repulsive>
0.2204

> <Gold.PLP.ligand.clash>
0.0000

> <Gold.PLP.ligand.torsion>
0.0658

> <Gold.PLP.Chemscore.Hbond>
2.0000

> <Gold.PLP.Chemscore.CHOScore>
0.0000

> <Gold.PLP.Chemscore.Metal>
0.0000

> <Gold.Chemscore.Hbonds>
donor molecule, donor type, donor heavy atom, donor atom, acceptor molecule, acceptor atom, score
      L1  H     8    20       P1  8028  2.00

> <Gold.PLP.Chemscore.Internal.Correction>
0.0100

> <Gold.Rescore>
     Score         DG    S(hbond)    S(metal)    S(lipo)     H(rot)  DE(clash)    DE(int)     intcor
     14.35     -14.44       0.99        0.00      70.19       1.00       0.05       0.04       ----

> <Gold.Chemscore.Fitness>
14.3456

> <Gold.Chemscore.DG>
-14.4428

> <Gold.Chemscore.ZeroCoef>
-5.4800

> <Gold.Chemscore.Hbond>
0.9913

> <Gold.Chemscore.Metal>
0.0000

> <Gold.Chemscore.Lipo>
70.1876

> <Gold.Chemscore.Internal_Hbond>
0.0000

> <Gold.Chemscore.DEClash>
0.0544

> <Gold.Chemscore.DEInternal>
0.0427

> <Gold.Chemscore.Rot>
1.0000

> <Gold.Chemscore.Internal.Correction>
   9.000000E+99

> <Gold.Chemscore.Hbonds>
donor molecule, donor type, donor heavy atom, donor atom, acceptor molecule, acceptor atom, score
      L1  H     8    20       P1  8028  0.97

> <Gold.Chemscore.Hbond.Weighted>
-3.3108

> <Gold.Chemscore.Metal.Weighted>
-0.0000

> <Gold.Chemscore.Lipo.Weighted>
-8.2119

> <Gold.Chemscore.Internal_Hbond.Weighted>
0.0000

> <Gold.Chemscore.DEClash.Weighted>
0.0544

> <Gold.Chemscore.DEInternal.Weighted>
0.0427

> <Gold.Chemscore.Rot.Weighted>
2.5600

> <Gold.Chemscore.Internal.Correction.Weighted>
   9.000000E+99

> <Gold.Protein.RotatedTorsions>
[ 6907 6896 6895 6894 ] final  -73.59 input  -60.11 | X-H torsion
[ 7974 7965 7964 7962 ] final  133.01 input  175.53 | X-H torsion
[ 8008 7997 7996 7995 ] final -173.91 input   59.86 | X-H torsion
[ 10167 10162 10161 10158 ] final -101.01 input  -65.29 | X-H torsion
[ 10718 10713 10712 10709 ] final  114.63 input   66.30 | X-H torsion
[ 10763 10752 10751 10750 ] final  135.23 input  -60.55 | X-H torsion
[ 11005 11000 10999 10996 ] final  -89.58 input  -57.11 | X-H torsion

> <Gold.Protein.ActiveResidues>
 VAL166  LYS551  ARG553  GLY616  TRP617  ASP618  TYR619  PRO620  LYS621  CYS622 
 ASP623  PHE694  ASN695  SER759  ASP760  ASP761  ALA762  ILE779  LEU786  VAL792 
 PHE793  MET794  SER795  GLU796  ALA797  LYS798  CYS799  TRP800  GLU811  SER814 

> <Gold.Protein.RotatedAtoms>
  150.7124  134.4994  159.5553 H   0  0  0  0  0  0  0  0  0  0  0  0  # atno 6907 bound_to 6896
  152.2594  134.8047  160.0442 H   0  0  0  0  0  0  0  0  0  0  0  0  # atno 6908 bound_to 6896
  151.8766  133.3451  159.3789 H   0  0  0  0  0  0  0  0  0  0  0  0  # atno 6909 bound_to 6896
  144.9909  139.4407  143.5340 H   0  0  0  0  0  0  0  0  0  0  0  0  # atno 7974 bound_to 7965
  155.9635  140.1149  157.0875 H   0  0  0  0  0  0  0  0  0  0  0  0  # atno 8008 bound_to 7997
  154.4138  140.1177  156.5277 H   0  0  0  0  0  0  0  0  0  0  0  0  # atno 8009 bound_to 7997
  155.6690  140.3473  155.4813 H   0  0  0  0  0  0  0  0  0  0  0  0  # atno 8010 bound_to 7997
  140.2458  143.3506  152.0760 H   0  0  0  0  0  0  0  0  0  0  0  0  # atno 10167 bound_to 10162
  157.6270  131.1001  150.7213 H   0  0  0  0  0  0  0  0  0  0  0  0  # atno 10718 bound_to 10713
  153.8367  135.3097  155.3423 H   0  0  0  0  0  0  0  0  0  0  0  0  # atno 10763 bound_to 10752
  154.7950  135.4760  154.0143 H   0  0  0  0  0  0  0  0  0  0  0  0  # atno 10764 bound_to 10752
  153.1601  135.6859  153.8846 H   0  0  0  0  0  0  0  0  0  0  0  0  # atno 10765 bound_to 10752
  141.1582  133.7639  156.9616 H   0  0  0  0  0  0  0  0  0  0  0  0  # atno 11005 bound_to 11000
  146.3431  139.9240  142.8762 LP  0  0  0  0  0  0  0  0  0  0  0  0  # atno 17320 bound_to 7965
  145.2287  140.9964  143.4003 LP  0  0  0  0  0  0  0  0  0  0  0  0  # atno 17321 bound_to 7965
  139.5062  144.6809  151.6010 LP  0  0  0  0  0  0  0  0  0  0  0  0  # atno 17342 bound_to 10162
  140.6078  143.9492  150.6431 LP  0  0  0  0  0  0  0  0  0  0  0  0  # atno 17343 bound_to 10162
  156.7559  130.4783  149.5447 LP  0  0  0  0  0  0  0  0  0  0  0  0  # atno 17370 bound_to 10713
  156.1448  130.6270  151.0517 LP  0  0  0  0  0  0  0  0  0  0  0  0  # atno 17371 bound_to 10713
  140.1189  134.9429  157.2175 LP  0  0  0  0  0  0  0  0  0  0  0  0  # atno 17394 bound_to 11000
  140.3097  134.3038  155.7270 LP  0  0  0  0  0  0  0  0  0  0  0  0  # atno 17395 bound_to 11000

$$$$
