AV-unprocessed.smi:1796|AV-procd|sdf|7254|dock4
  -GOLD-   22720 8503D 1   1.00000     0.00000
 Structure written by MMmdl.
 42 43  0  0  0  0  0  0  0  0  1 V2000
  151.1209  137.5819  154.3938 C   0  0  0  0  0  0  0  0  0  0  0  0
  150.7970  139.0515  154.6726 C   0  0  0  0  0  0  0  0  0  0  0  0
  151.7315  139.8520  154.7121 O   0  0  0  0  0  0  0  0  0  0  0  0
  149.5079  139.4201  154.8682 N   0  0  0  0  0  0  0  0  0  0  0  0
  149.0391  140.7975  155.0695 C   0  0  0  0  0  0  0  0  0  0  0  0
  148.2703  141.2451  153.8139 C   0  0  0  0  0  0  0  0  0  0  0  0
  147.1109  140.2786  153.5055 C   0  0  0  0  0  0  0  0  0  0  0  0
  147.5858  138.8062  153.4729 C   0  0  2  0  0  0  0  0  0  0  0  0
  146.4086  137.8357  153.3192 C   0  0  0  0  0  0  0  0  0  0  0  0
  145.3784  138.0018  153.9735 O   0  0  0  0  0  0  0  0  0  0  0  0
  146.5882  136.8086  152.4729 N   0  0  0  0  0  0  0  0  0  0  0  0
  145.6525  135.7046  152.2628 C   0  0  1  0  0  0  0  0  0  0  0  0
  144.2425  136.2740  152.0566 C   0  0  0  0  0  0  0  0  0  0  0  0
  146.0907  134.8374  151.0625 C   0  0  0  0  0  0  0  0  0  0  0  0
  145.2520  133.6646  150.8822 N   0  0  0  0  0  0  0  0  0  0  0  0
  144.4378  133.3503  149.8145 C   0  0  0  0  0  0  0  0  0  0  0  0
  143.8286  132.1632  150.1035 C   0  0  0  0  0  0  0  0  0  0  0  0
  144.3430  131.8225  151.3857 C   0  0  0  0  0  0  0  0  0  0  0  0
  145.1989  132.7199  151.8469 N   0  0  0  0  0  0  0  0  0  0  0  0
  148.3881  138.4777  154.7524 C   0  0  0  0  0  0  0  0  0  0  0  0
  150.7800  136.9477  155.2126 H   0  0  0  0  0  0  0  0  0  0  0  0
  152.1969  137.4386  154.2882 H   0  0  0  0  0  0  0  0  0  0  0  0
  150.6487  137.2518  153.4682 H   0  0  0  0  0  0  0  0  0  0  0  0
  148.3802  140.8273  155.9386 H   0  0  0  0  0  0  0  0  0  0  0  0
  149.8377  141.5050  155.2878 H   0  0  0  0  0  0  0  0  0  0  0  0
  147.8862  142.2563  153.9495 H   0  0  0  0  0  0  0  0  0  0  0  0
  148.9521  141.2833  152.9631 H   0  0  0  0  0  0  0  0  0  0  0  0
  146.3420  140.4061  154.2693 H   0  0  0  0  0  0  0  0  0  0  0  0
  146.6478  140.5481  152.5555 H   0  0  0  0  0  0  0  0  0  0  0  0
  148.2487  138.6833  152.6140 H   0  0  0  0  0  0  0  0  0  0  0  0
  147.4677  136.7556  151.9794 H   0  0  0  0  0  0  0  0  0  0  0  0
  145.6165  135.0743  153.1532 H   0  0  0  0  0  0  0  0  0  0  0  0
  143.5136  135.4746  151.9202 H   0  0  0  0  0  0  0  0  0  0  0  0
  144.1971  136.9171  151.1770 H   0  0  0  0  0  0  0  0  0  0  0  0
  143.9262  136.8630  152.9181 H   0  0  0  0  0  0  0  0  0  0  0  0
  146.0435  135.4223  150.1432 H   0  0  0  0  0  0  0  0  0  0  0  0
  147.1294  134.5219  151.1758 H   0  0  0  0  0  0  0  0  0  0  0  0
  144.3549  133.9954  148.9522 H   0  0  0  0  0  0  0  0  0  0  0  0
  143.1208  131.6222  149.4934 H   0  0  0  0  0  0  0  0  0  0  0  0
  144.1216  130.9559  151.9908 H   0  0  0  0  0  0  0  0  0  0  0  0
  148.7196  137.4380  154.7323 H   0  0  0  0  0  0  0  0  0  0  0  0
  147.7554  138.5655  155.6374 H   0  0  0  0  0  0  0  0  0  0  0  0
  1  2  1  0  0  0  0
  1 21  1  0  0  0  0
  1 22  1  0  0  0  0
  1 23  1  0  0  0  0
  2  3  2  0  0  0  0
  2  4  1  0  0  0  0
  4 20  1  0  0  0  0
  4  5  1  0  0  0  0
  5  6  1  0  0  0  0
  5 24  1  0  0  0  0
  5 25  1  0  0  0  0
  6  7  1  0  0  0  0
  6 26  1  0  0  0  0
  6 27  1  0  0  0  0
  7  8  1  0  0  0  0
  7 28  1  0  0  0  0
  7 29  1  0  0  0  0
  8  9  1  0  0  0  0
  8 20  1  0  0  0  0
  8 30  1  0  0  0  0
  9 10  2  0  0  0  0
  9 11  1  0  0  0  0
 11 12  1  0  0  0  0
 11 31  1  0  0  0  0
 12 13  1  0  0  0  0
 12 14  1  0  0  0  0
 12 32  1  0  0  0  0
 13 33  1  0  0  0  0
 13 34  1  0  0  0  0
 13 35  1  0  0  0  0
 14 15  1  0  0  0  0
 14 36  1  0  0  0  0
 14 37  1  0  0  0  0
 15 19  1  0  0  0  0
 15 16  1  0  0  0  0
 16 17  2  0  0  0  0
 16 38  1  0  0  0  0
 17 18  1  0  0  0  0
 17 39  1  0  0  0  0
 18 19  2  0  0  0  0
 18 40  1  0  0  0  0
 20 41  1  0  0  0  0
 20 42  1  0  0  0  0
M  END
> <s_m_source_file>
AV-unprocessed.smi

> <i_m_source_file_index>
1796

> <i_lp_mmshare_version>
43012

> <i_f3d_flags>
0

> <s_epik_input>
W0NIM11DKD1PKU4xW0NIMl1bQ0gyXVtDSDJdW0NASF0oW0NIMl0xKUMoPU8pW05IXVtDQEhdKFtDSDNdKVtDSDJdbjJbY0hdW2NIXVtjSF1uMg==

> <s_epik_cmdline>
J2VwaWtfcHl0aG9uJywgJy1waCcsICc3LjAnLCAnLXRuJywgJzgnLCAnLW1hJywgJzIwMCcsICctbWV0YWxfYmluZGluZycsICctaW1hZScsICc8aW5maWxlLm1hZT4nLCAnLW9tYWUnLCAnPG91dGZpbGUubWFlPic=

> <r_lp_tautomer_probability>
1

> <r_epik_Ionization_Penalty>
0.000315051

> <r_epik_Ionization_Penalty_Charging>
0

> <r_epik_Ionization_Penalty_Neutral>
0.000315051

> <r_epik_State_Penalty>
-0

> <r_epik_Charging_Adjusted_Penalty>
0

> <i_epik_Tot_Q>
0

> <i_epik_Tot_abs_Q>
0

> <r_epik_Metal_State_Penalty>
-0

> <b_epik_Metal_Only>
0

> <s_lp_Force_Field>
OPLS_2005

> <r_lp_Energy>
22.8322

> <b_lp_Chiralities_Consistent>
1

> <s_lp_Variant>
AV-unprocessed.smi:1796-4

> <Gold.Version>
5.8.1

> <Gold.Id.Protein>
6NUR|6NUR_protein|mol2

> <Gold.PLP.Fitness>
44.3548

> <Gold.PLP.PLP>
-36.6819

> <Gold.PLP.part.hbond>
-1.6931

> <Gold.PLP.part.metal>
0.0000

> <Gold.PLP.part.buried>
-4.3933

> <Gold.PLP.part.nonpolar>
-31.0390

> <Gold.PLP.part.repulsive>
0.3471

> <Gold.PLP.ligand.clash>
0.0000

> <Gold.PLP.ligand.torsion>
0.6376

> <Gold.PLP.Chemscore.Hbond>
2.0000

> <Gold.PLP.Chemscore.CHOScore>
0.9714

> <Gold.PLP.Chemscore.Metal>
0.0000

> <Gold.Chemscore.Hbonds>
donor molecule, donor type, donor heavy atom, donor atom, acceptor molecule, acceptor atom, score
      L1  H    11    31       P1  7948  1.00
      P1  H  7989  7998       L1     3  1.00
      L1  C    16    38       P1  7921  0.94

> <Gold.PLP.Chemscore.Internal.Correction>
0.0340

> <Gold.Rescore>
     Score         DG    S(hbond)    S(metal)    S(lipo)     H(rot)  DE(clash)    DE(int)     intcor
     16.31     -16.97       1.84        0.00      81.60       1.63       0.05       0.61       ----

> <Gold.Chemscore.Fitness>
16.3139

> <Gold.Chemscore.DG>
-16.9738

> <Gold.Chemscore.ZeroCoef>
-5.4800

> <Gold.Chemscore.Hbond>
1.8350

> <Gold.Chemscore.Metal>
0.0000

> <Gold.Chemscore.Lipo>
81.5976

> <Gold.Chemscore.Internal_Hbond>
0.0000

> <Gold.Chemscore.DEClash>
0.0484

> <Gold.Chemscore.DEInternal>
0.6115

> <Gold.Chemscore.Rot>
1.6336

> <Gold.Chemscore.Internal.Correction>
   9.000000E+99

> <Gold.Chemscore.Hbonds>
donor molecule, donor type, donor heavy atom, donor atom, acceptor molecule, acceptor atom, score
      L1  H    11    31       P1  7948  0.92
      P1  H  7989  7998       L1     3  0.74

> <Gold.Chemscore.Hbond.Weighted>
-6.1290

> <Gold.Chemscore.Metal.Weighted>
-0.0000

> <Gold.Chemscore.Lipo.Weighted>
-9.5469

> <Gold.Chemscore.Internal_Hbond.Weighted>
0.0000

> <Gold.Chemscore.DEClash.Weighted>
0.0484

> <Gold.Chemscore.DEInternal.Weighted>
0.6115

> <Gold.Chemscore.Rot.Weighted>
4.1821

> <Gold.Chemscore.Internal.Correction.Weighted>
   9.000000E+99

> <Gold.Protein.RotatedTorsions>
[ 6907 6896 6895 6894 ] final    2.85 input  -60.11 | X-H torsion
[ 7974 7965 7964 7962 ] final  149.98 input  175.53 | X-H torsion
[ 8008 7997 7996 7995 ] final -120.35 input   59.86 | X-H torsion
[ 10167 10162 10161 10158 ] final  100.95 input  -65.29 | X-H torsion
[ 10718 10713 10712 10709 ] final  178.95 input   66.30 | X-H torsion
[ 10763 10752 10751 10750 ] final -171.81 input  -60.55 | X-H torsion
[ 11005 11000 10999 10996 ] final  -36.17 input  -57.11 | X-H torsion

> <Gold.Protein.ActiveResidues>
 VAL166  LYS551  ARG553  GLY616  TRP617  ASP618  TYR619  PRO620  LYS621  CYS622 
 ASP623  PHE694  ASN695  SER759  ASP760  ASP761  ALA762  ILE779  LEU786  VAL792 
 PHE793  MET794  SER795  GLU796  ALA797  LYS798  CYS799  TRP800  GLU811  SER814 

> <Gold.Protein.RotatedAtoms>
  151.6156  135.1036  160.0090 H   0  0  0  0  0  0  0  0  0  0  0  0  # atno 6907 bound_to 6896
  152.4185  133.7073  159.6469 H   0  0  0  0  0  0  0  0  0  0  0  0  # atno 6908 bound_to 6896
  150.8073  133.8413  159.3221 H   0  0  0  0  0  0  0  0  0  0  0  0  # atno 6909 bound_to 6896
  144.8398  139.6349  143.6021 H   0  0  0  0  0  0  0  0  0  0  0  0  # atno 7974 bound_to 7965
  155.1304  140.0400  157.2773 H   0  0  0  0  0  0  0  0  0  0  0  0  # atno 8008 bound_to 7997
  154.6547  140.2577  155.7148 H   0  0  0  0  0  0  0  0  0  0  0  0  # atno 8009 bound_to 7997
  156.2593  140.2829  156.0995 H   0  0  0  0  0  0  0  0  0  0  0  0  # atno 8010 bound_to 7997
  139.7481  144.6992  151.0473 H   0  0  0  0  0  0  0  0  0  0  0  0  # atno 10167 bound_to 10162
  156.8830  130.9822  151.3059 H   0  0  0  0  0  0  0  0  0  0  0  0  # atno 10718 bound_to 10713
  154.6263  135.2881  155.0268 H   0  0  0  0  0  0  0  0  0  0  0  0  # atno 10763 bound_to 10752
  154.1444  135.6513  153.4953 H   0  0  0  0  0  0  0  0  0  0  0  0  # atno 10764 bound_to 10752
  153.0259  135.5340  154.7073 H   0  0  0  0  0  0  0  0  0  0  0  0  # atno 10765 bound_to 10752
  140.9854  133.7033  156.1756 H   0  0  0  0  0  0  0  0  0  0  0  0  # atno 11005 bound_to 11000
  146.2692  139.6594  142.9308 LP  0  0  0  0  0  0  0  0  0  0  0  0  # atno 17320 bound_to 7965
  145.4718  141.0436  143.2694 LP  0  0  0  0  0  0  0  0  0  0  0  0  # atno 17321 bound_to 7965
  140.7794  143.4842  150.9978 LP  0  0  0  0  0  0  0  0  0  0  0  0  # atno 17342 bound_to 10162
  139.8529  143.7414  152.3177 LP  0  0  0  0  0  0  0  0  0  0  0  0  # atno 17343 bound_to 10162
  157.6129  130.8596  149.8981 LP  0  0  0  0  0  0  0  0  0  0  0  0  # atno 17370 bound_to 10713
  156.0667  130.3691  150.0862 LP  0  0  0  0  0  0  0  0  0  0  0  0  # atno 17371 bound_to 10713
  140.7122  134.4449  157.5581 LP  0  0  0  0  0  0  0  0  0  0  0  0  # atno 17394 bound_to 11000
  139.8968  134.8651  156.2071 LP  0  0  0  0  0  0  0  0  0  0  0  0  # atno 17395 bound_to 11000

$$$$
