AV-unprocessed.smi:951|AV-procd|sdf|4253|dock2
  -GOLD-   22720 2163D 1   1.00000     0.00000
 Structure written by MMmdl.
 52 54  0  0  0  0  0  0  0  0  2 V2000
  146.5577  138.2193  156.8422 O   0  0  0  0  0  0  0  0  0  0  0  0
  146.1217  139.0461  156.0395 C   0  0  0  0  0  0  0  0  0  0  0  0
  145.5098  138.7066  154.8950 N   0  0  0  0  0  0  0  0  0  0  0  0
  145.2541  137.3393  154.4598 C   0  0  0  0  0  0  0  0  0  0  0  0
  144.5575  137.3017  153.0894 C   0  0  0  0  0  0  0  0  0  0  0  0
  144.5784  135.9159  152.4751 C   0  0  0  0  0  0  0  0  0  0  0  0
  143.4152  135.1232  152.3671 C   0  0  0  0  0  0  0  0  0  0  0  0
  143.5081  133.8391  151.7904 C   0  0  0  0  0  0  0  0  0  0  0  0
  144.7600  133.3755  151.3355 C   0  0  0  0  0  0  0  0  0  0  0  0
  145.8897  134.2084  151.4704 C   0  0  0  0  0  0  0  0  0  0  0  0
  145.7601  135.4322  152.0281 N   0  3  0  0  0  0  0  0  0  0  0  0
  146.2829  140.5560  156.3043 C   0  0  2  0  0  0  0  0  0  0  0  0
  144.9024  141.2315  156.3005 C   0  0  0  0  0  0  0  0  0  0  0  0
  145.1689  142.6463  155.8282 C   0  0  0  0  0  0  0  0  0  0  0  0
  146.3848  142.5251  154.9119 C   0  0  0  0  0  0  0  0  0  0  0  0
  147.0761  141.2901  155.2960 N   0  0  0  0  0  0  0  0  0  0  0  0
  148.3096  140.9317  154.8525 C   0  0  0  0  0  0  0  0  0  0  0  0
  148.8904  141.5698  153.9739 O   0  0  0  0  0  0  0  0  0  0  0  0
  149.0046  139.6831  155.4513 C   0  0  0  0  0  0  0  0  0  0  0  0
  150.3524  140.0034  156.1480 C   0  0  0  0  0  0  0  0  0  0  0  0
  151.5343  140.2167  155.1801 C   0  0  0  0  0  0  0  0  0  0  0  0
  151.6618  139.0597  154.1785 C   0  0  0  0  0  0  0  0  0  0  0  0
  150.3452  138.8334  153.4219 C   0  0  0  0  0  0  0  0  0  0  0  0
  149.1873  138.5641  154.3994 C   0  0  0  0  0  0  0  0  0  0  0  0
  145.1870  139.4488  154.2909 H   0  0  0  0  0  0  0  0  0  0  0  0
  146.1902  136.7787  154.4324 H   0  0  0  0  0  0  0  0  0  0  0  0
  144.6259  136.8570  155.2093 H   0  0  0  0  0  0  0  0  0  0  0  0
  143.5231  137.6343  153.1875 H   0  0  0  0  0  0  0  0  0  0  0  0
  145.0388  137.9958  152.3991 H   0  0  0  0  0  0  0  0  0  0  0  0
  142.4636  135.4913  152.7224 H   0  0  0  0  0  0  0  0  0  0  0  0
  142.6295  133.2173  151.6991 H   0  0  0  0  0  0  0  0  0  0  0  0
  144.8524  132.3956  150.8905 H   0  0  0  0  0  0  0  0  0  0  0  0
  146.8850  133.9350  151.1520 H   0  0  0  0  0  0  0  0  0  0  0  0
  146.7638  140.7135  157.2716 H   0  0  0  0  0  0  0  0  0  0  0  0
  144.2268  140.7491  155.5914 H   0  0  0  0  0  0  0  0  0  0  0  0
  144.4227  141.2059  157.2795 H   0  0  0  0  0  0  0  0  0  0  0  0
  144.3091  143.1006  155.3350 H   0  0  0  0  0  0  0  0  0  0  0  0
  145.4248  143.2679  156.6873 H   0  0  0  0  0  0  0  0  0  0  0  0
  146.0541  142.4394  153.8758 H   0  0  0  0  0  0  0  0  0  0  0  0
  147.0245  143.4045  154.9966 H   0  0  0  0  0  0  0  0  0  0  0  0
  148.3706  139.2870  156.2425 H   0  0  0  0  0  0  0  0  0  0  0  0
  150.2447  140.8770  156.7925 H   0  0  0  0  0  0  0  0  0  0  0  0
  150.6001  139.1765  156.8151 H   0  0  0  0  0  0  0  0  0  0  0  0
  151.4228  141.1560  154.6398 H   0  0  0  0  0  0  0  0  0  0  0  0
  152.4593  140.3114  155.7495 H   0  0  0  0  0  0  0  0  0  0  0  0
  152.4667  139.2663  153.4725 H   0  0  0  0  0  0  0  0  0  0  0  0
  151.9405  138.1472  154.7071 H   0  0  0  0  0  0  0  0  0  0  0  0
  150.1209  139.7015  152.8013 H   0  0  0  0  0  0  0  0  0  0  0  0
  150.4534  137.9905  152.7389 H   0  0  0  0  0  0  0  0  0  0  0  0
  149.3731  137.6215  154.9157 H   0  0  0  0  0  0  0  0  0  0  0  0
  148.2644  138.4162  153.8375 H   0  0  0  0  0  0  0  0  0  0  0  0
  146.5909  136.0182  152.1162 H   0  0  0  0  0  0  0  0  0  0  0  0
  1  2  2  0  0  0  0
  2  3  1  0  0  0  0
  2 12  1  0  0  0  0
  3  4  1  0  0  0  0
  3 25  1  0  0  0  0
  4  5  1  0  0  0  0
  4 26  1  0  0  0  0
  4 27  1  0  0  0  0
  5  6  1  0  0  0  0
  5 28  1  0  0  0  0
  5 29  1  0  0  0  0
  6 11  1  0  0  0  0
  6  7  2  0  0  0  0
  7  8  1  0  0  0  0
  7 30  1  0  0  0  0
  8  9  2  0  0  0  0
  8 31  1  0  0  0  0
  9 10  1  0  0  0  0
  9 32  1  0  0  0  0
 10 11  2  0  0  0  0
 10 33  1  0  0  0  0
 11 52  1  0  0  0  0
 12 16  1  0  0  0  0
 12 13  1  0  0  0  0
 12 34  1  0  0  0  0
 13 14  1  0  0  0  0
 13 35  1  0  0  0  0
 13 36  1  0  0  0  0
 14 15  1  0  0  0  0
 14 37  1  0  0  0  0
 14 38  1  0  0  0  0
 15 16  1  0  0  0  0
 15 39  1  0  0  0  0
 15 40  1  0  0  0  0
 16 17  1  0  0  0  0
 17 18  2  0  0  0  0
 17 19  1  0  0  0  0
 19 24  1  0  0  0  0
 19 20  1  0  0  0  0
 19 41  1  0  0  0  0
 20 21  1  0  0  0  0
 20 42  1  0  0  0  0
 20 43  1  0  0  0  0
 21 22  1  0  0  0  0
 21 44  1  0  0  0  0
 21 45  1  0  0  0  0
 22 23  1  0  0  0  0
 22 46  1  0  0  0  0
 22 47  1  0  0  0  0
 23 24  1  0  0  0  0
 23 48  1  0  0  0  0
 23 49  1  0  0  0  0
 24 50  1  0  0  0  0
 24 51  1  0  0  0  0
M  CHG  1  11   1
M  END
> <s_m_source_file>
AV-unprocessed.smi

> <i_m_source_file_index>
951

> <i_lp_mmshare_version>
43012

> <i_f3d_flags>
0

> <s_epik_input>
bjFbY0hdW2NIXVtjSF1bY0hdYzFbQ0gyXVtDSDJdW05IXUMoPU8pW0NAQEhdMltDSDJdW0NIMl1bQ0gyXU4yQyg9TylbQ0hdM1tDSDJdW0NIMl1bQ0gyXVtDSDJdW0NIMl0z

> <s_epik_cmdline>
J2VwaWtfcHl0aG9uJywgJy1waCcsICc3LjAnLCAnLXRuJywgJzgnLCAnLW1hJywgJzIwMCcsICctbWV0YWxfYmluZGluZycsICctaW1hZScsICc8aW5maWxlLm1hZT4nLCAnLW9tYWUnLCAnPG91dGZpbGUubWFlPic=

> <r_epik_Ionization_Penalty>
1.85306

> <r_epik_Ionization_Penalty_Charging>
1.85306

> <r_epik_Ionization_Penalty_Neutral>
5.78903e-08

> <r_epik_State_Penalty>
1.97071

> <r_epik_Charging_Adjusted_Penalty>
3.82377

> <i_epik_Tot_Q>
1

> <i_epik_Tot_abs_Q>
1

> <r_epik_Metal_State_Penalty>
1.99634

> <b_epik_Metal_Only>
0

> <s_lp_Force_Field>
OPLS_2005

> <r_lp_Energy>
27.2114

> <b_lp_Chiralities_Consistent>
1

> <s_lp_Variant>
AV-unprocessed.smi:951-3

> <Gold.Version>
5.8.1

> <Gold.Id.Protein>
6NUR|6NUR_protein|mol2

> <Gold.PLP.Fitness>
47.0688

> <Gold.PLP.PLP>
-38.1202

> <Gold.PLP.part.hbond>
-3.8326

> <Gold.PLP.part.metal>
0.0000

> <Gold.PLP.part.buried>
-4.1237

> <Gold.PLP.part.nonpolar>
-31.4718

> <Gold.PLP.part.repulsive>
1.1327

> <Gold.PLP.ligand.clash>
0.0000

> <Gold.PLP.ligand.torsion>
0.2035

> <Gold.PLP.Chemscore.Hbond>
3.0812

> <Gold.PLP.Chemscore.CHOScore>
0.0000

> <Gold.PLP.Chemscore.Metal>
0.0000

> <Gold.Chemscore.Hbonds>
donor molecule, donor type, donor heavy atom, donor atom, acceptor molecule, acceptor atom, score
      L1  H    11    52       P1  7948  0.31
      P1  H  8011  8017       L1    18  0.62

> <Gold.PLP.Chemscore.Internal.Correction>
0.1120

> <Gold.Rescore>
     Score         DG    S(hbond)    S(metal)    S(lipo)     H(rot)  DE(clash)    DE(int)     intcor
     16.36     -17.82       1.99        0.00      84.88       1.65       0.08       1.38       ----

> <Gold.Chemscore.Fitness>
16.3552

> <Gold.Chemscore.DG>
-17.8185

> <Gold.Chemscore.ZeroCoef>
-5.4800

> <Gold.Chemscore.Hbond>
1.9891

> <Gold.Chemscore.Metal>
0.0000

> <Gold.Chemscore.Lipo>
84.8818

> <Gold.Chemscore.Internal_Hbond>
0.0000

> <Gold.Chemscore.DEClash>
0.0842

> <Gold.Chemscore.DEInternal>
1.3791

> <Gold.Chemscore.Rot>
1.6548

> <Gold.Chemscore.Internal.Correction>
   9.000000E+99

> <Gold.Chemscore.Hbonds>
donor molecule, donor type, donor heavy atom, donor atom, acceptor molecule, acceptor atom, score
      L1  H    11    52       P1  7948  0.16
      P1  H  8011  8017       L1    18  0.59

> <Gold.Chemscore.Hbond.Weighted>
-6.6435

> <Gold.Chemscore.Metal.Weighted>
-0.0000

> <Gold.Chemscore.Lipo.Weighted>
-9.9312

> <Gold.Chemscore.Internal_Hbond.Weighted>
0.0000

> <Gold.Chemscore.DEClash.Weighted>
0.0842

> <Gold.Chemscore.DEInternal.Weighted>
1.3791

> <Gold.Chemscore.Rot.Weighted>
4.2362

> <Gold.Chemscore.Internal.Correction.Weighted>
   9.000000E+99

> <Gold.Protein.RotatedTorsions>
[ 6907 6896 6895 6894 ] final  -53.32 input  -60.11 | X-H torsion
[ 7974 7965 7964 7962 ] final  154.10 input  175.53 | X-H torsion
[ 8008 7997 7996 7995 ] final  -57.12 input   59.86 | X-H torsion
[ 10167 10162 10161 10158 ] final  -96.66 input  -65.29 | X-H torsion
[ 10718 10713 10712 10709 ] final   41.49 input   66.30 | X-H torsion
[ 10763 10752 10751 10750 ] final  -50.67 input  -60.55 | X-H torsion
[ 11005 11000 10999 10996 ] final   93.32 input  -57.11 | X-H torsion

> <Gold.Protein.ActiveResidues>
 VAL166  LYS551  ARG553  GLY616  TRP617  ASP618  TYR619  PRO620  LYS621  CYS622 
 ASP623  PHE694  ASN695  SER759  ASP760  ASP761  ALA762  ILE779  LEU786  VAL792 
 PHE793  MET794  SER795  GLU796  ALA797  LYS798  CYS799  TRP800  GLU811  SER814 

> <Gold.Protein.RotatedAtoms>
  150.8438  134.7739  159.6953 H   0  0  0  0  0  0  0  0  0  0  0  0  # atno 6907 bound_to 6896
  152.4519  134.5371  159.9838 H   0  0  0  0  0  0  0  0  0  0  0  0  # atno 6908 bound_to 6896
  151.5506  133.3380  159.2988 H   0  0  0  0  0  0  0  0  0  0  0  0  # atno 6909 bound_to 6896
  144.8111  139.6888  143.6141 H   0  0  0  0  0  0  0  0  0  0  0  0  # atno 7974 bound_to 7965
  154.4256  140.1114  156.5747 H   0  0  0  0  0  0  0  0  0  0  0  0  # atno 8008 bound_to 7997
  155.6175  140.3495  155.4622 H   0  0  0  0  0  0  0  0  0  0  0  0  # atno 8009 bound_to 7997
  156.0051  140.1207  157.0499 H   0  0  0  0  0  0  0  0  0  0  0  0  # atno 8010 bound_to 7997
  140.2915  143.3219  152.0341 H   0  0  0  0  0  0  0  0  0  0  0  0  # atno 10167 bound_to 10162
  157.3942  130.7823  149.7294 H   0  0  0  0  0  0  0  0  0  0  0  0  # atno 10718 bound_to 10713
  154.1142  135.6544  153.4891 H   0  0  0  0  0  0  0  0  0  0  0  0  # atno 10763 bound_to 10752
  153.0246  135.5255  154.7161 H   0  0  0  0  0  0  0  0  0  0  0  0  # atno 10764 bound_to 10752
  154.6350  135.2981  155.0141 H   0  0  0  0  0  0  0  0  0  0  0  0  # atno 10765 bound_to 10752
  139.8811  134.8783  156.3701 H   0  0  0  0  0  0  0  0  0  0  0  0  # atno 11005 bound_to 11000
  146.2409  139.6000  142.9492 LP  0  0  0  0  0  0  0  0  0  0  0  0  # atno 17320 bound_to 7965
  145.5322  141.0426  143.2376 LP  0  0  0  0  0  0  0  0  0  0  0  0  # atno 17321 bound_to 7965
  139.4937  144.6522  151.6652 LP  0  0  0  0  0  0  0  0  0  0  0  0  # atno 17342 bound_to 10162
  140.5728  144.0079  150.6226 LP  0  0  0  0  0  0  0  0  0  0  0  0  # atno 17343 bound_to 10162
  155.9806  130.4028  150.3519 LP  0  0  0  0  0  0  0  0  0  0  0  0  # atno 17370 bound_to 10713
  157.1639  131.0352  151.2828 LP  0  0  0  0  0  0  0  0  0  0  0  0  # atno 17371 bound_to 10713
  140.9470  133.7476  156.0221 LP  0  0  0  0  0  0  0  0  0  0  0  0  # atno 17394 bound_to 11000
  140.8152  134.3354  157.5399 LP  0  0  0  0  0  0  0  0  0  0  0  0  # atno 17395 bound_to 11000

$$$$
