AV-unprocessed.smi:258|AV-procd|sdf|1966|dock7
  -GOLD-   2262021123D 1   1.00000     0.00000
 Structure written by MMmdl.
 57 60  0  0  0  0  0  0  0  0  1 V2000
  148.1488  142.2361  155.3533 O   0  0  0  0  0  0  0  0  0  0  0  0
  149.0827  141.2367  155.7032 C   0  0  0  0  0  0  0  0  0  0  0  0
  150.4038  141.8764  156.1471 C   0  0  0  0  0  0  0  0  0  0  0  0
  150.3223  142.1982  157.5284 O   0  0  0  0  0  0  0  0  0  0  0  0
  151.5802  142.3752  158.1661 C   0  0  1  0  0  0  0  0  0  0  0  0
  151.6097  143.6872  158.9756 C   0  0  0  0  0  0  0  0  0  0  0  0
  152.9171  143.7878  159.7757 C   0  0  0  0  0  0  0  0  0  0  0  0
  153.1175  142.5496  160.6641 C   0  0  0  0  0  0  0  0  0  0  0  0
  153.0322  141.3215  159.8719 N   0  0  0  0  0  0  0  0  0  0  0  0
  153.4986  140.1748  160.4295 C   0  0  0  0  0  0  0  0  0  0  0  0
  153.0951  138.9697  159.9436 N   0  0  0  0  0  0  0  0  0  0  0  0
  153.5581  137.8357  160.4777 C   0  0  0  0  0  0  0  0  0  0  0  0
  154.4155  137.6775  161.4878 N   0  0  0  0  0  0  0  0  0  0  0  0
  154.8166  138.8815  161.9862 C   0  0  0  0  0  0  0  0  0  0  0  0
  154.4104  140.1652  161.5233 C   0  0  0  0  0  0  0  0  0  0  0  0
  155.0167  141.1556  162.2883 N   0  0  0  0  0  0  0  0  0  0  0  0
  155.7492  140.4959  163.1435 C   0  0  0  0  0  0  0  0  0  0  0  0
  155.6866  139.1253  163.0333 N   0  0  0  0  0  0  0  0  0  0  0  0
  156.3939  138.1529  163.8477 C   0  0  0  0  0  0  0  0  0  0  0  0
  155.7262  136.7549  163.8591 C   0  0  2  0  0  0  0  0  0  0  0  0
  154.2308  136.8070  164.2558 C   0  0  0  0  0  0  0  0  0  0  0  0
  154.0680  137.1821  165.6084 O   0  0  0  0  0  0  0  0  0  0  0  0
  156.5281  135.7506  164.7249 C   0  0  2  0  0  0  0  0  0  0  0  0
  157.9250  135.4425  164.2151 C   0  0  0  0  0  0  0  0  0  0  0  0
  158.2596  134.1506  164.9532 C   0  0  0  0  0  0  0  0  0  0  0  0
  157.0200  133.4719  165.1237 O   0  0  0  0  0  0  0  0  0  0  0  0
  155.9408  134.3367  164.7836 C   0  0  0  0  0  0  0  0  0  0  0  0
  151.7999  141.1705  159.0978 C   0  0  0  0  0  0  0  0  0  0  0  0
  148.5660  143.0797  155.4379 H   0  0  0  0  0  0  0  0  0  0  0  0
  148.6752  140.5869  156.4781 H   0  0  0  0  0  0  0  0  0  0  0  0
  149.2503  140.6201  154.8199 H   0  0  0  0  0  0  0  0  0  0  0  0
  151.2100  141.1547  156.0082 H   0  0  0  0  0  0  0  0  0  0  0  0
  150.6399  142.7459  155.5327 H   0  0  0  0  0  0  0  0  0  0  0  0
  152.3795  142.3799  157.4224 H   0  0  0  0  0  0  0  0  0  0  0  0
  151.5168  144.5529  158.3208 H   0  0  0  0  0  0  0  0  0  0  0  0
  150.7595  143.7184  159.6582 H   0  0  0  0  0  0  0  0  0  0  0  0
  153.7578  143.8810  159.0871 H   0  0  0  0  0  0  0  0  0  0  0  0
  152.9153  144.6903  160.3873 H   0  0  0  0  0  0  0  0  0  0  0  0
  154.0887  142.6126  161.1572 H   0  0  0  0  0  0  0  0  0  0  0  0
  152.3578  142.5262  161.4467 H   0  0  0  0  0  0  0  0  0  0  0  0
  153.1890  136.9246  160.0302 H   0  0  0  0  0  0  0  0  0  0  0  0
  156.3534  140.9936  163.8883 H   0  0  0  0  0  0  0  0  0  0  0  0
  157.4147  138.0875  163.4706 H   0  0  0  0  0  0  0  0  0  0  0  0
  156.4661  138.5439  164.8633 H   0  0  0  0  0  0  0  0  0  0  0  0
  155.7542  136.3860  162.8327 H   0  0  0  0  0  0  0  0  0  0  0  0
  153.6840  137.5120  163.6296 H   0  0  0  0  0  0  0  0  0  0  0  0
  153.7527  135.8402  164.1005 H   0  0  0  0  0  0  0  0  0  0  0  0
  153.1443  137.2734  165.7856 H   0  0  0  0  0  0  0  0  0  0  0  0
  156.6139  136.1328  165.7435 H   0  0  0  0  0  0  0  0  0  0  0  0
  157.9079  135.2645  163.1388 H   0  0  0  0  0  0  0  0  0  0  0  0
  158.6443  136.2360  164.4189 H   0  0  0  0  0  0  0  0  0  0  0  0
  158.9810  133.5365  164.4139 H   0  0  0  0  0  0  0  0  0  0  0  0
  158.6719  134.3722  165.9382 H   0  0  0  0  0  0  0  0  0  0  0  0
  155.1294  134.2504  165.5065 H   0  0  0  0  0  0  0  0  0  0  0  0
  155.5571  134.0358  163.8077 H   0  0  0  0  0  0  0  0  0  0  0  0
  150.9635  141.0808  159.7927 H   0  0  0  0  0  0  0  0  0  0  0  0
  151.8087  140.2565  158.5053 H   0  0  0  0  0  0  0  0  0  0  0  0
  1  2  1  0  0  0  0
  1 29  1  0  0  0  0
  2  3  1  0  0  0  0
  2 30  1  0  0  0  0
  2 31  1  0  0  0  0
  3  4  1  0  0  0  0
  3 32  1  0  0  0  0
  3 33  1  0  0  0  0
  4  5  1  0  0  0  0
  5 28  1  0  0  0  0
  5  6  1  0  0  0  0
  5 34  1  0  0  0  0
  6  7  1  0  0  0  0
  6 35  1  0  0  0  0
  6 36  1  0  0  0  0
  7  8  1  0  0  0  0
  7 37  1  0  0  0  0
  7 38  1  0  0  0  0
  8  9  1  0  0  0  0
  8 39  1  0  0  0  0
  8 40  1  0  0  0  0
  9 10  1  0  0  0  0
  9 28  1  0  0  0  0
 10 15  1  0  0  0  0
 10 11  2  0  0  0  0
 11 12  1  0  0  0  0
 12 13  2  0  0  0  0
 12 41  1  0  0  0  0
 13 14  1  0  0  0  0
 14 18  1  0  0  0  0
 14 15  2  0  0  0  0
 15 16  1  0  0  0  0
 16 17  2  0  0  0  0
 17 18  1  0  0  0  0
 17 42  1  0  0  0  0
 18 19  1  0  0  0  0
 19 20  1  0  0  0  0
 19 43  1  0  0  0  0
 19 44  1  0  0  0  0
 20 21  1  0  0  0  0
 20 23  1  0  0  0  0
 20 45  1  0  0  0  0
 21 22  1  0  0  0  0
 21 46  1  0  0  0  0
 21 47  1  0  0  0  0
 22 48  1  0  0  0  0
 23 27  1  0  0  0  0
 23 24  1  0  0  0  0
 23 49  1  0  0  0  0
 24 25  1  0  0  0  0
 24 50  1  0  0  0  0
 24 51  1  0  0  0  0
 25 26  1  0  0  0  0
 25 52  1  0  0  0  0
 25 53  1  0  0  0  0
 26 27  1  0  0  0  0
 27 54  1  0  0  0  0
 27 55  1  0  0  0  0
 28 56  1  0  0  0  0
 28 57  1  0  0  0  0
M  END
> <s_m_source_file>
AV-unprocessed.smi

> <i_m_source_file_index>
258

> <i_lp_mmshare_version>
43012

> <i_f3d_flags>
0

> <s_epik_input>
W09IXVtDSDJdW0NIMl1PW0NAQEhdMVtDSDJdW0NIMl1bQ0gyXU4oW0NIMl0xKWMobltjSF1uMiljKGMyMyluW2NIXW4zW0NIMl1bQ0BIXShbQ0gyXVtPSF0pW0NAQEhdNFtDSDJdW0NIMl1PW0NIMl00

> <s_epik_cmdline>
J2VwaWtfcHl0aG9uJywgJy1waCcsICc3LjAnLCAnLXRuJywgJzgnLCAnLW1hJywgJzIwMCcsICctbWV0YWxfYmluZGluZycsICctaW1hZScsICc8aW5maWxlLm1hZT4nLCAnLW9tYWUnLCAnPG91dGZpbGUubWFlPic=

> <r_lp_tautomer_probability>
1

> <r_epik_Ionization_Penalty>
0.00349036

> <r_epik_Ionization_Penalty_Charging>
0

> <r_epik_Ionization_Penalty_Neutral>
0.00349036

> <r_epik_State_Penalty>
0.00229798

> <r_epik_Charging_Adjusted_Penalty>
0.00229798

> <i_epik_Tot_Q>
0

> <i_epik_Tot_abs_Q>
0

> <r_epik_Metal_State_Penalty>
-0

> <b_epik_Metal_Only>
0

> <s_lp_Force_Field>
OPLS_2005

> <r_lp_Energy>
45.891

> <b_lp_Chiralities_Consistent>
1

> <s_lp_Variant>
AV-unprocessed.smi:258-2

> <Gold.Version>
5.8.1

> <Gold.Id.Protein>
6NUR|6NUR_protein|mol2

> <Gold.PLP.Fitness>
45.9285

> <Gold.PLP.PLP>
-46.1451

> <Gold.PLP.part.hbond>
-4.2598

> <Gold.PLP.part.metal>
0.0000

> <Gold.PLP.part.buried>
-7.4445

> <Gold.PLP.part.nonpolar>
-33.7053

> <Gold.PLP.part.repulsive>
0.1426

> <Gold.PLP.ligand.clash>
0.0000

> <Gold.PLP.ligand.torsion>
1.8846

> <Gold.PLP.Chemscore.Hbond>
1.0000

> <Gold.PLP.Chemscore.CHOScore>
0.0000

> <Gold.PLP.Chemscore.Metal>
0.0000

> <Gold.Chemscore.Hbonds>
donor molecule, donor type, donor heavy atom, donor atom, acceptor molecule, acceptor atom, score
      L1  H     1    29       P1  8028  1.00

> <Gold.PLP.Chemscore.Internal.Correction>
0.5527

> <Gold.Rescore>
     Score         DG    S(hbond)    S(metal)    S(lipo)     H(rot)  DE(clash)    DE(int)     intcor
      3.33     -10.33       1.00        0.00     105.40       4.22       0.35       6.65       ----

> <Gold.Chemscore.Fitness>
3.3309

> <Gold.Chemscore.DG>
-10.3293

> <Gold.Chemscore.ZeroCoef>
-5.4800

> <Gold.Chemscore.Hbond>
0.9978

> <Gold.Chemscore.Metal>
0.0000

> <Gold.Chemscore.Lipo>
105.3968

> <Gold.Chemscore.Internal_Hbond>
0.0000

> <Gold.Chemscore.DEClash>
0.3513

> <Gold.Chemscore.DEInternal>
6.6471

> <Gold.Chemscore.Rot>
4.2246

> <Gold.Chemscore.Internal.Correction>
   9.000000E+99

> <Gold.Chemscore.Hbonds>
donor molecule, donor type, donor heavy atom, donor atom, acceptor molecule, acceptor atom, score
      L1  H     1    29       P1  8028  1.00

> <Gold.Chemscore.Hbond.Weighted>
-3.3327

> <Gold.Chemscore.Metal.Weighted>
-0.0000

> <Gold.Chemscore.Lipo.Weighted>
-12.3314

> <Gold.Chemscore.Internal_Hbond.Weighted>
0.0000

> <Gold.Chemscore.DEClash.Weighted>
0.3513

> <Gold.Chemscore.DEInternal.Weighted>
6.6471

> <Gold.Chemscore.Rot.Weighted>
10.8149

> <Gold.Chemscore.Internal.Correction.Weighted>
   9.000000E+99

> <Gold.Protein.RotatedTorsions>
[ 6907 6896 6895 6894 ] final  -59.26 input  -60.11 | X-H torsion
[ 7974 7965 7964 7962 ] final    5.80 input  175.53 | X-H torsion
[ 8008 7997 7996 7995 ] final  -65.65 input   59.86 | X-H torsion
[ 10167 10162 10161 10158 ] final   -8.06 input  -65.29 | X-H torsion
[ 10718 10713 10712 10709 ] final  100.12 input   66.30 | X-H torsion
[ 10763 10752 10751 10750 ] final   31.86 input  -60.55 | X-H torsion
[ 11005 11000 10999 10996 ] final  102.59 input  -57.11 | X-H torsion

> <Gold.Protein.ActiveResidues>
 VAL166  LYS551  ARG553  GLY616  TRP617  ASP618  TYR619  PRO620  LYS621  CYS622 
 ASP623  PHE694  ASN695  SER759  ASP760  ASP761  ALA762  ILE779  LEU786  VAL792 
 PHE793  MET794  SER795  GLU796  ALA797  LYS798  CYS799  TRP800  GLU811  SER814 

> <Gold.Protein.RotatedAtoms>
  150.7944  134.6991  159.6539 H   0  0  0  0  0  0  0  0  0  0  0  0  # atno 6907 bound_to 6896
  152.4054  134.6213  160.0061 H   0  0  0  0  0  0  0  0  0  0  0  0  # atno 6908 bound_to 6896
  151.6472  133.3286  159.3180 H   0  0  0  0  0  0  0  0  0  0  0  0  # atno 6909 bound_to 6896
  146.2438  140.0330  142.8388 H   0  0  0  0  0  0  0  0  0  0  0  0  # atno 7974 bound_to 7965
  154.4685  140.0929  156.7082 H   0  0  0  0  0  0  0  0  0  0  0  0  # atno 8008 bound_to 7997
  155.4791  140.3467  155.4319 H   0  0  0  0  0  0  0  0  0  0  0  0  # atno 8009 bound_to 7997
  156.0998  140.1419  156.9472 H   0  0  0  0  0  0  0  0  0  0  0  0  # atno 8010 bound_to 7997
  140.7048  143.6011  150.8797 H   0  0  0  0  0  0  0  0  0  0  0  0  # atno 10167 bound_to 10162
  157.6861  131.0689  150.5052 H   0  0  0  0  0  0  0  0  0  0  0  0  # atno 10718 bound_to 10713
  153.0293  135.6428  154.1264 H   0  0  0  0  0  0  0  0  0  0  0  0  # atno 10763 bound_to 10752
  154.0989  135.2861  155.3257 H   0  0  0  0  0  0  0  0  0  0  0  0  # atno 10764 bound_to 10752
  154.6413  135.5459  153.7855 H   0  0  0  0  0  0  0  0  0  0  0  0  # atno 10765 bound_to 10752
  139.8778  134.9230  156.5081 H   0  0  0  0  0  0  0  0  0  0  0  0  # atno 11005 bound_to 11000
  145.1138  140.9421  143.4641 LP  0  0  0  0  0  0  0  0  0  0  0  0  # atno 17320 bound_to 7965
  145.0550  139.3151  143.5909 LP  0  0  0  0  0  0  0  0  0  0  0  0  # atno 17321 bound_to 7965
  139.9735  143.6030  152.2966 LP  0  0  0  0  0  0  0  0  0  0  0  0  # atno 17342 bound_to 10162
  139.6625  144.7662  151.1935 LP  0  0  0  0  0  0  0  0  0  0  0  0  # atno 17343 bound_to 10162
  156.5372  130.4199  149.6172 LP  0  0  0  0  0  0  0  0  0  0  0  0  # atno 17370 bound_to 10713
  156.3017  130.7180  151.2054 LP  0  0  0  0  0  0  0  0  0  0  0  0  # atno 17371 bound_to 10713
  140.8540  133.8110  155.9197 LP  0  0  0  0  0  0  0  0  0  0  0  0  # atno 17394 bound_to 11000
  140.9116  134.2254  157.4982 LP  0  0  0  0  0  0  0  0  0  0  0  0  # atno 17395 bound_to 11000

$$$$
