AV-unprocessed.smi:737|AV-procd|sdf|3537|dock8
  -GOLD-   22720 0533D 1   1.00000     0.00000
 Structure written by MMmdl.
 45 47  0  0  0  0  0  0  0  0  1 V2000
  148.5624  136.7353  155.3573 C   0  0  0  0  0  0  0  0  0  0  0  0
  149.4932  137.2280  154.3549 N   0  0  0  0  0  0  0  0  0  0  0  0
  150.6045  137.9971  154.7269 C   0  0  0  0  0  0  0  0  0  0  0  0
  151.8341  137.4331  154.7618 N   0  0  0  0  0  0  0  0  0  0  0  0
  152.8682  138.2062  155.1179 C   0  0  0  0  0  0  0  0  0  0  0  0
  152.8762  139.5048  155.4570 N   0  0  0  0  0  0  0  0  0  0  0  0
  151.6628  140.0725  155.4272 C   0  0  0  0  0  0  0  0  0  0  0  0
  151.3765  141.3933  155.7273 N   0  0  0  0  0  0  0  0  0  0  0  0
  150.0587  141.4324  155.5468 C   0  0  0  0  0  0  0  0  0  0  0  0
  149.4495  140.2936  155.1629 N   0  0  0  0  0  0  0  0  0  0  0  0
  148.0292  140.1170  154.9138 C   0  0  0  0  0  0  0  0  0  0  0  0
  147.5144  141.0082  153.7648 C   0  0  1  0  0  0  0  0  0  0  0  0
  147.2328  140.2618  152.5973 O   0  0  0  0  0  0  0  0  0  0  0  0
  146.2724  141.8311  154.1394 C   0  0  0  0  0  0  0  0  0  0  0  0
  146.5715  143.2174  154.0494 O   0  0  0  0  0  0  0  0  0  0  0  0
  145.5342  144.0327  154.4200 C   0  0  0  0  0  0  0  0  0  0  0  0
  144.9562  144.9030  153.4669 C   0  0  0  0  0  0  0  0  0  0  0  0
  145.4754  144.9368  152.0417 C   0  0  0  0  0  0  0  0  0  0  0  0
  143.8894  145.7450  153.8423 C   0  0  0  0  0  0  0  0  0  0  0  0
  143.4064  145.7300  155.1638 C   0  0  0  0  0  0  0  0  0  0  0  0
  143.9930  144.8778  156.1177 C   0  0  0  0  0  0  0  0  0  0  0  0
  145.0612  144.0321  155.7542 C   0  0  0  0  0  0  0  0  0  0  0  0
  145.6913  143.1370  156.8058 C   0  0  0  0  0  0  0  0  0  0  0  0
  150.4797  139.3593  155.0678 C   0  0  0  0  0  0  0  0  0  0  0  0
  147.7756  136.1524  154.8784 H   0  0  0  0  0  0  0  0  0  0  0  0
  148.0961  137.5636  155.8917 H   0  0  0  0  0  0  0  0  0  0  0  0
  149.0717  136.0941  156.0774 H   0  0  0  0  0  0  0  0  0  0  0  0
  149.3650  136.9573  153.3902 H   0  0  0  0  0  0  0  0  0  0  0  0
  153.8304  137.7159  155.1338 H   0  0  0  0  0  0  0  0  0  0  0  0
  149.5013  142.3446  155.7031 H   0  0  0  0  0  0  0  0  0  0  0  0
  147.8394  139.0634  154.7128 H   0  0  0  0  0  0  0  0  0  0  0  0
  147.4881  140.3490  155.8320 H   0  0  0  0  0  0  0  0  0  0  0  0
  148.3066  141.7059  153.4905 H   0  0  0  0  0  0  0  0  0  0  0  0
  148.0253  140.1904  152.0873 H   0  0  0  0  0  0  0  0  0  0  0  0
  145.4636  141.5952  153.4461 H   0  0  0  0  0  0  0  0  0  0  0  0
  145.9207  141.5645  155.1370 H   0  0  0  0  0  0  0  0  0  0  0  0
  145.1307  145.8283  151.5170 H   0  0  0  0  0  0  0  0  0  0  0  0
  145.1279  144.0621  151.4923 H   0  0  0  0  0  0  0  0  0  0  0  0
  146.5657  144.9412  152.0284 H   0  0  0  0  0  0  0  0  0  0  0  0
  143.4383  146.4078  153.1182 H   0  0  0  0  0  0  0  0  0  0  0  0
  142.5896  146.3772  155.4477 H   0  0  0  0  0  0  0  0  0  0  0  0
  143.6222  144.8788  157.1323 H   0  0  0  0  0  0  0  0  0  0  0  0
  145.5834  143.5705  157.8003 H   0  0  0  0  0  0  0  0  0  0  0  0
  146.7563  142.9970  156.6189 H   0  0  0  0  0  0  0  0  0  0  0  0
  145.2099  142.1593  156.8070 H   0  0  0  0  0  0  0  0  0  0  0  0
  1  2  1  0  0  0  0
  1 25  1  0  0  0  0
  1 26  1  0  0  0  0
  1 27  1  0  0  0  0
  2  3  1  0  0  0  0
  2 28  1  0  0  0  0
  3 24  1  0  0  0  0
  3  4  2  0  0  0  0
  4  5  1  0  0  0  0
  5  6  2  0  0  0  0
  5 29  1  0  0  0  0
  6  7  1  0  0  0  0
  7 24  2  0  0  0  0
  7  8  1  0  0  0  0
  8  9  2  0  0  0  0
  9 10  1  0  0  0  0
  9 30  1  0  0  0  0
 10 11  1  0  0  0  0
 10 24  1  0  0  0  0
 11 12  1  0  0  0  0
 11 31  1  0  0  0  0
 11 32  1  0  0  0  0
 12 13  1  0  0  0  0
 12 14  1  0  0  0  0
 12 33  1  0  0  0  0
 13 34  1  0  0  0  0
 14 15  1  0  0  0  0
 14 35  1  0  0  0  0
 14 36  1  0  0  0  0
 15 16  1  0  0  0  0
 16 22  1  0  0  0  0
 16 17  2  0  0  0  0
 17 18  1  0  0  0  0
 17 19  1  0  0  0  0
 18 37  1  0  0  0  0
 18 38  1  0  0  0  0
 18 39  1  0  0  0  0
 19 20  2  0  0  0  0
 19 40  1  0  0  0  0
 20 21  1  0  0  0  0
 20 41  1  0  0  0  0
 21 22  2  0  0  0  0
 21 42  1  0  0  0  0
 22 23  1  0  0  0  0
 23 43  1  0  0  0  0
 23 44  1  0  0  0  0
 23 45  1  0  0  0  0
M  END
> <s_m_source_file>
AV-unprocessed.smi

> <i_m_source_file_index>
737

> <i_lp_mmshare_version>
43012

> <i_f3d_flags>
0

> <s_epik_input>
bjFbY0hdbmMoW05IXVtDSDNdKWMoYzEyKW4oW2NIXW4yKVtDSDJdW0NASF0oW09IXSlbQ0gyXU9jM2MoW0NIM10pW2NIXVtjSF1bY0hdYzNbQ0gzXQ==

> <s_epik_cmdline>
J2VwaWtfcHl0aG9uJywgJy1waCcsICc3LjAnLCAnLXRuJywgJzgnLCAnLW1hJywgJzIwMCcsICctbWV0YWxfYmluZGluZycsICctaW1hZScsICc8aW5maWxlLm1hZT4nLCAnLW9tYWUnLCAnPG91dGZpbGUubWFlPic=

> <r_lp_tautomer_probability>
1

> <r_epik_Ionization_Penalty>
0.0070961

> <r_epik_Ionization_Penalty_Charging>
0

> <r_epik_Ionization_Penalty_Neutral>
0.0070961

> <r_epik_State_Penalty>
-0

> <r_epik_Charging_Adjusted_Penalty>
0

> <i_epik_Tot_Q>
0

> <i_epik_Tot_abs_Q>
0

> <r_epik_Metal_State_Penalty>
-0

> <b_epik_Metal_Only>
0

> <s_lp_Force_Field>
OPLS_2005

> <r_lp_Energy>
18.2804

> <b_lp_Chiralities_Consistent>
1

> <s_lp_Variant>
AV-unprocessed.smi:737-2

> <Gold.Version>
5.8.1

> <Gold.Id.Protein>
6NUR|6NUR_protein|mol2

> <Gold.PLP.Fitness>
52.3992

> <Gold.PLP.PLP>
-42.4243

> <Gold.PLP.part.hbond>
-5.2739

> <Gold.PLP.part.metal>
0.0000

> <Gold.PLP.part.buried>
-2.3321

> <Gold.PLP.part.nonpolar>
-35.0742

> <Gold.PLP.part.repulsive>
0.3926

> <Gold.PLP.ligand.clash>
0.0000

> <Gold.PLP.ligand.torsion>
2.1704

> <Gold.PLP.Chemscore.Hbond>
3.6989

> <Gold.PLP.Chemscore.CHOScore>
1.0000

> <Gold.PLP.Chemscore.Metal>
0.0000

> <Gold.Chemscore.Hbonds>
donor molecule, donor type, donor heavy atom, donor atom, acceptor molecule, acceptor atom, score
      L1  H     2    28       P1  7948  1.00
      L1  H    13    34       P1  7957  1.00
      P1  H  7997  8009       L1     6  1.00
      P1  H 10752 10765       L1     4  0.57
      L1  C     9    30       P1  8028  1.00

> <Gold.PLP.Chemscore.Internal.Correction>
0.2191

> <Gold.Rescore>
     Score         DG    S(hbond)    S(metal)    S(lipo)     H(rot)  DE(clash)    DE(int)     intcor
     13.85     -16.50       2.99        0.00      72.37       2.91       0.39       2.26       ----

> <Gold.Chemscore.Fitness>
13.8535

> <Gold.Chemscore.DG>
-16.5017

> <Gold.Chemscore.ZeroCoef>
-5.4800

> <Gold.Chemscore.Hbond>
2.9929

> <Gold.Chemscore.Metal>
0.0000

> <Gold.Chemscore.Lipo>
72.3656

> <Gold.Chemscore.Internal_Hbond>
0.0000

> <Gold.Chemscore.DEClash>
0.3891

> <Gold.Chemscore.DEInternal>
2.2592

> <Gold.Chemscore.Rot>
2.9067

> <Gold.Chemscore.Internal.Correction>
   9.000000E+99

> <Gold.Chemscore.Hbonds>
donor molecule, donor type, donor heavy atom, donor atom, acceptor molecule, acceptor atom, score
      L1  H     2    28       P1  7948  0.94
      L1  H    13    34       P1  7957  1.00
      P1  H  7997  8009       L1     6  0.94
      P1  H 10752 10765       L1     4  0.10

> <Gold.Chemscore.Hbond.Weighted>
-9.9961

> <Gold.Chemscore.Metal.Weighted>
-0.0000

> <Gold.Chemscore.Lipo.Weighted>
-8.4668

> <Gold.Chemscore.Internal_Hbond.Weighted>
0.0000

> <Gold.Chemscore.DEClash.Weighted>
0.3891

> <Gold.Chemscore.DEInternal.Weighted>
2.2592

> <Gold.Chemscore.Rot.Weighted>
7.4412

> <Gold.Chemscore.Internal.Correction.Weighted>
   9.000000E+99

> <Gold.Protein.RotatedTorsions>
[ 6907 6896 6895 6894 ] final   40.43 input  -60.11 | X-H torsion
[ 7974 7965 7964 7962 ] final  -27.65 input  175.53 | X-H torsion
[ 8008 7997 7996 7995 ] final -141.47 input   59.86 | X-H torsion
[ 10167 10162 10161 10158 ] final  -41.84 input  -65.29 | X-H torsion
[ 10718 10713 10712 10709 ] final  -57.63 input   66.30 | X-H torsion
[ 10763 10752 10751 10750 ] final  160.76 input  -60.55 | X-H torsion
[ 11005 11000 10999 10996 ] final -116.68 input  -57.11 | X-H torsion

> <Gold.Protein.ActiveResidues>
 VAL166  LYS551  ARG553  GLY616  TRP617  ASP618  TYR619  PRO620  LYS621  CYS622 
 ASP623  PHE694  ASN695  SER759  ASP760  ASP761  ALA762  ILE779  LEU786  VAL792 
 PHE793  MET794  SER795  GLU796  ALA797  LYS798  CYS799  TRP800  GLU811  SER814 

> <Gold.Protein.RotatedAtoms>
  152.1824  134.8743  160.0524 H   0  0  0  0  0  0  0  0  0  0  0  0  # atno 6907 bound_to 6896
  151.9662  133.3706  159.4062 H   0  0  0  0  0  0  0  0  0  0  0  0  # atno 6908 bound_to 6896
  150.6920  134.4111  159.5206 H   0  0  0  0  0  0  0  0  0  0  0  0  # atno 6909 bound_to 6896
  146.1343  140.5179  142.8679 H   0  0  0  0  0  0  0  0  0  0  0  0  # atno 7974 bound_to 7965
  155.4783  140.0558  157.2970 H   0  0  0  0  0  0  0  0  0  0  0  0  # atno 8008 bound_to 7997
  154.4670  140.2023  156.0045 H   0  0  0  0  0  0  0  0  0  0  0  0  # atno 8009 bound_to 7997
  156.0992  140.3222  155.7923 H   0  0  0  0  0  0  0  0  0  0  0  0  # atno 8010 bound_to 7997
  140.6989  143.3072  151.3123 H   0  0  0  0  0  0  0  0  0  0  0  0  # atno 10167 bound_to 10162
  156.1196  130.4167  150.0467 H   0  0  0  0  0  0  0  0  0  0  0  0  # atno 10718 bound_to 10713
  154.2524  135.2771  155.2811 H   0  0  0  0  0  0  0  0  0  0  0  0  # atno 10763 bound_to 10752
  154.5454  135.5690  153.6878 H   0  0  0  0  0  0  0  0  0  0  0  0  # atno 10764 bound_to 10752
  152.9978  135.6261  154.2671 H   0  0  0  0  0  0  0  0  0  0  0  0  # atno 10765 bound_to 10752
  141.0406  133.9842  157.3001 H   0  0  0  0  0  0  0  0  0  0  0  0  # atno 11005 bound_to 11000
  144.7723  140.5665  143.6661 LP  0  0  0  0  0  0  0  0  0  0  0  0  # atno 17320 bound_to 7965
  145.5190  139.1477  143.3562 LP  0  0  0  0  0  0  0  0  0  0  0  0  # atno 17321 bound_to 7965
  139.6481  144.0413  152.2606 LP  0  0  0  0  0  0  0  0  0  0  0  0  # atno 17342 bound_to 10162
  139.9940  144.6341  150.7789 LP  0  0  0  0  0  0  0  0  0  0  0  0  # atno 17343 bound_to 10162
  156.8408  130.9425  151.3632 LP  0  0  0  0  0  0  0  0  0  0  0  0  # atno 17370 bound_to 10713
  157.6380  130.8782  149.9394 LP  0  0  0  0  0  0  0  0  0  0  0  0  # atno 17371 bound_to 10713
  139.9273  135.0201  156.8277 LP  0  0  0  0  0  0  0  0  0  0  0  0  # atno 17394 bound_to 11000
  140.6242  133.9966  155.7632 LP  0  0  0  0  0  0  0  0  0  0  0  0  # atno 17395 bound_to 11000

$$$$
