AV-unprocessed.smi:1923|AV-procd|sdf|7789|dock2
  -GOLD-   22720 9533D 1   1.00000     0.00000
 Structure written by MMmdl.
 55 57  0  0  0  0  0  0  0  0  2 V2000
  144.9814  131.1587  151.0507 C   0  0  0  0  0  0  0  0  0  0  0  0
  144.9960  132.6705  151.3166 C   0  0  2  0  0  0  0  0  0  0  0  0
  144.1889  133.4429  150.2600 C   0  0  0  0  0  0  0  0  0  0  0  0
  144.2370  134.9587  150.5178 C   0  0  0  0  0  0  0  0  0  0  0  0
  145.6372  135.4547  150.5606 N   0  3  1  0  0  0  0  0  0  0  0  0
  145.7036  136.9337  150.6778 C   0  0  0  0  0  0  0  0  0  0  0  0
  145.8335  137.4033  152.1361 C   0  0  0  0  0  0  0  0  0  0  0  0
  147.2142  137.7535  152.4410 N   0  0  0  0  0  0  0  0  0  0  0  0
  147.5872  138.4942  153.4931 C   0  0  0  0  0  0  0  0  0  0  0  0
  146.7907  138.9459  154.3153 O   0  0  0  0  0  0  0  0  0  0  0  0
  148.9215  138.6529  153.5296 N   0  0  0  0  0  0  0  0  0  0  0  0
  149.7029  139.3881  154.4621 C   0  0  0  0  0  0  0  0  0  0  0  0
  151.0427  139.0852  154.7988 C   0  0  0  0  0  0  0  0  0  0  0  0
  151.7023  139.8807  155.7551 C   0  0  0  0  0  0  0  0  0  0  0  0
  151.0090  140.9548  156.3617 C   0  0  0  0  0  0  0  0  0  0  0  0
  151.6520  141.7631  157.3245 N   0  0  0  0  0  0  0  0  0  0  0  0
  151.1306  143.1108  157.5477 C   0  0  0  0  0  0  0  0  0  0  0  0
  152.1147  143.9325  158.3974 C   0  0  0  0  0  0  0  0  0  0  0  0
  152.3918  143.2425  159.6115 O   0  0  0  0  0  0  0  0  0  0  0  0
  153.0014  141.9780  159.3743 C   0  0  0  0  0  0  0  0  0  0  0  0
  152.0517  141.0860  158.5560 C   0  0  0  0  0  0  0  0  0  0  0  0
  149.7231  141.2383  156.0397 N   0  0  0  0  0  0  0  0  0  0  0  0
  149.0942  140.4728  155.1239 C   0  0  0  0  0  0  0  0  0  0  0  0
  146.4320  134.7461  151.5996 C   0  0  0  0  0  0  0  0  0  0  0  0
  146.4289  133.2265  151.3624 C   0  0  0  0  0  0  0  0  0  0  0  0
  145.4328  130.9200  150.0871 H   0  0  0  0  0  0  0  0  0  0  0  0
  143.9624  130.7709  151.0460 H   0  0  0  0  0  0  0  0  0  0  0  0
  145.5349  130.6196  151.8200 H   0  0  0  0  0  0  0  0  0  0  0  0
  144.5336  132.8406  152.2901 H   0  0  0  0  0  0  0  0  0  0  0  0
  144.5820  133.2303  149.2646 H   0  0  0  0  0  0  0  0  0  0  0  0
  143.1522  133.1040  150.2609 H   0  0  0  0  0  0  0  0  0  0  0  0
  143.6875  135.4704  149.7265 H   0  0  0  0  0  0  0  0  0  0  0  0
  143.7358  135.1972  151.4575 H   0  0  0  0  0  0  0  0  0  0  0  0
  146.5741  137.2973  150.1295 H   0  0  0  0  0  0  0  0  0  0  0  0
  144.8300  137.3814  150.2011 H   0  0  0  0  0  0  0  0  0  0  0  0
  145.2058  138.2744  152.3248 H   0  0  0  0  0  0  0  0  0  0  0  0
  145.5044  136.6146  152.8150 H   0  0  0  0  0  0  0  0  0  0  0  0
  147.9292  137.4142  151.8142 H   0  0  0  0  0  0  0  0  0  0  0  0
  149.4480  138.1512  152.8295 H   0  0  0  0  0  0  0  0  0  0  0  0
  151.5748  138.2581  154.3558 H   0  0  0  0  0  0  0  0  0  0  0  0
  152.7307  139.6636  156.0022 H   0  0  0  0  0  0  0  0  0  0  0  0
  150.9668  143.6159  156.5949 H   0  0  0  0  0  0  0  0  0  0  0  0
  150.1661  143.0454  158.0531 H   0  0  0  0  0  0  0  0  0  0  0  0
  153.0413  144.1165  157.8513 H   0  0  0  0  0  0  0  0  0  0  0  0
  151.6852  144.9064  158.6322 H   0  0  0  0  0  0  0  0  0  0  0  0
  153.9519  142.1119  158.8551 H   0  0  0  0  0  0  0  0  0  0  0  0
  153.2258  141.5075  160.3317 H   0  0  0  0  0  0  0  0  0  0  0  0
  151.1575  140.8605  159.1386 H   0  0  0  0  0  0  0  0  0  0  0  0
  152.5454  140.1365  158.3546 H   0  0  0  0  0  0  0  0  0  0  0  0
  148.0695  140.7403  154.9106 H   0  0  0  0  0  0  0  0  0  0  0  0
  147.4630  135.0968  151.5968 H   0  0  0  0  0  0  0  0  0  0  0  0
  146.0258  134.9707  152.5871 H   0  0  0  0  0  0  0  0  0  0  0  0
  146.9957  132.7318  152.1523 H   0  0  0  0  0  0  0  0  0  0  0  0
  146.9441  133.0030  150.4269 H   0  0  0  0  0  0  0  0  0  0  0  0
  146.0442  135.2202  149.6663 H   0  0  0  0  0  0  0  0  0  0  0  0
  1  2  1  0  0  0  0
  1 26  1  0  0  0  0
  1 27  1  0  0  0  0
  1 28  1  0  0  0  0
  2 25  1  0  0  0  0
  2  3  1  0  0  0  0
  2 29  1  0  0  0  0
  3  4  1  0  0  0  0
  3 30  1  0  0  0  0
  3 31  1  0  0  0  0
  4  5  1  0  0  0  0
  4 32  1  0  0  0  0
  4 33  1  0  0  0  0
  5  6  1  0  0  0  0
  5 24  1  0  0  0  0
  5 55  1  0  0  0  0
  6  7  1  0  0  0  0
  6 34  1  0  0  0  0
  6 35  1  0  0  0  0
  7  8  1  0  0  0  0
  7 36  1  0  0  0  0
  7 37  1  0  0  0  0
  8  9  1  0  0  0  0
  8 38  1  0  0  0  0
  9 10  2  0  0  0  0
  9 11  1  0  0  0  0
 11 12  1  0  0  0  0
 11 39  1  0  0  0  0
 12 23  1  0  0  0  0
 12 13  2  0  0  0  0
 13 14  1  0  0  0  0
 13 40  1  0  0  0  0
 14 15  2  0  0  0  0
 14 41  1  0  0  0  0
 15 16  1  0  0  0  0
 15 22  1  0  0  0  0
 16 21  1  0  0  0  0
 16 17  1  0  0  0  0
 17 18  1  0  0  0  0
 17 42  1  0  0  0  0
 17 43  1  0  0  0  0
 18 19  1  0  0  0  0
 18 44  1  0  0  0  0
 18 45  1  0  0  0  0
 19 20  1  0  0  0  0
 20 21  1  0  0  0  0
 20 46  1  0  0  0  0
 20 47  1  0  0  0  0
 21 48  1  0  0  0  0
 21 49  1  0  0  0  0
 22 23  2  0  0  0  0
 23 50  1  0  0  0  0
 24 25  1  0  0  0  0
 24 51  1  0  0  0  0
 24 52  1  0  0  0  0
 25 53  1  0  0  0  0
 25 54  1  0  0  0  0
M  CHG  1   5   1
M  END
> <s_m_source_file>
AV-unprocessed.smi

> <i_m_source_file_index>
1923

> <i_lp_mmshare_version>
43012

> <i_f3d_flags>
0

> <s_epik_input>
W0NIM11bQ0hdMVtDSDJdW0NIMl1OKFtDSDJdW0NIMl0xKVtDSDJdW0NIMl1bTkhdQyg9TylbTkhdYzJbY0hdW2NIXWMobltjSF0yKU4zW0NIMl1bQ0gyXU9bQ0gyXVtDSDJdMw==

> <s_epik_cmdline>
J2VwaWtfcHl0aG9uJywgJy1waCcsICc3LjAnLCAnLXRuJywgJzgnLCAnLW1hJywgJzIwMCcsICctbWV0YWxfYmluZGluZycsICctaW1hZScsICc8aW5maWxlLm1hZT4nLCAnLW9tYWUnLCAnPG91dGZpbGUubWFlPic=

> <r_lp_tautomer_probability>
1

> <r_epik_Ionization_Penalty>
0.00307683

> <r_epik_Ionization_Penalty_Charging>
0.00139388

> <r_epik_Ionization_Penalty_Neutral>
0.00168296

> <r_epik_State_Penalty>
-0

> <r_epik_Charging_Adjusted_Penalty>
0.00139388

> <i_epik_Tot_Q>
1

> <i_epik_Tot_abs_Q>
1

> <r_epik_Metal_State_Penalty>
-0

> <b_epik_Metal_Only>
0

> <s_lp_Force_Field>
OPLS_2005

> <r_lp_Energy>
34.4311

> <b_lp_Chiralities_Consistent>
1

> <s_lp_Variant>
AV-unprocessed.smi:1923-1

> <Gold.Version>
5.8.1

> <Gold.Id.Protein>
6NUR|6NUR_protein|mol2

> <Gold.PLP.Fitness>
51.1255

> <Gold.PLP.PLP>
-46.5774

> <Gold.PLP.part.hbond>
-3.4261

> <Gold.PLP.part.metal>
0.0000

> <Gold.PLP.part.buried>
0.8949

> <Gold.PLP.part.nonpolar>
-46.4660

> <Gold.PLP.part.repulsive>
0.4902

> <Gold.PLP.ligand.clash>
0.0000

> <Gold.PLP.ligand.torsion>
1.2912

> <Gold.PLP.Chemscore.Hbond>
2.2506

> <Gold.PLP.Chemscore.CHOScore>
0.0000

> <Gold.PLP.Chemscore.Metal>
0.0000

> <Gold.Chemscore.Hbonds>
donor molecule, donor type, donor heavy atom, donor atom, acceptor molecule, acceptor atom, score
      L1  H     5    55       P1  7921  0.93
      L1  H     8    38       P1  7948  0.72
      L1  H    11    39       P1  7948  0.39

> <Gold.PLP.Chemscore.Internal.Correction>
0.3788

> <Gold.Rescore>
     Score         DG    S(hbond)    S(metal)    S(lipo)     H(rot)  DE(clash)    DE(int)     intcor
     19.29     -24.00       2.31        0.00     127.24       1.60       2.31       2.40       ----

> <Gold.Chemscore.Fitness>
19.2941

> <Gold.Chemscore.DG>
-23.9955

> <Gold.Chemscore.ZeroCoef>
-5.4800

> <Gold.Chemscore.Hbond>
2.3109

> <Gold.Chemscore.Metal>
0.0000

> <Gold.Chemscore.Lipo>
127.2384

> <Gold.Chemscore.Internal_Hbond>
0.0000

> <Gold.Chemscore.DEClash>
2.3052

> <Gold.Chemscore.DEInternal>
2.3961

> <Gold.Chemscore.Rot>
1.5976

> <Gold.Chemscore.Internal.Correction>
   9.000000E+99

> <Gold.Chemscore.Hbonds>
donor molecule, donor type, donor heavy atom, donor atom, acceptor molecule, acceptor atom, score
      L1  H     5    55       P1  7921  0.75
      L1  H     8    38       P1  7948  0.67
      L1  H    11    39       P1  7948  0.34

> <Gold.Chemscore.Hbond.Weighted>
-7.7185

> <Gold.Chemscore.Metal.Weighted>
-0.0000

> <Gold.Chemscore.Lipo.Weighted>
-14.8869

> <Gold.Chemscore.Internal_Hbond.Weighted>
0.0000

> <Gold.Chemscore.DEClash.Weighted>
2.3052

> <Gold.Chemscore.DEInternal.Weighted>
2.3961

> <Gold.Chemscore.Rot.Weighted>
4.0899

> <Gold.Chemscore.Internal.Correction.Weighted>
   9.000000E+99

> <Gold.Protein.RotatedTorsions>
[ 6907 6896 6895 6894 ] final   57.69 input  -60.11 | X-H torsion
[ 7974 7965 7964 7962 ] final  -60.70 input  175.53 | X-H torsion
[ 8008 7997 7996 7995 ] final    1.26 input   59.86 | X-H torsion
[ 10167 10162 10161 10158 ] final   11.57 input  -65.29 | X-H torsion
[ 10718 10713 10712 10709 ] final   -6.11 input   66.30 | X-H torsion
[ 10763 10752 10751 10750 ] final   39.91 input  -60.55 | X-H torsion
[ 11005 11000 10999 10996 ] final   -1.06 input  -57.11 | X-H torsion

> <Gold.Protein.ActiveResidues>
 VAL166  LYS551  ARG553  GLY616  TRP617  ASP618  TYR619  PRO620  LYS621  CYS622 
 ASP623  PHE694  ASN695  SER759  ASP760  ASP761  ALA762  ILE779  LEU786  VAL792 
 PHE793  MET794  SER795  GLU796  ALA797  LYS798  CYS799  TRP800  GLU811  SER814 

> <Gold.Protein.RotatedAtoms>
  152.3755  134.6670  160.0161 H   0  0  0  0  0  0  0  0  0  0  0  0  # atno 6907 bound_to 6896
  151.6949  133.3305  159.3260 H   0  0  0  0  0  0  0  0  0  0  0  0  # atno 6908 bound_to 6896
  150.7706  134.6601  159.6380 H   0  0  0  0  0  0  0  0  0  0  0  0  # atno 6909 bound_to 6896
  145.8124  140.8591  143.0175 H   0  0  0  0  0  0  0  0  0  0  0  0  # atno 7974 bound_to 7965
  154.6776  140.2626  155.6941 H   0  0  0  0  0  0  0  0  0  0  0  0  # atno 8008 bound_to 7997
  156.2684  140.2816  156.1231 H   0  0  0  0  0  0  0  0  0  0  0  0  # atno 8009 bound_to 7997
  155.1077  140.0375  157.2705 H   0  0  0  0  0  0  0  0  0  0  0  0  # atno 8010 bound_to 7997
  140.6123  143.8381  150.7079 H   0  0  0  0  0  0  0  0  0  0  0  0  # atno 10167 bound_to 10162
  156.7366  130.5197  149.5833 H   0  0  0  0  0  0  0  0  0  0  0  0  # atno 10718 bound_to 10713
  152.9952  135.6207  154.2542 H   0  0  0  0  0  0  0  0  0  0  0  0  # atno 10763 bound_to 10752
  154.2279  135.2793  155.2902 H   0  0  0  0  0  0  0  0  0  0  0  0  # atno 10764 bound_to 10752
  154.5474  135.5743  153.6950 H   0  0  0  0  0  0  0  0  0  0  0  0  # atno 10765 bound_to 10752
  140.6432  133.9471  155.8338 H   0  0  0  0  0  0  0  0  0  0  0  0  # atno 11005 bound_to 11000
  144.6756  140.0414  143.7481 LP  0  0  0  0  0  0  0  0  0  0  0  0  # atno 17320 bound_to 7965
  145.9763  139.2907  143.1068 LP  0  0  0  0  0  0  0  0  0  0  0  0  # atno 17321 bound_to 7965
  140.1953  143.4003  152.1833 LP  0  0  0  0  0  0  0  0  0  0  0  0  # atno 17342 bound_to 10162
  139.5371  144.7220  151.4857 LP  0  0  0  0  0  0  0  0  0  0  0  0  # atno 17343 bound_to 10162
  156.1492  130.6298  151.0573 LP  0  0  0  0  0  0  0  0  0  0  0  0  # atno 17370 bound_to 10713
  157.6836  131.0831  150.7303 LP  0  0  0  0  0  0  0  0  0  0  0  0  # atno 17371 bound_to 10713
  141.0591  134.0372  157.3682 LP  0  0  0  0  0  0  0  0  0  0  0  0  # atno 17394 bound_to 11000
  139.9072  135.0182  156.7539 LP  0  0  0  0  0  0  0  0  0  0  0  0  # atno 17395 bound_to 11000

$$$$
