AV-unprocessed.smi:3237|AV-procd|sdf|12369|dock1
  -GOLD-   2272018233D 1   1.00000     0.00000
 Structure written by MMmdl.
 36 38  0  0  0  0  0  0  0  0  3 V2000
  148.8302  140.4794  154.7157 C   0  0  0  0  0  0  0  0  0  0  0  0
  149.8170  139.3704  154.8460 C   0  0  0  0  0  0  0  0  0  0  0  0
  149.6834  138.0305  155.0760 C   0  0  0  0  0  0  0  0  0  0  0  0
  151.0263  137.5644  155.0689 C   0  0  0  0  0  0  0  0  0  0  0  0
  151.4225  136.2972  155.2638 N   0  5  0  0  0  0  0  0  0  0  0  0
  150.5085  135.3262  155.4889 C   0  0  0  0  0  0  0  0  0  0  0  0
  150.0930  134.9500  156.5872 O   0  0  0  0  0  0  0  0  0  0  0  0
  150.0474  134.7523  154.3693 N   0  0  0  0  0  0  0  0  0  0  0  0
  149.0601  133.6806  154.3121 C   0  0  2  0  0  0  0  0  0  0  0  0
  149.6128  132.2920  154.6174 C   0  0  0  0  0  0  0  0  0  0  0  0
  148.5675  131.3704  153.9801 C   0  0  0  0  0  0  0  0  0  0  0  0
  147.9513  132.1294  152.8629 N   0  3  1  0  0  0  0  0  0  0  0  0
  146.4728  132.0844  152.8632 C   0  0  0  0  0  0  0  0  0  0  0  0
  145.9016  130.9860  151.9987 C   0  0  0  0  0  0  0  0  0  0  0  0
  145.8576  132.4232  151.5265 C   0  0  0  0  0  0  0  0  0  0  0  0
  148.5009  133.5021  152.9025 C   0  0  0  0  0  0  0  0  0  0  0  0
  151.8986  138.5380  154.8694 N   0  0  0  0  0  0  0  0  0  0  0  0
  151.1306  139.6986  154.7175 O   0  0  0  0  0  0  0  0  0  0  0  0
  147.9609  140.3003  155.3485 H   0  0  0  0  0  0  0  0  0  0  0  0
  148.4865  140.5691  153.6853 H   0  0  0  0  0  0  0  0  0  0  0  0
  149.2709  141.4319  155.0104 H   0  0  0  0  0  0  0  0  0  0  0  0
  148.7712  137.4715  155.2215 H   0  0  0  0  0  0  0  0  0  0  0  0
  150.4125  135.0919  153.4914 H   0  0  0  0  0  0  0  0  0  0  0  0
  148.2355  133.9026  154.9930 H   0  0  0  0  0  0  0  0  0  0  0  0
  150.5797  132.1536  154.1308 H   0  0  0  0  0  0  0  0  0  0  0  0
  149.7422  132.1099  155.6848 H   0  0  0  0  0  0  0  0  0  0  0  0
  149.0077  130.4387  153.6241 H   0  0  0  0  0  0  0  0  0  0  0  0
  147.8110  131.1125  154.7234 H   0  0  0  0  0  0  0  0  0  0  0  0
  145.9788  132.3747  153.7890 H   0  0  0  0  0  0  0  0  0  0  0  0
  146.5940  130.3126  151.4965 H   0  0  0  0  0  0  0  0  0  0  0  0
  144.9623  130.5363  152.3142 H   0  0  0  0  0  0  0  0  0  0  0  0
  144.8896  132.9204  151.5314 H   0  0  0  0  0  0  0  0  0  0  0  0
  146.5213  132.7061  150.7114 H   0  0  0  0  0  0  0  0  0  0  0  0
  147.7628  134.2640  152.6475 H   0  0  0  0  0  0  0  0  0  0  0  0
  149.3028  133.5619  152.1649 H   0  0  0  0  0  0  0  0  0  0  0  0
  148.2627  131.7131  151.9973 H   0  0  0  0  0  0  0  0  0  0  0  0
  1  2  1  0  0  0  0
  1 19  1  0  0  0  0
  1 20  1  0  0  0  0
  1 21  1  0  0  0  0
  2 18  1  0  0  0  0
  2  3  2  0  0  0  0
  3  4  1  0  0  0  0
  3 22  1  0  0  0  0
  4  5  1  0  0  0  0
  4 17  2  0  0  0  0
  5  6  1  0  0  0  0
  6  7  2  0  0  0  0
  6  8  1  0  0  0  0
  8  9  1  0  0  0  0
  8 23  1  0  0  0  0
  9 16  1  0  0  0  0
  9 10  1  0  0  0  0
  9 24  1  0  0  0  0
 10 11  1  0  0  0  0
 10 25  1  0  0  0  0
 10 26  1  0  0  0  0
 11 12  1  0  0  0  0
 11 27  1  0  0  0  0
 11 28  1  0  0  0  0
 12 13  1  0  0  0  0
 12 16  1  0  0  0  0
 12 36  1  0  0  0  0
 13 15  1  0  0  0  0
 13 14  1  0  0  0  0
 13 29  1  0  0  0  0
 14 15  1  0  0  0  0
 14 30  1  0  0  0  0
 14 31  1  0  0  0  0
 15 32  1  0  0  0  0
 15 33  1  0  0  0  0
 16 34  1  0  0  0  0
 16 35  1  0  0  0  0
 17 18  1  0  0  0  0
M  CHG  1   5  -1
M  CHG  1  12   1
M  END
> <s_m_source_file>
AV-unprocessed.smi

> <i_m_source_file_index>
3237

> <i_lp_mmshare_version>
43012

> <i_f3d_flags>
0

> <s_epik_input>
W0NIM11jMVtjSF1jKG5vMSlbTkhdQyg9TylbTkhdW0NAQEhdMltDSDJdW0NIMl1OKFtDSDJdMilbQ0hdM1tDSDJdW0NIMl0z

> <s_epik_cmdline>
J2VwaWtfcHl0aG9uJywgJy1waCcsICc3LjAnLCAnLXRuJywgJzgnLCAnLW1hJywgJzIwMCcsICctbWV0YWxfYmluZGluZycsICctaW1hZScsICc8aW5maWxlLm1hZT4nLCAnLW9tYWUnLCAnPG91dGZpbGUubWFlPic=

> <r_epik_Ionization_Penalty>
6.08472

> <r_epik_Ionization_Penalty_Charging>
6.08464

> <r_epik_Ionization_Penalty_Neutral>
8.41751e-05

> <r_epik_State_Penalty>
6.08438

> <r_epik_Charging_Adjusted_Penalty>
12.169

> <i_epik_Tot_Q>
0

> <i_epik_Tot_abs_Q>
2

> <r_epik_Metal_State_Penalty>
2.0369

> <b_epik_Metal_Only>
1

> <s_lp_Force_Field>
OPLS_2005

> <r_lp_Energy>
24.4962

> <b_lp_Chiralities_Consistent>
1

> <s_lp_Variant>
AV-unprocessed.smi:3237-7

> <Gold.Version>
5.8.1

> <Gold.Id.Protein>
6NUR|6NUR_protein|mol2

> <Gold.PLP.Fitness>
41.0412

> <Gold.PLP.PLP>
-30.8966

> <Gold.PLP.part.hbond>
-3.7510

> <Gold.PLP.part.metal>
0.0000

> <Gold.PLP.part.buried>
-3.7958

> <Gold.PLP.part.nonpolar>
-23.6167

> <Gold.PLP.part.repulsive>
0.3723

> <Gold.PLP.ligand.clash>
0.0000

> <Gold.PLP.ligand.torsion>
1.6079

> <Gold.PLP.Chemscore.Hbond>
4.0293

> <Gold.PLP.Chemscore.CHOScore>
0.0000

> <Gold.PLP.Chemscore.Metal>
0.0000

> <Gold.Chemscore.Hbonds>
donor molecule, donor type, donor heavy atom, donor atom, acceptor molecule, acceptor atom, score
      L1  H    12    36       P1 10747  0.98
      P1  H  7989  7998       L1    18  1.00
      P1  H 10752 10764       L1     5  2.00

> <Gold.PLP.Chemscore.Internal.Correction>
1.2726

> <Gold.Rescore>
     Score         DG    S(hbond)    S(metal)    S(lipo)     H(rot)  DE(clash)    DE(int)     intcor
     17.59     -19.36       2.89        0.00      63.40       1.25       0.07       1.69       ----

> <Gold.Chemscore.Fitness>
17.5904

> <Gold.Chemscore.DG>
-19.3591

> <Gold.Chemscore.ZeroCoef>
-5.4800

> <Gold.Chemscore.Hbond>
2.8900

> <Gold.Chemscore.Metal>
0.0000

> <Gold.Chemscore.Lipo>
63.3970

> <Gold.Chemscore.Internal_Hbond>
0.0000

> <Gold.Chemscore.DEClash>
0.0749

> <Gold.Chemscore.DEInternal>
1.6939

> <Gold.Chemscore.Rot>
1.2464

> <Gold.Chemscore.Internal.Correction>
   9.000000E+99

> <Gold.Chemscore.Hbonds>
donor molecule, donor type, donor heavy atom, donor atom, acceptor molecule, acceptor atom, score
      L1  H    12    36       P1 10747  0.91
      P1  H  7989  7998       L1    18  0.92
      P1  H 10752 10764       L1     5  0.70

> <Gold.Chemscore.Hbond.Weighted>
-9.6525

> <Gold.Chemscore.Metal.Weighted>
-0.0000

> <Gold.Chemscore.Lipo.Weighted>
-7.4174

> <Gold.Chemscore.Internal_Hbond.Weighted>
0.0000

> <Gold.Chemscore.DEClash.Weighted>
0.0749

> <Gold.Chemscore.DEInternal.Weighted>
1.6939

> <Gold.Chemscore.Rot.Weighted>
3.1909

> <Gold.Chemscore.Internal.Correction.Weighted>
   9.000000E+99

> <Gold.Protein.RotatedTorsions>
[ 6907 6896 6895 6894 ] final   62.16 input  -60.11 | X-H torsion
[ 7974 7965 7964 7962 ] final -164.68 input  175.53 | X-H torsion
[ 8008 7997 7996 7995 ] final  -57.50 input   59.86 | X-H torsion
[ 10167 10162 10161 10158 ] final  -56.13 input  -65.29 | X-H torsion
[ 10718 10713 10712 10709 ] final -137.13 input   66.30 | X-H torsion
[ 10763 10752 10751 10750 ] final  -51.12 input  -60.55 | X-H torsion
[ 11005 11000 10999 10996 ] final   94.68 input  -57.11 | X-H torsion

> <Gold.Protein.ActiveResidues>
 VAL166  LYS551  ARG553  GLY616  TRP617  ASP618  TYR619  PRO620  LYS621  CYS622 
 ASP623  PHE694  ASN695  SER759  ASP760  ASP761  ALA762  ILE779  LEU786  VAL792 
 PHE793  MET794  SER795  GLU796  ALA797  LYS798  CYS799  TRP800  GLU811  SER814 

> <Gold.Protein.RotatedAtoms>
  152.4149  134.6059  160.0012 H   0  0  0  0  0  0  0  0  0  0  0  0  # atno 6907 bound_to 6896
  151.6225  133.3332  159.3099 H   0  0  0  0  0  0  0  0  0  0  0  0  # atno 6908 bound_to 6896
  150.8038  134.7189  159.6691 H   0  0  0  0  0  0  0  0  0  0  0  0  # atno 6909 bound_to 6896
  144.7290  140.2925  143.6218 H   0  0  0  0  0  0  0  0  0  0  0  0  # atno 7974 bound_to 7965
  154.4270  140.1105  156.5807 H   0  0  0  0  0  0  0  0  0  0  0  0  # atno 8008 bound_to 7997
  155.6116  140.3494  155.4605 H   0  0  0  0  0  0  0  0  0  0  0  0  # atno 8009 bound_to 7997
  156.0095  140.1216  157.0457 H   0  0  0  0  0  0  0  0  0  0  0  0  # atno 8010 bound_to 7997
  140.6335  143.2470  151.5180 H   0  0  0  0  0  0  0  0  0  0  0  0  # atno 10167 bound_to 10162
  156.2847  130.7341  151.1349 H   0  0  0  0  0  0  0  0  0  0  0  0  # atno 10718 bound_to 10713
  154.1215  135.6534  153.4904 H   0  0  0  0  0  0  0  0  0  0  0  0  # atno 10763 bound_to 10752
  153.0224  135.5271  154.7092 H   0  0  0  0  0  0  0  0  0  0  0  0  # atno 10764 bound_to 10752
  154.6301  135.2975  155.0196 H   0  0  0  0  0  0  0  0  0  0  0  0  # atno 10765 bound_to 10752
  139.8796  134.8858  156.3900 H   0  0  0  0  0  0  0  0  0  0  0  0  # atno 11005 bound_to 11000
  145.7841  139.1902  143.2141 LP  0  0  0  0  0  0  0  0  0  0  0  0  # atno 17320 bound_to 7965
  146.0810  140.7764  142.9641 LP  0  0  0  0  0  0  0  0  0  0  0  0  # atno 17321 bound_to 7965
  139.5547  144.2306  152.1591 LP  0  0  0  0  0  0  0  0  0  0  0  0  # atno 17342 bound_to 10162
  140.1556  144.5074  150.6662 LP  0  0  0  0  0  0  0  0  0  0  0  0  # atno 17343 bound_to 10162
  157.7325  131.0599  150.5625 LP  0  0  0  0  0  0  0  0  0  0  0  0  # atno 17370 bound_to 10713
  156.5734  130.4286  149.6009 LP  0  0  0  0  0  0  0  0  0  0  0  0  # atno 17371 bound_to 10713
  140.9339  133.7560  156.0060 LP  0  0  0  0  0  0  0  0  0  0  0  0  # atno 17394 bound_to 11000
  140.8298  134.3191  157.5353 LP  0  0  0  0  0  0  0  0  0  0  0  0  # atno 17395 bound_to 11000

$$$$
