AV-unprocessed.smi:101|AV-procd|sdf|917|dock7
  -GOLD-   2262017423D 1   1.00000     0.00000
 Structure written by MMmdl.
 44 46  0  0  0  0  0  0  0  0  1 V2000
  147.0635  137.0434  158.2410 C   0  0  0  0  0  0  0  0  0  0  0  0
  148.2816  137.0711  157.3315 C   0  0  0  0  0  0  0  0  0  0  0  0
  148.4589  138.0265  156.3837 C   0  0  0  0  0  0  0  0  0  0  0  0
  149.5583  138.0788  155.5314 N   0  0  0  0  0  0  0  0  0  0  0  0
  149.7500  139.1847  154.5042 C   0  0  2  0  0  0  0  0  0  0  0  0
  150.6873  140.1031  154.9735 O   0  0  0  0  0  0  0  0  0  0  0  0
  150.0065  141.1370  155.6694 C   0  0  1  0  0  0  0  0  0  0  0  0
  150.9452  142.3293  155.8691 C   0  0  0  0  0  0  0  0  0  0  0  0
  150.8997  142.6833  157.2412 O   0  0  0  0  0  0  0  0  0  0  0  0
  151.3965  141.8564  158.1774 C   0  0  0  0  0  0  0  0  0  0  0  0
  151.6209  140.6603  157.9831 O   0  0  0  0  0  0  0  0  0  0  0  0
  151.6442  142.5439  159.4779 C   0  0  0  0  0  0  0  0  0  0  0  0
  152.2298  141.8219  160.5438 C   0  0  0  0  0  0  0  0  0  0  0  0
  152.4737  142.4448  161.7832 C   0  0  0  0  0  0  0  0  0  0  0  0
  152.1351  143.7975  161.9720 C   0  0  0  0  0  0  0  0  0  0  0  0
  151.5519  144.5269  160.9197 C   0  0  0  0  0  0  0  0  0  0  0  0
  151.3069  143.9058  159.6795 C   0  0  0  0  0  0  0  0  0  0  0  0
  148.8170  141.3976  154.7496 C   0  0  2  0  0  0  0  0  0  0  0  0
  147.7538  141.9825  155.4745 O   0  0  0  0  0  0  0  0  0  0  0  0
  148.4468  139.9916  154.2756 C   0  0  1  0  0  0  0  0  0  0  0  0
  148.0771  140.0162  152.9119 O   0  0  0  0  0  0  0  0  0  0  0  0
  150.5907  137.1306  155.6922 C   0  0  0  0  0  0  0  0  0  0  0  0
  151.6226  137.1499  155.0220 O   0  0  0  0  0  0  0  0  0  0  0  0
  150.4062  136.1451  156.6599 N   0  0  0  0  0  0  0  0  0  0  0  0
  149.2999  136.0322  157.5045 C   0  0  0  0  0  0  0  0  0  0  0  0
  149.2477  135.1109  158.3175 O   0  0  0  0  0  0  0  0  0  0  0  0
  151.1389  135.4584  156.7659 H   0  0  0  0  0  0  0  0  0  0  0  0
  146.3754  137.8617  158.0253 H   0  0  0  0  0  0  0  0  0  0  0  0
  147.3659  137.1284  159.2853 H   0  0  0  0  0  0  0  0  0  0  0  0
  146.5169  136.1077  158.1172 H   0  0  0  0  0  0  0  0  0  0  0  0
  147.6911  138.7816  156.3102 H   0  0  0  0  0  0  0  0  0  0  0  0
  150.1364  138.6767  153.6181 H   0  0  0  0  0  0  0  0  0  0  0  0
  149.6530  140.7677  156.6344 H   0  0  0  0  0  0  0  0  0  0  0  0
  151.9610  142.0790  155.5599 H   0  0  0  0  0  0  0  0  0  0  0  0
  150.6112  143.1775  155.2703 H   0  0  0  0  0  0  0  0  0  0  0  0
  152.4976  140.7820  160.4227 H   0  0  0  0  0  0  0  0  0  0  0  0
  152.9212  141.8831  162.5900 H   0  0  0  0  0  0  0  0  0  0  0  0
  152.3228  144.2748  162.9224 H   0  0  0  0  0  0  0  0  0  0  0  0
  151.2916  145.5653  161.0628 H   0  0  0  0  0  0  0  0  0  0  0  0
  150.8578  144.4954  158.8933 H   0  0  0  0  0  0  0  0  0  0  0  0
  149.1157  142.0347  153.9152 H   0  0  0  0  0  0  0  0  0  0  0  0
  147.9707  142.8867  155.6449 H   0  0  0  0  0  0  0  0  0  0  0  0
  147.6341  139.5761  154.8733 H   0  0  0  0  0  0  0  0  0  0  0  0
  148.8430  140.2296  152.4005 H   0  0  0  0  0  0  0  0  0  0  0  0
  1  2  1  0  0  0  0
  1 28  1  0  0  0  0
  1 29  1  0  0  0  0
  1 30  1  0  0  0  0
  2 25  1  0  0  0  0
  2  3  2  0  0  0  0
  3  4  1  0  0  0  0
  3 31  1  0  0  0  0
  4  5  1  0  0  0  0
  4 22  1  0  0  0  0
  5 20  1  0  0  0  0
  5  6  1  0  0  0  0
  5 32  1  0  0  0  0
  6  7  1  0  0  0  0
  7  8  1  0  0  0  0
  7 18  1  0  0  0  0
  7 33  1  0  0  0  0
  8  9  1  0  0  0  0
  8 34  1  0  0  0  0
  8 35  1  0  0  0  0
  9 10  1  0  0  0  0
 10 11  2  0  0  0  0
 10 12  1  0  0  0  0
 12 17  1  0  0  0  0
 12 13  2  0  0  0  0
 13 14  1  0  0  0  0
 13 36  1  0  0  0  0
 14 15  2  0  0  0  0
 14 37  1  0  0  0  0
 15 16  1  0  0  0  0
 15 38  1  0  0  0  0
 16 17  2  0  0  0  0
 16 39  1  0  0  0  0
 17 40  1  0  0  0  0
 18 19  1  0  0  0  0
 18 20  1  0  0  0  0
 18 41  1  0  0  0  0
 19 42  1  0  0  0  0
 20 21  1  0  0  0  0
 20 43  1  0  0  0  0
 21 44  1  0  0  0  0
 22 23  2  0  0  0  0
 22 24  1  0  0  0  0
 24 27  1  0  0  0  0
 24 25  1  0  0  0  0
 25 26  2  0  0  0  0
M  END
> <s_m_source_file>
AV-unprocessed.smi

> <i_m_source_file_index>
101

> <i_lp_mmshare_version>
43012

> <i_f3d_flags>
0

> <s_epik_input>
Tz1jMVtuSF1jKD1PKW4oW2NIXWMxW0NIM10pW0NAQEhdMk9bQ0BIXShbQ0BASF0oW09IXSlbQ0BIXTJbT0hdKVtDSDJdT0MoPU8pYzNbY0hdW2NIXVtjSF1bY0hdW2NIXTM=

> <s_epik_cmdline>
J2VwaWtfcHl0aG9uJywgJy1waCcsICc3LjAnLCAnLXRuJywgJzgnLCAnLW1hJywgJzIwMCcsICctbWV0YWxfYmluZGluZycsICctaW1hZScsICc8aW5maWxlLm1hZT4nLCAnLW9tYWUnLCAnPG91dGZpbGUubWFlPic=

> <r_lp_tautomer_probability>
0.999537

> <r_epik_Ionization_Penalty>
0.00263537

> <r_epik_Ionization_Penalty_Charging>
0.00263428

> <r_epik_Ionization_Penalty_Neutral>
1.09111e-06

> <r_epik_State_Penalty>
0.00183335

> <r_epik_Charging_Adjusted_Penalty>
0.00446763

> <i_epik_Tot_Q>
0

> <i_epik_Tot_abs_Q>
0

> <r_epik_Metal_State_Penalty>
1.00528

> <b_epik_Metal_Only>
0

> <s_epik_Chemistry_Notes>
This compound has an ester and may undergo hydrolysis at high or low pH. This compound contains an acetal/aminal-like group ( X-CH(R)-Y where X, Y are N, S, or O) that may be acid/base labile, releasing an aldehyde.

> <s_lp_Force_Field>
OPLS_2005

> <r_lp_Energy>
27.5612

> <b_lp_Chiralities_Consistent>
1

> <s_lp_Variant>
AV-unprocessed.smi:101-5

> <Gold.Version>
5.8.1

> <Gold.Id.Protein>
6NUR|6NUR_protein|mol2

> <Gold.PLP.Fitness>
54.9422

> <Gold.PLP.PLP>
-42.5219

> <Gold.PLP.part.hbond>
-4.5654

> <Gold.PLP.part.metal>
0.0000

> <Gold.PLP.part.buried>
-8.7008

> <Gold.PLP.part.nonpolar>
-30.1227

> <Gold.PLP.part.repulsive>
0.3866

> <Gold.PLP.ligand.clash>
0.0000

> <Gold.PLP.ligand.torsion>
1.3085

> <Gold.PLP.Chemscore.Hbond>
4.9913

> <Gold.PLP.Chemscore.CHOScore>
0.0000

> <Gold.PLP.Chemscore.Metal>
0.0000

> <Gold.Chemscore.Hbonds>
donor molecule, donor type, donor heavy atom, donor atom, acceptor molecule, acceptor atom, score
      L1  H    19    42       P1  8028  1.00
      L1  H    21    44       P1  7957  0.81
      P1  H  6896  6907       L1    26  1.00
      P1  H  7989  7998       L1     6  1.00
      P1  H 10752 10765       L1    23  0.81

> <Gold.PLP.Chemscore.Internal.Correction>
0.0635

> <Gold.Rescore>
     Score         DG    S(hbond)    S(metal)    S(lipo)     H(rot)  DE(clash)    DE(int)     intcor
     18.86     -22.97       4.32        0.00      98.91       3.32       1.37       2.74       ----

> <Gold.Chemscore.Fitness>
18.8615

> <Gold.Chemscore.DG>
-22.9733

> <Gold.Chemscore.ZeroCoef>
-5.4800

> <Gold.Chemscore.Hbond>
4.3152

> <Gold.Chemscore.Metal>
0.0000

> <Gold.Chemscore.Lipo>
98.9111

> <Gold.Chemscore.Internal_Hbond>
0.0000

> <Gold.Chemscore.DEClash>
1.3714

> <Gold.Chemscore.DEInternal>
2.7404

> <Gold.Chemscore.Rot>
3.3172

> <Gold.Chemscore.Internal.Correction>
   9.000000E+99

> <Gold.Chemscore.Hbonds>
donor molecule, donor type, donor heavy atom, donor atom, acceptor molecule, acceptor atom, score
      L1  H    19    42       P1  8028  0.73
      L1  H    21    44       P1  7957  0.76
      P1  H  6896  6907       L1    26  0.98
      P1  H  7989  7998       L1     6  0.52
      P1  H 10752 10765       L1    23  0.76

> <Gold.Chemscore.Hbond.Weighted>
-14.4127

> <Gold.Chemscore.Metal.Weighted>
-0.0000

> <Gold.Chemscore.Lipo.Weighted>
-11.5726

> <Gold.Chemscore.Internal_Hbond.Weighted>
0.0000

> <Gold.Chemscore.DEClash.Weighted>
1.3714

> <Gold.Chemscore.DEInternal.Weighted>
2.7404

> <Gold.Chemscore.Rot.Weighted>
8.4920

> <Gold.Chemscore.Internal.Correction.Weighted>
   9.000000E+99

> <Gold.Protein.RotatedTorsions>
[ 6907 6896 6895 6894 ] final  -93.08 input  -60.11 | X-H torsion
[ 7974 7965 7964 7962 ] final -151.72 input  175.53 | X-H torsion
[ 8008 7997 7996 7995 ] final -124.57 input   59.86 | X-H torsion
[ 10167 10162 10161 10158 ] final  -34.61 input  -65.29 | X-H torsion
[ 10718 10713 10712 10709 ] final   71.48 input   66.30 | X-H torsion
[ 10763 10752 10751 10750 ] final  163.55 input  -60.55 | X-H torsion
[ 11005 11000 10999 10996 ] final  167.07 input  -57.11 | X-H torsion

> <Gold.Protein.ActiveResidues>
 VAL166  LYS551  ARG553  GLY616  TRP617  ASP618  TYR619  PRO620  LYS621  CYS622 
 ASP623  PHE694  ASN695  SER759  ASP760  ASP761  ALA762  ILE779  LEU786  VAL792 
 PHE793  MET794  SER795  GLU796  ALA797  LYS798  CYS799  TRP800  GLU811  SER814 

> <Gold.Protein.RotatedAtoms>
  150.6916  134.2023  159.4326 H   0  0  0  0  0  0  0  0  0  0  0  0  # atno 6907 bound_to 6896
  151.9989  134.9937  160.0573 H   0  0  0  0  0  0  0  0  0  0  0  0  # atno 6908 bound_to 6896
  152.1598  133.4539  159.4892 H   0  0  0  0  0  0  0  0  0  0  0  0  # atno 6909 bound_to 6896
  144.7834  140.4759  143.5823 H   0  0  0  0  0  0  0  0  0  0  0  0  # atno 7974 bound_to 7965
  155.1991  140.0415  157.2914 H   0  0  0  0  0  0  0  0  0  0  0  0  # atno 8008 bound_to 7997
  154.6087  140.2471  155.7669 H   0  0  0  0  0  0  0  0  0  0  0  0  # atno 8009 bound_to 7997
  156.2366  140.2919  156.0338 H   0  0  0  0  0  0  0  0  0  0  0  0  # atno 8010 bound_to 7997
  140.7182  143.3535  151.2106 H   0  0  0  0  0  0  0  0  0  0  0  0  # atno 10167 bound_to 10162
  157.6454  130.9530  150.0796 H   0  0  0  0  0  0  0  0  0  0  0  0  # atno 10718 bound_to 10713
  154.2954  135.2760  155.2636 H   0  0  0  0  0  0  0  0  0  0  0  0  # atno 10763 bound_to 10752
  154.5096  135.5786  153.6598 H   0  0  0  0  0  0  0  0  0  0  0  0  # atno 10764 bound_to 10752
  152.9908  135.6178  154.3121 H   0  0  0  0  0  0  0  0  0  0  0  0  # atno 10765 bound_to 10752
  140.2729  134.7812  157.3691 H   0  0  0  0  0  0  0  0  0  0  0  0  # atno 11005 bound_to 11000
  145.5988  139.1502  143.3140 LP  0  0  0  0  0  0  0  0  0  0  0  0  # atno 17320 bound_to 7965
  146.2053  140.6111  142.9084 LP  0  0  0  0  0  0  0  0  0  0  0  0  # atno 17321 bound_to 7965
  139.7072  143.9436  152.2932 LP  0  0  0  0  0  0  0  0  0  0  0  0  # atno 17342 bound_to 10162
  139.9149  144.6834  150.8523 LP  0  0  0  0  0  0  0  0  0  0  0  0  # atno 17343 bound_to 10162
  156.1776  130.3649  149.9079 LP  0  0  0  0  0  0  0  0  0  0  0  0  # atno 17370 bound_to 10713
  156.7039  130.8944  151.3602 LP  0  0  0  0  0  0  0  0  0  0  0  0  # atno 17371 bound_to 10713
  140.1356  134.5039  155.8071 LP  0  0  0  0  0  0  0  0  0  0  0  0  # atno 17394 bound_to 11000
  141.2174  133.6806  156.7117 LP  0  0  0  0  0  0  0  0  0  0  0  0  # atno 17395 bound_to 11000

$$$$
