AV-unprocessed.smi:2740|AV-procd|sdf|10556|dock1
  -GOLD-   2272015 03D 1   1.00000     0.00000
 Structure written by MMmdl.
 30 31  0  0  0  0  0  0  0  0  2 V2000
  147.1114  142.1684  154.8105 C   0  0  0  0  0  0  0  0  0  0  0  0
  148.4318  141.5071  155.0179 C   0  0  0  0  0  0  0  0  0  0  0  0
  149.2737  141.0039  154.0603 C   0  0  0  0  0  0  0  0  0  0  0  0
  150.4437  140.4461  154.5778 N   0  0  0  0  0  0  0  0  0  0  0  0
  150.5224  140.5193  155.9107 C   0  0  0  0  0  0  0  0  0  0  0  0
  151.5650  140.0424  156.6104 N   0  5  0  0  0  0  0  0  0  0  0  0
  151.5728  140.1385  157.9597 C   0  0  0  0  0  0  0  0  0  0  0  0
  150.6567  139.8165  158.7201 O   0  0  0  0  0  0  0  0  0  0  0  0
  152.7123  140.6375  158.4603 N   0  0  0  0  0  0  0  0  0  0  0  0
  152.9986  140.8533  159.8746 C   0  0  0  0  0  0  0  0  0  0  0  0
  153.1152  142.3498  160.2085 C   0  0  2  0  0  0  0  0  0  0  0  0
  152.6801  142.6995  161.6310 C   0  0  0  0  0  0  0  0  0  0  0  0
  152.2069  144.1423  161.5240 C   0  0  0  0  0  0  0  0  0  0  0  0
  152.1375  144.4037  160.0171 C   0  0  0  0  0  0  0  0  0  0  0  0
  152.2184  143.1179  159.4211 O   0  0  0  0  0  0  0  0  0  0  0  0
  149.0969  141.2866  156.6141 S   0  0  0  0  0  0  0  0  0  0  0  0
  147.2284  143.0915  154.2427 H   0  0  0  0  0  0  0  0  0  0  0  0
  146.6397  142.4161  155.7617 H   0  0  0  0  0  0  0  0  0  0  0  0
  146.4346  141.5159  154.2590 H   0  0  0  0  0  0  0  0  0  0  0  0
  149.1209  140.9999  152.9913 H   0  0  0  0  0  0  0  0  0  0  0  0
  153.4388  140.8842  157.8044 H   0  0  0  0  0  0  0  0  0  0  0  0
  152.2018  140.3973  160.4626 H   0  0  0  0  0  0  0  0  0  0  0  0
  153.9185  140.3332  160.1468 H   0  0  0  0  0  0  0  0  0  0  0  0
  154.1331  142.7070  160.0407 H   0  0  0  0  0  0  0  0  0  0  0  0
  151.8475  142.0657  161.9394 H   0  0  0  0  0  0  0  0  0  0  0  0
  153.4856  142.5698  162.3542 H   0  0  0  0  0  0  0  0  0  0  0  0
  151.2300  144.2603  161.9941 H   0  0  0  0  0  0  0  0  0  0  0  0
  152.8981  144.8337  162.0070 H   0  0  0  0  0  0  0  0  0  0  0  0
  151.2247  144.9215  159.7217 H   0  0  0  0  0  0  0  0  0  0  0  0
  152.9895  145.0026  159.6918 H   0  0  0  0  0  0  0  0  0  0  0  0
  1  2  1  0  0  0  0
  1 17  1  0  0  0  0
  1 18  1  0  0  0  0
  1 19  1  0  0  0  0
  2 16  1  0  0  0  0
  2  3  2  0  0  0  0
  3  4  1  0  0  0  0
  3 20  1  0  0  0  0
  4  5  2  0  0  0  0
  5  6  1  0  0  0  0
  5 16  1  0  0  0  0
  6  7  1  0  0  0  0
  7  8  2  0  0  0  0
  7  9  1  0  0  0  0
  9 10  1  0  0  0  0
  9 21  1  0  0  0  0
 10 11  1  0  0  0  0
 10 22  1  0  0  0  0
 10 23  1  0  0  0  0
 11 15  1  0  0  0  0
 11 12  1  0  0  0  0
 11 24  1  0  0  0  0
 12 13  1  0  0  0  0
 12 25  1  0  0  0  0
 12 26  1  0  0  0  0
 13 14  1  0  0  0  0
 13 27  1  0  0  0  0
 13 28  1  0  0  0  0
 14 15  1  0  0  0  0
 14 29  1  0  0  0  0
 14 30  1  0  0  0  0
M  CHG  1   6  -1
M  END
> <s_m_source_file>
AV-unprocessed.smi

> <i_m_source_file_index>
2740

> <i_lp_mmshare_version>
43012

> <i_f3d_flags>
0

> <s_epik_input>
W0NIM11jMVtjSF1uYyhzMSlbTkhdQyg9TylbTkhdW0NIMl1bQ0BASF0yW0NIMl1bQ0gyXVtDSDJdTzI=

> <s_epik_cmdline>
J2VwaWtfcHl0aG9uJywgJy1waCcsICc3LjAnLCAnLXRuJywgJzgnLCAnLW1hJywgJzIwMCcsICctbWV0YWxfYmluZGluZycsICctaW1hZScsICc8aW5maWxlLm1hZT4nLCAnLW9tYWUnLCAnPG91dGZpbGUubWFlPic=

> <r_lp_tautomer_probability>
0.999

> <r_epik_Ionization_Penalty>
8.54039

> <r_epik_Ionization_Penalty_Charging>
6.77868

> <r_epik_Ionization_Penalty_Neutral>
1.76171

> <r_epik_State_Penalty>
6.77885

> <r_epik_Charging_Adjusted_Penalty>
13.5575

> <i_epik_Tot_Q>
-1

> <i_epik_Tot_abs_Q>
1

> <r_epik_Metal_State_Penalty>
2.69888

> <b_epik_Metal_Only>
1

> <s_lp_Force_Field>
OPLS_2005

> <r_lp_Energy>
13.1736

> <b_lp_Chiralities_Consistent>
1

> <s_lp_Variant>
AV-unprocessed.smi:2740-3

> <Gold.Version>
5.8.1

> <Gold.Id.Protein>
6NUR|6NUR_protein|mol2

> <Gold.PLP.Fitness>
39.1627

> <Gold.PLP.PLP>
-34.7032

> <Gold.PLP.part.hbond>
-1.0000

> <Gold.PLP.part.metal>
0.0000

> <Gold.PLP.part.buried>
-4.2992

> <Gold.PLP.part.nonpolar>
-29.1536

> <Gold.PLP.part.repulsive>
0.1901

> <Gold.PLP.ligand.clash>
0.0000

> <Gold.PLP.ligand.torsion>
0.7909

> <Gold.PLP.Chemscore.Hbond>
1.0000

> <Gold.PLP.Chemscore.CHOScore>
1.0000

> <Gold.PLP.Chemscore.Metal>
0.0000

> <Gold.Chemscore.Hbonds>
donor molecule, donor type, donor heavy atom, donor atom, acceptor molecule, acceptor atom, score
      P1  H  7989  7998       L1     4  1.00
      L1  C     3    20       P1  7957  1.00

> <Gold.PLP.Chemscore.Internal.Correction>
0.0413

> <Gold.Rescore>
     Score         DG    S(hbond)    S(metal)    S(lipo)     H(rot)  DE(clash)    DE(int)     intcor
     12.12     -14.10       0.84        0.00      77.00       1.25       0.05       1.93       ----

> <Gold.Chemscore.Fitness>
12.1169

> <Gold.Chemscore.DG>
-14.0953

> <Gold.Chemscore.ZeroCoef>
-5.4800

> <Gold.Chemscore.Hbond>
0.8414

> <Gold.Chemscore.Metal>
0.0000

> <Gold.Chemscore.Lipo>
76.9969

> <Gold.Chemscore.Internal_Hbond>
0.0000

> <Gold.Chemscore.DEClash>
0.0471

> <Gold.Chemscore.DEInternal>
1.9314

> <Gold.Chemscore.Rot>
1.2514

> <Gold.Chemscore.Internal.Correction>
   9.000000E+99

> <Gold.Chemscore.Hbonds>
donor molecule, donor type, donor heavy atom, donor atom, acceptor molecule, acceptor atom, score
      P1  H  7989  7998       L1     4  0.43

> <Gold.Chemscore.Hbond.Weighted>
-2.8103

> <Gold.Chemscore.Metal.Weighted>
-0.0000

> <Gold.Chemscore.Lipo.Weighted>
-9.0086

> <Gold.Chemscore.Internal_Hbond.Weighted>
0.0000

> <Gold.Chemscore.DEClash.Weighted>
0.0471

> <Gold.Chemscore.DEInternal.Weighted>
1.9314

> <Gold.Chemscore.Rot.Weighted>
3.2036

> <Gold.Chemscore.Internal.Correction.Weighted>
   9.000000E+99

> <Gold.Protein.RotatedTorsions>
[ 6907 6896 6895 6894 ] final  -26.47 input  -60.11 | X-H torsion
[ 7974 7965 7964 7962 ] final -122.62 input  175.53 | X-H torsion
[ 8008 7997 7996 7995 ] final -126.28 input   59.86 | X-H torsion
[ 10167 10162 10161 10158 ] final -116.38 input  -65.29 | X-H torsion
[ 10718 10713 10712 10709 ] final  -95.97 input   66.30 | X-H torsion
[ 10763 10752 10751 10750 ] final -104.49 input  -60.55 | X-H torsion
[ 11005 11000 10999 10996 ] final  -68.34 input  -57.11 | X-H torsion

> <Gold.Protein.ActiveResidues>
 VAL166  LYS551  ARG553  GLY616  TRP617  ASP618  TYR619  PRO620  LYS621  CYS622 
 ASP623  PHE694  ASN695  SER759  ASP760  ASP761  ALA762  ILE779  LEU786  VAL792 
 PHE793  MET794  SER795  GLU796  ALA797  LYS798  CYS799  TRP800  GLU811  SER814 

> <Gold.Protein.RotatedAtoms>
  151.1605  135.0271  159.8707 H   0  0  0  0  0  0  0  0  0  0  0  0  # atno 6907 bound_to 6896
  152.5451  134.1285  159.8439 H   0  0  0  0  0  0  0  0  0  0  0  0  # atno 6908 bound_to 6896
  151.1379  133.4945  159.2630 H   0  0  0  0  0  0  0  0  0  0  0  0  # atno 6909 bound_to 6896
  145.0275  140.8040  143.4343 H   0  0  0  0  0  0  0  0  0  0  0  0  # atno 7974 bound_to 7965
  155.2271  140.0424  157.2957 H   0  0  0  0  0  0  0  0  0  0  0  0  # atno 8008 bound_to 7997
  154.5912  140.2427  155.7889 H   0  0  0  0  0  0  0  0  0  0  0  0  # atno 8009 bound_to 7997
  156.2260  140.2954  156.0077 H   0  0  0  0  0  0  0  0  0  0  0  0  # atno 8010 bound_to 7997
  140.0799  143.4798  152.1932 H   0  0  0  0  0  0  0  0  0  0  0  0  # atno 10167 bound_to 10162
  156.0053  130.5132  150.6156 H   0  0  0  0  0  0  0  0  0  0  0  0  # atno 10718 bound_to 10713
  154.7882  135.4784  153.9993 H   0  0  0  0  0  0  0  0  0  0  0  0  # atno 10763 bound_to 10752
  153.1591  135.6805  153.8776 H   0  0  0  0  0  0  0  0  0  0  0  0  # atno 10764 bound_to 10752
  153.8395  135.3181  155.3403 H   0  0  0  0  0  0  0  0  0  0  0  0  # atno 10765 bound_to 10752
  141.1530  133.6738  156.6431 H   0  0  0  0  0  0  0  0  0  0  0  0  # atno 11005 bound_to 11000
  145.1814  139.2350  143.5290 LP  0  0  0  0  0  0  0  0  0  0  0  0  # atno 17320 bound_to 7965
  146.3494  140.1589  142.8591 LP  0  0  0  0  0  0  0  0  0  0  0  0  # atno 17321 bound_to 7965
  139.5786  144.7499  151.3700 LP  0  0  0  0  0  0  0  0  0  0  0  0  # atno 17342 bound_to 10162
  140.7083  143.7457  150.7521 LP  0  0  0  0  0  0  0  0  0  0  0  0  # atno 17343 bound_to 10162
  157.3981  131.0806  151.1333 LP  0  0  0  0  0  0  0  0  0  0  0  0  # atno 17370 bound_to 10713
  157.2004  130.6392  149.5736 LP  0  0  0  0  0  0  0  0  0  0  0  0  # atno 17371 bound_to 10713
  140.3378  134.7875  157.4375 LP  0  0  0  0  0  0  0  0  0  0  0  0  # atno 17394 bound_to 11000
  140.0963  134.5533  155.8395 LP  0  0  0  0  0  0  0  0  0  0  0  0  # atno 17395 bound_to 11000

$$$$
