AV-unprocessed.smi:1527|AV-procd|sdf|6147|dock6
  -GOLD-   22720 6293D 1   1.00000     0.00000
 Structure written by MMmdl.
 30 30  0  0  0  0  0  0  0  0  2 V2000
  152.0691  145.0410  159.3168 C   0  0  0  0  0  0  0  0  0  0  0  0
  152.0285  143.9205  160.3661 C   0  0  0  0  0  0  0  0  0  0  0  0
  152.3583  142.5270  159.7983 C   0  0  2  0  0  0  0  0  0  0  0  0
  153.8605  142.2170  159.9010 C   0  0  0  0  0  0  0  0  0  0  0  0
  151.9208  142.4319  158.4074 N   0  0  0  0  0  0  0  0  0  0  0  0
  151.3164  141.3711  157.8507 C   0  0  0  0  0  0  0  0  0  0  0  0
  151.0582  140.3396  158.4731 O   0  0  0  0  0  0  0  0  0  0  0  0
  150.9414  141.5210  156.3678 C   0  0  0  0  0  0  0  0  0  0  0  0
  151.1256  140.2957  155.5763 N   0  0  0  0  0  0  0  0  0  0  0  0
  152.4973  139.7948  155.5735 N   0  5  0  0  0  0  0  0  0  0  0  0
  152.7937  138.6792  154.8554 C   0  0  0  0  0  0  0  0  0  0  0  0
  153.9276  138.2097  154.7909 O   0  0  0  0  0  0  0  0  0  0  0  0
  151.7140  138.0185  154.1408 C   0  0  0  0  0  0  0  0  0  0  0  0
  150.4515  138.4883  154.1829 C   0  0  0  0  0  0  0  0  0  0  0  0
  150.0893  139.6833  154.9352 C   0  0  0  0  0  0  0  0  0  0  0  0
  148.9360  140.1118  154.9871 O   0  0  0  0  0  0  0  0  0  0  0  0
  151.7842  145.9954  159.7598 H   0  0  0  0  0  0  0  0  0  0  0  0
  151.3797  144.8368  158.4973 H   0  0  0  0  0  0  0  0  0  0  0  0
  153.0671  145.1601  158.8942 H   0  0  0  0  0  0  0  0  0  0  0  0
  152.7159  144.1618  161.1778 H   0  0  0  0  0  0  0  0  0  0  0  0
  151.0326  143.8983  160.8102 H   0  0  0  0  0  0  0  0  0  0  0  0
  151.8166  141.7888  160.3926 H   0  0  0  0  0  0  0  0  0  0  0  0
  154.2008  142.2678  160.9354 H   0  0  0  0  0  0  0  0  0  0  0  0
  154.4529  142.9249  159.3204 H   0  0  0  0  0  0  0  0  0  0  0  0
  154.0841  141.2152  159.5326 H   0  0  0  0  0  0  0  0  0  0  0  0
  152.0868  143.2379  157.8226 H   0  0  0  0  0  0  0  0  0  0  0  0
  149.9043  141.8569  156.3165 H   0  0  0  0  0  0  0  0  0  0  0  0
  151.5314  142.3267  155.9277 H   0  0  0  0  0  0  0  0  0  0  0  0
  151.9284  137.1298  153.5658 H   0  0  0  0  0  0  0  0  0  0  0  0
  149.6803  137.9644  153.6383 H   0  0  0  0  0  0  0  0  0  0  0  0
  1  2  1  0  0  0  0
  1 17  1  0  0  0  0
  1 18  1  0  0  0  0
  1 19  1  0  0  0  0
  2  3  1  0  0  0  0
  2 20  1  0  0  0  0
  2 21  1  0  0  0  0
  3  4  1  0  0  0  0
  3  5  1  0  0  0  0
  3 22  1  0  0  0  0
  4 23  1  0  0  0  0
  4 24  1  0  0  0  0
  4 25  1  0  0  0  0
  5  6  1  0  0  0  0
  5 26  1  0  0  0  0
  6  7  2  0  0  0  0
  6  8  1  0  0  0  0
  8 27  1  0  0  0  0
  8 28  1  0  0  0  0
  8  9  1  0  0  0  0
  9 10  1  0  0  0  0
  9 15  1  0  0  0  0
 10 11  1  0  0  0  0
 11 12  2  0  0  0  0
 11 13  1  0  0  0  0
 13 29  1  0  0  0  0
 13 14  2  0  0  0  0
 14 30  1  0  0  0  0
 14 15  1  0  0  0  0
 15 16  2  0  0  0  0
M  CHG  1  10  -1
M  END
> <s_m_source_file>
AV-unprocessed.smi

> <i_m_source_file_index>
1527

> <i_lp_mmshare_version>
43012

> <i_f3d_flags>
0

> <s_epik_input>
W0NIM11bQ0gyXVtDQEhdKFtDSDNdKVtOSF1DKD1PKVtDSDJdbjFbbkhdYyg9TylbY0hdW2NIXWMxPU8=

> <s_epik_cmdline>
J2VwaWtfcHl0aG9uJywgJy1waCcsICc3LjAnLCAnLXRuJywgJzgnLCAnLW1hJywgJzIwMCcsICctbWV0YWxfYmluZGluZycsICctaW1hZScsICc8aW5maWxlLm1hZT4nLCAnLW9tYWUnLCAnPG91dGZpbGUubWFlPic=

> <r_lp_tautomer_probability>
1

> <r_epik_Ionization_Penalty>
0.0984334

> <r_epik_Ionization_Penalty_Charging>
0.0984334

> <r_epik_Ionization_Penalty_Neutral>
1.93017e-08

> <r_epik_State_Penalty>
0.0346952

> <r_epik_Charging_Adjusted_Penalty>
0.133129

> <i_epik_Tot_Q>
-1

> <i_epik_Tot_abs_Q>
1

> <r_epik_Metal_State_Penalty>
0.0346952

> <b_epik_Metal_Only>
0

> <s_lp_Force_Field>
OPLS_2005

> <r_lp_Energy>
18.7632

> <b_lp_Chiralities_Consistent>
1

> <s_lp_Variant>
AV-unprocessed.smi:1527-1

> <Gold.Version>
5.8.1

> <Gold.Id.Protein>
6NUR|6NUR_protein|mol2

> <Gold.PLP.Fitness>
43.4032

> <Gold.PLP.PLP>
-39.3193

> <Gold.PLP.part.hbond>
-2.8722

> <Gold.PLP.part.metal>
0.0000

> <Gold.PLP.part.buried>
-4.9381

> <Gold.PLP.part.nonpolar>
-31.6882

> <Gold.PLP.part.repulsive>
0.1497

> <Gold.PLP.ligand.clash>
0.0000

> <Gold.PLP.ligand.torsion>
0.9659

> <Gold.PLP.Chemscore.Hbond>
2.0000

> <Gold.PLP.Chemscore.CHOScore>
0.0000

> <Gold.PLP.Chemscore.Metal>
0.0000

> <Gold.Chemscore.Hbonds>
donor molecule, donor type, donor heavy atom, donor atom, acceptor molecule, acceptor atom, score
      P1  H  7997  8009       L1    10  1.80

> <Gold.PLP.Chemscore.Internal.Correction>
0.0156

> <Gold.Rescore>
     Score         DG    S(hbond)    S(metal)    S(lipo)     H(rot)  DE(clash)    DE(int)     intcor
     10.26     -11.38       0.71        0.00      72.76       1.94       0.10       1.02       ----

> <Gold.Chemscore.Fitness>
10.2553

> <Gold.Chemscore.DG>
-11.3754

> <Gold.Chemscore.ZeroCoef>
-5.4800

> <Gold.Chemscore.Hbond>
0.7071

> <Gold.Chemscore.Metal>
0.0000

> <Gold.Chemscore.Lipo>
72.7591

> <Gold.Chemscore.Internal_Hbond>
0.0000

> <Gold.Chemscore.DEClash>
0.0997

> <Gold.Chemscore.DEInternal>
1.0203

> <Gold.Chemscore.Rot>
1.9449

> <Gold.Chemscore.Internal.Correction>
   9.000000E+99

> <Gold.Chemscore.Hbonds>
donor molecule, donor type, donor heavy atom, donor atom, acceptor molecule, acceptor atom, score
      P1  H  7997  8009       L1    10  0.17

> <Gold.Chemscore.Hbond.Weighted>
-2.3616

> <Gold.Chemscore.Metal.Weighted>
-0.0000

> <Gold.Chemscore.Lipo.Weighted>
-8.5128

> <Gold.Chemscore.Internal_Hbond.Weighted>
0.0000

> <Gold.Chemscore.DEClash.Weighted>
0.0997

> <Gold.Chemscore.DEInternal.Weighted>
1.0203

> <Gold.Chemscore.Rot.Weighted>
4.9791

> <Gold.Chemscore.Internal.Correction.Weighted>
   9.000000E+99

> <Gold.Protein.RotatedTorsions>
[ 6907 6896 6895 6894 ] final -152.16 input  -60.11 | X-H torsion
[ 7974 7965 7964 7962 ] final -136.81 input  175.53 | X-H torsion
[ 8008 7997 7996 7995 ] final -163.10 input   59.86 | X-H torsion
[ 10167 10162 10161 10158 ] final  -51.25 input  -65.29 | X-H torsion
[ 10718 10713 10712 10709 ] final   94.86 input   66.30 | X-H torsion
[ 10763 10752 10751 10750 ] final  -95.33 input  -60.55 | X-H torsion
[ 11005 11000 10999 10996 ] final  -66.55 input  -57.11 | X-H torsion

> <Gold.Protein.ActiveResidues>
 VAL166  LYS551  ARG553  GLY616  TRP617  ASP618  TYR619  PRO620  LYS621  CYS622 
 ASP623  PHE694  ASN695  SER759  ASP760  ASP761  ALA762  ILE779  LEU786  VAL792 
 PHE793  MET794  SER795  GLU796  ALA797  LYS798  CYS799  TRP800  GLU811  SER814 

> <Gold.Protein.RotatedAtoms>
  151.2236  133.4488  159.2601 H   0  0  0  0  0  0  0  0  0  0  0  0  # atno 6907 bound_to 6896
  151.0861  134.9888  159.8390 H   0  0  0  0  0  0  0  0  0  0  0  0  # atno 6908 bound_to 6896
  152.5429  134.2173  159.8826 H   0  0  0  0  0  0  0  0  0  0  0  0  # atno 6909 bound_to 6896
  144.8895  140.6622  143.5154 H   0  0  0  0  0  0  0  0  0  0  0  0  # atno 7974 bound_to 7965
  155.8163  140.0913  157.1875 H   0  0  0  0  0  0  0  0  0  0  0  0  # atno 8008 bound_to 7997
  154.3979  140.1445  156.3507 H   0  0  0  0  0  0  0  0  0  0  0  0  # atno 8009 bound_to 7997
  155.8312  140.3442  155.5576 H   0  0  0  0  0  0  0  0  0  0  0  0  # atno 8010 bound_to 7997
  140.6597  143.2626  151.4477 H   0  0  0  0  0  0  0  0  0  0  0  0  # atno 10167 bound_to 10162
  157.6944  131.0526  150.4251 H   0  0  0  0  0  0  0  0  0  0  0  0  # atno 10718 bound_to 10713
  154.7139  135.5124  153.8707 H   0  0  0  0  0  0  0  0  0  0  0  0  # atno 10763 bound_to 10752
  153.0803  135.6629  154.0067 H   0  0  0  0  0  0  0  0  0  0  0  0  # atno 10764 bound_to 10752
  153.9904  135.3020  155.3392 H   0  0  0  0  0  0  0  0  0  0  0  0  # atno 10765 bound_to 10752
  141.1485  133.6701  156.6156 H   0  0  0  0  0  0  0  0  0  0  0  0  # atno 11005 bound_to 11000
  145.3809  139.1637  143.4281 LP  0  0  0  0  0  0  0  0  0  0  0  0  # atno 17320 bound_to 7965
  146.3045  140.3889  142.8692 LP  0  0  0  0  0  0  0  0  0  0  0  0  # atno 17321 bound_to 7965
  139.5828  144.1671  152.1990 LP  0  0  0  0  0  0  0  0  0  0  0  0  # atno 17342 bound_to 10162
  140.1001  144.5546  150.6994 LP  0  0  0  0  0  0  0  0  0  0  0  0  # atno 17343 bound_to 10162
  156.4622  130.4034  149.6569 LP  0  0  0  0  0  0  0  0  0  0  0  0  # atno 17370 bound_to 10713
  156.3680  130.7515  151.2495 LP  0  0  0  0  0  0  0  0  0  0  0  0  # atno 17371 bound_to 10713
  140.3580  134.7712  157.4514 LP  0  0  0  0  0  0  0  0  0  0  0  0  # atno 17394 bound_to 11000
  140.0807  134.5734  155.8543 LP  0  0  0  0  0  0  0  0  0  0  0  0  # atno 17395 bound_to 11000

$$$$
