AV-unprocessed.smi:2577|AV-procd|sdf|10120|dock8
  -GOLD-   2272014143D 1   1.00000     0.00000
 Structure written by MMmdl.
 27 28  0  0  0  0  0  0  0  0  1 V2000
  151.4255  137.5608  154.4322 C   0  0  0  0  0  0  0  0  0  0  0  0
  151.9697  138.8332  155.0959 C   0  0  0  0  0  0  0  0  0  0  0  0
  150.8923  139.9040  155.3434 C   0  0  2  0  0  0  0  0  0  0  0  0
  150.2324  140.1904  154.1248 O   0  0  0  0  0  0  0  0  0  0  0  0
  151.4927  141.2012  155.9198 C   0  0  0  0  0  0  0  0  0  0  0  0
  152.0397  141.0188  157.2531 N   0  0  0  0  0  0  0  0  0  0  0  0
  152.5796  139.8148  157.5948 N   0  0  0  0  0  0  0  0  0  0  0  0
  152.9983  139.8801  158.8234 N   0  0  0  0  0  0  0  0  0  0  0  0
  152.7280  141.1515  159.3015 C   0  0  0  0  0  0  0  0  0  0  0  0
  152.9660  141.7569  160.5555 C   0  0  0  0  0  0  0  0  0  0  0  0
  152.5806  143.0959  160.7863 C   0  0  0  0  0  0  0  0  0  0  0  0
  152.8892  143.8014  162.3331 Cl  0  0  0  0  0  0  0  0  0  0  0  0
  151.9510  143.8449  159.7629 C   0  0  0  0  0  0  0  0  0  0  0  0
  151.4729  145.4838  160.0289 Cl  0  0  0  0  0  0  0  0  0  0  0  0
  151.7073  143.2535  158.5074 C   0  0  0  0  0  0  0  0  0  0  0  0
  152.1001  141.9207  158.2978 C   0  0  0  0  0  0  0  0  0  0  0  0
  152.2154  136.8192  154.3132 H   0  0  0  0  0  0  0  0  0  0  0  0
  151.0182  137.7707  153.4428 H   0  0  0  0  0  0  0  0  0  0  0  0
  150.6343  137.1108  155.0324 H   0  0  0  0  0  0  0  0  0  0  0  0
  152.4211  138.5545  156.0488 H   0  0  0  0  0  0  0  0  0  0  0  0
  152.7759  139.2473  154.4888 H   0  0  0  0  0  0  0  0  0  0  0  0
  150.1540  139.5116  156.0441 H   0  0  0  0  0  0  0  0  0  0  0  0
  149.7649  139.4174  153.8470 H   0  0  0  0  0  0  0  0  0  0  0  0
  152.2872  141.5709  155.2699 H   0  0  0  0  0  0  0  0  0  0  0  0
  150.7364  141.9863  155.9594 H   0  0  0  0  0  0  0  0  0  0  0  0
  153.4447  141.1904  161.3406 H   0  0  0  0  0  0  0  0  0  0  0  0
  151.2258  143.8132  157.7190 H   0  0  0  0  0  0  0  0  0  0  0  0
  1  2  1  0  0  0  0
  1 17  1  0  0  0  0
  1 18  1  0  0  0  0
  1 19  1  0  0  0  0
  2  3  1  0  0  0  0
  2 20  1  0  0  0  0
  2 21  1  0  0  0  0
  3  4  1  0  0  0  0
  3  5  1  0  0  0  0
  3 22  1  0  0  0  0
  4 23  1  0  0  0  0
  5  6  1  0  0  0  0
  5 24  1  0  0  0  0
  5 25  1  0  0  0  0
  6 16  1  0  0  0  0
  6  7  1  0  0  0  0
  7  8  2  0  0  0  0
  8  9  1  0  0  0  0
  9 16  2  0  0  0  0
  9 10  1  0  0  0  0
 10 11  2  0  0  0  0
 10 26  1  0  0  0  0
 11 12  1  0  0  0  0
 11 13  1  0  0  0  0
 13 14  1  0  0  0  0
 13 15  2  0  0  0  0
 15 16  1  0  0  0  0
 15 27  1  0  0  0  0
M  END
> <s_m_source_file>
AV-unprocessed.smi

> <i_m_source_file_index>
2577

> <i_lp_mmshare_version>
43012

> <i_f3d_flags>
0

> <s_epik_input>
W0NIM11bQ0gyXVtDQEhdKFtPSF0pW0NIMl1uKG5uMSljKGMxMilbY0hdYyhDbCljKENsKVtjSF0y

> <s_epik_cmdline>
J2VwaWtfcHl0aG9uJywgJy1waCcsICc3LjAnLCAnLXRuJywgJzgnLCAnLW1hJywgJzIwMCcsICctbWV0YWxfYmluZGluZycsICctaW1hZScsICc8aW5maWxlLm1hZT4nLCAnLW9tYWUnLCAnPG91dGZpbGUubWFlPic=

> <r_lp_tautomer_probability>
1

> <r_epik_Ionization_Penalty>
1.50913e-07

> <r_epik_Ionization_Penalty_Charging>
0

> <r_epik_Ionization_Penalty_Neutral>
1.50913e-07

> <r_epik_State_Penalty>
-0

> <r_epik_Charging_Adjusted_Penalty>
0

> <i_epik_Tot_Q>
0

> <i_epik_Tot_abs_Q>
0

> <r_epik_Metal_State_Penalty>
-0

> <b_epik_Metal_Only>
0

> <s_lp_Force_Field>
OPLS_2005

> <r_lp_Energy>
7.05244

> <b_lp_Chiralities_Consistent>
1

> <s_lp_Variant>
AV-unprocessed.smi:2577-1

> <Gold.Version>
5.8.1

> <Gold.Id.Protein>
6NUR|6NUR_protein|mol2

> <Gold.PLP.Fitness>
42.7527

> <Gold.PLP.PLP>
-39.3038

> <Gold.PLP.part.hbond>
-3.0000

> <Gold.PLP.part.metal>
0.0000

> <Gold.PLP.part.buried>
-4.2318

> <Gold.PLP.part.nonpolar>
-30.4510

> <Gold.PLP.part.repulsive>
0.0000

> <Gold.PLP.ligand.clash>
0.0000

> <Gold.PLP.ligand.torsion>
0.4054

> <Gold.PLP.Chemscore.Hbond>
1.4192

> <Gold.PLP.Chemscore.CHOScore>
0.0000

> <Gold.PLP.Chemscore.Metal>
0.0000

> <Gold.Chemscore.Hbonds>
donor molecule, donor type, donor heavy atom, donor atom, acceptor molecule, acceptor atom, score
      P1  H  7989  7998       L1     4  0.59
      P1  H  7997  8008       L1     7  0.69

> <Gold.PLP.Chemscore.Internal.Correction>
0.0020

> <Gold.Rescore>
     Score         DG    S(hbond)    S(metal)    S(lipo)     H(rot)  DE(clash)    DE(int)     intcor
     13.42     -15.74       0.46        0.00     113.70       1.79       0.46       1.86       ----

> <Gold.Chemscore.Fitness>
13.4215

> <Gold.Chemscore.DG>
-15.7386

> <Gold.Chemscore.ZeroCoef>
-5.4800

> <Gold.Chemscore.Hbond>
0.4624

> <Gold.Chemscore.Metal>
0.0000

> <Gold.Chemscore.Lipo>
113.6988

> <Gold.Chemscore.Internal_Hbond>
0.0000

> <Gold.Chemscore.DEClash>
0.4579

> <Gold.Chemscore.DEInternal>
1.8591

> <Gold.Chemscore.Rot>
1.7924

> <Gold.Chemscore.Internal.Correction>
   9.000000E+99

> <Gold.Chemscore.Hbonds>
donor molecule, donor type, donor heavy atom, donor atom, acceptor molecule, acceptor atom, score
      P1  H  7989  7998       L1     4  0.04
      P1  H  7997  8008       L1     7  0.02

> <Gold.Chemscore.Hbond.Weighted>
-1.5443

> <Gold.Chemscore.Metal.Weighted>
-0.0000

> <Gold.Chemscore.Lipo.Weighted>
-13.3028

> <Gold.Chemscore.Internal_Hbond.Weighted>
0.0000

> <Gold.Chemscore.DEClash.Weighted>
0.4579

> <Gold.Chemscore.DEInternal.Weighted>
1.8591

> <Gold.Chemscore.Rot.Weighted>
4.5884

> <Gold.Chemscore.Internal.Correction.Weighted>
   9.000000E+99

> <Gold.Protein.RotatedTorsions>
[ 6907 6896 6895 6894 ] final  -45.36 input  -60.11 | X-H torsion
[ 7974 7965 7964 7962 ] final -110.91 input  175.53 | X-H torsion
[ 8008 7997 7996 7995 ] final  -59.76 input   59.86 | X-H torsion
[ 10167 10162 10161 10158 ] final  -96.18 input  -65.29 | X-H torsion
[ 10718 10713 10712 10709 ] final  177.38 input   66.30 | X-H torsion
[ 10763 10752 10751 10750 ] final   -6.44 input  -60.55 | X-H torsion
[ 11005 11000 10999 10996 ] final -112.46 input  -57.11 | X-H torsion

> <Gold.Protein.ActiveResidues>
 VAL166  LYS551  ARG553  GLY616  TRP617  ASP618  TYR619  PRO620  LYS621  CYS622 
 ASP623  PHE694  ASN695  SER759  ASP760  ASP761  ALA762  ILE779  LEU786  VAL792 
 PHE793  MET794  SER795  GLU796  ALA797  LYS798  CYS799  TRP800  GLU811  SER814 

> <Gold.Protein.RotatedAtoms>
  150.9228  134.8645  159.7499 H   0  0  0  0  0  0  0  0  0  0  0  0  # atno 6907 bound_to 6896
  152.5001  134.4193  159.9485 H   0  0  0  0  0  0  0  0  0  0  0  0  # atno 6908 bound_to 6896
  151.4226  133.3654  159.2793 H   0  0  0  0  0  0  0  0  0  0  0  0  # atno 6909 bound_to 6896
  145.1625  140.8885  143.3582 H   0  0  0  0  0  0  0  0  0  0  0  0  # atno 7974 bound_to 7965
  154.4367  140.1054  156.6166 H   0  0  0  0  0  0  0  0  0  0  0  0  # atno 8008 bound_to 7997
  155.5752  140.3490  155.4507 H   0  0  0  0  0  0  0  0  0  0  0  0  # atno 8009 bound_to 7997
  156.0360  140.1271  157.0197 H   0  0  0  0  0  0  0  0  0  0  0  0  # atno 8010 bound_to 7997
  140.2965  143.3189  152.0292 H   0  0  0  0  0  0  0  0  0  0  0  0  # atno 10167 bound_to 10162
  156.9062  130.9895  151.3028 H   0  0  0  0  0  0  0  0  0  0  0  0  # atno 10718 bound_to 10713
  153.4123  135.7008  153.6350 H   0  0  0  0  0  0  0  0  0  0  0  0  # atno 10763 bound_to 10752
  153.4839  135.3687  155.2457 H   0  0  0  0  0  0  0  0  0  0  0  0  # atno 10764 bound_to 10752
  154.8717  135.4072  154.3478 H   0  0  0  0  0  0  0  0  0  0  0  0  # atno 10765 bound_to 10752
  141.0674  133.9437  157.2552 H   0  0  0  0  0  0  0  0  0  0  0  0  # atno 11005 bound_to 11000
  145.0316  139.3336  143.6021 LP  0  0  0  0  0  0  0  0  0  0  0  0  # atno 17320 bound_to 7965
  146.3480  139.9656  142.8712 LP  0  0  0  0  0  0  0  0  0  0  0  0  # atno 17321 bound_to 7965
  139.4925  144.6487  151.6723 LP  0  0  0  0  0  0  0  0  0  0  0  0  # atno 17342 bound_to 10162
  140.5688  144.0145  150.6206 LP  0  0  0  0  0  0  0  0  0  0  0  0  # atno 17343 bound_to 10162
  157.5995  130.8502  149.8781 LP  0  0  0  0  0  0  0  0  0  0  0  0  # atno 17370 bound_to 10713
  156.0558  130.3709  150.1095 LP  0  0  0  0  0  0  0  0  0  0  0  0  # atno 17371 bound_to 10713
  139.9489  135.0179  156.8936 LP  0  0  0  0  0  0  0  0  0  0  0  0  # atno 17394 bound_to 11000
  140.5745  134.0411  155.7442 LP  0  0  0  0  0  0  0  0  0  0  0  0  # atno 17395 bound_to 11000

$$$$
