AV-unprocessed.smi:626|AV-procd|sdf|3110|dock2
  -GOLD-   22720 0 33D 1   1.00000     0.00000
 Structure written by MMmdl.
 34 36  0  0  0  0  0  0  0  0  1 V2000
  147.9068  140.5674  152.1676 C   0  0  0  0  0  0  0  0  0  0  0  0
  148.7564  139.9816  153.1927 N   0  0  0  0  0  0  0  0  0  0  0  0
  149.7207  140.6470  153.8459 C   0  0  0  0  0  0  0  0  0  0  0  0
  149.9800  141.8332  153.6429 O   0  0  0  0  0  0  0  0  0  0  0  0
  150.5107  139.8582  154.8922 C   0  0  0  0  0  0  0  0  0  0  0  0
  150.8994  140.7386  156.0368 C   0  0  0  0  0  0  0  0  0  0  0  0
  151.5027  140.2471  157.1126 N   0  0  0  0  0  0  0  0  0  0  0  0
  151.6704  141.3724  157.9316 O   0  0  0  0  0  0  0  0  0  0  0  0
  151.1762  142.4229  157.2320 C   0  0  0  0  0  0  0  0  0  0  0  0
  151.1257  143.7624  157.9073 C   0  0  1  0  0  0  0  0  0  0  0  0
  150.0931  143.8889  159.0503 C   0  0  0  0  0  0  0  0  0  0  0  0
  150.9404  144.4563  160.2059 C   0  0  1  0  0  0  0  0  0  0  0  0
  151.8701  143.3523  160.7458 C   0  0  0  0  0  0  0  0  0  0  0  0
  152.9315  143.2260  159.6361 C   0  0  0  0  0  0  0  0  0  0  0  0
  152.4370  144.2343  158.5788 C   0  0  2  0  0  0  0  0  0  0  0  0
  151.9227  145.3611  159.4700 C   0  0  0  0  0  0  0  0  0  0  0  0
  150.6431  142.0751  156.0610 N   0  0  0  0  0  0  0  0  0  0  0  0
  147.2091  139.8196  151.7907 H   0  0  0  0  0  0  0  0  0  0  0  0
  148.5030  140.9303  151.3295 H   0  0  0  0  0  0  0  0  0  0  0  0
  147.3293  141.4002  152.5713 H   0  0  0  0  0  0  0  0  0  0  0  0
  148.6081  139.0077  153.4151 H   0  0  0  0  0  0  0  0  0  0  0  0
  149.9069  139.0273  155.2601 H   0  0  0  0  0  0  0  0  0  0  0  0
  151.4019  139.4237  154.4371 H   0  0  0  0  0  0  0  0  0  0  0  0
  150.8622  144.4912  157.1389 H   0  0  0  0  0  0  0  0  0  0  0  0
  149.2966  144.5792  158.7705 H   0  0  0  0  0  0  0  0  0  0  0  0
  149.6237  142.9440  159.3263 H   0  0  0  0  0  0  0  0  0  0  0  0
  150.3507  144.9476  160.9803 H   0  0  0  0  0  0  0  0  0  0  0  0
  152.3334  143.6552  161.6855 H   0  0  0  0  0  0  0  0  0  0  0  0
  151.3395  142.4157  160.9212 H   0  0  0  0  0  0  0  0  0  0  0  0
  153.9095  143.5249  160.0152 H   0  0  0  0  0  0  0  0  0  0  0  0
  153.0315  142.2098  159.2570 H   0  0  0  0  0  0  0  0  0  0  0  0
  153.2091  144.5266  157.8665 H   0  0  0  0  0  0  0  0  0  0  0  0
  151.4371  146.1673  158.9166 H   0  0  0  0  0  0  0  0  0  0  0  0
  152.6901  145.7861  160.1196 H   0  0  0  0  0  0  0  0  0  0  0  0
  1  2  1  0  0  0  0
  1 18  1  0  0  0  0
  1 19  1  0  0  0  0
  1 20  1  0  0  0  0
  2  3  1  0  0  0  0
  2 21  1  0  0  0  0
  3  4  2  0  0  0  0
  3  5  1  0  0  0  0
  5  6  1  0  0  0  0
  5 22  1  0  0  0  0
  5 23  1  0  0  0  0
  6 17  1  0  0  0  0
  6  7  2  0  0  0  0
  7  8  1  0  0  0  0
  8  9  1  0  0  0  0
  9 10  1  0  0  0  0
  9 17  2  0  0  0  0
 10 15  1  0  0  0  0
 10 11  1  0  0  0  0
 10 24  1  0  0  0  0
 11 12  1  0  0  0  0
 11 25  1  0  0  0  0
 11 26  1  0  0  0  0
 12 16  1  0  0  0  0
 12 13  1  0  0  0  0
 12 27  1  0  0  0  0
 13 14  1  0  0  0  0
 13 28  1  0  0  0  0
 13 29  1  0  0  0  0
 14 15  1  0  0  0  0
 14 30  1  0  0  0  0
 14 31  1  0  0  0  0
 15 16  1  0  0  0  0
 15 32  1  0  0  0  0
 16 33  1  0  0  0  0
 16 34  1  0  0  0  0
M  END
> <s_m_source_file>
AV-unprocessed.smi

> <i_m_source_file_index>
626

> <i_lp_mmshare_version>
43012

> <i_f3d_flags>
0

> <s_epik_input>
W0NIM11bTkhdQyg9TylbQ0gyXWMxbm9jKG4xKVtDQEhdKFtDSDJdW0NAQEhdMjMpW0NAQEhdKFtDSDJdMylbQ0gyXVtDSDJdMg==

> <s_epik_cmdline>
J2VwaWtfcHl0aG9uJywgJy1waCcsICc3LjAnLCAnLXRuJywgJzgnLCAnLW1hJywgJzIwMCcsICctbWV0YWxfYmluZGluZycsICctaW1hZScsICc8aW5maWxlLm1hZT4nLCAnLW9tYWUnLCAnPG91dGZpbGUubWFlPic=

> <r_lp_tautomer_probability>
1

> <r_epik_Ionization_Penalty>
1.02916e-07

> <r_epik_Ionization_Penalty_Charging>
0

> <r_epik_Ionization_Penalty_Neutral>
1.02916e-07

> <r_epik_State_Penalty>
-0

> <r_epik_Charging_Adjusted_Penalty>
0

> <i_epik_Tot_Q>
0

> <i_epik_Tot_abs_Q>
0

> <r_epik_Metal_State_Penalty>
-0

> <b_epik_Metal_Only>
0

> <s_lp_Force_Field>
OPLS_2005

> <r_lp_Energy>
49.0627

> <b_lp_Chiralities_Consistent>
1

> <s_lp_Variant>
AV-unprocessed.smi:626-2

> <Gold.Version>
5.8.1

> <Gold.Id.Protein>
6NUR|6NUR_protein|mol2

> <Gold.PLP.Fitness>
40.8439

> <Gold.PLP.PLP>
-40.3384

> <Gold.PLP.part.hbond>
-3.0000

> <Gold.PLP.part.metal>
0.0000

> <Gold.PLP.part.buried>
-2.3387

> <Gold.PLP.part.nonpolar>
-35.3906

> <Gold.PLP.part.repulsive>
0.3675

> <Gold.PLP.ligand.clash>
0.0000

> <Gold.PLP.ligand.torsion>
0.7248

> <Gold.PLP.Chemscore.Hbond>
0.6240

> <Gold.PLP.Chemscore.CHOScore>
0.0000

> <Gold.PLP.Chemscore.Metal>
0.0000

> <Gold.Chemscore.Hbonds>
donor molecule, donor type, donor heavy atom, donor atom, acceptor molecule, acceptor atom, score
      P1  H  8011  8017       L1     4  0.39

> <Gold.PLP.Chemscore.Internal.Correction>
0.0830

> <Gold.Rescore>
     Score         DG    S(hbond)    S(metal)    S(lipo)     H(rot)  DE(clash)    DE(int)     intcor
     11.11     -15.05       0.77        0.00      95.19       1.61       0.07       3.87       ----

> <Gold.Chemscore.Fitness>
11.1095

> <Gold.Chemscore.DG>
-15.0489

> <Gold.Chemscore.ZeroCoef>
-5.4800

> <Gold.Chemscore.Hbond>
0.7659

> <Gold.Chemscore.Metal>
0.0000

> <Gold.Chemscore.Lipo>
95.1907

> <Gold.Chemscore.Internal_Hbond>
0.0000

> <Gold.Chemscore.DEClash>
0.0659

> <Gold.Chemscore.DEInternal>
3.8736

> <Gold.Chemscore.Rot>
1.6119

> <Gold.Chemscore.Internal.Correction>
   9.000000E+99

> <Gold.Chemscore.Hbonds>
donor molecule, donor type, donor heavy atom, donor atom, acceptor molecule, acceptor atom, score
      P1  H  8011  8017       L1     4  0.37

> <Gold.Chemscore.Hbond.Weighted>
-2.5582

> <Gold.Chemscore.Metal.Weighted>
-0.0000

> <Gold.Chemscore.Lipo.Weighted>
-11.1373

> <Gold.Chemscore.Internal_Hbond.Weighted>
0.0000

> <Gold.Chemscore.DEClash.Weighted>
0.0659

> <Gold.Chemscore.DEInternal.Weighted>
3.8736

> <Gold.Chemscore.Rot.Weighted>
4.1266

> <Gold.Chemscore.Internal.Correction.Weighted>
   9.000000E+99

> <Gold.Protein.RotatedTorsions>
[ 6907 6896 6895 6894 ] final  152.89 input  -60.11 | X-H torsion
[ 7974 7965 7964 7962 ] final    4.89 input  175.53 | X-H torsion
[ 8008 7997 7996 7995 ] final   19.26 input   59.86 | X-H torsion
[ 10167 10162 10161 10158 ] final   10.24 input  -65.29 | X-H torsion
[ 10718 10713 10712 10709 ] final -105.08 input   66.30 | X-H torsion
[ 10763 10752 10751 10750 ] final -109.59 input  -60.55 | X-H torsion
[ 11005 11000 10999 10996 ] final   28.15 input  -57.11 | X-H torsion

> <Gold.Protein.ActiveResidues>
 VAL166  LYS551  ARG553  GLY616  TRP617  ASP618  TYR619  PRO620  LYS621  CYS622 
 ASP623  PHE694  ASN695  SER759  ASP760  ASP761  ALA762  ILE779  LEU786  VAL792 
 PHE793  MET794  SER795  GLU796  ALA797  LYS798  CYS799  TRP800  GLU811  SER814 

> <Gold.Protein.RotatedAtoms>
  152.0804  133.4150  159.4498 H   0  0  0  0  0  0  0  0  0  0  0  0  # atno 6907 bound_to 6896
  150.6862  134.2988  159.4707 H   0  0  0  0  0  0  0  0  0  0  0  0  # atno 6908 bound_to 6896
  152.0830  134.9458  160.0624 H   0  0  0  0  0  0  0  0  0  0  0  0  # atno 6909 bound_to 6896
  146.2442  140.0467  142.8378 H   0  0  0  0  0  0  0  0  0  0  0  0  # atno 7974 bound_to 7965
  154.9181  140.3023  155.5230 H   0  0  0  0  0  0  0  0  0  0  0  0  # atno 8008 bound_to 7997
  156.3011  140.2376  156.4164 H   0  0  0  0  0  0  0  0  0  0  0  0  # atno 8009 bound_to 7997
  154.8358  140.0416  157.1497 H   0  0  0  0  0  0  0  0  0  0  0  0  # atno 8010 bound_to 7997
  140.6206  143.8212  150.7171 H   0  0  0  0  0  0  0  0  0  0  0  0  # atno 10167 bound_to 10162
  156.0331  130.5546  150.7489 H   0  0  0  0  0  0  0  0  0  0  0  0  # atno 10718 bound_to 10713
  154.8202  135.4595  154.0756 H   0  0  0  0  0  0  0  0  0  0  0  0  # atno 10763 bound_to 10752
  153.2116  135.6882  153.8113 H   0  0  0  0  0  0  0  0  0  0  0  0  # atno 10764 bound_to 10752
  153.7562  135.3291  155.3306 H   0  0  0  0  0  0  0  0  0  0  0  0  # atno 10765 bound_to 10752
  140.3187  134.2568  155.7721 H   0  0  0  0  0  0  0  0  0  0  0  0  # atno 11005 bound_to 11000
  145.1021  140.9352  143.4706 LP  0  0  0  0  0  0  0  0  0  0  0  0  # atno 17320 bound_to 7965
  145.0662  139.3067  143.5855 LP  0  0  0  0  0  0  0  0  0  0  0  0  # atno 17321 bound_to 7965
  140.1801  143.4122  152.1939 LP  0  0  0  0  0  0  0  0  0  0  0  0  # atno 17342 bound_to 10162
  139.5436  144.7278  151.4656 LP  0  0  0  0  0  0  0  0  0  0  0  0  # atno 17343 bound_to 10162
  157.5038  131.0920  151.0282 LP  0  0  0  0  0  0  0  0  0  0  0  0  # atno 17370 bound_to 10713
  157.0655  130.5843  149.5393 LP  0  0  0  0  0  0  0  0  0  0  0  0  # atno 17371 bound_to 10713
  141.2091  133.7757  157.0014 LP  0  0  0  0  0  0  0  0  0  0  0  0  # atno 17394 bound_to 11000
  140.0961  134.9563  157.1851 LP  0  0  0  0  0  0  0  0  0  0  0  0  # atno 17395 bound_to 11000

$$$$
