AV-unprocessed.smi:2784|AV-procd|sdf|10744|dock5
  -GOLD-   2272015183D 1   1.00000     0.00000
 Structure written by MMmdl.
 30 31  0  0  0  0  0  0  0  0  2 V2000
  152.5612  144.5780  158.5857 C   0  0  0  0  0  0  0  0  0  0  0  0
  152.7263  143.1721  158.6718 O   0  0  0  0  0  0  0  0  0  0  0  0
  151.9550  142.5665  159.7058 C   0  0  2  0  0  0  0  0  0  0  0  0
  152.3956  143.1505  161.0523 C   0  0  0  0  0  0  0  0  0  0  0  0
  153.6520  142.3597  161.4064 C   0  0  0  0  0  0  0  0  0  0  0  0
  153.3701  140.9384  160.9119 C   0  0  0  0  0  0  0  0  0  0  0  0
  152.2936  141.0618  159.8154 C   0  0  2  0  0  0  0  0  0  0  0  0
  152.7504  140.4797  158.5541 N   0  0  0  0  0  0  0  0  0  0  0  0
  152.0635  140.4739  157.4026 C   0  0  0  0  0  0  0  0  0  0  0  0
  150.9450  140.9913  157.3523 O   0  0  0  0  0  0  0  0  0  0  0  0
  152.7155  139.8733  156.3814 N   0  5  0  0  0  0  0  0  0  0  0  0
  152.0223  139.1952  155.4526 C   0  0  0  0  0  0  0  0  0  0  0  0
  152.2122  137.9238  155.0952 N   0  0  0  0  0  0  0  0  0  0  0  0
  151.2759  137.6645  154.1061 C   0  0  0  0  0  0  0  0  0  0  0  0
  150.5545  138.8087  153.9005 C   0  0  0  0  0  0  0  0  0  0  0  0
  151.0184  139.7823  154.7412 O   0  0  0  0  0  0  0  0  0  0  0  0
  153.2001  144.9722  157.7958 H   0  0  0  0  0  0  0  0  0  0  0  0
  152.8328  145.0749  159.5173 H   0  0  0  0  0  0  0  0  0  0  0  0
  151.5299  144.8349  158.3402 H   0  0  0  0  0  0  0  0  0  0  0  0
  150.8872  142.7042  159.5248 H   0  0  0  0  0  0  0  0  0  0  0  0
  152.5710  144.2259  161.0252 H   0  0  0  0  0  0  0  0  0  0  0  0
  151.6248  142.9618  161.8007 H   0  0  0  0  0  0  0  0  0  0  0  0
  154.5054  142.7715  160.8661 H   0  0  0  0  0  0  0  0  0  0  0  0
  153.8850  142.3951  162.4709 H   0  0  0  0  0  0  0  0  0  0  0  0
  154.2840  140.4575  160.5600 H   0  0  0  0  0  0  0  0  0  0  0  0
  152.9856  140.3304  161.7317 H   0  0  0  0  0  0  0  0  0  0  0  0
  151.4080  140.5220  160.1559 H   0  0  0  0  0  0  0  0  0  0  0  0
  153.6650  140.0532  158.5522 H   0  0  0  0  0  0  0  0  0  0  0  0
  151.1982  136.6975  153.6321 H   0  0  0  0  0  0  0  0  0  0  0  0
  149.7402  139.0780  153.2448 H   0  0  0  0  0  0  0  0  0  0  0  0
  1  2  1  0  0  0  0
  1 17  1  0  0  0  0
  1 18  1  0  0  0  0
  1 19  1  0  0  0  0
  2  3  1  0  0  0  0
  3  7  1  0  0  0  0
  3  4  1  0  0  0  0
  3 20  1  0  0  0  0
  4  5  1  0  0  0  0
  4 21  1  0  0  0  0
  4 22  1  0  0  0  0
  5  6  1  0  0  0  0
  5 23  1  0  0  0  0
  5 24  1  0  0  0  0
  6  7  1  0  0  0  0
  6 25  1  0  0  0  0
  6 26  1  0  0  0  0
  7  8  1  0  0  0  0
  7 27  1  0  0  0  0
  8 28  1  0  0  0  0
  8  9  1  0  0  0  0
  9 11  1  0  0  0  0
  9 10  2  0  0  0  0
 11 12  1  0  0  0  0
 12 16  1  0  0  0  0
 12 13  2  0  0  0  0
 13 14  1  0  0  0  0
 14 29  1  0  0  0  0
 14 15  2  0  0  0  0
 15 30  1  0  0  0  0
 15 16  1  0  0  0  0
M  CHG  1  11  -1
M  END
> <s_m_source_file>
AV-unprocessed.smi

> <i_m_source_file_index>
2784

> <i_lp_mmshare_version>
43012

> <i_f3d_flags>
0

> <s_epik_input>
W0NIM11PW0NAQEhdMVtDSDJdW0NIMl1bQ0gyXVtDQEhdMVtOSF1DKD1PKVtOSF1jMm5bY0hdW2NIXW8y

> <s_epik_cmdline>
J2VwaWtfcHl0aG9uJywgJy1waCcsICc3LjAnLCAnLXRuJywgJzgnLCAnLW1hJywgJzIwMCcsICctbWV0YWxfYmluZGluZycsICctaW1hZScsICc8aW5maWxlLm1hZT4nLCAnLW9tYWUnLCAnPG91dGZpbGUubWFlPic=

> <r_lp_tautomer_probability>
0.107061

> <r_epik_Ionization_Penalty>
10.8857

> <r_epik_Ionization_Penalty_Charging>
7.67908

> <r_epik_Ionization_Penalty_Neutral>
3.20665

> <r_epik_State_Penalty>
5.80296

> <r_epik_Charging_Adjusted_Penalty>
13.482

> <i_epik_Tot_Q>
-1

> <i_epik_Tot_abs_Q>
1

> <r_epik_Metal_State_Penalty>
1.73217

> <b_epik_Metal_Only>
1

> <s_lp_Force_Field>
OPLS_2005

> <r_lp_Energy>
16.6082

> <b_lp_Chiralities_Consistent>
1

> <s_lp_Variant>
AV-unprocessed.smi:2784-19

> <Gold.Version>
5.8.1

> <Gold.Id.Protein>
6NUR|6NUR_protein|mol2

> <Gold.PLP.Fitness>
46.0571

> <Gold.PLP.PLP>
-32.5538

> <Gold.PLP.part.hbond>
-2.4109

> <Gold.PLP.part.metal>
0.0000

> <Gold.PLP.part.buried>
-2.4443

> <Gold.PLP.part.nonpolar>
-26.4373

> <Gold.PLP.part.repulsive>
0.2144

> <Gold.PLP.ligand.clash>
0.0000

> <Gold.PLP.ligand.torsion>
0.7558

> <Gold.PLP.Chemscore.Hbond>
3.0000

> <Gold.PLP.Chemscore.CHOScore>
2.0000

> <Gold.PLP.Chemscore.Metal>
0.0000

> <Gold.Chemscore.Hbonds>
donor molecule, donor type, donor heavy atom, donor atom, acceptor molecule, acceptor atom, score
      P1  H  7989  7998       L1    16  0.85
      P1  H  7997  8008       L1    11  2.00
      L1  C    14    29       P1  7949  1.00
      L1  C    15    30       P1  7957  1.00

> <Gold.PLP.Chemscore.Internal.Correction>
0.0148

> <Gold.Rescore>
     Score         DG    S(hbond)    S(metal)    S(lipo)     H(rot)  DE(clash)    DE(int)     intcor
     16.88     -17.86       1.88        0.00      80.91       1.31       0.02       0.96       ----

> <Gold.Chemscore.Fitness>
16.8808

> <Gold.Chemscore.DG>
-17.8600

> <Gold.Chemscore.ZeroCoef>
-5.4800

> <Gold.Chemscore.Hbond>
1.8767

> <Gold.Chemscore.Metal>
0.0000

> <Gold.Chemscore.Lipo>
80.9135

> <Gold.Chemscore.Internal_Hbond>
0.0000

> <Gold.Chemscore.DEClash>
0.0158

> <Gold.Chemscore.DEInternal>
0.9634

> <Gold.Chemscore.Rot>
1.3106

> <Gold.Chemscore.Internal.Correction>
   9.000000E+99

> <Gold.Chemscore.Hbonds>
donor molecule, donor type, donor heavy atom, donor atom, acceptor molecule, acceptor atom, score
      P1  H  7989  7998       L1    16  0.12
      P1  H  7997  8008       L1    11  0.90

> <Gold.Chemscore.Hbond.Weighted>
-6.2681

> <Gold.Chemscore.Metal.Weighted>
-0.0000

> <Gold.Chemscore.Lipo.Weighted>
-9.4669

> <Gold.Chemscore.Internal_Hbond.Weighted>
0.0000

> <Gold.Chemscore.DEClash.Weighted>
0.0158

> <Gold.Chemscore.DEInternal.Weighted>
0.9634

> <Gold.Chemscore.Rot.Weighted>
3.3550

> <Gold.Chemscore.Internal.Correction.Weighted>
   9.000000E+99

> <Gold.Protein.RotatedTorsions>
[ 6907 6896 6895 6894 ] final  117.58 input  -60.11 | X-H torsion
[ 7974 7965 7964 7962 ] final  142.12 input  175.53 | X-H torsion
[ 8008 7997 7996 7995 ] final  -43.81 input   59.86 | X-H torsion
[ 10167 10162 10161 10158 ] final  -52.27 input  -65.29 | X-H torsion
[ 10718 10713 10712 10709 ] final  -49.90 input   66.30 | X-H torsion
[ 10763 10752 10751 10750 ] final  -25.23 input  -60.55 | X-H torsion
[ 11005 11000 10999 10996 ] final -112.55 input  -57.11 | X-H torsion

> <Gold.Protein.ActiveResidues>
 VAL166  LYS551  ARG553  GLY616  TRP617  ASP618  TYR619  PRO620  LYS621  CYS622 
 ASP623  PHE694  ASN695  SER759  ASP760  ASP761  ALA762  ILE779  LEU786  VAL792 
 PHE793  MET794  SER795  GLU796  ALA797  LYS798  CYS799  TRP800  GLU811  SER814 

> <Gold.Protein.RotatedAtoms>
  152.4602  133.7806  159.6848 H   0  0  0  0  0  0  0  0  0  0  0  0  # atno 6907 bound_to 6896
  150.8543  133.7729  159.3020 H   0  0  0  0  0  0  0  0  0  0  0  0  # atno 6908 bound_to 6896
  151.5315  135.1071  159.9955 H   0  0  0  0  0  0  0  0  0  0  0  0  # atno 6909 bound_to 6896
  144.9035  139.5390  143.5742 H   0  0  0  0  0  0  0  0  0  0  0  0  # atno 7974 bound_to 7965
  154.3997  140.1438  156.3580 H   0  0  0  0  0  0  0  0  0  0  0  0  # atno 8008 bound_to 7997
  155.8208  140.3469  155.5492 H   0  0  0  0  0  0  0  0  0  0  0  0  # atno 8009 bound_to 7997
  155.8290  140.0909  157.1794 H   0  0  0  0  0  0  0  0  0  0  0  0  # atno 8010 bound_to 7997
  140.6546  143.2590  151.4623 H   0  0  0  0  0  0  0  0  0  0  0  0  # atno 10167 bound_to 10162
  156.1850  130.4151  149.9452 H   0  0  0  0  0  0  0  0  0  0  0  0  # atno 10718 bound_to 10713
  153.6965  135.6959  153.5075 H   0  0  0  0  0  0  0  0  0  0  0  0  # atno 10763 bound_to 10752
  153.2374  135.4317  155.0661 H   0  0  0  0  0  0  0  0  0  0  0  0  # atno 10764 bound_to 10752
  154.8357  135.3499  154.6505 H   0  0  0  0  0  0  0  0  0  0  0  0  # atno 10765 bound_to 10752
  141.0668  133.9445  157.2562 H   0  0  0  0  0  0  0  0  0  0  0  0  # atno 11005 bound_to 11000
  146.3121  139.7785  142.9011 LP  0  0  0  0  0  0  0  0  0  0  0  0  # atno 17320 bound_to 7965
  145.3575  141.0319  143.3303 LP  0  0  0  0  0  0  0  0  0  0  0  0  # atno 17321 bound_to 7965
  139.5766  144.1804  152.1912 LP  0  0  0  0  0  0  0  0  0  0  0  0  # atno 17342 bound_to 10162
  140.1117  144.5451  150.6921 LP  0  0  0  0  0  0  0  0  0  0  0  0  # atno 17343 bound_to 10162
  156.7211  130.9007  151.3618 LP  0  0  0  0  0  0  0  0  0  0  0  0  # atno 17370 bound_to 10713
  157.6893  130.9217  150.0470 LP  0  0  0  0  0  0  0  0  0  0  0  0  # atno 17371 bound_to 10713
  139.9485  135.0180  156.8923 LP  0  0  0  0  0  0  0  0  0  0  0  0  # atno 17394 bound_to 11000
  140.5756  134.0402  155.7445 LP  0  0  0  0  0  0  0  0  0  0  0  0  # atno 17395 bound_to 11000

$$$$
