AV-unprocessed.smi:1762|AV-procd|sdf|7112|dock10
  -GOLD-   22720 8343D 1   1.00000     0.00000
 Structure written by MMmdl.
 53 54  0  0  0  0  0  0  0  0  2 V2000
  145.5511  131.5107  150.5050 C   0  0  0  0  0  0  0  0  0  0  0  0
  145.6692  132.5616  151.6142 C   0  0  1  0  0  0  0  0  0  0  0  0
  146.8039  133.5692  151.3392 C   0  0  0  0  0  0  0  0  0  0  0  0
  146.8713  134.6101  152.4018 N   0  3  2  0  0  0  0  0  0  0  0  0
  147.4450  134.1824  153.7272 C   0  0  2  0  0  0  0  0  0  0  0  0
  147.5407  135.3749  154.7026 C   0  0  0  0  0  0  0  0  0  0  0  0
  146.8440  135.4030  155.7176 O   0  0  0  0  0  0  0  0  0  0  0  0
  148.4061  136.3490  154.3798 N   0  0  0  0  0  0  0  0  0  0  0  0
  148.6394  137.5549  155.1651 C   0  0  0  0  0  0  0  0  0  0  0  0
  149.7979  138.3887  154.5937 C   0  0  0  0  0  0  0  0  0  0  0  0
  150.1757  139.5388  155.5076 C   0  0  0  0  0  0  0  0  0  0  0  0
  150.5275  139.3037  156.8538 C   0  0  0  0  0  0  0  0  0  0  0  0
  150.8565  140.4079  157.6639 C   0  0  0  0  0  0  0  0  0  0  0  0
  150.8196  141.6977  157.0998 C   0  0  0  0  0  0  0  0  0  0  0  0
  150.4530  141.8266  155.7452 C   0  0  0  0  0  0  0  0  0  0  0  0
  150.1345  140.7744  154.9603 N   0  0  0  0  0  0  0  0  0  0  0  0
  148.8231  133.4467  153.6192 C   0  0  0  0  0  0  0  0  0  0  0  0
  148.6951  131.9702  153.1941 C   0  0  0  0  0  0  0  0  0  0  0  0
  149.6968  133.5576  154.8859 C   0  0  0  0  0  0  0  0  0  0  0  0
  145.5377  135.2736  152.4822 C   0  0  0  0  0  0  0  0  0  0  0  0
  144.4056  134.2487  152.7146 C   0  0  1  0  0  0  0  0  0  0  0  0
  143.0231  134.9096  152.7019 C   0  0  0  0  0  0  0  0  0  0  0  0
  144.4362  133.2712  151.6797 O   0  0  0  0  0  0  0  0  0  0  0  0
  146.4685  130.9283  150.4168 H   0  0  0  0  0  0  0  0  0  0  0  0
  145.3553  131.9759  149.5384 H   0  0  0  0  0  0  0  0  0  0  0  0
  144.7363  130.8163  150.7109 H   0  0  0  0  0  0  0  0  0  0  0  0
  145.8421  132.0446  152.5591 H   0  0  0  0  0  0  0  0  0  0  0  0
  147.7545  133.0643  151.1834 H   0  0  0  0  0  0  0  0  0  0  0  0
  146.6048  134.0742  150.3927 H   0  0  0  0  0  0  0  0  0  0  0  0
  146.7483  133.4667  154.1640 H   0  0  0  0  0  0  0  0  0  0  0  0
  148.9373  136.2523  153.5263 H   0  0  0  0  0  0  0  0  0  0  0  0
  147.7260  138.1502  155.2177 H   0  0  0  0  0  0  0  0  0  0  0  0
  148.8713  137.2521  156.1866 H   0  0  0  0  0  0  0  0  0  0  0  0
  150.6717  137.7553  154.4339 H   0  0  0  0  0  0  0  0  0  0  0  0
  149.5295  138.7901  153.6152 H   0  0  0  0  0  0  0  0  0  0  0  0
  150.5424  138.3024  157.2591 H   0  0  0  0  0  0  0  0  0  0  0  0
  151.1304  140.2683  158.6991 H   0  0  0  0  0  0  0  0  0  0  0  0
  151.0654  142.5677  157.6908 H   0  0  0  0  0  0  0  0  0  0  0  0
  150.4133  142.8005  155.2803 H   0  0  0  0  0  0  0  0  0  0  0  0
  149.3775  133.9032  152.8005 H   0  0  0  0  0  0  0  0  0  0  0  0
  148.2538  131.3538  153.9780 H   0  0  0  0  0  0  0  0  0  0  0  0
  149.6734  131.5463  152.9652 H   0  0  0  0  0  0  0  0  0  0  0  0
  148.0796  131.8681  152.3000 H   0  0  0  0  0  0  0  0  0  0  0  0
  149.2589  133.0197  155.7270 H   0  0  0  0  0  0  0  0  0  0  0  0
  149.8411  134.5921  155.1957 H   0  0  0  0  0  0  0  0  0  0  0  0
  150.6858  133.1330  154.7112 H   0  0  0  0  0  0  0  0  0  0  0  0
  145.5077  136.0524  153.2434 H   0  0  0  0  0  0  0  0  0  0  0  0
  145.3637  135.7905  151.5373 H   0  0  0  0  0  0  0  0  0  0  0  0
  144.5332  133.7532  153.6776 H   0  0  0  0  0  0  0  0  0  0  0  0
  142.9399  135.6581  153.4904 H   0  0  0  0  0  0  0  0  0  0  0  0
  142.2360  134.1721  152.8608 H   0  0  0  0  0  0  0  0  0  0  0  0
  142.8286  135.4036  151.7495 H   0  0  0  0  0  0  0  0  0  0  0  0
  147.5139  135.3120  152.0620 H   0  0  0  0  0  0  0  0  0  0  0  0
  1  2  1  0  0  0  0
  1 24  1  0  0  0  0
  1 25  1  0  0  0  0
  1 26  1  0  0  0  0
  2 23  1  0  0  0  0
  2  3  1  0  0  0  0
  2 27  1  0  0  0  0
  3  4  1  0  0  0  0
  3 28  1  0  0  0  0
  3 29  1  0  0  0  0
  4  5  1  0  0  0  0
  4 20  1  0  0  0  0
  4 53  1  0  0  0  0
  5  6  1  0  0  0  0
  5 17  1  0  0  0  0
  5 30  1  0  0  0  0
  6  7  2  0  0  0  0
  6  8  1  0  0  0  0
  8  9  1  0  0  0  0
  8 31  1  0  0  0  0
  9 10  1  0  0  0  0
  9 32  1  0  0  0  0
  9 33  1  0  0  0  0
 10 11  1  0  0  0  0
 10 34  1  0  0  0  0
 10 35  1  0  0  0  0
 11 16  1  0  0  0  0
 11 12  2  0  0  0  0
 12 13  1  0  0  0  0
 12 36  1  0  0  0  0
 13 14  2  0  0  0  0
 13 37  1  0  0  0  0
 14 15  1  0  0  0  0
 14 38  1  0  0  0  0
 15 16  2  0  0  0  0
 15 39  1  0  0  0  0
 17 18  1  0  0  0  0
 17 19  1  0  0  0  0
 17 40  1  0  0  0  0
 18 41  1  0  0  0  0
 18 42  1  0  0  0  0
 18 43  1  0  0  0  0
 19 44  1  0  0  0  0
 19 45  1  0  0  0  0
 19 46  1  0  0  0  0
 20 21  1  0  0  0  0
 20 47  1  0  0  0  0
 20 48  1  0  0  0  0
 21 22  1  0  0  0  0
 21 23  1  0  0  0  0
 21 49  1  0  0  0  0
 22 50  1  0  0  0  0
 22 51  1  0  0  0  0
 22 52  1  0  0  0  0
M  CHG  1   4   1
M  END
> <s_m_source_file>
AV-unprocessed.smi

> <i_m_source_file_index>
1762

> <i_lp_mmshare_version>
43012

> <i_f3d_flags>
0

> <s_epik_input>
W0NIM11bQ0BASF0xW0NIMl1OKFtDSDJdW0NASF0oTzEpW0NIM10pW0NAQEhdKFtDSF0oW0NIM10pW0NIM10pQyg9TylbTkhdW0NIMl1bQ0gyXWMyW2NIXVtjSF1bY0hdW2NIXW4y

> <s_epik_cmdline>
J2VwaWtfcHl0aG9uJywgJy1waCcsICc3LjAnLCAnLXRuJywgJzgnLCAnLW1hJywgJzIwMCcsICctbWV0YWxfYmluZGluZycsICctaW1hZScsICc8aW5maWxlLm1hZT4nLCAnLW9tYWUnLCAnPG91dGZpbGUubWFlPic=

> <r_epik_Ionization_Penalty>
2.27005

> <r_epik_Ionization_Penalty_Charging>
2.24983

> <r_epik_Ionization_Penalty_Neutral>
0.0202209

> <r_epik_State_Penalty>
2.40228

> <r_epik_Charging_Adjusted_Penalty>
4.65211

> <i_epik_Tot_Q>
1

> <i_epik_Tot_abs_Q>
1

> <r_epik_Metal_State_Penalty>
2.40762

> <b_epik_Metal_Only>
0

> <s_lp_Force_Field>
OPLS_2005

> <r_lp_Energy>
22.1735

> <b_lp_Chiralities_Consistent>
1

> <s_lp_Variant>
AV-unprocessed.smi:1762-14

> <Gold.Version>
5.8.1

> <Gold.Id.Protein>
6NUR|6NUR_protein|mol2

> <Gold.PLP.Fitness>
47.8737

> <Gold.PLP.PLP>
-34.6546

> <Gold.PLP.part.hbond>
-3.0000

> <Gold.PLP.part.metal>
0.0000

> <Gold.PLP.part.buried>
-3.3697

> <Gold.PLP.part.nonpolar>
-27.8941

> <Gold.PLP.part.repulsive>
0.2526

> <Gold.PLP.ligand.clash>
0.0000

> <Gold.PLP.ligand.torsion>
0.6965

> <Gold.PLP.Chemscore.Hbond>
3.8167

> <Gold.PLP.Chemscore.CHOScore>
0.9925

> <Gold.PLP.Chemscore.Metal>
0.0000

> <Gold.Chemscore.Hbonds>
donor molecule, donor type, donor heavy atom, donor atom, acceptor molecule, acceptor atom, score
      L1  H     4    53       P1  7948  2.00
      L1  H     8    31       P1  7948  0.99
      P1  H  7989  7998       L1    16  0.70
      L1  C    15    39       P1  8028  1.00

> <Gold.PLP.Chemscore.Internal.Correction>
0.1844

> <Gold.Rescore>
     Score         DG    S(hbond)    S(metal)    S(lipo)     H(rot)  DE(clash)    DE(int)     intcor
     19.16     -20.08       2.44        0.00      91.53       1.66       0.03       0.90       ----

> <Gold.Chemscore.Fitness>
19.1580

> <Gold.Chemscore.DG>
-20.0807

> <Gold.Chemscore.ZeroCoef>
-5.4800

> <Gold.Chemscore.Hbond>
2.4403

> <Gold.Chemscore.Metal>
0.0000

> <Gold.Chemscore.Lipo>
91.5283

> <Gold.Chemscore.Internal_Hbond>
0.0000

> <Gold.Chemscore.DEClash>
0.0265

> <Gold.Chemscore.DEInternal>
0.8962

> <Gold.Chemscore.Rot>
1.6635

> <Gold.Chemscore.Internal.Correction>
   9.000000E+99

> <Gold.Chemscore.Hbonds>
donor molecule, donor type, donor heavy atom, donor atom, acceptor molecule, acceptor atom, score
      L1  H     4    53       P1  7948  0.99
      L1  H     8    31       P1  7948  0.94
      P1  H  7989  7998       L1    16  0.14

> <Gold.Chemscore.Hbond.Weighted>
-8.1505

> <Gold.Chemscore.Metal.Weighted>
-0.0000

> <Gold.Chemscore.Lipo.Weighted>
-10.7088

> <Gold.Chemscore.Internal_Hbond.Weighted>
0.0000

> <Gold.Chemscore.DEClash.Weighted>
0.0265

> <Gold.Chemscore.DEInternal.Weighted>
0.8962

> <Gold.Chemscore.Rot.Weighted>
4.2586

> <Gold.Chemscore.Internal.Correction.Weighted>
   9.000000E+99

> <Gold.Protein.RotatedTorsions>
[ 6907 6896 6895 6894 ] final -149.02 input  -60.11 | X-H torsion
[ 7974 7965 7964 7962 ] final  -67.06 input  175.53 | X-H torsion
[ 8008 7997 7996 7995 ] final   20.27 input   59.86 | X-H torsion
[ 10167 10162 10161 10158 ] final  -99.69 input  -65.29 | X-H torsion
[ 10718 10713 10712 10709 ] final  167.67 input   66.30 | X-H torsion
[ 10763 10752 10751 10750 ] final  -31.86 input  -60.55 | X-H torsion
[ 11005 11000 10999 10996 ] final -149.37 input  -57.11 | X-H torsion

> <Gold.Protein.ActiveResidues>
 VAL166  LYS551  ARG553  GLY616  TRP617  ASP618  TYR619  PRO620  LYS621  CYS622 
 ASP623  PHE694  ASN695  SER759  ASP760  ASP761  ALA762  ILE779  LEU786  VAL792 
 PHE793  MET794  SER795  GLU796  ALA797  LYS798  CYS799  TRP800  GLU811  SER814 

> <Gold.Protein.RotatedAtoms>
  151.1781  133.4742  159.2593 H   0  0  0  0  0  0  0  0  0  0  0  0  # atno 6907 bound_to 6896
  151.1287  135.0118  159.8582 H   0  0  0  0  0  0  0  0  0  0  0  0  # atno 6908 bound_to 6896
  152.5459  134.1685  159.8640 H   0  0  0  0  0  0  0  0  0  0  0  0  # atno 6909 bound_to 6896
  145.7340  140.8984  143.0565 H   0  0  0  0  0  0  0  0  0  0  0  0  # atno 7974 bound_to 7965
  154.9331  140.3043  155.5158 H   0  0  0  0  0  0  0  0  0  0  0  0  # atno 8008 bound_to 7997
  156.3002  140.2350  156.4329 H   0  0  0  0  0  0  0  0  0  0  0  0  # atno 8009 bound_to 7997
  154.8218  140.0423  157.1405 H   0  0  0  0  0  0  0  0  0  0  0  0  # atno 8010 bound_to 7997
  140.2597  143.3415  152.0637 H   0  0  0  0  0  0  0  0  0  0  0  0  # atno 10167 bound_to 10162
  157.0481  131.0306  151.2690 H   0  0  0  0  0  0  0  0  0  0  0  0  # atno 10718 bound_to 10713
  153.8044  135.6887  153.4850 H   0  0  0  0  0  0  0  0  0  0  0  0  # atno 10763 bound_to 10752
  153.1668  135.4558  154.9847 H   0  0  0  0  0  0  0  0  0  0  0  0  # atno 10764 bound_to 10752
  154.7993  135.3331  154.7529 H   0  0  0  0  0  0  0  0  0  0  0  0  # atno 10765 bound_to 10752
  140.7514  134.3402  157.5125 H   0  0  0  0  0  0  0  0  0  0  0  0  # atno 11005 bound_to 11000
  144.6886  139.9370  143.7474 LP  0  0  0  0  0  0  0  0  0  0  0  0  # atno 17320 bound_to 7965
  146.0511  139.3512  143.0639 LP  0  0  0  0  0  0  0  0  0  0  0  0  # atno 17321 bound_to 7965
  139.5020  144.6726  151.6205 LP  0  0  0  0  0  0  0  0  0  0  0  0  # atno 17342 bound_to 10162
  140.5975  143.9669  150.6364 LP  0  0  0  0  0  0  0  0  0  0  0  0  # atno 17343 bound_to 10162
  157.5051  130.7904  149.7646 LP  0  0  0  0  0  0  0  0  0  0  0  0  # atno 17370 bound_to 10713
  156.0016  130.3877  150.2584 LP  0  0  0  0  0  0  0  0  0  0  0  0  # atno 17371 bound_to 10713
  139.8787  134.9144  156.3107 LP  0  0  0  0  0  0  0  0  0  0  0  0  # atno 17394 bound_to 11000
  140.9747  133.7305  156.0585 LP  0  0  0  0  0  0  0  0  0  0  0  0  # atno 17395 bound_to 11000

$$$$
