#       Name:                AV-unprocessed.smi:698
#       Creating user name   scv26
#       Creation time:       Fri Mar 27 00:37:54 2020


#       File generated by GOLD software.
#

@<TRIPOS>MOLECULE
AV-unprocessed.smi:698
    40    41     1
SMALL
NO_CHARGES


@<TRIPOS>ATOM
      1 ****        -5.1305  -1.7666   0.3821 C.3            1 S1                 0.0000
      2 ****        -3.6323  -1.4542   0.3646 C.3            1 S1                 0.0000
      3 ****        -2.9075  -2.6785   0.4386 O.3            1 S1                 0.0000
      4 ****        -1.5286  -2.6261   0.4470 C.ar           1 S1                 0.0000
      5 ****        -0.8061  -3.8321   0.5202 C.ar           1 S1                 0.0000
      6 ****         0.5988  -3.7732   0.5285 C.ar           1 S1                 0.0000
      7 ****         1.2269  -2.5148   0.4645 C.ar           1 S1                 0.0000
      8 ****         0.4351  -1.3475   0.3937 C.ar           1 S1                 0.0000
      9 ****         1.1593  -0.1279   0.3348 N.am           1 S1                 0.0000
     10 ****         0.6780   1.1270   0.2427 C.2            1 S1                 0.0000
     11 ****        -0.5195   1.4125   0.2102 O.2            1 S1                 0.0000
     12 ****         1.7192   2.2535   0.1971 C.3            1 S1                 0.0000
     13 ****         1.3855   3.3703  -0.7927 C.3            1 S1                 0.0000
     14 ****         2.7508   3.9761  -1.0333 C.3            1 S1                 0.0000
     15 ****         3.6710   2.7569  -0.9893 C.3            1 S1                 0.0000
     16 ****         2.9801   1.7550  -0.2464 O.3            1 S1                 0.0000
     17 ****        -0.9187  -1.4172   0.3854 N.ar           1 S1                 0.0000
     18 ****        -5.7194  -0.8506   0.3321 H              1 S1                 0.0000
     19 ****        -5.4091  -2.2940   1.2947 H              1 S1                 0.0000
     20 ****        -5.4102  -2.3913  -0.4664 H              1 S1                 0.0000
     21 ****        -3.3811  -0.9178  -0.5518 H              1 S1                 0.0000
     22 ****        -3.3839  -0.8116   1.2109 H              1 S1                 0.0000
     23 ****        -1.3191  -4.7811   0.5684 H              1 S1                 0.0000
     24 ****         1.1859  -4.6780   0.5831 H              1 S1                 0.0000
     25 ****         2.3055  -2.4514   0.4698 H              1 S1                 0.0000
     26 ****         2.1651  -0.2150   0.3527 H              1 S1                 0.0000
     27 ****         1.8457   2.6694   1.1980 H              1 S1                 0.0000
     28 ****         0.9830   2.9653  -1.7229 H              1 S1                 0.0000
     29 ****         0.6718   4.0920  -0.3940 H              1 S1                 0.0000
     30 ****         2.8166   4.5266  -1.9722 H              1 S1                 0.0000
     31 ****         2.9994   4.6601  -0.2206 H              1 S1                 0.0000
     32 ****         3.8551   2.3754  -1.9940 H              1 S1                 0.0000
     33 ****         4.6341   2.9902  -0.5348 H              1 S1                 0.0000
     34 ****        -3.1775  -3.2300  -0.3508 LP             1 S1                 0.0000
     35 ****        -3.1909  -3.1393   1.2796 LP             1 S1                 0.0000
     36 ****        -1.2076   0.6881   0.2531 LP             1 S1                 0.0000
     37 ****        -0.8039   2.3687   0.1409 LP             1 S1                 0.0000
     38 ****         2.8331   0.9548  -0.8279 LP             1 S1                 0.0000
     39 ****         3.5298   1.4939   0.5470 LP             1 S1                 0.0000
     40 ****        -1.4647  -0.5810   0.3341 LP             1 S1                 0.0000
@<TRIPOS>BOND
    1    1    2 1     
    2    1   18 1     
    3    1   19 1     
    4    1   20 1     
    5    2    3 1     
    6    2   21 1     
    7    2   22 1     
    8    3    4 1     
    9    4   17 ar    
   10    4    5 ar    
   11    5    6 ar    
   12    5   23 1     
   13    6    7 ar    
   14    6   24 1     
   15    7    8 ar    
   16    7   25 1     
   17    8    9 1     
   18    8   17 ar    
   19    9   10 am    
   20    9   26 1     
   21   10   11 2     
   22   10   12 1     
   23   12   16 1     
   24   12   13 1     
   25   12   27 1     
   26   13   14 1     
   27   13   28 1     
   28   13   29 1     
   29   14   15 1     
   30   14   30 1     
   31   14   31 1     
   32   15   16 1     
   33   15   32 1     
   34   15   33 1     
   35    3   34 1     
   36    3   35 1     
   37   11   36 1     
   38   11   37 1     
   39   16   38 1     
   40   16   39 1     
   41   17   40 1     
@<TRIPOS>SUBSTRUCTURE
      1 S1             1
@<TRIPOS>SET
LONE_PAIRS      STATIC     ATOMS    <user>   **** ""
7 34 35 36 37 38 39 40
DONOR_HYDROGENS      STATIC     ATOMS    <user>   **** ""
1 26
ATOM$BLUE        STATIC     ATOMS    COLORGROUP SYSTEM
7 34 35 36 37 38 39 40
ATOM$RED        STATIC     ATOMS    COLORGROUP SYSTEM
1 26
