AV-unprocessed.smi:1670|AV-procd|sdf|6693|dock3
  -GOLD-   22720 7423D 1   1.00000     0.00000
 Structure written by MMmdl.
 41 42  0  0  0  0  0  0  0  0  1 V2000
  148.0600  136.8242  156.1250 C   0  0  0  0  0  0  0  0  0  0  0  0
  148.7421  135.5864  155.5266 C   0  0  2  0  0  0  0  0  0  0  0  0
  150.2754  135.7603  155.4728 C   0  0  0  0  0  0  0  0  0  0  0  0
  150.6758  137.1444  155.2865 N   0  0  0  0  0  0  0  0  0  0  0  0
  150.2322  138.0429  154.3393 C   0  0  0  0  0  0  0  0  0  0  0  0
  150.8756  139.2253  154.5682 C   0  0  0  0  0  0  0  0  0  0  0  0
  151.7048  138.9473  155.6906 C   0  0  0  0  0  0  0  0  0  0  0  0
  151.5877  137.6994  156.1150 N   0  0  0  0  0  0  0  0  0  0  0  0
  148.1980  135.3416  154.1913 N   0  0  0  0  0  0  0  0  0  0  0  0
  147.1494  134.5547  153.9092 C   0  0  0  0  0  0  0  0  0  0  0  0
  146.4814  133.9670  154.7603 O   0  0  0  0  0  0  0  0  0  0  0  0
  146.9380  134.4710  152.5866 N   0  0  0  0  0  0  0  0  0  0  0  0
  145.9314  133.6608  151.8988 C   0  0  2  0  0  0  0  0  0  0  0  0
  146.5210  132.8458  150.7275 C   0  0  0  0  0  0  0  0  0  0  0  0
  145.4469  131.9525  150.0858 C   0  0  0  0  0  0  0  0  0  0  0  0
  144.2320  132.7836  149.6346 C   0  0  1  0  0  0  0  0  0  0  0  0
  143.2417  131.9234  149.1119 O   0  0  0  0  0  0  0  0  0  0  0  0
  143.6423  133.5929  150.8041 C   0  0  0  0  0  0  0  0  0  0  0  0
  144.7096  134.4918  151.4490 C   0  0  0  0  0  0  0  0  0  0  0  0
  148.4204  137.0195  157.1353 H   0  0  0  0  0  0  0  0  0  0  0  0
  146.9797  136.6879  156.1831 H   0  0  0  0  0  0  0  0  0  0  0  0
  148.2526  137.7145  155.5252 H   0  0  0  0  0  0  0  0  0  0  0  0
  148.5090  134.7440  156.1804 H   0  0  0  0  0  0  0  0  0  0  0  0
  150.7392  135.3699  156.3805 H   0  0  0  0  0  0  0  0  0  0  0  0
  150.6861  135.1837  154.6430 H   0  0  0  0  0  0  0  0  0  0  0  0
  149.4987  137.7703  153.5946 H   0  0  0  0  0  0  0  0  0  0  0  0
  150.7670  140.1491  154.0195 H   0  0  0  0  0  0  0  0  0  0  0  0
  152.3852  139.6100  156.2049 H   0  0  0  0  0  0  0  0  0  0  0  0
  148.6828  135.7763  153.4198 H   0  0  0  0  0  0  0  0  0  0  0  0
  147.5547  135.0024  151.9897 H   0  0  0  0  0  0  0  0  0  0  0  0
  145.5829  132.9486  152.6479 H   0  0  0  0  0  0  0  0  0  0  0  0
  146.9292  133.5101  149.9653 H   0  0  0  0  0  0  0  0  0  0  0  0
  147.3498  132.2301  151.0784 H   0  0  0  0  0  0  0  0  0  0  0  0
  145.8726  131.4176  149.2359 H   0  0  0  0  0  0  0  0  0  0  0  0
  145.1321  131.1940  150.8040 H   0  0  0  0  0  0  0  0  0  0  0  0
  144.5365  133.4662  148.8401 H   0  0  0  0  0  0  0  0  0  0  0  0
  142.4448  132.4179  148.9968 H   0  0  0  0  0  0  0  0  0  0  0  0
  142.8079  134.2029  150.4556 H   0  0  0  0  0  0  0  0  0  0  0  0
  143.2375  132.9154  151.5573 H   0  0  0  0  0  0  0  0  0  0  0  0
  144.2802  135.0193  152.3015 H   0  0  0  0  0  0  0  0  0  0  0  0
  145.0086  135.2566  150.7317 H   0  0  0  0  0  0  0  0  0  0  0  0
  1  2  1  0  0  0  0
  1 20  1  0  0  0  0
  1 21  1  0  0  0  0
  1 22  1  0  0  0  0
  2  3  1  0  0  0  0
  2  9  1  0  0  0  0
  2 23  1  0  0  0  0
  3  4  1  0  0  0  0
  3 24  1  0  0  0  0
  3 25  1  0  0  0  0
  4  8  1  0  0  0  0
  4  5  1  0  0  0  0
  5  6  2  0  0  0  0
  5 26  1  0  0  0  0
  6  7  1  0  0  0  0
  6 27  1  0  0  0  0
  7  8  2  0  0  0  0
  7 28  1  0  0  0  0
  9 10  1  0  0  0  0
  9 29  1  0  0  0  0
 10 11  2  0  0  0  0
 10 12  1  0  0  0  0
 12 13  1  0  0  0  0
 12 30  1  0  0  0  0
 13 19  1  0  0  0  0
 13 14  1  0  0  0  0
 13 31  1  0  0  0  0
 14 15  1  0  0  0  0
 14 32  1  0  0  0  0
 14 33  1  0  0  0  0
 15 16  1  0  0  0  0
 15 34  1  0  0  0  0
 15 35  1  0  0  0  0
 16 17  1  0  0  0  0
 16 18  1  0  0  0  0
 16 36  1  0  0  0  0
 17 37  1  0  0  0  0
 18 19  1  0  0  0  0
 18 38  1  0  0  0  0
 18 39  1  0  0  0  0
 19 40  1  0  0  0  0
 19 41  1  0  0  0  0
M  END
> <s_m_source_file>
AV-unprocessed.smi

> <i_m_source_file_index>
1670

> <i_lp_mmshare_version>
43012

> <i_f3d_flags>
0

> <s_epik_input>
bjFbY0hdW2NIXVtjSF1uMVtDSDJdW0NAQEhdKFtDSDNdKVtOSF1DKD1PKVtOSF1bQ0BASF0yW0NIMl1bQ0gyXVtDQEBIXShbT0hdKVtDSDJdW0NIMl0y

> <s_epik_cmdline>
J2VwaWtfcHl0aG9uJywgJy1waCcsICc3LjAnLCAnLXRuJywgJzgnLCAnLW1hJywgJzIwMCcsICctbWV0YWxfYmluZGluZycsICctaW1hZScsICc8aW5maWxlLm1hZT4nLCAnLW9tYWUnLCAnPG91dGZpbGUubWFlPic=

> <r_lp_tautomer_probability>
1

> <r_epik_Ionization_Penalty>
7.33369e-05

> <r_epik_Ionization_Penalty_Charging>
0

> <r_epik_Ionization_Penalty_Neutral>
7.33369e-05

> <r_epik_State_Penalty>
-0

> <r_epik_Charging_Adjusted_Penalty>
0

> <i_epik_Tot_Q>
0

> <i_epik_Tot_abs_Q>
0

> <r_epik_Metal_State_Penalty>
-0

> <b_epik_Metal_Only>
0

> <s_lp_Force_Field>
OPLS_2005

> <r_lp_Energy>
5.26958

> <b_lp_Chiralities_Consistent>
1

> <s_lp_Variant>
AV-unprocessed.smi:1670-1

> <Gold.Version>
5.8.1

> <Gold.Id.Protein>
6NUR|6NUR_protein|mol2

> <Gold.PLP.Fitness>
46.5060

> <Gold.PLP.PLP>
-34.9550

> <Gold.PLP.part.hbond>
-5.5541

> <Gold.PLP.part.metal>
0.0000

> <Gold.PLP.part.buried>
-2.7705

> <Gold.PLP.part.nonpolar>
-26.8004

> <Gold.PLP.part.repulsive>
0.0705

> <Gold.PLP.ligand.clash>
0.0000

> <Gold.PLP.ligand.torsion>
1.0044

> <Gold.PLP.Chemscore.Hbond>
3.5035

> <Gold.PLP.Chemscore.CHOScore>
1.0000

> <Gold.PLP.Chemscore.Metal>
0.0000

> <Gold.Chemscore.Hbonds>
donor molecule, donor type, donor heavy atom, donor atom, acceptor molecule, acceptor atom, score
      L1  H     9    29       P1  7948  1.00
      L1  H    12    30       P1  7948  0.99
      P1  H 10785 10796       L1    17  1.00
      L1  C     5    26       P1  7948  1.00

> <Gold.PLP.Chemscore.Internal.Correction>
0.0492

> <Gold.Rescore>
     Score         DG    S(hbond)    S(metal)    S(lipo)     H(rot)  DE(clash)    DE(int)     intcor
     18.68     -19.58       3.18        0.00      78.22       2.22       0.18       0.72       ----

> <Gold.Chemscore.Fitness>
18.6775

> <Gold.Chemscore.DG>
-19.5760

> <Gold.Chemscore.ZeroCoef>
-5.4800

> <Gold.Chemscore.Hbond>
3.1835

> <Gold.Chemscore.Metal>
0.0000

> <Gold.Chemscore.Lipo>
78.2244

> <Gold.Chemscore.Internal_Hbond>
0.0000

> <Gold.Chemscore.DEClash>
0.1778

> <Gold.Chemscore.DEInternal>
0.7207

> <Gold.Chemscore.Rot>
2.2224

> <Gold.Chemscore.Internal.Correction>
   9.000000E+99

> <Gold.Chemscore.Hbonds>
donor molecule, donor type, donor heavy atom, donor atom, acceptor molecule, acceptor atom, score
      L1  H     9    29       P1  7948  0.98
      L1  H    12    30       P1  7948  0.82
      L1  H    17    37       P1 10186  0.01
      P1  H 10785 10796       L1    17  0.93

> <Gold.Chemscore.Hbond.Weighted>
-10.6330

> <Gold.Chemscore.Metal.Weighted>
-0.0000

> <Gold.Chemscore.Lipo.Weighted>
-9.1523

> <Gold.Chemscore.Internal_Hbond.Weighted>
0.0000

> <Gold.Chemscore.DEClash.Weighted>
0.1778

> <Gold.Chemscore.DEInternal.Weighted>
0.7207

> <Gold.Chemscore.Rot.Weighted>
5.6893

> <Gold.Chemscore.Internal.Correction.Weighted>
   9.000000E+99

> <Gold.Protein.RotatedTorsions>
[ 6907 6896 6895 6894 ] final  -82.57 input  -60.11 | X-H torsion
[ 7974 7965 7964 7962 ] final -180.00 input  175.53 | X-H torsion
[ 8008 7997 7996 7995 ] final -119.10 input   59.86 | X-H torsion
[ 10167 10162 10161 10158 ] final  -35.31 input  -65.29 | X-H torsion
[ 10718 10713 10712 10709 ] final   32.02 input   66.30 | X-H torsion
[ 10763 10752 10751 10750 ] final  -55.10 input  -60.55 | X-H torsion
[ 11005 11000 10999 10996 ] final -149.40 input  -57.11 | X-H torsion

> <Gold.Protein.ActiveResidues>
 VAL166  LYS551  ARG553  GLY616  TRP617  ASP618  TYR619  PRO620  LYS621  CYS622 
 ASP623  PHE694  ASN695  SER759  ASP760  ASP761  ALA762  ILE779  LEU786  VAL792 
 PHE793  MET794  SER795  GLU796  ALA797  LYS798  CYS799  TRP800  GLU811  SER814 

> <Gold.Protein.RotatedAtoms>
  150.6896  134.3645  159.4964 H   0  0  0  0  0  0  0  0  0  0  0  0  # atno 6907 bound_to 6896
  152.1469  134.9016  160.0559 H   0  0  0  0  0  0  0  0  0  0  0  0  # atno 6908 bound_to 6896
  152.0128  133.3833  159.4263 H   0  0  0  0  0  0  0  0  0  0  0  0  # atno 6909 bound_to 6896
  144.7141  140.0634  143.6432 H   0  0  0  0  0  0  0  0  0  0  0  0  # atno 7974 bound_to 7965
  155.1102  140.0397  157.2722 H   0  0  0  0  0  0  0  0  0  0  0  0  # atno 8008 bound_to 7997
  154.6691  140.2608  155.7001 H   0  0  0  0  0  0  0  0  0  0  0  0  # atno 8009 bound_to 7997
  156.2651  140.2801  156.1193 H   0  0  0  0  0  0  0  0  0  0  0  0  # atno 8010 bound_to 7997
  140.7168  143.3486  151.2203 H   0  0  0  0  0  0  0  0  0  0  0  0  # atno 10167 bound_to 10162
  157.2799  130.7250  149.6550 H   0  0  0  0  0  0  0  0  0  0  0  0  # atno 10718 bound_to 10713
  154.1855  135.6436  153.5045 H   0  0  0  0  0  0  0  0  0  0  0  0  # atno 10763 bound_to 10752
  153.0048  135.5416  154.6470 H   0  0  0  0  0  0  0  0  0  0  0  0  # atno 10764 bound_to 10752
  154.5845  135.2928  155.0672 H   0  0  0  0  0  0  0  0  0  0  0  0  # atno 10765 bound_to 10752
  140.7512  134.3405  157.5125 H   0  0  0  0  0  0  0  0  0  0  0  0  # atno 11005 bound_to 11000
  145.9845  139.2967  143.1022 LP  0  0  0  0  0  0  0  0  0  0  0  0  # atno 17320 bound_to 7965
  145.8973  140.9265  143.0521 LP  0  0  0  0  0  0  0  0  0  0  0  0  # atno 17321 bound_to 7965
  139.7012  143.9530  152.2906 LP  0  0  0  0  0  0  0  0  0  0  0  0  # atno 17342 bound_to 10162
  139.9224  144.6791  150.8448 LP  0  0  0  0  0  0  0  0  0  0  0  0  # atno 17343 bound_to 10162
  155.9664  130.4341  150.5036 LP  0  0  0  0  0  0  0  0  0  0  0  0  # atno 17370 bound_to 10713
  157.2977  131.0639  151.2090 LP  0  0  0  0  0  0  0  0  0  0  0  0  # atno 17371 bound_to 10713
  139.8787  134.9143  156.3103 LP  0  0  0  0  0  0  0  0  0  0  0  0  # atno 17394 bound_to 11000
  140.9749  133.7304  156.0588 LP  0  0  0  0  0  0  0  0  0  0  0  0  # atno 17395 bound_to 11000

$$$$
