AV-unprocessed.smi:3251|AV-procd|sdf|12436|dock6
  -GOLD-   2272018323D 1   1.00000     0.00000
 Structure written by MMmdl.
 41 42  0  0  0  0  0  0  0  0  2 V2000
  152.1672  141.0636  158.6702 C   0  0  0  0  0  0  0  0  0  0  0  0
  151.9201  140.0958  157.5489 C   0  0  0  0  0  0  0  0  0  0  0  0
  152.3890  138.7565  157.4329 C   0  0  0  0  0  0  0  0  0  0  0  0
  151.9926  138.1683  156.3159 N   0  0  0  0  0  0  0  0  0  0  0  0
  151.2599  139.1078  155.6814 N   0  0  0  0  0  0  0  0  0  0  0  0
  150.6482  138.8036  154.4004 C   0  0  0  0  0  0  0  0  0  0  0  0
  149.1181  138.9353  154.4441 C   0  0  0  0  0  0  0  0  0  0  0  0
  148.5111  138.6471  153.1256 N   0  3  0  0  0  0  0  0  0  0  0  0
  147.0356  138.7569  153.0708 C   0  0  1  0  0  0  0  0  0  0  0  0
  146.6365  140.2412  153.0503 C   0  0  0  0  0  0  0  0  0  0  0  0
  146.4588  138.0397  151.8331 C   0  0  0  0  0  0  0  0  0  0  0  0
  146.7618  138.4526  150.7123 O   0  0  0  0  0  0  0  0  0  0  0  0
  145.6295  136.9878  152.0056 N   0  0  0  0  0  0  0  0  0  0  0  0
  145.0368  136.2458  150.8937 C   0  0  0  0  0  0  0  0  0  0  0  0
  144.3994  135.0029  151.5148 C   0  0  0  0  0  0  0  0  0  0  0  0
  144.0976  135.4183  152.9472 C   0  0  0  0  0  0  0  0  0  0  0  0
  145.2007  136.4212  153.2849 C   0  0  0  0  0  0  0  0  0  0  0  0
  151.1982  140.2804  156.4038 C   0  0  0  0  0  0  0  0  0  0  0  0
  153.1629  140.9412  159.0971 H   0  0  0  0  0  0  0  0  0  0  0  0
  151.4512  140.9291  159.4810 H   0  0  0  0  0  0  0  0  0  0  0  0
  152.0869  142.0988  158.3378 H   0  0  0  0  0  0  0  0  0  0  0  0
  153.0031  138.1978  158.1239 H   0  0  0  0  0  0  0  0  0  0  0  0
  151.0564  139.4908  153.6583 H   0  0  0  0  0  0  0  0  0  0  0  0
  150.9433  137.7995  154.0911 H   0  0  0  0  0  0  0  0  0  0  0  0
  148.7138  138.2635  155.2023 H   0  0  0  0  0  0  0  0  0  0  0  0
  148.8468  139.9487  154.7409 H   0  0  0  0  0  0  0  0  0  0  0  0
  148.9017  139.2978  152.4596 H   0  0  0  0  0  0  0  0  0  0  0  0
  146.6484  138.3098  153.9864 H   0  0  0  0  0  0  0  0  0  0  0  0
  145.5535  140.3669  153.0223 H   0  0  0  0  0  0  0  0  0  0  0  0
  147.0508  140.7550  152.1816 H   0  0  0  0  0  0  0  0  0  0  0  0
  146.9991  140.7547  153.9412 H   0  0  0  0  0  0  0  0  0  0  0  0
  144.2774  136.8680  150.4173 H   0  0  0  0  0  0  0  0  0  0  0  0
  145.7759  135.9746  150.1381 H   0  0  0  0  0  0  0  0  0  0  0  0
  143.5133  134.6668  150.9755 H   0  0  0  0  0  0  0  0  0  0  0  0
  145.1203  134.1842  151.5163 H   0  0  0  0  0  0  0  0  0  0  0  0
  143.1271  135.9149  152.9857 H   0  0  0  0  0  0  0  0  0  0  0  0
  144.0679  134.5734  153.6358 H   0  0  0  0  0  0  0  0  0  0  0  0
  146.0457  135.9101  153.7488 H   0  0  0  0  0  0  0  0  0  0  0  0
  144.8367  137.1794  153.9786 H   0  0  0  0  0  0  0  0  0  0  0  0
  150.6511  141.1411  156.0475 H   0  0  0  0  0  0  0  0  0  0  0  0
  148.7703  137.7108  152.8467 H   0  0  0  0  0  0  0  0  0  0  0  0
  1  2  1  0  0  0  0
  1 19  1  0  0  0  0
  1 20  1  0  0  0  0
  1 21  1  0  0  0  0
  2 18  2  0  0  0  0
  2  3  1  0  0  0  0
  3  4  2  0  0  0  0
  3 22  1  0  0  0  0
  4  5  1  0  0  0  0
  5  6  1  0  0  0  0
  5 18  1  0  0  0  0
  6  7  1  0  0  0  0
  6 23  1  0  0  0  0
  6 24  1  0  0  0  0
  7  8  1  0  0  0  0
  7 25  1  0  0  0  0
  7 26  1  0  0  0  0
  8  9  1  0  0  0  0
  8 27  1  0  0  0  0
  8 41  1  0  0  0  0
  9 10  1  0  0  0  0
  9 11  1  0  0  0  0
  9 28  1  0  0  0  0
 10 29  1  0  0  0  0
 10 30  1  0  0  0  0
 10 31  1  0  0  0  0
 11 12  2  0  0  0  0
 11 13  1  0  0  0  0
 13 17  1  0  0  0  0
 13 14  1  0  0  0  0
 14 15  1  0  0  0  0
 14 32  1  0  0  0  0
 14 33  1  0  0  0  0
 15 16  1  0  0  0  0
 15 34  1  0  0  0  0
 15 35  1  0  0  0  0
 16 17  1  0  0  0  0
 16 36  1  0  0  0  0
 16 37  1  0  0  0  0
 17 38  1  0  0  0  0
 17 39  1  0  0  0  0
 18 40  1  0  0  0  0
M  CHG  1   8   1
M  END
> <s_m_source_file>
AV-unprocessed.smi

> <i_m_source_file_index>
3251

> <i_lp_mmshare_version>
43012

> <i_f3d_flags>
0

> <s_epik_input>
W0NIM11jMVtjSF1ubihbY0hdMSlbQ0gyXVtDSDJdW05IXVtDQEhdKFtDSDNdKUMoPU8pTjJbQ0gyXVtDSDJdW0NIMl1bQ0gyXTI=

> <s_epik_cmdline>
J2VwaWtfcHl0aG9uJywgJy1waCcsICc3LjAnLCAnLXRuJywgJzgnLCAnLW1hJywgJzIwMCcsICctbWV0YWxfYmluZGluZycsICctaW1hZScsICc8aW5maWxlLm1hZT4nLCAnLW9tYWUnLCAnPG91dGZpbGUubWFlPic=

> <r_lp_tautomer_probability>
1

> <r_epik_Ionization_Penalty>
0.203173

> <r_epik_Ionization_Penalty_Charging>
0.203168

> <r_epik_Ionization_Penalty_Neutral>
5.06494e-06

> <r_epik_State_Penalty>
0.193072

> <r_epik_Charging_Adjusted_Penalty>
0.39624

> <i_epik_Tot_Q>
1

> <i_epik_Tot_abs_Q>
1

> <r_epik_Metal_State_Penalty>
0.193587

> <b_epik_Metal_Only>
0

> <s_lp_Force_Field>
OPLS_2005

> <r_lp_Energy>
29.7429

> <b_lp_Chiralities_Consistent>
1

> <s_lp_Variant>
AV-unprocessed.smi:3251-2

> <Gold.Version>
5.8.1

> <Gold.Id.Protein>
6NUR|6NUR_protein|mol2

> <Gold.PLP.Fitness>
41.9247

> <Gold.PLP.PLP>
-30.1802

> <Gold.PLP.part.hbond>
-3.0000

> <Gold.PLP.part.metal>
0.0000

> <Gold.PLP.part.buried>
0.2645

> <Gold.PLP.part.nonpolar>
-29.3110

> <Gold.PLP.part.repulsive>
0.9401

> <Gold.PLP.ligand.clash>
0.0000

> <Gold.PLP.ligand.torsion>
0.1486

> <Gold.PLP.Chemscore.Hbond>
3.9920

> <Gold.PLP.Chemscore.CHOScore>
0.0000

> <Gold.PLP.Chemscore.Metal>
0.0000

> <Gold.Chemscore.Hbonds>
donor molecule, donor type, donor heavy atom, donor atom, acceptor molecule, acceptor atom, score
      L1  H     8    27       P1  7957  1.00
      L1  H     8    41       P1  7948  2.00
      P1  H  7954  7966       L1    12  0.94

> <Gold.PLP.Chemscore.Internal.Correction>
0.0657

> <Gold.Rescore>
     Score         DG    S(hbond)    S(metal)    S(lipo)     H(rot)  DE(clash)    DE(int)     intcor
     17.47     -18.98       2.94        0.00      70.00       1.76       1.33       0.18       ----

> <Gold.Chemscore.Fitness>
17.4671

> <Gold.Chemscore.DG>
-18.9776

> <Gold.Chemscore.ZeroCoef>
-5.4800

> <Gold.Chemscore.Hbond>
2.9381

> <Gold.Chemscore.Metal>
0.0000

> <Gold.Chemscore.Lipo>
69.9986

> <Gold.Chemscore.Internal_Hbond>
0.0000

> <Gold.Chemscore.DEClash>
1.3287

> <Gold.Chemscore.DEInternal>
0.1819

> <Gold.Chemscore.Rot>
1.7599

> <Gold.Chemscore.Internal.Correction>
   9.000000E+99

> <Gold.Chemscore.Hbonds>
donor molecule, donor type, donor heavy atom, donor atom, acceptor molecule, acceptor atom, score
      L1  H     8    27       P1  7957  1.00
      L1  H     8    41       P1  7948  1.00
      P1  H  7954  7966       L1    12  0.90

> <Gold.Chemscore.Hbond.Weighted>
-9.8131

> <Gold.Chemscore.Metal.Weighted>
-0.0000

> <Gold.Chemscore.Lipo.Weighted>
-8.1898

> <Gold.Chemscore.Internal_Hbond.Weighted>
0.0000

> <Gold.Chemscore.DEClash.Weighted>
1.3287

> <Gold.Chemscore.DEInternal.Weighted>
0.1819

> <Gold.Chemscore.Rot.Weighted>
4.5053

> <Gold.Chemscore.Internal.Correction.Weighted>
   9.000000E+99

> <Gold.Protein.RotatedTorsions>
[ 6907 6896 6895 6894 ] final  -56.15 input  -60.11 | X-H torsion
[ 7974 7965 7964 7962 ] final   90.68 input  175.53 | X-H torsion
[ 8008 7997 7996 7995 ] final -138.51 input   59.86 | X-H torsion
[ 10167 10162 10161 10158 ] final  125.80 input  -65.29 | X-H torsion
[ 10718 10713 10712 10709 ] final   51.66 input   66.30 | X-H torsion
[ 10763 10752 10751 10750 ] final -126.16 input  -60.55 | X-H torsion
[ 11005 11000 10999 10996 ] final   -1.09 input  -57.11 | X-H torsion

> <Gold.Protein.ActiveResidues>
 VAL166  LYS551  ARG553  GLY616  TRP617  ASP618  TYR619  PRO620  LYS621  CYS622 
 ASP623  PHE694  ASN695  SER759  ASP760  ASP761  ALA762  ILE779  LEU786  VAL792 
 PHE793  MET794  SER795  GLU796  ALA797  LYS798  CYS799  TRP800  GLU811  SER814 

> <Gold.Protein.RotatedAtoms>
  150.8192  134.7390  159.6756 H   0  0  0  0  0  0  0  0  0  0  0  0  # atno 6907 bound_to 6896
  152.4308  134.5777  159.9949 H   0  0  0  0  0  0  0  0  0  0  0  0  # atno 6908 bound_to 6896
  151.5966  133.3323  159.3074 H   0  0  0  0  0  0  0  0  0  0  0  0  # atno 6909 bound_to 6896
  145.5157  139.2278  143.2699 H   0  0  0  0  0  0  0  0  0  0  0  0  # atno 7974 bound_to 7965
  155.4295  140.0524  157.3019 H   0  0  0  0  0  0  0  0  0  0  0  0  # atno 8008 bound_to 7997
  154.4866  140.2103  155.9600 H   0  0  0  0  0  0  0  0  0  0  0  0  # atno 8009 bound_to 7997
  156.1283  140.3176  155.8316 H   0  0  0  0  0  0  0  0  0  0  0  0  # atno 8010 bound_to 7997
  139.5666  144.6914  151.3894 H   0  0  0  0  0  0  0  0  0  0  0  0  # atno 10167 bound_to 10162
  157.5002  130.8433  149.8307 H   0  0  0  0  0  0  0  0  0  0  0  0  # atno 10718 bound_to 10713
  154.8743  135.4005  154.3385 H   0  0  0  0  0  0  0  0  0  0  0  0  # atno 10763 bound_to 10752
  153.4188  135.7022  153.6313 H   0  0  0  0  0  0  0  0  0  0  0  0  # atno 10764 bound_to 10752
  153.4985  135.3733  155.2498 H   0  0  0  0  0  0  0  0  0  0  0  0  # atno 10765 bound_to 10752
  140.6435  133.9468  155.8339 H   0  0  0  0  0  0  0  0  0  0  0  0  # atno 11005 bound_to 11000
  146.2138  140.5967  142.9048 LP  0  0  0  0  0  0  0  0  0  0  0  0  # atno 17320 bound_to 7965
  144.7703  140.5622  143.6675 LP  0  0  0  0  0  0  0  0  0  0  0  0  # atno 17321 bound_to 7965
  140.6949  143.7772  150.7312 LP  0  0  0  0  0  0  0  0  0  0  0  0  # atno 17342 bound_to 10162
  140.1266  143.4564  152.2280 LP  0  0  0  0  0  0  0  0  0  0  0  0  # atno 17343 bound_to 10162
  156.0224  130.3791  150.1921 LP  0  0  0  0  0  0  0  0  0  0  0  0  # atno 17370 bound_to 10713
  157.0111  130.9951  151.3365 LP  0  0  0  0  0  0  0  0  0  0  0  0  # atno 17371 bound_to 10713
  141.0589  134.0375  157.3685 LP  0  0  0  0  0  0  0  0  0  0  0  0  # atno 17394 bound_to 11000
  139.9071  135.0182  156.7535 LP  0  0  0  0  0  0  0  0  0  0  0  0  # atno 17395 bound_to 11000

$$$$
