#       Name:                AV-unprocessed.smi:1672
#       Creating user name   scv26
#       Creation time:       Fri Mar 27 07:44:14 2020


#       File generated by GOLD software.
#

@<TRIPOS>MOLECULE
AV-unprocessed.smi:1672
    53    55     1
SMALL
NO_CHARGES


@<TRIPOS>ATOM
      1 ****        -4.1340  -3.3685  -2.0883 C.3            1 S1                 0.0000
      2 ****        -4.2114  -1.9037  -1.6233 C.3            1 S1                 0.0000
      3 ****        -3.5882  -0.9243  -2.6348 C.3            1 S1                 0.0000
      4 ****        -2.0501  -0.9825  -2.6307 C.3            1 S1                 0.0000
      5 ****        -1.5066  -0.7419  -1.2695 N.4            1 S1                 1.0000
      6 ****        -0.0239  -0.6456  -1.2642 C.3            1 S1                 0.0000
      7 ****         0.5134   0.1725  -0.0738 C.3            1 S1                 0.0000
      8 ****         0.0473   1.5021  -0.1951 O.3            1 S1                 0.0000
      9 ****         2.0549   0.1653  -0.0278 C.3            1 S1                 0.0000
     10 ****         2.5895   0.8671   1.1331 N.pl3          1 S1                 0.0000
     11 ****         2.9055   0.3598   2.3528 C.2            1 S1                 0.0000
     12 ****         2.7557  -1.0939   2.6880 C.3            1 S1                 0.0000
     13 ****         1.4096  -1.4992   2.8142 O.3            1 S1                 0.0000
     14 ****         3.3720   1.2372   3.2417 N.2            1 S1                 0.0000
     15 ****         3.3706   2.4218   2.5323 C.ar           1 S1                 0.0000
     16 ****         3.7583   3.7245   2.9196 C.ar           1 S1                 0.0000
     17 ****         3.6699   4.7963   2.0073 C.ar           1 S1                 0.0000
     18 ****         3.1949   4.5810   0.6974 C.ar           1 S1                 0.0000
     19 ****         2.8038   3.2908   0.2912 C.ar           1 S1                 0.0000
     20 ****         2.8915   2.2244   1.2065 C.ar           1 S1                 0.0000
     21 ****        -2.0384  -1.7242  -0.2874 C.3            1 S1                 0.0000
     22 ****        -3.5763  -1.6828  -0.2382 C.3            1 S1                 0.0000
     23 ****        -3.1064  -3.7106  -2.2061 H              1 S1                 0.0000
     24 ****        -4.6364  -3.4995  -3.0472 H              1 S1                 0.0000
     25 ****        -4.6218  -4.0307  -1.3724 H              1 S1                 0.0000
     26 ****        -5.2721  -1.6623  -1.5414 H              1 S1                 0.0000
     27 ****        -3.9680  -1.1224  -3.6379 H              1 S1                 0.0000
     28 ****        -3.9029   0.0909  -2.3885 H              1 S1                 0.0000
     29 ****        -1.6996  -1.9468  -3.0010 H              1 S1                 0.0000
     30 ****        -1.6682  -0.2256  -3.3170 H              1 S1                 0.0000
     31 ****         0.4003  -1.6507  -1.2636 H              1 S1                 0.0000
     32 ****         0.3190  -0.1733  -2.1865 H              1 S1                 0.0000
     33 ****         0.1331  -0.2289   0.8633 H              1 S1                 0.0000
     34 ****         0.3800   2.0037   0.5345 H              1 S1                 0.0000
     35 ****         2.4263  -0.8591  -0.0253 H              1 S1                 0.0000
     36 ****         2.4626   0.6268  -0.9284 H              1 S1                 0.0000
     37 ****         3.2525  -1.7001   1.9307 H              1 S1                 0.0000
     38 ****         3.2647  -1.2989   3.6307 H              1 S1                 0.0000
     39 ****         1.3953  -2.4040   3.0872 H              1 S1                 0.0000
     40 ****         4.1252   3.8997   3.9200 H              1 S1                 0.0000
     41 ****         3.9694   5.7879   2.3135 H              1 S1                 0.0000
     42 ****         3.1313   5.4074   0.0046 H              1 S1                 0.0000
     43 ****         2.4394   3.1248  -0.7117 H              1 S1                 0.0000
     44 ****        -1.6923  -2.7257  -0.5459 H              1 S1                 0.0000
     45 ****        -1.6538  -1.5123   0.7093 H              1 S1                 0.0000
     46 ****        -3.8904  -0.7119   0.1476 H              1 S1                 0.0000
     47 ****        -3.9485  -2.4232   0.4709 H              1 S1                 0.0000
     48 ****        -1.8455   0.1682  -0.9903 H              1 S1                 0.0000
     49 ****        -0.9526   1.5117  -0.1833 LP             1 S1                 0.0000
     50 ****         0.3742   1.8974  -1.0535 LP             1 S1                 0.0000
     51 ****         0.9443  -1.4044   1.9341 LP             1 S1                 0.0000
     52 ****         0.9488  -0.9328   3.4975 LP             1 S1                 0.0000
     53 ****         3.6532   1.0770   4.1879 LP             1 S1                 0.0000
@<TRIPOS>BOND
    1    1    2 1     
    2    1   23 1     
    3    1   24 1     
    4    1   25 1     
    5    2   22 1     
    6    2    3 1     
    7    2   26 1     
    8    3    4 1     
    9    3   27 1     
   10    3   28 1     
   11    4    5 1     
   12    4   29 1     
   13    4   30 1     
   14    5    6 1     
   15    5   21 1     
   16    5   48 1     
   17    6    7 1     
   18    6   31 1     
   19    6   32 1     
   20    7    8 1     
   21    7    9 1     
   22    7   33 1     
   23    8   34 1     
   24    9   10 1     
   25    9   35 1     
   26    9   36 1     
   27   10   20 1     
   28   10   11 1     
   29   11   12 1     
   30   11   14 2     
   31   12   13 1     
   32   12   37 1     
   33   12   38 1     
   34   13   39 1     
   35   14   15 1     
   36   15   20 ar    
   37   15   16 ar    
   38   16   17 ar    
   39   16   40 1     
   40   17   18 ar    
   41   17   41 1     
   42   18   19 ar    
   43   18   42 1     
   44   19   20 ar    
   45   19   43 1     
   46   21   22 1     
   47   21   44 1     
   48   21   45 1     
   49   22   46 1     
   50   22   47 1     
   51    8   49 1     
   52    8   50 1     
   53   13   51 1     
   54   13   52 1     
   55   14   53 1     
@<TRIPOS>SUBSTRUCTURE
      1 S1             1
@<TRIPOS>SET
LONE_PAIRS      STATIC     ATOMS    <user>   **** ""
5 49 50 51 52 53
DONOR_HYDROGENS      STATIC     ATOMS    <user>   **** ""
3 48 34 39
ATOM$BLUE        STATIC     ATOMS    COLORGROUP SYSTEM
5 49 50 51 52 53
ATOM$RED        STATIC     ATOMS    COLORGROUP SYSTEM
3 48 34 39
