AV-unprocessed.smi:67|AV-procd|sdf|634|dock7
  -GOLD-   2262016533D 1   1.00000     0.00000
 Structure written by MMmdl.
 48 50  0  0  0  0  0  0  0  0  2 V2000
  144.6473  138.6475  154.1722 O   0  0  0  0  0  0  0  0  0  0  0  0
  146.0480  138.5336  154.3502 C   0  0  2  0  0  0  0  0  0  0  0  0
  146.3126  138.8312  155.8465 C   0  0  0  0  0  0  0  0  0  0  0  0
  147.7111  138.7533  156.2772 N   0  0  0  0  0  0  0  0  0  0  0  0
  147.8242  138.8114  157.7364 C   0  0  0  0  0  0  0  0  0  0  0  0
  149.2666  138.6017  158.2276 C   0  0  0  0  0  0  0  0  0  0  0  0
  150.2188  139.6093  157.5476 C   0  0  0  0  0  0  0  0  0  0  0  0
  151.5823  139.5247  157.9701 O   0  0  0  0  0  0  0  0  0  0  0  0
  152.1761  140.4541  158.8032 C   0  0  0  0  0  0  0  0  0  0  0  0
  153.2071  140.1938  159.7403 C   0  0  0  0  0  0  0  0  0  0  0  0
  153.7339  141.2326  160.5308 C   0  0  0  0  0  0  0  0  0  0  0  0
  153.2395  142.5430  160.4031 C   0  0  0  0  0  0  0  0  0  0  0  0
  152.2087  142.8207  159.4819 C   0  0  0  0  0  0  0  0  0  0  0  0
  151.6611  144.2311  159.3232 C   0  0  0  0  0  0  0  0  0  0  0  0
  150.3280  144.2124  159.3400 F   0  0  0  0  0  0  0  0  0  0  0  0
  152.0796  145.0325  160.3033 F   0  0  0  0  0  0  0  0  0  0  0  0
  152.0689  144.7318  158.1576 F   0  0  0  0  0  0  0  0  0  0  0  0
  151.6933  141.7745  158.6879 C   0  0  0  0  0  0  0  0  0  0  0  0
  150.0141  139.6949  156.0196 C   0  0  0  0  0  0  0  0  0  0  0  0
  148.5178  139.8336  155.6959 C   0  0  0  0  0  0  0  0  0  0  0  0
  146.7410  139.4202  153.3088 C   0  0  0  0  0  0  0  0  0  0  0  0
  146.6630  138.5882  152.0272 C   0  0  0  0  0  0  0  0  0  0  0  0
  146.6944  137.1759  152.4567 N   0  3  0  0  0  0  0  0  0  0  0  0
  146.4562  137.1174  153.9141 C   0  0  0  0  0  0  0  0  0  0  0  0
  144.4773  139.3375  153.5486 H   0  0  0  0  0  0  0  0  0  0  0  0
  145.9040  139.8080  156.1122 H   0  0  0  0  0  0  0  0  0  0  0  0
  145.7156  138.1162  156.4153 H   0  0  0  0  0  0  0  0  0  0  0  0
  147.4469  139.7687  158.0996 H   0  0  0  0  0  0  0  0  0  0  0  0
  147.1949  138.0423  158.1860 H   0  0  0  0  0  0  0  0  0  0  0  0
  149.3094  138.7288  159.3096 H   0  0  0  0  0  0  0  0  0  0  0  0
  149.5510  137.5701  158.0378 H   0  0  0  0  0  0  0  0  0  0  0  0
  149.9111  140.5849  157.9265 H   0  0  0  0  0  0  0  0  0  0  0  0
  153.6222  139.2114  159.8827 H   0  0  0  0  0  0  0  0  0  0  0  0
  154.5219  141.0224  161.2388 H   0  0  0  0  0  0  0  0  0  0  0  0
  153.6573  143.3290  161.0148 H   0  0  0  0  0  0  0  0  0  0  0  0
  150.9095  141.9868  157.9753 H   0  0  0  0  0  0  0  0  0  0  0  0
  150.5567  140.5541  155.6244 H   0  0  0  0  0  0  0  0  0  0  0  0
  150.4066  138.8280  155.4950 H   0  0  0  0  0  0  0  0  0  0  0  0
  148.3942  139.8735  154.6154 H   0  0  0  0  0  0  0  0  0  0  0  0
  148.1607  140.7961  156.0666 H   0  0  0  0  0  0  0  0  0  0  0  0
  146.2969  140.4114  153.2083 H   0  0  0  0  0  0  0  0  0  0  0  0
  147.7956  139.5463  153.5512 H   0  0  0  0  0  0  0  0  0  0  0  0
  145.7179  138.7728  151.5149 H   0  0  0  0  0  0  0  0  0  0  0  0
  147.4716  138.8136  151.3313 H   0  0  0  0  0  0  0  0  0  0  0  0
  145.9749  136.6620  151.9681 H   0  0  0  0  0  0  0  0  0  0  0  0
  147.3976  136.8315  154.3849 H   0  0  0  0  0  0  0  0  0  0  0  0
  145.7181  136.3570  154.1726 H   0  0  0  0  0  0  0  0  0  0  0  0
  147.5981  136.7733  152.2536 H   0  0  0  0  0  0  0  0  0  0  0  0
  1  2  1  0  0  0  0
  1 25  1  0  0  0  0
  2 24  1  0  0  0  0
  2  3  1  0  0  0  0
  2 21  1  0  0  0  0
  3  4  1  0  0  0  0
  3 26  1  0  0  0  0
  3 27  1  0  0  0  0
  4 20  1  0  0  0  0
  4  5  1  0  0  0  0
  5  6  1  0  0  0  0
  5 28  1  0  0  0  0
  5 29  1  0  0  0  0
  6  7  1  0  0  0  0
  6 30  1  0  0  0  0
  6 31  1  0  0  0  0
  7  8  1  0  0  0  0
  7 19  1  0  0  0  0
  7 32  1  0  0  0  0
  8  9  1  0  0  0  0
  9 18  1  0  0  0  0
  9 10  2  0  0  0  0
 10 11  1  0  0  0  0
 10 33  1  0  0  0  0
 11 12  2  0  0  0  0
 11 34  1  0  0  0  0
 12 13  1  0  0  0  0
 12 35  1  0  0  0  0
 13 14  1  0  0  0  0
 13 18  2  0  0  0  0
 14 15  1  0  0  0  0
 14 16  1  0  0  0  0
 14 17  1  0  0  0  0
 18 36  1  0  0  0  0
 19 20  1  0  0  0  0
 19 37  1  0  0  0  0
 19 38  1  0  0  0  0
 20 39  1  0  0  0  0
 20 40  1  0  0  0  0
 21 22  1  0  0  0  0
 21 41  1  0  0  0  0
 21 42  1  0  0  0  0
 22 23  1  0  0  0  0
 22 43  1  0  0  0  0
 22 44  1  0  0  0  0
 23 24  1  0  0  0  0
 23 45  1  0  0  0  0
 23 48  1  0  0  0  0
 24 46  1  0  0  0  0
 24 47  1  0  0  0  0
M  CHG  1  23   1
M  END
> <s_m_source_file>
AV-unprocessed.smi

> <i_m_source_file_index>
67

> <i_lp_mmshare_version>
43012

> <i_f3d_flags>
0

> <s_epik_input>
W0NIMl0xW05IXVtDSDJdW0NIMl1bQ0BAXTEoW09IXSlbQ0gyXU4yW0NIMl1bQ0gyXVtDSF0oW0NIMl1bQ0gyXTIpT2MzW2NIXVtjSF1bY0hdYyhDKEYpKEYpRilbY0hdMw==

> <s_epik_cmdline>
J2VwaWtfcHl0aG9uJywgJy1waCcsICc3LjAnLCAnLXRuJywgJzgnLCAnLW1hJywgJzIwMCcsICctbWV0YWxfYmluZGluZycsICctaW1hZScsICc8aW5maWxlLm1hZT4nLCAnLW9tYWUnLCAnPG91dGZpbGUubWFlPic=

> <r_lp_tautomer_probability>
1

> <r_epik_Ionization_Penalty>
1.18002

> <r_epik_Ionization_Penalty_Charging>
0.00399663

> <r_epik_Ionization_Penalty_Neutral>
1.17602

> <r_epik_State_Penalty>
1.25421

> <r_epik_Charging_Adjusted_Penalty>
1.25821

> <i_epik_Tot_Q>
1

> <i_epik_Tot_abs_Q>
1

> <r_epik_Metal_State_Penalty>
1.25387

> <b_epik_Metal_Only>
0

> <s_lp_Force_Field>
OPLS_2005

> <r_lp_Energy>
62.5676

> <b_lp_Chiralities_Consistent>
1

> <s_lp_Variant>
AV-unprocessed.smi:67-6

> <Gold.Version>
5.8.1

> <Gold.Id.Protein>
6NUR|6NUR_protein|mol2

> <Gold.PLP.Fitness>
51.8558

> <Gold.PLP.PLP>
-45.1740

> <Gold.PLP.part.hbond>
-1.6795

> <Gold.PLP.part.metal>
0.0000

> <Gold.PLP.part.buried>
-6.8645

> <Gold.PLP.part.nonpolar>
-37.5790

> <Gold.PLP.part.repulsive>
0.0545

> <Gold.PLP.ligand.clash>
0.0625

> <Gold.PLP.ligand.torsion>
1.4923

> <Gold.PLP.Chemscore.Hbond>
3.0000

> <Gold.PLP.Chemscore.CHOScore>
0.0000

> <Gold.PLP.Chemscore.Metal>
0.0000

> <Gold.Chemscore.Hbonds>
donor molecule, donor type, donor heavy atom, donor atom, acceptor molecule, acceptor atom, score
      L1  H     1    25       P1 10175  1.00
      L1  H    23    48       P1  7948  1.85

> <Gold.PLP.Chemscore.Internal.Correction>
0.7290

> <Gold.Rescore>
     Score         DG    S(hbond)    S(metal)    S(lipo)     H(rot)  DE(clash)    DE(int)     intcor
     16.65     -17.84       2.00        0.00      96.49       2.19       0.01       1.18       ----

> <Gold.Chemscore.Fitness>
16.6516

> <Gold.Chemscore.DG>
-17.8379

> <Gold.Chemscore.ZeroCoef>
-5.4800

> <Gold.Chemscore.Hbond>
1.9977

> <Gold.Chemscore.Metal>
0.0000

> <Gold.Chemscore.Lipo>
96.4862

> <Gold.Chemscore.Internal_Hbond>
0.0000

> <Gold.Chemscore.DEClash>
0.0103

> <Gold.Chemscore.DEInternal>
1.1760

> <Gold.Chemscore.Rot>
2.1887

> <Gold.Chemscore.Internal.Correction>
   9.000000E+99

> <Gold.Chemscore.Hbonds>
donor molecule, donor type, donor heavy atom, donor atom, acceptor molecule, acceptor atom, score
      L1  H     1    25       P1 10175  1.00
      L1  H    23    48       P1  7948  0.89

> <Gold.Chemscore.Hbond.Weighted>
-6.6722

> <Gold.Chemscore.Metal.Weighted>
-0.0000

> <Gold.Chemscore.Lipo.Weighted>
-11.2889

> <Gold.Chemscore.Internal_Hbond.Weighted>
0.0000

> <Gold.Chemscore.DEClash.Weighted>
0.0103

> <Gold.Chemscore.DEInternal.Weighted>
1.1760

> <Gold.Chemscore.Rot.Weighted>
5.6032

> <Gold.Chemscore.Internal.Correction.Weighted>
   9.000000E+99

> <Gold.Protein.RotatedTorsions>
[ 6907 6896 6895 6894 ] final  -57.04 input  -60.11 | X-H torsion
[ 7974 7965 7964 7962 ] final -111.61 input  175.53 | X-H torsion
[ 8008 7997 7996 7995 ] final  -82.73 input   59.86 | X-H torsion
[ 10167 10162 10161 10158 ] final   90.99 input  -65.29 | X-H torsion
[ 10718 10713 10712 10709 ] final  -62.58 input   66.30 | X-H torsion
[ 10763 10752 10751 10750 ] final  127.07 input  -60.55 | X-H torsion
[ 11005 11000 10999 10996 ] final  109.79 input  -57.11 | X-H torsion

> <Gold.Protein.ActiveResidues>
 VAL166  LYS551  ARG553  GLY616  TRP617  ASP618  TYR619  PRO620  LYS621  CYS622 
 ASP623  PHE694  ASN695  SER759  ASP760  ASP761  ALA762  ILE779  LEU786  VAL792 
 PHE793  MET794  SER795  GLU796  ALA797  LYS798  CYS799  TRP800  GLU811  SER814 

> <Gold.Protein.RotatedAtoms>
  150.8118  134.7278  159.6694 H   0  0  0  0  0  0  0  0  0  0  0  0  # atno 6907 bound_to 6896
  152.4238  134.5903  159.9982 H   0  0  0  0  0  0  0  0  0  0  0  0  # atno 6908 bound_to 6896
  151.6110  133.3310  159.3103 H   0  0  0  0  0  0  0  0  0  0  0  0  # atno 6909 bound_to 6896
  145.1539  140.8844  143.3630 H   0  0  0  0  0  0  0  0  0  0  0  0  # atno 7974 bound_to 7965
  154.6116  140.0629  156.9501 H   0  0  0  0  0  0  0  0  0  0  0  0  # atno 8008 bound_to 7997
  155.1964  140.3311  155.4332 H   0  0  0  0  0  0  0  0  0  0  0  0  # atno 8009 bound_to 7997
  156.2380  140.1872  156.7050 H   0  0  0  0  0  0  0  0  0  0  0  0  # atno 8010 bound_to 7997
  139.8418  144.6637  150.9274 H   0  0  0  0  0  0  0  0  0  0  0  0  # atno 10167 bound_to 10162
  156.0846  130.4210  150.1155 H   0  0  0  0  0  0  0  0  0  0  0  0  # atno 10718 bound_to 10713
  153.7034  135.3280  155.3230 H   0  0  0  0  0  0  0  0  0  0  0  0  # atno 10763 bound_to 10752
  154.8406  135.4460  154.1387 H   0  0  0  0  0  0  0  0  0  0  0  0  # atno 10764 bound_to 10752
  153.2461  135.6976  153.7808 H   0  0  0  0  0  0  0  0  0  0  0  0  # atno 10765 bound_to 10752
  139.8869  134.9467  156.6179 H   0  0  0  0  0  0  0  0  0  0  0  0  # atno 11005 bound_to 11000
  145.0401  139.3267  143.5981 LP  0  0  0  0  0  0  0  0  0  0  0  0  # atno 17320 bound_to 7965
  146.3491  139.9771  142.8700 LP  0  0  0  0  0  0  0  0  0  0  0  0  # atno 17321 bound_to 7965
  140.7797  143.3905  151.1318 LP  0  0  0  0  0  0  0  0  0  0  0  0  # atno 17342 bound_to 10162
  139.7551  143.8720  152.3086 LP  0  0  0  0  0  0  0  0  0  0  0  0  # atno 17343 bound_to 10162
  156.9179  130.9673  151.3553 LP  0  0  0  0  0  0  0  0  0  0  0  0  # atno 17370 bound_to 10713
  157.5975  130.8488  149.8752 LP  0  0  0  0  0  0  0  0  0  0  0  0  # atno 17371 bound_to 10713
  140.7762  133.8698  155.8530 LP  0  0  0  0  0  0  0  0  0  0  0  0  # atno 17394 bound_to 11000
  140.9800  134.1418  157.4503 LP  0  0  0  0  0  0  0  0  0  0  0  0  # atno 17395 bound_to 11000

$$$$
