#       Name:                AV-unprocessed.smi:3223
#       Creating user name   scv26
#       Creation time:       Fri Mar 27 18:15:18 2020


#       File generated by GOLD software.
#

@<TRIPOS>MOLECULE
AV-unprocessed.smi:3223
    46    46     1
SMALL
NO_CHARGES


@<TRIPOS>ATOM
      1 ****         0.2764   2.6265  -4.2928 C.3            1 S1                 0.0000
      2 ****        -0.7514   2.0493  -3.3629 C.2            1 S1                 0.0000
      3 ****        -1.2417   0.7130  -3.3239 C.2            1 S1                 0.0000
      4 ****        -2.1469   0.5253  -2.3770 N.2            1 S1                 0.0000
      5 ****        -2.2657   1.7308  -1.7812 N.pl3          1 S1                 0.0000
      6 ****        -3.1809   1.8984  -0.6674 C.3            1 S1                 0.0000
      7 ****        -2.4886   1.7542   0.7043 C.3            1 S1                 0.0000
      8 ****        -3.4640   2.0861   1.8414 C.3            1 S1                 0.0000
      9 ****        -1.9603   0.3842   0.8973 N.4            1 S1                 1.0000
     10 ****        -0.5006   0.2441   0.7153 C.3            1 S1                 0.0000
     11 ****        -0.0666  -1.2212   0.8802 C.3            1 S1                 0.0000
     12 ****         1.4369  -1.4138   0.6671 C.2            1 S1                 0.0000
     13 ****         2.0025  -0.8694  -0.2811 O.2            1 S1                 0.0000
     14 ****         2.0696  -2.1982   1.5541 N.am           1 S1                 0.0000
     15 ****         3.4949  -2.5155   1.5401 C.3            1 S1                 0.0000
     16 ****         3.7646  -3.7249   0.6315 C.3            1 S1                 0.0000
     17 ****         3.9762  -2.7665   2.9752 C.3            1 S1                 0.0000
     18 ****        -1.4368   2.6695  -2.3571 C.2            1 S1                 0.0000
     19 ****         0.2956   2.1034  -5.2492 H              1 S1                 0.0000
     20 ****         1.2795   2.5621  -3.8711 H              1 S1                 0.0000
     21 ****         0.0838   3.6780  -4.5066 H              1 S1                 0.0000
     22 ****        -0.9664  -0.1215  -3.9519 H              1 S1                 0.0000
     23 ****        -3.6309   2.8883  -0.7551 H              1 S1                 0.0000
     24 ****        -3.9965   1.1796  -0.7649 H              1 S1                 0.0000
     25 ****        -1.6669   2.4702   0.7644 H              1 S1                 0.0000
     26 ****        -3.8468   3.1027   1.7462 H              1 S1                 0.0000
     27 ****        -2.9750   2.0107   2.8133 H              1 S1                 0.0000
     28 ****        -4.3183   1.4080   1.8443 H              1 S1                 0.0000
     29 ****        -2.1788   0.0945   1.8397 H              1 S1                 0.0000
     30 ****        -0.2209   0.6141  -0.2714 H              1 S1                 0.0000
     31 ****         0.0107   0.8701   1.4481 H              1 S1                 0.0000
     32 ****        -0.3477  -1.5804   1.8717 H              1 S1                 0.0000
     33 ****        -0.5922  -1.8483   0.1589 H              1 S1                 0.0000
     34 ****         1.5233  -2.6080   2.2980 H              1 S1                 0.0000
     35 ****         4.0488  -1.6592   1.1515 H              1 S1                 0.0000
     36 ****         4.8281  -3.9638   0.6038 H              1 S1                 0.0000
     37 ****         3.4468  -3.5296  -0.3932 H              1 S1                 0.0000
     38 ****         3.2344  -4.6112   0.9818 H              1 S1                 0.0000
     39 ****         5.0461  -2.9757   2.9978 H              1 S1                 0.0000
     40 ****         3.4618  -3.6163   3.4253 H              1 S1                 0.0000
     41 ****         3.7990  -1.8956   3.6074 H              1 S1                 0.0000
     42 ****        -1.4007   3.6902  -2.0052 H              1 S1                 0.0000
     43 ****        -2.4337  -0.2344   0.2537 H              1 S1                 0.0000
     44 ****        -2.6334  -0.3193  -2.1532 LP             1 S1                 0.0000
     45 ****         1.4796  -0.2994  -0.9149 LP             1 S1                 0.0000
     46 ****         2.9848  -0.9972  -0.4176 LP             1 S1                 0.0000
@<TRIPOS>BOND
    1    1    2 1     
    2    1   19 1     
    3    1   20 1     
    4    1   21 1     
    5    2   18 2     
    6    2    3 1     
    7    3    4 2     
    8    3   22 1     
    9    4    5 1     
   10    5    6 1     
   11    5   18 1     
   12    6    7 1     
   13    6   23 1     
   14    6   24 1     
   15    7    8 1     
   16    7    9 1     
   17    7   25 1     
   18    8   26 1     
   19    8   27 1     
   20    8   28 1     
   21    9   10 1     
   22    9   29 1     
   23    9   43 1     
   24   10   11 1     
   25   10   30 1     
   26   10   31 1     
   27   11   12 1     
   28   11   32 1     
   29   11   33 1     
   30   12   13 2     
   31   12   14 am    
   32   14   15 1     
   33   14   34 1     
   34   15   16 1     
   35   15   17 1     
   36   15   35 1     
   37   16   36 1     
   38   16   37 1     
   39   16   38 1     
   40   17   39 1     
   41   17   40 1     
   42   17   41 1     
   43   18   42 1     
   44    4   44 1     
   45   13   45 1     
   46   13   46 1     
@<TRIPOS>SUBSTRUCTURE
      1 S1             1
@<TRIPOS>SET
LONE_PAIRS      STATIC     ATOMS    <user>   **** ""
3 44 45 46
DONOR_HYDROGENS      STATIC     ATOMS    <user>   **** ""
3 29 43 34
ATOM$BLUE        STATIC     ATOMS    COLORGROUP SYSTEM
3 44 45 46
ATOM$RED        STATIC     ATOMS    COLORGROUP SYSTEM
3 29 43 34
