AV-unprocessed.smi:1983|AV-procd|sdf|8038|dock1
  -GOLD-   2272010233D 1   1.00000     0.00000
 Structure written by MMmdl.
 50 51  0  0  0  0  0  0  0  0  2 V2000
  150.0480  135.0191  156.2895 C   0  0  0  0  0  0  0  0  0  0  0  0
  148.8120  134.8365  155.3955 C   0  0  2  0  0  0  0  0  0  0  0  0
  148.8237  133.4875  154.6499 C   0  0  0  0  0  0  0  0  0  0  0  0
  148.4969  133.6729  153.2891 O   0  0  0  0  0  0  0  0  0  0  0  0
  148.7457  135.9402  154.4413 N   0  0  0  0  0  0  0  0  0  0  0  0
  148.5573  137.2289  154.7587 C   0  0  0  0  0  0  0  0  0  0  0  0
  148.4135  137.6459  155.9081 O   0  0  0  0  0  0  0  0  0  0  0  0
  148.5296  138.0107  153.6701 N   0  0  0  0  0  0  0  0  0  0  0  0
  148.3543  139.4604  153.6888 C   0  0  0  0  0  0  0  0  0  0  0  0
  149.1866  140.1968  154.7317 C   0  0  0  0  0  0  0  0  0  0  0  0
  150.3181  139.6101  155.3413 C   0  0  0  0  0  0  0  0  0  0  0  0
  151.0543  140.3405  156.2965 C   0  0  0  0  0  0  0  0  0  0  0  0
  150.6503  141.6535  156.6475 C   0  0  0  0  0  0  0  0  0  0  0  0
  151.3298  142.4634  157.5842 N   0  0  0  0  0  0  0  0  0  0  0  0
  152.1926  141.7748  158.5412 C   0  0  0  0  0  0  0  0  0  0  0  0
  152.5398  142.7008  159.7199 C   0  0  1  0  0  0  0  0  0  0  0  0
  153.5623  142.0625  160.6661 C   0  0  0  0  0  0  0  0  0  0  0  0
  153.0972  143.9162  159.2242 O   0  0  0  0  0  0  0  0  0  0  0  0
  152.2512  144.6399  158.3289 C   0  0  2  0  0  0  0  0  0  0  0  0
  151.0486  145.2758  159.0494 C   0  0  0  0  0  0  0  0  0  0  0  0
  151.8524  143.7505  157.1348 C   0  0  0  0  0  0  0  0  0  0  0  0
  149.5516  142.1652  156.0405 N   0  3  0  0  0  0  0  0  0  0  0  0
  148.8211  141.5014  155.1190 C   0  0  0  0  0  0  0  0  0  0  0  0
  150.1065  134.2365  157.0462 H   0  0  0  0  0  0  0  0  0  0  0  0
  150.0167  135.9760  156.8117 H   0  0  0  0  0  0  0  0  0  0  0  0
  150.9691  134.9869  155.7067 H   0  0  0  0  0  0  0  0  0  0  0  0
  147.9264  134.8802  156.0330 H   0  0  0  0  0  0  0  0  0  0  0  0
  149.8134  133.0310  154.6921 H   0  0  0  0  0  0  0  0  0  0  0  0
  148.1252  132.7826  155.1022 H   0  0  0  0  0  0  0  0  0  0  0  0
  148.4883  134.5997  153.1049 H   0  0  0  0  0  0  0  0  0  0  0  0
  148.8530  135.7011  153.4664 H   0  0  0  0  0  0  0  0  0  0  0  0
  148.6584  137.5770  152.7673 H   0  0  0  0  0  0  0  0  0  0  0  0
  148.5735  139.8605  152.6973 H   0  0  0  0  0  0  0  0  0  0  0  0
  147.3023  139.6718  153.8807 H   0  0  0  0  0  0  0  0  0  0  0  0
  150.6290  138.6085  155.0835 H   0  0  0  0  0  0  0  0  0  0  0  0
  151.9144  139.8708  156.7486 H   0  0  0  0  0  0  0  0  0  0  0  0
  151.7215  140.8731  158.9319 H   0  0  0  0  0  0  0  0  0  0  0  0
  153.1021  141.4615  158.0266 H   0  0  0  0  0  0  0  0  0  0  0  0
  151.6387  142.9148  160.2948 H   0  0  0  0  0  0  0  0  0  0  0  0
  153.1846  141.1275  161.0808 H   0  0  0  0  0  0  0  0  0  0  0  0
  153.7895  142.7274  161.4999 H   0  0  0  0  0  0  0  0  0  0  0  0
  154.4977  141.8460  160.1491 H   0  0  0  0  0  0  0  0  0  0  0  0
  152.8536  145.4618  157.9408 H   0  0  0  0  0  0  0  0  0  0  0  0
  150.5017  145.9373  158.3769 H   0  0  0  0  0  0  0  0  0  0  0  0
  151.3772  145.8719  159.9009 H   0  0  0  0  0  0  0  0  0  0  0  0
  150.3414  144.5315  159.4142 H   0  0  0  0  0  0  0  0  0  0  0  0
  152.7225  143.5710  156.5020 H   0  0  0  0  0  0  0  0  0  0  0  0
  151.1137  144.2788  156.5314 H   0  0  0  0  0  0  0  0  0  0  0  0
  147.9729  142.0362  154.7165 H   0  0  0  0  0  0  0  0  0  0  0  0
  149.2616  143.1108  156.2900 H   0  0  0  0  0  0  0  0  0  0  0  0
  1  2  1  0  0  0  0
  1 24  1  0  0  0  0
  1 25  1  0  0  0  0
  1 26  1  0  0  0  0
  2  3  1  0  0  0  0
  2  5  1  0  0  0  0
  2 27  1  0  0  0  0
  3  4  1  0  0  0  0
  3 28  1  0  0  0  0
  3 29  1  0  0  0  0
  4 30  1  0  0  0  0
  5  6  1  0  0  0  0
  5 31  1  0  0  0  0
  6  7  2  0  0  0  0
  6  8  1  0  0  0  0
  8  9  1  0  0  0  0
  8 32  1  0  0  0  0
  9 10  1  0  0  0  0
  9 33  1  0  0  0  0
  9 34  1  0  0  0  0
 10 23  1  0  0  0  0
 10 11  2  0  0  0  0
 11 12  1  0  0  0  0
 11 35  1  0  0  0  0
 12 13  2  0  0  0  0
 12 36  1  0  0  0  0
 13 14  1  0  0  0  0
 13 22  1  0  0  0  0
 14 21  1  0  0  0  0
 14 15  1  0  0  0  0
 15 16  1  0  0  0  0
 15 37  1  0  0  0  0
 15 38  1  0  0  0  0
 16 17  1  0  0  0  0
 16 18  1  0  0  0  0
 16 39  1  0  0  0  0
 17 40  1  0  0  0  0
 17 41  1  0  0  0  0
 17 42  1  0  0  0  0
 18 19  1  0  0  0  0
 19 20  1  0  0  0  0
 19 21  1  0  0  0  0
 19 43  1  0  0  0  0
 20 44  1  0  0  0  0
 20 45  1  0  0  0  0
 20 46  1  0  0  0  0
 21 47  1  0  0  0  0
 21 48  1  0  0  0  0
 22 23  2  0  0  0  0
 22 50  1  0  0  0  0
 23 49  1  0  0  0  0
M  CHG  1  22   1
M  END
> <s_m_source_file>
AV-unprocessed.smi

> <i_m_source_file_index>
1983

> <i_lp_mmshare_version>
43012

> <i_f3d_flags>
0

> <s_epik_input>
W09IXVtDSDJdW0NAQEhdKFtDSDNdKVtOSF1DKD1PKVtOSF1bQ0gyXWMxW2NIXVtjSF1jKG5bY0hdMSlOMltDSDJdW0NAQEhdKFtDSDNdKU9bQ0BASF0oW0NIM10pW0NIMl0y

> <s_epik_cmdline>
J2VwaWtfcHl0aG9uJywgJy1waCcsICc3LjAnLCAnLXRuJywgJzgnLCAnLW1hJywgJzIwMCcsICctbWV0YWxfYmluZGluZycsICctaW1hZScsICc8aW5maWxlLm1hZT4nLCAnLW9tYWUnLCAnPG91dGZpbGUubWFlPic=

> <r_lp_tautomer_probability>
0.999994

> <r_epik_Ionization_Penalty>
2.55677

> <r_epik_Ionization_Penalty_Charging>
2.55673

> <r_epik_Ionization_Penalty_Neutral>
3.71772e-05

> <r_epik_State_Penalty>
2.72571

> <r_epik_Charging_Adjusted_Penalty>
5.28244

> <i_epik_Tot_Q>
1

> <i_epik_Tot_abs_Q>
1

> <r_epik_Metal_State_Penalty>
2.73364

> <b_epik_Metal_Only>
0

> <s_lp_Force_Field>
OPLS_2005

> <r_lp_Energy>
21.2069

> <b_lp_Chiralities_Consistent>
1

> <s_lp_Variant>
AV-unprocessed.smi:1983-11

> <Gold.Version>
5.8.1

> <Gold.Id.Protein>
6NUR|6NUR_protein|mol2

> <Gold.PLP.Fitness>
53.9949

> <Gold.PLP.PLP>
-42.0115

> <Gold.PLP.part.hbond>
-4.0000

> <Gold.PLP.part.metal>
0.0000

> <Gold.PLP.part.buried>
-2.1881

> <Gold.PLP.part.nonpolar>
-36.4291

> <Gold.PLP.part.repulsive>
0.2214

> <Gold.PLP.ligand.clash>
0.0000

> <Gold.PLP.ligand.torsion>
1.3627

> <Gold.PLP.Chemscore.Hbond>
4.7120

> <Gold.PLP.Chemscore.CHOScore>
0.0000

> <Gold.PLP.Chemscore.Metal>
0.0000

> <Gold.Chemscore.Hbonds>
donor molecule, donor type, donor heavy atom, donor atom, acceptor molecule, acceptor atom, score
      L1  H     4    30       P1  7948  0.90
      L1  H     5    31       P1  7948  0.98
      L1  H     8    32       P1  7948  1.00
      L1  H    22    50       P1  8028  1.79

> <Gold.PLP.Chemscore.Internal.Correction>
0.5728

> <Gold.Rescore>
     Score         DG    S(hbond)    S(metal)    S(lipo)     H(rot)  DE(clash)    DE(int)     intcor
     20.77     -23.85       3.58        0.00     113.09       2.66       1.66       1.42       ----

> <Gold.Chemscore.Fitness>
20.7718

> <Gold.Chemscore.DG>
-23.8468

> <Gold.Chemscore.ZeroCoef>
-5.4800

> <Gold.Chemscore.Hbond>
3.5792

> <Gold.Chemscore.Metal>
0.0000

> <Gold.Chemscore.Lipo>
113.0904

> <Gold.Chemscore.Internal_Hbond>
0.0000

> <Gold.Chemscore.DEClash>
1.6574

> <Gold.Chemscore.DEInternal>
1.4176

> <Gold.Chemscore.Rot>
2.6637

> <Gold.Chemscore.Internal.Correction>
   9.000000E+99

> <Gold.Chemscore.Hbonds>
donor molecule, donor type, donor heavy atom, donor atom, acceptor molecule, acceptor atom, score
      L1  H     4    30       P1  7948  0.33
      L1  H     5    31       P1  7948  0.88
      L1  H     8    32       P1  7948  0.95
      L1  H    22    50       P1  8028  0.88

> <Gold.Chemscore.Hbond.Weighted>
-11.9544

> <Gold.Chemscore.Metal.Weighted>
-0.0000

> <Gold.Chemscore.Lipo.Weighted>
-13.2316

> <Gold.Chemscore.Internal_Hbond.Weighted>
0.0000

> <Gold.Chemscore.DEClash.Weighted>
1.6574

> <Gold.Chemscore.DEInternal.Weighted>
1.4176

> <Gold.Chemscore.Rot.Weighted>
6.8191

> <Gold.Chemscore.Internal.Correction.Weighted>
   9.000000E+99

> <Gold.Protein.RotatedTorsions>
[ 6907 6896 6895 6894 ] final  135.88 input  -60.11 | X-H torsion
[ 7974 7965 7964 7962 ] final  -31.42 input  175.53 | X-H torsion
[ 8008 7997 7996 7995 ] final   74.40 input   59.86 | X-H torsion
[ 10167 10162 10161 10158 ] final  165.91 input  -65.29 | X-H torsion
[ 10718 10713 10712 10709 ] final  157.61 input   66.30 | X-H torsion
[ 10763 10752 10751 10750 ] final -162.48 input  -60.55 | X-H torsion
[ 11005 11000 10999 10996 ] final  -40.85 input  -57.11 | X-H torsion

> <Gold.Protein.ActiveResidues>
 VAL166  LYS551  ARG553  GLY616  TRP617  ASP618  TYR619  PRO620  LYS621  CYS622 
 ASP623  PHE694  ASN695  SER759  ASP760  ASP761  ALA762  ILE779  LEU786  VAL792 
 PHE793  MET794  SER795  GLU796  ALA797  LYS798  CYS799  TRP800  GLU811  SER814 

> <Gold.Protein.RotatedAtoms>
  152.2956  133.5604  159.5584 H   0  0  0  0  0  0  0  0  0  0  0  0  # atno 6907 bound_to 6896
  150.7254  134.0366  159.3760 H   0  0  0  0  0  0  0  0  0  0  0  0  # atno 6908 bound_to 6896
  151.8269  135.0634  160.0483 H   0  0  0  0  0  0  0  0  0  0  0  0  # atno 6909 bound_to 6896
  146.1069  140.5665  142.8795 H   0  0  0  0  0  0  0  0  0  0  0  0  # atno 7974 bound_to 7965
  155.7979  140.3477  155.5386 H   0  0  0  0  0  0  0  0  0  0  0  0  # atno 8008 bound_to 7997
  155.8568  140.0965  157.1659 H   0  0  0  0  0  0  0  0  0  0  0  0  # atno 8009 bound_to 7997
  154.4010  140.1366  156.3899 H   0  0  0  0  0  0  0  0  0  0  0  0  # atno 8010 bound_to 7997
  139.4914  144.4083  151.9329 H   0  0  0  0  0  0  0  0  0  0  0  0  # atno 10167 bound_to 10162
  157.1891  131.0650  151.2089 H   0  0  0  0  0  0  0  0  0  0  0  0  # atno 10718 bound_to 10713
  154.7211  135.3026  154.9046 H   0  0  0  0  0  0  0  0  0  0  0  0  # atno 10763 bound_to 10752
  153.9918  135.6718  153.4758 H   0  0  0  0  0  0  0  0  0  0  0  0  # atno 10764 bound_to 10752
  153.0834  135.4997  154.8466 H   0  0  0  0  0  0  0  0  0  0  0  0  # atno 10765 bound_to 10752
  141.0204  133.6865  156.2377 H   0  0  0  0  0  0  0  0  0  0  0  0  # atno 11005 bound_to 11000
  144.7478  140.5113  143.6823 LP  0  0  0  0  0  0  0  0  0  0  0  0  # atno 17320 bound_to 7965
  145.5743  139.1485  143.3271 LP  0  0  0  0  0  0  0  0  0  0  0  0  # atno 17321 bound_to 7965
  140.3523  144.3073  150.5947 LP  0  0  0  0  0  0  0  0  0  0  0  0  # atno 17342 bound_to 10162
  140.5474  143.2212  151.7984 LP  0  0  0  0  0  0  0  0  0  0  0  0  # atno 17343 bound_to 10162
  157.3878  130.7265  149.6675 LP  0  0  0  0  0  0  0  0  0  0  0  0  # atno 17370 bound_to 10713
  155.9714  130.4155  150.4184 LP  0  0  0  0  0  0  0  0  0  0  0  0  # atno 17371 bound_to 10713
  140.6583  134.4995  157.5582 LP  0  0  0  0  0  0  0  0  0  0  0  0  # atno 17394 bound_to 11000
  139.9142  134.8280  156.1422 LP  0  0  0  0  0  0  0  0  0  0  0  0  # atno 17395 bound_to 11000

$$$$
