AV-unprocessed.smi:2273|AV-procd|sdf|9166|dock2
  -GOLD-   2272012373D 1   1.00000     0.00000
 Structure written by MMmdl.
 53 54  0  0  0  0  0  0  0  0  1 V2000
  145.9691  136.9357  153.1156 C   0  0  0  0  0  0  0  0  0  0  0  0
  145.4467  137.4674  154.4571 C   0  0  0  0  0  0  0  0  0  0  0  0
  146.5022  138.1015  155.4046 C   0  0  0  0  0  0  0  0  0  0  0  0
  145.8164  138.6074  156.7022 C   0  0  0  0  0  0  0  0  0  0  0  0
  144.8625  137.6048  157.3702 C   0  0  0  0  0  0  0  0  0  0  0  0
  147.3175  139.2293  154.7012 C   0  0  2  0  0  0  0  0  0  0  0  0
  148.1912  140.0469  155.6805 C   0  0  0  0  0  0  0  0  0  0  0  0
  149.0120  141.1084  154.9259 C   0  0  2  0  0  0  0  0  0  0  0  0
  149.7880  141.9398  155.8488 N   0  0  0  0  0  0  0  0  0  0  0  0
  150.4913  141.5479  156.9270 C   0  0  0  0  0  0  0  0  0  0  0  0
  150.5376  140.3675  157.2695 O   0  0  0  0  0  0  0  0  0  0  0  0
  151.1049  142.5537  157.5832 N   0  0  0  0  0  0  0  0  0  0  0  0
  151.8930  142.4481  158.7390 C   0  0  0  0  0  0  0  0  0  0  0  0
  151.8811  143.4715  159.6330 C   0  0  0  0  0  0  0  0  0  0  0  0
  151.0100  144.7013  159.4299 C   0  0  0  0  0  0  0  0  0  0  0  0
  152.7060  143.3794  160.8196 C   0  0  0  0  0  0  0  0  0  0  0  0
  153.4727  142.2969  161.0065 C   0  0  0  0  0  0  0  0  0  0  0  0
  153.5123  141.2520  160.0723 N   0  0  0  0  0  0  0  0  0  0  0  0
  154.3980  140.1200  160.3576 C   0  0  0  0  0  0  0  0  0  0  0  0
  152.7895  141.2796  158.9159 C   0  0  0  0  0  0  0  0  0  0  0  0
  152.9098  140.3849  158.0758 O   0  0  0  0  0  0  0  0  0  0  0  0
  148.0550  141.9865  154.1098 C   0  0  0  0  0  0  0  0  0  0  0  0
  147.1373  141.1141  153.2401 C   0  0  0  0  0  0  0  0  0  0  0  0
  146.4540  140.1665  154.0551 O   0  0  0  0  0  0  0  0  0  0  0  0
  145.1855  136.3881  152.5912 H   0  0  0  0  0  0  0  0  0  0  0  0
  146.8071  136.2531  153.2575 H   0  0  0  0  0  0  0  0  0  0  0  0
  146.2851  137.7452  152.4579 H   0  0  0  0  0  0  0  0  0  0  0  0
  144.6488  138.1860  154.2653 H   0  0  0  0  0  0  0  0  0  0  0  0
  144.9734  136.6238  154.9571 H   0  0  0  0  0  0  0  0  0  0  0  0
  147.2010  137.3206  155.7077 H   0  0  0  0  0  0  0  0  0  0  0  0
  146.5757  138.8438  157.4478 H   0  0  0  0  0  0  0  0  0  0  0  0
  145.2852  139.5393  156.5039 H   0  0  0  0  0  0  0  0  0  0  0  0
  144.5465  137.9727  158.3465 H   0  0  0  0  0  0  0  0  0  0  0  0
  145.3462  136.6394  157.5225 H   0  0  0  0  0  0  0  0  0  0  0  0
  143.9585  137.4456  156.7831 H   0  0  0  0  0  0  0  0  0  0  0  0
  147.9447  138.7719  153.9336 H   0  0  0  0  0  0  0  0  0  0  0  0
  147.5491  140.5352  156.4154 H   0  0  0  0  0  0  0  0  0  0  0  0
  148.8551  139.4030  156.2503 H   0  0  0  0  0  0  0  0  0  0  0  0
  149.6912  140.6124  154.2296 H   0  0  0  0  0  0  0  0  0  0  0  0
  149.7979  142.9286  155.6434 H   0  0  0  0  0  0  0  0  0  0  0  0
  150.8953  143.4933  157.2804 H   0  0  0  0  0  0  0  0  0  0  0  0
  151.1040  145.3948  160.2658 H   0  0  0  0  0  0  0  0  0  0  0  0
  149.9602  144.4183  159.3458 H   0  0  0  0  0  0  0  0  0  0  0  0
  151.3008  145.2290  158.5210 H   0  0  0  0  0  0  0  0  0  0  0  0
  152.7005  144.1701  161.5556 H   0  0  0  0  0  0  0  0  0  0  0  0
  154.1060  142.1705  161.8725 H   0  0  0  0  0  0  0  0  0  0  0  0
  153.8435  139.1806  160.3299 H   0  0  0  0  0  0  0  0  0  0  0  0
  154.8660  140.1885  161.3401 H   0  0  0  0  0  0  0  0  0  0  0  0
  155.1973  140.0650  159.6174 H   0  0  0  0  0  0  0  0  0  0  0  0
  147.4430  142.5911  154.7810 H   0  0  0  0  0  0  0  0  0  0  0  0
  148.6146  142.6825  153.4839 H   0  0  0  0  0  0  0  0  0  0  0  0
  146.4008  141.7373  152.7330 H   0  0  0  0  0  0  0  0  0  0  0  0
  147.7068  140.6004  152.4642 H   0  0  0  0  0  0  0  0  0  0  0  0
  1  2  1  0  0  0  0
  1 25  1  0  0  0  0
  1 26  1  0  0  0  0
  1 27  1  0  0  0  0
  2  3  1  0  0  0  0
  2 28  1  0  0  0  0
  2 29  1  0  0  0  0
  3  4  1  0  0  0  0
  3  6  1  0  0  0  0
  3 30  1  0  0  0  0
  4  5  1  0  0  0  0
  4 31  1  0  0  0  0
  4 32  1  0  0  0  0
  5 33  1  0  0  0  0
  5 34  1  0  0  0  0
  5 35  1  0  0  0  0
  6 24  1  0  0  0  0
  6  7  1  0  0  0  0
  6 36  1  0  0  0  0
  7  8  1  0  0  0  0
  7 37  1  0  0  0  0
  7 38  1  0  0  0  0
  8  9  1  0  0  0  0
  8 22  1  0  0  0  0
  8 39  1  0  0  0  0
  9 10  1  0  0  0  0
  9 40  1  0  0  0  0
 10 11  2  0  0  0  0
 10 12  1  0  0  0  0
 12 13  1  0  0  0  0
 12 41  1  0  0  0  0
 13 20  1  0  0  0  0
 13 14  2  0  0  0  0
 14 15  1  0  0  0  0
 14 16  1  0  0  0  0
 15 42  1  0  0  0  0
 15 43  1  0  0  0  0
 15 44  1  0  0  0  0
 16 17  2  0  0  0  0
 16 45  1  0  0  0  0
 17 18  1  0  0  0  0
 17 46  1  0  0  0  0
 18 19  1  0  0  0  0
 18 20  1  0  0  0  0
 19 47  1  0  0  0  0
 19 48  1  0  0  0  0
 19 49  1  0  0  0  0
 20 21  2  0  0  0  0
 22 23  1  0  0  0  0
 22 50  1  0  0  0  0
 22 51  1  0  0  0  0
 23 24  1  0  0  0  0
 23 52  1  0  0  0  0
 23 53  1  0  0  0  0
M  END
> <s_m_source_file>
AV-unprocessed.smi

> <i_m_source_file_index>
2273

> <i_lp_mmshare_version>
43012

> <i_f3d_flags>
0

> <s_epik_input>
W0NIM11bQ0gyXVtDSF0oW0NIMl1bQ0gzXSlbQ0BASF0xW0NIMl1bQ0BIXShbQ0gyXVtDSDJdTzEpW05IXUMoPU8pW05IXWMyYyhbQ0gzXSlbY0hdW2NIXW4oW0NIM10pYzI9Tw==

> <s_epik_cmdline>
J2VwaWtfcHl0aG9uJywgJy1waCcsICc3LjAnLCAnLXRuJywgJzgnLCAnLW1hJywgJzIwMCcsICctbWV0YWxfYmluZGluZycsICctaW1hZScsICc8aW5maWxlLm1hZT4nLCAnLW9tYWUnLCAnPG91dGZpbGUubWFlPic=

> <r_lp_tautomer_probability>
1

> <r_epik_Ionization_Penalty>
2.66245e-05

> <r_epik_Ionization_Penalty_Charging>
6.91055e-06

> <r_epik_Ionization_Penalty_Neutral>
1.97139e-05

> <r_epik_State_Penalty>
-0

> <r_epik_Charging_Adjusted_Penalty>
6.91055e-06

> <i_epik_Tot_Q>
0

> <i_epik_Tot_abs_Q>
0

> <r_epik_Metal_State_Penalty>
-0

> <b_epik_Metal_Only>
0

> <s_lp_Force_Field>
OPLS_2005

> <r_lp_Energy>
42.9176

> <b_lp_Chiralities_Consistent>
1

> <s_lp_Variant>
AV-unprocessed.smi:2273-3

> <Gold.Version>
5.8.1

> <Gold.Id.Protein>
6NUR|6NUR_protein|mol2

> <Gold.PLP.Fitness>
43.0965

> <Gold.PLP.PLP>
-38.2716

> <Gold.PLP.part.hbond>
-2.0000

> <Gold.PLP.part.metal>
0.0000

> <Gold.PLP.part.buried>
-4.7426

> <Gold.PLP.part.nonpolar>
-30.8608

> <Gold.PLP.part.repulsive>
0.2895

> <Gold.PLP.ligand.clash>
0.0000

> <Gold.PLP.ligand.torsion>
0.6835

> <Gold.PLP.Chemscore.Hbond>
1.8326

> <Gold.PLP.Chemscore.CHOScore>
0.0000

> <Gold.PLP.Chemscore.Metal>
0.0000

> <Gold.Chemscore.Hbonds>
donor molecule, donor type, donor heavy atom, donor atom, acceptor molecule, acceptor atom, score
      L1  H     9    40       P1  8028  1.00
      P1  H  7997  8010       L1    21  0.83

> <Gold.PLP.Chemscore.Internal.Correction>
0.6941

> <Gold.Rescore>
     Score         DG    S(hbond)    S(metal)    S(lipo)     H(rot)  DE(clash)    DE(int)     intcor
     12.58     -18.87       1.76        0.00      95.48       1.42       0.23       6.07       ----

> <Gold.Chemscore.Fitness>
12.5795

> <Gold.Chemscore.DG>
-18.8739

> <Gold.Chemscore.ZeroCoef>
-5.4800

> <Gold.Chemscore.Hbond>
1.7566

> <Gold.Chemscore.Metal>
0.0000

> <Gold.Chemscore.Lipo>
95.4823

> <Gold.Chemscore.Internal_Hbond>
0.0000

> <Gold.Chemscore.DEClash>
0.2277

> <Gold.Chemscore.DEInternal>
6.0668

> <Gold.Chemscore.Rot>
1.4236

> <Gold.Chemscore.Internal.Correction>
   9.000000E+99

> <Gold.Chemscore.Hbonds>
donor molecule, donor type, donor heavy atom, donor atom, acceptor molecule, acceptor atom, score
      L1  H     9    40       P1  8028  0.90
      P1  H  7997  8010       L1    21  0.79

> <Gold.Chemscore.Hbond.Weighted>
-5.8670

> <Gold.Chemscore.Metal.Weighted>
-0.0000

> <Gold.Chemscore.Lipo.Weighted>
-11.1714

> <Gold.Chemscore.Internal_Hbond.Weighted>
0.0000

> <Gold.Chemscore.DEClash.Weighted>
0.2277

> <Gold.Chemscore.DEInternal.Weighted>
6.0668

> <Gold.Chemscore.Rot.Weighted>
3.6445

> <Gold.Chemscore.Internal.Correction.Weighted>
   9.000000E+99

> <Gold.Protein.RotatedTorsions>
[ 6907 6896 6895 6894 ] final  159.39 input  -60.11 | X-H torsion
[ 7974 7965 7964 7962 ] final  -17.15 input  175.53 | X-H torsion
[ 8008 7997 7996 7995 ] final   32.72 input   59.86 | X-H torsion
[ 10167 10162 10161 10158 ] final -166.22 input  -65.29 | X-H torsion
[ 10718 10713 10712 10709 ] final  -89.42 input   66.30 | X-H torsion
[ 10763 10752 10751 10750 ] final -101.80 input  -60.55 | X-H torsion
[ 11005 11000 10999 10996 ] final   -7.64 input  -57.11 | X-H torsion

> <Gold.Protein.ActiveResidues>
 VAL166  LYS551  ARG553  GLY616  TRP617  ASP618  TYR619  PRO620  LYS621  CYS622 
 ASP623  PHE694  ASN695  SER759  ASP760  ASP761  ALA762  ILE779  LEU786  VAL792 
 PHE793  MET794  SER795  GLU796  ALA797  LYS798  CYS799  TRP800  GLU811  SER814 

> <Gold.Protein.RotatedAtoms>
  151.9862  133.3775  159.4126 H   0  0  0  0  0  0  0  0  0  0  0  0  # atno 6907 bound_to 6896
  150.6928  134.3986  159.5118 H   0  0  0  0  0  0  0  0  0  0  0  0  # atno 6908 bound_to 6896
  152.1712  134.8832  160.0585 H   0  0  0  0  0  0  0  0  0  0  0  0  # atno 6909 bound_to 6896
  146.1954  140.3739  142.8442 H   0  0  0  0  0  0  0  0  0  0  0  0  # atno 7974 bound_to 7965
  155.1270  140.3253  155.4483 H   0  0  0  0  0  0  0  0  0  0  0  0  # atno 8008 bound_to 7997
  156.2646  140.2017  156.6339 H   0  0  0  0  0  0  0  0  0  0  0  0  # atno 8009 bound_to 7997
  154.6641  140.0544  157.0081 H   0  0  0  0  0  0  0  0  0  0  0  0  # atno 8010 bound_to 7997
  139.6129  144.0778  152.1860 H   0  0  0  0  0  0  0  0  0  0  0  0  # atno 10167 bound_to 10162
  155.9984  130.4871  150.5168 H   0  0  0  0  0  0  0  0  0  0  0  0  # atno 10718 bound_to 10713
  154.7686  135.4884  153.9603 H   0  0  0  0  0  0  0  0  0  0  0  0  # atno 10763 bound_to 10752
  153.1338  135.6758  153.9142 H   0  0  0  0  0  0  0  0  0  0  0  0  # atno 10764 bound_to 10752
  153.8837  135.3129  155.3424 H   0  0  0  0  0  0  0  0  0  0  0  0  # atno 10765 bound_to 10752
  140.7150  133.8877  155.8778 H   0  0  0  0  0  0  0  0  0  0  0  0  # atno 11005 bound_to 11000
  144.8570  140.7085  143.6131 LP  0  0  0  0  0  0  0  0  0  0  0  0  # atno 17320 bound_to 7965
  145.3659  139.1670  143.4358 LP  0  0  0  0  0  0  0  0  0  0  0  0  # atno 17321 bound_to 7965
  140.0401  144.6014  150.7418 LP  0  0  0  0  0  0  0  0  0  0  0  0  # atno 17342 bound_to 10162
  140.7331  143.2714  151.3878 LP  0  0  0  0  0  0  0  0  0  0  0  0  # atno 17343 bound_to 10162
  157.3134  131.0668  151.1984 LP  0  0  0  0  0  0  0  0  0  0  0  0  # atno 17370 bound_to 10713
  157.2922  130.6802  149.6120 LP  0  0  0  0  0  0  0  0  0  0  0  0  # atno 17371 bound_to 10713
  141.0052  134.1095  157.4277 LP  0  0  0  0  0  0  0  0  0  0  0  0  # atno 17394 bound_to 11000
  139.8862  135.0079  156.6484 LP  0  0  0  0  0  0  0  0  0  0  0  0  # atno 17395 bound_to 11000

$$$$
