AV-unprocessed.smi:492|AV-procd|sdf|2708|dock1
  -GOLD-   2262023153D 1   1.00000     0.00000
 Structure written by MMmdl.
 46 48  0  0  0  0  0  0  0  0  1 V2000
  142.8604  146.3086  154.6705 C   0  0  0  0  0  0  0  0  0  0  0  0
  143.3958  145.8461  155.9020 O   0  0  0  0  0  0  0  0  0  0  0  0
  144.1034  144.6631  155.8984 C   0  0  0  0  0  0  0  0  0  0  0  0
  144.3854  143.9062  154.7333 C   0  0  0  0  0  0  0  0  0  0  0  0
  145.1169  142.7055  154.8214 C   0  0  0  0  0  0  0  0  0  0  0  0
  145.5831  142.2451  156.0692 C   0  0  0  0  0  0  0  0  0  0  0  0
  146.3548  140.9423  156.1615 C   0  0  0  0  0  0  0  0  0  0  0  0
  147.4887  140.9395  155.3105 O   0  0  0  0  0  0  0  0  0  0  0  0
  148.6796  140.5378  155.9681 C   0  0  0  0  0  0  0  0  0  0  0  0
  149.8874  141.2391  155.3265 C   0  0  2  0  0  0  0  0  0  0  0  0
  149.7875  141.1262  153.9207 O   0  0  0  0  0  0  0  0  0  0  0  0
  151.2463  140.7282  155.8509 C   0  0  0  0  0  0  0  0  0  0  0  0
  151.4697  141.0556  157.2517 N   0  0  0  0  0  0  0  0  0  0  0  0
  151.6143  140.2056  158.2976 C   0  0  0  0  0  0  0  0  0  0  0  0
  151.5649  138.7210  158.1214 C   0  0  0  0  0  0  0  0  0  0  0  0
  151.8060  140.7750  159.4877 N   0  0  0  0  0  0  0  0  0  0  0  0
  151.7864  142.1231  159.1848 C   0  0  0  0  0  0  0  0  0  0  0  0
  151.9352  143.2546  160.0186 C   0  0  0  0  0  0  0  0  0  0  0  0
  151.8806  144.5546  159.4743 C   0  0  0  0  0  0  0  0  0  0  0  0
  151.6755  144.7424  158.0921 C   0  0  0  0  0  0  0  0  0  0  0  0
  151.5236  143.6291  157.2439 C   0  0  0  0  0  0  0  0  0  0  0  0
  151.5799  142.3333  157.7919 C   0  0  0  0  0  0  0  0  0  0  0  0
  145.2969  142.9890  157.2321 C   0  0  0  0  0  0  0  0  0  0  0  0
  144.5657  144.1889  157.1431 C   0  0  0  0  0  0  0  0  0  0  0  0
  142.3321  147.2470  154.8384 H   0  0  0  0  0  0  0  0  0  0  0  0
  142.1452  145.5980  154.2540 H   0  0  0  0  0  0  0  0  0  0  0  0
  143.6478  146.4998  153.9402 H   0  0  0  0  0  0  0  0  0  0  0  0
  144.0500  144.2245  153.7582 H   0  0  0  0  0  0  0  0  0  0  0  0
  145.3195  142.1393  153.9240 H   0  0  0  0  0  0  0  0  0  0  0  0
  146.6654  140.7998  157.1975 H   0  0  0  0  0  0  0  0  0  0  0  0
  145.6988  140.1108  155.8989 H   0  0  0  0  0  0  0  0  0  0  0  0
  148.6281  140.7582  157.0358 H   0  0  0  0  0  0  0  0  0  0  0  0
  148.7931  139.4574  155.8667 H   0  0  0  0  0  0  0  0  0  0  0  0
  149.8072  142.3038  155.5451 H   0  0  0  0  0  0  0  0  0  0  0  0
  149.2193  140.3984  153.7197 H   0  0  0  0  0  0  0  0  0  0  0  0
  151.3201  139.6483  155.7215 H   0  0  0  0  0  0  0  0  0  0  0  0
  152.0650  141.1558  155.2715 H   0  0  0  0  0  0  0  0  0  0  0  0
  151.6955  138.2185  159.0804 H   0  0  0  0  0  0  0  0  0  0  0  0
  152.3603  138.3927  157.4524 H   0  0  0  0  0  0  0  0  0  0  0  0
  150.6039  138.4187  157.7061 H   0  0  0  0  0  0  0  0  0  0  0  0
  152.0919  143.1217  161.0787 H   0  0  0  0  0  0  0  0  0  0  0  0
  151.9957  145.4122  160.1207 H   0  0  0  0  0  0  0  0  0  0  0  0
  151.6341  145.7414  157.6836 H   0  0  0  0  0  0  0  0  0  0  0  0
  151.3643  143.7699  156.1851 H   0  0  0  0  0  0  0  0  0  0  0  0
  145.6362  142.6436  158.1977 H   0  0  0  0  0  0  0  0  0  0  0  0
  144.3559  144.7511  158.0414 H   0  0  0  0  0  0  0  0  0  0  0  0
  1  2  1  0  0  0  0
  1 25  1  0  0  0  0
  1 26  1  0  0  0  0
  1 27  1  0  0  0  0
  2  3  1  0  0  0  0
  3 24  1  0  0  0  0
  3  4  2  0  0  0  0
  4  5  1  0  0  0  0
  4 28  1  0  0  0  0
  5  6  2  0  0  0  0
  5 29  1  0  0  0  0
  6  7  1  0  0  0  0
  6 23  1  0  0  0  0
  7  8  1  0  0  0  0
  7 30  1  0  0  0  0
  7 31  1  0  0  0  0
  8  9  1  0  0  0  0
  9 10  1  0  0  0  0
  9 32  1  0  0  0  0
  9 33  1  0  0  0  0
 10 11  1  0  0  0  0
 10 12  1  0  0  0  0
 10 34  1  0  0  0  0
 11 35  1  0  0  0  0
 12 13  1  0  0  0  0
 12 36  1  0  0  0  0
 12 37  1  0  0  0  0
 13 22  1  0  0  0  0
 13 14  1  0  0  0  0
 14 15  1  0  0  0  0
 14 16  2  0  0  0  0
 15 38  1  0  0  0  0
 15 39  1  0  0  0  0
 15 40  1  0  0  0  0
 16 17  1  0  0  0  0
 17 22  2  0  0  0  0
 17 18  1  0  0  0  0
 18 19  2  0  0  0  0
 18 41  1  0  0  0  0
 19 20  1  0  0  0  0
 19 42  1  0  0  0  0
 20 21  2  0  0  0  0
 20 43  1  0  0  0  0
 21 22  1  0  0  0  0
 21 44  1  0  0  0  0
 23 24  2  0  0  0  0
 23 45  1  0  0  0  0
 24 46  1  0  0  0  0
M  END
> <s_m_source_file>
AV-unprocessed.smi

> <i_m_source_file_index>
492

> <i_lp_mmshare_version>
43012

> <i_f3d_flags>
0

> <s_epik_input>
W0NIM11PYzFbY0hdW2NIXWMoW2NIXVtjSF0xKVtDSDJdT1tDSDJdW0NASF0oW09IXSlbQ0gyXW4oYyhuMilbQ0gzXSljKGMyMylbY0hdW2NIXVtjSF1bY0hdMw==

> <s_epik_cmdline>
J2VwaWtfcHl0aG9uJywgJy1waCcsICc3LjAnLCAnLXRuJywgJzgnLCAnLW1hJywgJzIwMCcsICctbWV0YWxfYmluZGluZycsICctaW1hZScsICc8aW5maWxlLm1hZT4nLCAnLW9tYWUnLCAnPG91dGZpbGUubWFlPic=

> <r_lp_tautomer_probability>
1

> <r_epik_Ionization_Penalty>
0.132603

> <r_epik_Ionization_Penalty_Charging>
0

> <r_epik_Ionization_Penalty_Neutral>
0.132603

> <r_epik_State_Penalty>
0.121982

> <r_epik_Charging_Adjusted_Penalty>
0.121982

> <i_epik_Tot_Q>
0

> <i_epik_Tot_abs_Q>
0

> <r_epik_Metal_State_Penalty>
0.000135431

> <b_epik_Metal_Only>
0

> <s_lp_Force_Field>
OPLS_2005

> <r_lp_Energy>
19.0412

> <b_lp_Chiralities_Consistent>
1

> <s_lp_Variant>
AV-unprocessed.smi:492-1

> <Gold.Version>
5.8.1

> <Gold.Id.Protein>
6NUR|6NUR_protein|mol2

> <Gold.PLP.Fitness>
47.3570

> <Gold.PLP.PLP>
-45.0043

> <Gold.PLP.part.hbond>
-2.9500

> <Gold.PLP.part.metal>
0.0000

> <Gold.PLP.part.buried>
-5.2017

> <Gold.PLP.part.nonpolar>
-35.9690

> <Gold.PLP.part.repulsive>
0.0958

> <Gold.PLP.ligand.clash>
0.0000

> <Gold.PLP.ligand.torsion>
0.6859

> <Gold.PLP.Chemscore.Hbond>
1.1792

> <Gold.PLP.Chemscore.CHOScore>
0.0000

> <Gold.PLP.Chemscore.Metal>
0.0000

> <Gold.Chemscore.Hbonds>
donor molecule, donor type, donor heavy atom, donor atom, acceptor molecule, acceptor atom, score
      P1  H  7989  7998       L1    11  0.37
      P1  H  8011  8017       L1    11  0.81

> <Gold.PLP.Chemscore.Internal.Correction>
0.1869

> <Gold.Rescore>
     Score         DG    S(hbond)    S(metal)    S(lipo)     H(rot)  DE(clash)    DE(int)     intcor
     14.73     -15.49       0.80        0.00     115.24       2.40       0.13       0.64       ----

> <Gold.Chemscore.Fitness>
14.7258

> <Gold.Chemscore.DG>
-15.4912

> <Gold.Chemscore.ZeroCoef>
-5.4800

> <Gold.Chemscore.Hbond>
0.7994

> <Gold.Chemscore.Metal>
0.0000

> <Gold.Chemscore.Lipo>
115.2403

> <Gold.Chemscore.Internal_Hbond>
0.0000

> <Gold.Chemscore.DEClash>
0.1301

> <Gold.Chemscore.DEInternal>
0.6354

> <Gold.Chemscore.Rot>
2.3991

> <Gold.Chemscore.Internal.Correction>
   9.000000E+99

> <Gold.Chemscore.Hbonds>
donor molecule, donor type, donor heavy atom, donor atom, acceptor molecule, acceptor atom, score
      P1  H  7989  7998       L1    11  0.10
      P1  H  8011  8017       L1    11  0.52

> <Gold.Chemscore.Hbond.Weighted>
-2.6699

> <Gold.Chemscore.Metal.Weighted>
-0.0000

> <Gold.Chemscore.Lipo.Weighted>
-13.4831

> <Gold.Chemscore.Internal_Hbond.Weighted>
0.0000

> <Gold.Chemscore.DEClash.Weighted>
0.1301

> <Gold.Chemscore.DEInternal.Weighted>
0.6354

> <Gold.Chemscore.Rot.Weighted>
6.1417

> <Gold.Chemscore.Internal.Correction.Weighted>
   9.000000E+99

> <Gold.Protein.RotatedTorsions>
[ 6907 6896 6895 6894 ] final   81.45 input  -60.11 | X-H torsion
[ 7974 7965 7964 7962 ] final  157.94 input  175.53 | X-H torsion
[ 8008 7997 7996 7995 ] final  -11.25 input   59.86 | X-H torsion
[ 10167 10162 10161 10158 ] final  175.63 input  -65.29 | X-H torsion
[ 10718 10713 10712 10709 ] final   86.80 input   66.30 | X-H torsion
[ 10763 10752 10751 10750 ] final  -29.72 input  -60.55 | X-H torsion
[ 11005 11000 10999 10996 ] final   44.06 input  -57.11 | X-H torsion

> <Gold.Protein.ActiveResidues>
 VAL166  LYS551  ARG553  GLY616  TRP617  ASP618  TYR619  PRO620  LYS621  CYS622 
 ASP623  PHE694  ASN695  SER759  ASP760  ASP761  ALA762  ILE779  LEU786  VAL792 
 PHE793  MET794  SER795  GLU796  ALA797  LYS798  CYS799  TRP800  GLU811  SER814 

> <Gold.Protein.RotatedAtoms>
  152.5269  134.3201  159.9145 H   0  0  0  0  0  0  0  0  0  0  0  0  # atno 6907 bound_to 6896
  151.3150  133.4057  159.2657 H   0  0  0  0  0  0  0  0  0  0  0  0  # atno 6908 bound_to 6896
  151.0006  134.9336  159.8009 H   0  0  0  0  0  0  0  0  0  0  0  0  # atno 6909 bound_to 6896
  144.7874  139.7409  143.6235 H   0  0  0  0  0  0  0  0  0  0  0  0  # atno 7974 bound_to 7965
  154.5481  140.2307  155.8530 H   0  0  0  0  0  0  0  0  0  0  0  0  # atno 8008 bound_to 7997
  156.1922  140.3074  155.9315 H   0  0  0  0  0  0  0  0  0  0  0  0  # atno 8009 bound_to 7997
  155.3124  140.0436  157.3026 H   0  0  0  0  0  0  0  0  0  0  0  0  # atno 8010 bound_to 7997
  139.5184  144.3009  152.0379 H   0  0  0  0  0  0  0  0  0  0  0  0  # atno 10167 bound_to 10162
  157.6933  131.0230  150.3027 H   0  0  0  0  0  0  0  0  0  0  0  0  # atno 10718 bound_to 10713
  153.7692  135.6913  153.4910 H   0  0  0  0  0  0  0  0  0  0  0  0  # atno 10763 bound_to 10752
  153.1886  135.4479  155.0119 H   0  0  0  0  0  0  0  0  0  0  0  0  # atno 10764 bound_to 10752
  154.8124  135.3383  154.7202 H   0  0  0  0  0  0  0  0  0  0  0  0  # atno 10765 bound_to 10752
  140.1587  134.4369  155.8332 H   0  0  0  0  0  0  0  0  0  0  0  0  # atno 11005 bound_to 11000
  146.2112  139.5470  142.9680 LP  0  0  0  0  0  0  0  0  0  0  0  0  # atno 17320 bound_to 7965
  145.5884  141.0373  143.2083 LP  0  0  0  0  0  0  0  0  0  0  0  0  # atno 17321 bound_to 7965
  140.2457  144.4222  150.6242 LP  0  0  0  0  0  0  0  0  0  0  0  0  # atno 17342 bound_to 10162
  140.6260  143.2181  151.6596 LP  0  0  0  0  0  0  0  0  0  0  0  0  # atno 17343 bound_to 10162
  156.3540  130.3836  149.7305 LP  0  0  0  0  0  0  0  0  0  0  0  0  # atno 17370 bound_to 10713
  156.4773  130.8025  151.3040 LP  0  0  0  0  0  0  0  0  0  0  0  0  # atno 17371 bound_to 10713
  141.2207  133.6904  156.7554 LP  0  0  0  0  0  0  0  0  0  0  0  0  # atno 17394 bound_to 11000
  140.2516  134.8536  157.3673 LP  0  0  0  0  0  0  0  0  0  0  0  0  # atno 17395 bound_to 11000

$$$$
