AV-unprocessed.smi:414|AV-procd|sdf|2515|dock8
  -GOLD-   2262022463D 1   1.00000     0.00000
 Structure written by MMmdl.
 38 39  0  0  0  0  0  0  0  0  1 V2000
  152.5677  143.0124  162.7470 C   0  0  0  0  0  0  0  0  0  0  0  0
  152.6516  143.6179  161.3388 C   0  0  2  0  0  0  0  0  0  0  0  0
  151.3548  144.3626  160.9688 C   0  0  0  0  0  0  0  0  0  0  0  0
  151.4312  144.9658  159.5553 C   0  0  0  0  0  0  0  0  0  0  0  0
  151.7673  143.9041  158.4857 C   0  0  2  0  0  0  0  0  0  0  0  0
  150.6633  142.9655  158.2918 N   0  0  0  0  0  0  0  0  0  0  0  0
  150.6116  142.0002  157.3616 C   0  0  0  0  0  0  0  0  0  0  0  0
  151.5165  141.7972  156.5507 O   0  0  0  0  0  0  0  0  0  0  0  0
  149.3310  141.1523  157.3529 C   0  0  0  0  0  0  0  0  0  0  0  0
  148.6681  141.1050  156.0411 N   0  0  0  0  0  0  0  0  0  0  0  0
  147.3718  141.5789  155.8978 C   0  0  0  0  0  0  0  0  0  0  0  0
  146.7028  141.5775  154.7206 C   0  0  0  0  0  0  0  0  0  0  0  0
  147.3364  141.0618  153.5119 C   0  0  0  0  0  0  0  0  0  0  0  0
  146.8130  141.0166  152.4009 O   0  0  0  0  0  0  0  0  0  0  0  0
  148.6415  140.5968  153.6960 N   0  0  0  0  0  0  0  0  0  0  0  0
  149.3372  140.5971  154.9060 C   0  0  0  0  0  0  0  0  0  0  0  0
  150.4894  140.1685  154.9568 O   0  0  0  0  0  0  0  0  0  0  0  0
  153.0511  143.1411  158.8652 C   0  0  0  0  0  0  0  0  0  0  0  0
  152.9778  142.5444  160.2828 C   0  0  0  0  0  0  0  0  0  0  0  0
  149.1222  140.2335  152.8858 H   0  0  0  0  0  0  0  0  0  0  0  0
  151.7696  142.2722  162.8136 H   0  0  0  0  0  0  0  0  0  0  0  0
  152.3713  143.7818  163.4943 H   0  0  0  0  0  0  0  0  0  0  0  0
  153.5017  142.5201  163.0190 H   0  0  0  0  0  0  0  0  0  0  0  0
  153.4659  144.3440  161.3420 H   0  0  0  0  0  0  0  0  0  0  0  0
  150.5052  143.6813  161.0309 H   0  0  0  0  0  0  0  0  0  0  0  0
  151.1630  145.1567  161.6912 H   0  0  0  0  0  0  0  0  0  0  0  0
  150.4959  145.4725  159.3153 H   0  0  0  0  0  0  0  0  0  0  0  0
  152.2008  145.7384  159.5417 H   0  0  0  0  0  0  0  0  0  0  0  0
  151.9469  144.4100  157.5353 H   0  0  0  0  0  0  0  0  0  0  0  0
  149.8745  143.0620  158.9145 H   0  0  0  0  0  0  0  0  0  0  0  0
  149.5686  140.1444  157.6985 H   0  0  0  0  0  0  0  0  0  0  0  0
  148.6461  141.5570  158.0998 H   0  0  0  0  0  0  0  0  0  0  0  0
  146.8647  141.9744  156.7666 H   0  0  0  0  0  0  0  0  0  0  0  0
  145.6939  141.9611  154.6728 H   0  0  0  0  0  0  0  0  0  0  0  0
  153.2514  142.3534  158.1380 H   0  0  0  0  0  0  0  0  0  0  0  0
  153.9002  143.8237  158.8116 H   0  0  0  0  0  0  0  0  0  0  0  0
  153.9268  142.0639  160.5231 H   0  0  0  0  0  0  0  0  0  0  0  0
  152.2225  141.7579  160.3110 H   0  0  0  0  0  0  0  0  0  0  0  0
  1  2  1  0  0  0  0
  1 21  1  0  0  0  0
  1 22  1  0  0  0  0
  1 23  1  0  0  0  0
  2 19  1  0  0  0  0
  2  3  1  0  0  0  0
  2 24  1  0  0  0  0
  3  4  1  0  0  0  0
  3 25  1  0  0  0  0
  3 26  1  0  0  0  0
  4  5  1  0  0  0  0
  4 27  1  0  0  0  0
  4 28  1  0  0  0  0
  5  6  1  0  0  0  0
  5 18  1  0  0  0  0
  5 29  1  0  0  0  0
  6  7  1  0  0  0  0
  6 30  1  0  0  0  0
  7  8  2  0  0  0  0
  7  9  1  0  0  0  0
  9 10  1  0  0  0  0
  9 31  1  0  0  0  0
  9 32  1  0  0  0  0
 10 16  1  0  0  0  0
 10 11  1  0  0  0  0
 11 12  2  0  0  0  0
 11 33  1  0  0  0  0
 12 13  1  0  0  0  0
 12 34  1  0  0  0  0
 13 14  2  0  0  0  0
 13 15  1  0  0  0  0
 15 20  1  0  0  0  0
 15 16  1  0  0  0  0
 16 17  2  0  0  0  0
 18 19  1  0  0  0  0
 18 35  1  0  0  0  0
 18 36  1  0  0  0  0
 19 37  1  0  0  0  0
 19 38  1  0  0  0  0
M  END
> <s_m_source_file>
AV-unprocessed.smi

> <i_m_source_file_index>
414

> <i_lp_mmshare_version>
43012

> <i_f3d_flags>
0

> <s_epik_input>
W0NIM11bQ0BASF0xW0NIMl1bQ0gyXVtDQEhdKFtDSDJdW0NIMl0xKVtOSF1DKD1PKVtDSDJdbjJbY0hdW2NIXWMoPU8pW25IXWMyPU8=

> <s_epik_cmdline>
J2VwaWtfcHl0aG9uJywgJy1waCcsICc3LjAnLCAnLXRuJywgJzgnLCAnLW1hJywgJzIwMCcsICctbWV0YWxfYmluZGluZycsICctaW1hZScsICc8aW5maWxlLm1hZT4nLCAnLW9tYWUnLCAnPG91dGZpbGUubWFlPic=

> <r_lp_tautomer_probability>
0.999537

> <r_epik_Ionization_Penalty>
0.00309124

> <r_epik_Ionization_Penalty_Charging>
0.00309122

> <r_epik_Ionization_Penalty_Neutral>
1.90469e-08

> <r_epik_State_Penalty>
0.00217484

> <r_epik_Charging_Adjusted_Penalty>
0.00526606

> <i_epik_Tot_Q>
0

> <i_epik_Tot_abs_Q>
0

> <r_epik_Metal_State_Penalty>
0.362537

> <b_epik_Metal_Only>
0

> <s_lp_Force_Field>
OPLS_2005

> <r_lp_Energy>
7.68142

> <b_lp_Chiralities_Consistent>
1

> <s_lp_Variant>
AV-unprocessed.smi:414-2

> <Gold.Version>
5.8.1

> <Gold.Id.Protein>
6NUR|6NUR_protein|mol2

> <Gold.PLP.Fitness>
41.6767

> <Gold.PLP.PLP>
-35.8005

> <Gold.PLP.part.hbond>
-2.0000

> <Gold.PLP.part.metal>
0.0000

> <Gold.PLP.part.buried>
-1.3161

> <Gold.PLP.part.nonpolar>
-33.4032

> <Gold.PLP.part.repulsive>
0.5753

> <Gold.PLP.ligand.clash>
0.0166

> <Gold.PLP.ligand.torsion>
0.0574

> <Gold.PLP.Chemscore.Hbond>
2.0000

> <Gold.PLP.Chemscore.CHOScore>
0.0000

> <Gold.PLP.Chemscore.Metal>
0.0000

> <Gold.Chemscore.Hbonds>
donor molecule, donor type, donor heavy atom, donor atom, acceptor molecule, acceptor atom, score
      L1  H    15    20       P1  7957  1.00
      P1  H  7989  7998       L1    17  1.00

> <Gold.PLP.Chemscore.Internal.Correction>
0.0075

> <Gold.Rescore>
     Score         DG    S(hbond)    S(metal)    S(lipo)     H(rot)  DE(clash)    DE(int)     intcor
     15.31     -18.72       1.93        0.00      95.12       1.69       1.80       1.62       ----

> <Gold.Chemscore.Fitness>
15.3067

> <Gold.Chemscore.DG>
-18.7196

> <Gold.Chemscore.ZeroCoef>
-5.4800

> <Gold.Chemscore.Hbond>
1.9252

> <Gold.Chemscore.Metal>
0.0000

> <Gold.Chemscore.Lipo>
95.1213

> <Gold.Chemscore.Internal_Hbond>
0.0000

> <Gold.Chemscore.DEClash>
1.7972

> <Gold.Chemscore.DEInternal>
1.6156

> <Gold.Chemscore.Rot>
1.6874

> <Gold.Chemscore.Internal.Correction>
   9.000000E+99

> <Gold.Chemscore.Hbonds>
donor molecule, donor type, donor heavy atom, donor atom, acceptor molecule, acceptor atom, score
      L1  H    15    20       P1  7957  0.99
      P1  H  7989  7998       L1    17  0.80

> <Gold.Chemscore.Hbond.Weighted>
-6.4302

> <Gold.Chemscore.Metal.Weighted>
-0.0000

> <Gold.Chemscore.Lipo.Weighted>
-11.1292

> <Gold.Chemscore.Internal_Hbond.Weighted>
0.0000

> <Gold.Chemscore.DEClash.Weighted>
1.7972

> <Gold.Chemscore.DEInternal.Weighted>
1.6156

> <Gold.Chemscore.Rot.Weighted>
4.3198

> <Gold.Chemscore.Internal.Correction.Weighted>
   9.000000E+99

> <Gold.Protein.RotatedTorsions>
[ 6907 6896 6895 6894 ] final  133.07 input  -60.11 | X-H torsion
[ 7974 7965 7964 7962 ] final  -69.14 input  175.53 | X-H torsion
[ 8008 7997 7996 7995 ] final   50.68 input   59.86 | X-H torsion
[ 10167 10162 10161 10158 ] final -114.53 input  -65.29 | X-H torsion
[ 10718 10713 10712 10709 ] final  113.86 input   66.30 | X-H torsion
[ 10763 10752 10751 10750 ] final  -73.80 input  -60.55 | X-H torsion
[ 11005 11000 10999 10996 ] final  133.94 input  -57.11 | X-H torsion

> <Gold.Protein.ActiveResidues>
 VAL166  LYS551  ARG553  GLY616  TRP617  ASP618  TYR619  PRO620  LYS621  CYS622 
 ASP623  PHE694  ASN695  SER759  ASP760  ASP761  ALA762  ILE779  LEU786  VAL792 
 PHE793  MET794  SER795  GLU796  ALA797  LYS798  CYS799  TRP800  GLU811  SER814 

> <Gold.Protein.RotatedAtoms>
  152.3258  133.5904  159.5775 H   0  0  0  0  0  0  0  0  0  0  0  0  # atno 6907 bound_to 6896
  150.7396  133.9942  159.3626 H   0  0  0  0  0  0  0  0  0  0  0  0  # atno 6908 bound_to 6896
  151.7822  135.0759  160.0426 H   0  0  0  0  0  0  0  0  0  0  0  0  # atno 6909 bound_to 6896
  145.7075  140.9092  143.0698 H   0  0  0  0  0  0  0  0  0  0  0  0  # atno 7974 bound_to 7965
  155.4228  140.3447  155.4273 H   0  0  0  0  0  0  0  0  0  0  0  0  # atno 8008 bound_to 7997
  156.1382  140.1534  156.8992 H   0  0  0  0  0  0  0  0  0  0  0  0  # atno 8009 bound_to 7997
  154.4949  140.0830  156.7656 H   0  0  0  0  0  0  0  0  0  0  0  0  # atno 8010 bound_to 7997
  140.0999  143.4622  152.1818 H   0  0  0  0  0  0  0  0  0  0  0  0  # atno 10167 bound_to 10162
  157.6314  131.0990  150.7101 H   0  0  0  0  0  0  0  0  0  0  0  0  # atno 10718 bound_to 10713
  154.4644  135.5885  153.6278 H   0  0  0  0  0  0  0  0  0  0  0  0  # atno 10763 bound_to 10752
  152.9827  135.6051  154.3446 H   0  0  0  0  0  0  0  0  0  0  0  0  # atno 10764 bound_to 10752
  154.3321  135.2842  155.2445 H   0  0  0  0  0  0  0  0  0  0  0  0  # atno 10765 bound_to 10752
  139.9883  134.9524  156.9795 H   0  0  0  0  0  0  0  0  0  0  0  0  # atno 11005 bound_to 11000
  144.6951  139.9030  143.7459 LP  0  0  0  0  0  0  0  0  0  0  0  0  # atno 17320 bound_to 7965
  146.0742  139.3731  143.0504 LP  0  0  0  0  0  0  0  0  0  0  0  0  # atno 17321 bound_to 7965
  139.5677  144.7445  151.3977 LP  0  0  0  0  0  0  0  0  0  0  0  0  # atno 17342 bound_to 10162
  140.6983  143.7694  150.7362 LP  0  0  0  0  0  0  0  0  0  0  0  0  # atno 17343 bound_to 10162
  156.7440  130.4748  149.5471 LP  0  0  0  0  0  0  0  0  0  0  0  0  # atno 17370 bound_to 10713
  156.1521  130.6317  151.0609 LP  0  0  0  0  0  0  0  0  0  0  0  0  # atno 17371 bound_to 10713
  140.4959  134.1146  155.7241 LP  0  0  0  0  0  0  0  0  0  0  0  0  # atno 17394 bound_to 11000
  141.1544  133.8910  157.2016 LP  0  0  0  0  0  0  0  0  0  0  0  0  # atno 17395 bound_to 11000

$$$$
