AV-unprocessed.smi:273|AV-procd|sdf|2055|dock2
  -GOLD-   2262021293D 1   1.00000     0.00000
 Structure written by MMmdl.
 59 62  0  0  0  0  0  0  0  0  1 V2000
  151.9157  144.2410  159.2942 C   0  0  0  0  0  0  0  0  0  0  0  0
  152.0434  144.3302  157.7678 C   0  0  0  0  0  0  0  0  0  0  0  0
  151.1824  143.3597  157.1031 N   0  0  0  0  0  0  0  0  0  0  0  0
  151.2106  142.0336  157.3074 C   0  0  0  0  0  0  0  0  0  0  0  0
  151.9931  141.4872  158.0857 O   0  0  0  0  0  0  0  0  0  0  0  0
  150.1952  141.1995  156.5159 C   0  0  0  0  0  0  0  0  0  0  0  0
  149.1873  140.5074  157.4574 C   0  0  0  0  0  0  0  0  0  0  0  0
  148.1962  139.6418  156.6624 C   0  0  0  0  0  0  0  0  0  0  0  0
  148.9063  138.6932  155.8103 N   0  0  0  0  0  0  0  0  0  0  0  0
  148.0916  137.7542  155.2835 C   0  0  0  0  0  0  0  0  0  0  0  0
  148.0230  136.5658  155.9321 N   0  0  0  0  0  0  0  0  0  0  0  0
  147.2245  135.5979  155.4720 C   0  0  0  0  0  0  0  0  0  0  0  0
  146.4203  135.6142  154.4067 N   0  0  0  0  0  0  0  0  0  0  0  0
  146.4781  136.8141  153.7603 C   0  0  0  0  0  0  0  0  0  0  0  0
  147.2810  137.9313  154.1261 C   0  0  0  0  0  0  0  0  0  0  0  0
  147.0663  138.9783  153.2373 N   0  0  0  0  0  0  0  0  0  0  0  0
  146.1956  138.5040  152.3888 C   0  0  0  0  0  0  0  0  0  0  0  0
  145.7899  137.2106  152.6269 N   0  0  0  0  0  0  0  0  0  0  0  0
  144.8279  136.4491  151.8482 C   0  0  0  0  0  0  0  0  0  0  0  0
  144.6668  134.9859  152.3319 C   0  0  1  0  0  0  0  0  0  0  0  0
  143.3077  134.7852  153.0501 C   0  0  0  0  0  0  0  0  0  0  0  0
  143.4706  134.5871  154.4386 O   0  0  0  0  0  0  0  0  0  0  0  0
  144.8576  134.0021  151.1443 C   0  0  2  0  0  0  0  0  0  0  0  0
  144.4316  132.5661  151.4002 C   0  0  0  0  0  0  0  0  0  0  0  0
  145.1515  131.8078  150.2916 C   0  0  0  0  0  0  0  0  0  0  0  0
  146.3664  132.5139  150.0741 O   0  0  0  0  0  0  0  0  0  0  0  0
  146.3168  133.7784  150.7267 C   0  0  0  0  0  0  0  0  0  0  0  0
  149.8682  139.2871  154.8849 C   0  0  0  0  0  0  0  0  0  0  0  0
  150.8989  140.1354  155.6477 C   0  0  0  0  0  0  0  0  0  0  0  0
  152.5340  144.9965  159.7790 H   0  0  0  0  0  0  0  0  0  0  0  0
  152.2349  143.2657  159.6636 H   0  0  0  0  0  0  0  0  0  0  0  0
  150.8854  144.3997  159.6138 H   0  0  0  0  0  0  0  0  0  0  0  0
  151.7549  145.3265  157.4322 H   0  0  0  0  0  0  0  0  0  0  0  0
  153.0817  144.1885  157.4633 H   0  0  0  0  0  0  0  0  0  0  0  0
  150.5072  143.7237  156.4464 H   0  0  0  0  0  0  0  0  0  0  0  0
  149.6401  141.8666  155.8534 H   0  0  0  0  0  0  0  0  0  0  0  0
  149.7133  139.8775  158.1768 H   0  0  0  0  0  0  0  0  0  0  0  0
  148.6392  141.2499  158.0389 H   0  0  0  0  0  0  0  0  0  0  0  0
  147.5398  139.1077  157.3511 H   0  0  0  0  0  0  0  0  0  0  0  0
  147.5607  140.2758  156.0422 H   0  0  0  0  0  0  0  0  0  0  0  0
  147.2298  134.6796  156.0404 H   0  0  0  0  0  0  0  0  0  0  0  0
  145.8220  139.0881  151.5602 H   0  0  0  0  0  0  0  0  0  0  0  0
  143.8663  136.9629  151.8748 H   0  0  0  0  0  0  0  0  0  0  0  0
  145.1637  136.4817  150.8120 H   0  0  0  0  0  0  0  0  0  0  0  0
  145.4599  134.7996  153.0579 H   0  0  0  0  0  0  0  0  0  0  0  0
  142.6654  135.6582  152.9452 H   0  0  0  0  0  0  0  0  0  0  0  0
  142.7629  133.9440  152.6207 H   0  0  0  0  0  0  0  0  0  0  0  0
  143.2237  133.6986  154.6458 H   0  0  0  0  0  0  0  0  0  0  0  0
  144.3053  134.3723  150.2787 H   0  0  0  0  0  0  0  0  0  0  0  0
  144.7877  132.2303  152.3753 H   0  0  0  0  0  0  0  0  0  0  0  0
  143.3518  132.4219  151.3601 H   0  0  0  0  0  0  0  0  0  0  0  0
  145.3355  130.7649  150.5500 H   0  0  0  0  0  0  0  0  0  0  0  0
  144.5658  131.8324  149.3717 H   0  0  0  0  0  0  0  0  0  0  0  0
  146.6882  134.5648  150.0692 H   0  0  0  0  0  0  0  0  0  0  0  0
  146.9674  133.7353  151.6013 H   0  0  0  0  0  0  0  0  0  0  0  0
  150.3744  138.5014  154.3225 H   0  0  0  0  0  0  0  0  0  0  0  0
  149.3499  139.9180  154.1629 H   0  0  0  0  0  0  0  0  0  0  0  0
  151.5761  140.6125  154.9383 H   0  0  0  0  0  0  0  0  0  0  0  0
  151.5120  139.4820  156.2708 H   0  0  0  0  0  0  0  0  0  0  0  0
  1  2  1  0  0  0  0
  1 30  1  0  0  0  0
  1 31  1  0  0  0  0
  1 32  1  0  0  0  0
  2  3  1  0  0  0  0
  2 33  1  0  0  0  0
  2 34  1  0  0  0  0
  3  4  1  0  0  0  0
  3 35  1  0  0  0  0
  4  5  2  0  0  0  0
  4  6  1  0  0  0  0
  6 29  1  0  0  0  0
  6  7  1  0  0  0  0
  6 36  1  0  0  0  0
  7  8  1  0  0  0  0
  7 37  1  0  0  0  0
  7 38  1  0  0  0  0
  8  9  1  0  0  0  0
  8 39  1  0  0  0  0
  8 40  1  0  0  0  0
  9 10  1  0  0  0  0
  9 28  1  0  0  0  0
 10 15  1  0  0  0  0
 10 11  2  0  0  0  0
 11 12  1  0  0  0  0
 12 13  2  0  0  0  0
 12 41  1  0  0  0  0
 13 14  1  0  0  0  0
 14 18  1  0  0  0  0
 14 15  2  0  0  0  0
 15 16  1  0  0  0  0
 16 17  2  0  0  0  0
 17 18  1  0  0  0  0
 17 42  1  0  0  0  0
 18 19  1  0  0  0  0
 19 20  1  0  0  0  0
 19 43  1  0  0  0  0
 19 44  1  0  0  0  0
 20 21  1  0  0  0  0
 20 23  1  0  0  0  0
 20 45  1  0  0  0  0
 21 22  1  0  0  0  0
 21 46  1  0  0  0  0
 21 47  1  0  0  0  0
 22 48  1  0  0  0  0
 23 27  1  0  0  0  0
 23 24  1  0  0  0  0
 23 49  1  0  0  0  0
 24 25  1  0  0  0  0
 24 50  1  0  0  0  0
 24 51  1  0  0  0  0
 25 26  1  0  0  0  0
 25 52  1  0  0  0  0
 25 53  1  0  0  0  0
 26 27  1  0  0  0  0
 27 54  1  0  0  0  0
 27 55  1  0  0  0  0
 28 29  1  0  0  0  0
 28 56  1  0  0  0  0
 28 57  1  0  0  0  0
 29 58  1  0  0  0  0
 29 59  1  0  0  0  0
M  END
> <s_m_source_file>
AV-unprocessed.smi

> <i_m_source_file_index>
273

> <i_lp_mmshare_version>
43012

> <i_f3d_flags>
0

> <s_epik_input>
W0NIM11bQ0gyXVtOSF1DKD1PKVtDSF0xW0NIMl1bQ0gyXU4oW0NIMl1bQ0gyXTEpYyhuW2NIXW4yKWMoYzIzKW5bY0hdbjNbQ0gyXVtDQEhdKFtDSDJdW09IXSlbQ0BASF00W0NIMl1bQ0gyXU9bQ0gyXTQ=

> <s_epik_cmdline>
J2VwaWtfcHl0aG9uJywgJy1waCcsICc3LjAnLCAnLXRuJywgJzgnLCAnLW1hJywgJzIwMCcsICctbWV0YWxfYmluZGluZycsICctaW1hZScsICc8aW5maWxlLm1hZT4nLCAnLW9tYWUnLCAnPG91dGZpbGUubWFlPic=

> <r_lp_tautomer_probability>
1

> <r_epik_Ionization_Penalty>
0.00226556

> <r_epik_Ionization_Penalty_Charging>
0

> <r_epik_Ionization_Penalty_Neutral>
0.00226556

> <r_epik_State_Penalty>
0.00139883

> <r_epik_Charging_Adjusted_Penalty>
0.00139883

> <i_epik_Tot_Q>
0

> <i_epik_Tot_abs_Q>
0

> <r_epik_Metal_State_Penalty>
-0

> <b_epik_Metal_Only>
0

> <s_lp_Force_Field>
OPLS_2005

> <r_lp_Energy>
43.4567

> <b_lp_Chiralities_Consistent>
1

> <s_lp_Variant>
AV-unprocessed.smi:273-2

> <Gold.Version>
5.8.1

> <Gold.Id.Protein>
6NUR|6NUR_protein|mol2

> <Gold.PLP.Fitness>
47.8957

> <Gold.PLP.PLP>
-41.2459

> <Gold.PLP.part.hbond>
-2.0000

> <Gold.PLP.part.metal>
0.0000

> <Gold.PLP.part.buried>
-6.4765

> <Gold.PLP.part.nonpolar>
-34.8739

> <Gold.PLP.part.repulsive>
0.5653

> <Gold.PLP.ligand.clash>
0.0000

> <Gold.PLP.ligand.torsion>
2.1249

> <Gold.PLP.Chemscore.Hbond>
2.0000

> <Gold.PLP.Chemscore.CHOScore>
1.4700

> <Gold.PLP.Chemscore.Metal>
0.0000

> <Gold.Chemscore.Hbonds>
donor molecule, donor type, donor heavy atom, donor atom, acceptor molecule, acceptor atom, score
      L1  H     3    35       P1  8028  0.96
      L1  H    22    48       P1 10957  1.00
      L1  C    17    42       P1 10171  0.70
      L1  C    17    42       P1 10175  0.34

> <Gold.PLP.Chemscore.Internal.Correction>
0.4897

> <Gold.Rescore>
     Score         DG    S(hbond)    S(metal)    S(lipo)     H(rot)  DE(clash)    DE(int)     intcor
     10.07     -15.05       1.99        0.00      95.44       3.22       0.28       4.70       ----

> <Gold.Chemscore.Fitness>
10.0665

> <Gold.Chemscore.DG>
-15.0474

> <Gold.Chemscore.ZeroCoef>
-5.4800

> <Gold.Chemscore.Hbond>
1.9927

> <Gold.Chemscore.Metal>
0.0000

> <Gold.Chemscore.Lipo>
95.4397

> <Gold.Chemscore.Internal_Hbond>
0.0000

> <Gold.Chemscore.DEClash>
0.2811

> <Gold.Chemscore.DEInternal>
4.6999

> <Gold.Chemscore.Rot>
3.2244

> <Gold.Chemscore.Internal.Correction>
   9.000000E+99

> <Gold.Chemscore.Hbonds>
donor molecule, donor type, donor heavy atom, donor atom, acceptor molecule, acceptor atom, score
      L1  H     3    35       P1  8028  0.91
      L1  H    22    48       P1 10957  0.94

> <Gold.Chemscore.Hbond.Weighted>
-6.6555

> <Gold.Chemscore.Metal.Weighted>
-0.0000

> <Gold.Chemscore.Lipo.Weighted>
-11.1664

> <Gold.Chemscore.Internal_Hbond.Weighted>
0.0000

> <Gold.Chemscore.DEClash.Weighted>
0.2811

> <Gold.Chemscore.DEInternal.Weighted>
4.6999

> <Gold.Chemscore.Rot.Weighted>
8.2545

> <Gold.Chemscore.Internal.Correction.Weighted>
   9.000000E+99

> <Gold.Protein.RotatedTorsions>
[ 6907 6896 6895 6894 ] final  100.91 input  -60.11 | X-H torsion
[ 7974 7965 7964 7962 ] final   53.52 input  175.53 | X-H torsion
[ 8008 7997 7996 7995 ] final -165.33 input   59.86 | X-H torsion
[ 10167 10162 10161 10158 ] final -142.93 input  -65.29 | X-H torsion
[ 10718 10713 10712 10709 ] final  -27.40 input   66.30 | X-H torsion
[ 10763 10752 10751 10750 ] final  104.50 input  -60.55 | X-H torsion
[ 11005 11000 10999 10996 ] final  146.47 input  -57.11 | X-H torsion

> <Gold.Protein.ActiveResidues>
 VAL166  LYS551  ARG553  GLY616  TRP617  ASP618  TYR619  PRO620  LYS621  CYS622 
 ASP623  PHE694  ASN695  SER759  ASP760  ASP761  ALA762  ILE779  LEU786  VAL792 
 PHE793  MET794  SER795  GLU796  ALA797  LYS798  CYS799  TRP800  GLU811  SER814 

> <Gold.Protein.RotatedAtoms>
  152.5361  134.0205  159.7979 H   0  0  0  0  0  0  0  0  0  0  0  0  # atno 6907 bound_to 6896
  151.0392  133.5713  159.2660 H   0  0  0  0  0  0  0  0  0  0  0  0  # atno 6908 bound_to 6896
  151.2689  135.0685  159.9180 H   0  0  0  0  0  0  0  0  0  0  0  0  # atno 6909 bound_to 6896
  145.9703  139.4142  143.0194 H   0  0  0  0  0  0  0  0  0  0  0  0  # atno 7974 bound_to 7965
  155.8483  140.0959  157.1691 H   0  0  0  0  0  0  0  0  0  0  0  0  # atno 8008 bound_to 7997
  154.3984  140.1388  156.3875 H   0  0  0  0  0  0  0  0  0  0  0  0  # atno 8009 bound_to 7997
  155.7989  140.3453  155.5394 H   0  0  0  0  0  0  0  0  0  0  0  0  # atno 8010 bound_to 7997
  139.8041  143.7792  152.2660 H   0  0  0  0  0  0  0  0  0  0  0  0  # atno 10167 bound_to 10162
  156.4386  130.4459  149.7068 H   0  0  0  0  0  0  0  0  0  0  0  0  # atno 10718 bound_to 10713
  153.3668  135.3941  155.1759 H   0  0  0  0  0  0  0  0  0  0  0  0  # atno 10763 bound_to 10752
  154.8688  135.3693  154.5029 H   0  0  0  0  0  0  0  0  0  0  0  0  # atno 10764 bound_to 10752
  153.5493  135.7083  153.5659 H   0  0  0  0  0  0  0  0  0  0  0  0  # atno 10765 bound_to 10752
  140.0796  134.9105  157.1479 H   0  0  0  0  0  0  0  0  0  0  0  0  # atno 11005 bound_to 11000
  145.7915  140.9812  143.1046 LP  0  0  0  0  0  0  0  0  0  0  0  0  # atno 17320 bound_to 7965
  144.6835  139.9689  143.7482 LP  0  0  0  0  0  0  0  0  0  0  0  0  # atno 17321 bound_to 7965
  139.7921  144.7406  150.9940 LP  0  0  0  0  0  0  0  0  0  0  0  0  # atno 17342 bound_to 10162
  140.7819  143.4431  151.0522 LP  0  0  0  0  0  0  0  0  0  0  0  0  # atno 17343 bound_to 10162
  156.3942  130.7642  151.2645 LP  0  0  0  0  0  0  0  0  0  0  0  0  # atno 17370 bound_to 10713
  157.7507  131.0259  150.3939 LP  0  0  0  0  0  0  0  0  0  0  0  0  # atno 17371 bound_to 10713
  140.3507  134.2602  155.7199 LP  0  0  0  0  0  0  0  0  0  0  0  0  # atno 17394 bound_to 11000
  141.2042  133.7893  157.0300 LP  0  0  0  0  0  0  0  0  0  0  0  0  # atno 17395 bound_to 11000

$$$$
