AV-unprocessed.smi:1851|AV-procd|sdf|7524|dock10
  -GOLD-   22720 9233D 1   1.00000     0.00000
 Structure written by MMmdl.
 40 42  0  0  0  0  0  0  0  0  2 V2000
  149.9811  135.1343  156.1739 O   0  0  0  0  0  0  0  0  0  0  0  0
  150.3499  135.0725  155.0022 C   0  0  0  0  0  0  0  0  0  0  0  0
  150.8801  136.0993  154.3226 N   0  0  0  0  0  0  0  0  0  0  0  0
  151.1481  137.4214  154.8809 C   0  0  0  0  0  0  0  0  0  0  0  0
  150.1200  138.4589  154.5389 C   0  0  0  0  0  0  0  0  0  0  0  0
  149.2037  138.4079  153.5282 N   0  3  0  0  0  0  0  0  0  0  0  0
  148.4257  139.5662  153.5325 C   0  0  0  0  0  0  0  0  0  0  0  0
  147.3810  139.9669  152.7053 C   0  0  0  0  0  0  0  0  0  0  0  0
  146.8000  141.2219  152.9832 C   0  0  0  0  0  0  0  0  0  0  0  0
  147.2602  142.0248  154.0473 C   0  0  0  0  0  0  0  0  0  0  0  0
  148.3190  141.6064  154.8802 C   0  0  0  0  0  0  0  0  0  0  0  0
  148.8861  140.3640  154.5989 C   0  0  0  0  0  0  0  0  0  0  0  0
  149.9246  139.6396  155.1933 N   0  0  0  0  0  0  0  0  0  0  0  0
  150.6180  140.2057  156.3572 C   0  0  0  0  0  0  0  0  0  0  0  0
  151.2928  141.5430  156.0296 C   0  0  0  0  0  0  0  0  0  0  0  0
  151.0042  142.4577  157.0766 O   0  0  0  0  0  0  0  0  0  0  0  0
  151.7354  142.3683  158.2414 C   0  0  0  0  0  0  0  0  0  0  0  0
  151.6727  143.4689  159.1211 C   0  0  0  0  0  0  0  0  0  0  0  0
  152.3881  143.4644  160.3340 C   0  0  0  0  0  0  0  0  0  0  0  0
  153.1777  142.3524  160.6806 C   0  0  0  0  0  0  0  0  0  0  0  0
  154.0553  142.3441  162.1660 Cl  0  0  0  0  0  0  0  0  0  0  0  0
  153.2492  141.2469  159.8124 C   0  0  0  0  0  0  0  0  0  0  0  0
  152.5331  141.2517  158.5993 C   0  0  0  0  0  0  0  0  0  0  0  0
  150.2866  134.1728  154.3710 H   0  0  0  0  0  0  0  0  0  0  0  0
  151.1469  135.9454  153.3607 H   0  0  0  0  0  0  0  0  0  0  0  0
  151.2454  137.3611  155.9659 H   0  0  0  0  0  0  0  0  0  0  0  0
  152.1153  137.7529  154.5024 H   0  0  0  0  0  0  0  0  0  0  0  0
  147.0274  139.3537  151.8894 H   0  0  0  0  0  0  0  0  0  0  0  0
  145.9857  141.5760  152.3676 H   0  0  0  0  0  0  0  0  0  0  0  0
  146.7919  142.9813  154.2292 H   0  0  0  0  0  0  0  0  0  0  0  0
  148.6651  142.2287  155.6923 H   0  0  0  0  0  0  0  0  0  0  0  0
  149.9043  140.3140  157.1746 H   0  0  0  0  0  0  0  0  0  0  0  0
  151.3614  139.4808  156.6899 H   0  0  0  0  0  0  0  0  0  0  0  0
  152.3708  141.4001  155.9393 H   0  0  0  0  0  0  0  0  0  0  0  0
  150.9176  141.9270  155.0797 H   0  0  0  0  0  0  0  0  0  0  0  0
  151.0694  144.3269  158.8629 H   0  0  0  0  0  0  0  0  0  0  0  0
  152.3292  144.3154  160.9967 H   0  0  0  0  0  0  0  0  0  0  0  0
  153.8541  140.3918  160.0759 H   0  0  0  0  0  0  0  0  0  0  0  0
  152.6132  140.3854  157.9607 H   0  0  0  0  0  0  0  0  0  0  0  0
  149.1181  137.6304  152.8863 H   0  0  0  0  0  0  0  0  0  0  0  0
  1  2  2  0  0  0  0
  2  3  1  0  0  0  0
  2 24  1  0  0  0  0
  3  4  1  0  0  0  0
  3 25  1  0  0  0  0
  4  5  1  0  0  0  0
  4 26  1  0  0  0  0
  4 27  1  0  0  0  0
  5 13  1  0  0  0  0
  5  6  2  0  0  0  0
  6  7  1  0  0  0  0
  6 40  1  0  0  0  0
  7 12  2  0  0  0  0
  7  8  1  0  0  0  0
  8  9  2  0  0  0  0
  8 28  1  0  0  0  0
  9 10  1  0  0  0  0
  9 29  1  0  0  0  0
 10 11  2  0  0  0  0
 10 30  1  0  0  0  0
 11 12  1  0  0  0  0
 11 31  1  0  0  0  0
 12 13  1  0  0  0  0
 13 14  1  0  0  0  0
 14 15  1  0  0  0  0
 14 32  1  0  0  0  0
 14 33  1  0  0  0  0
 15 16  1  0  0  0  0
 15 34  1  0  0  0  0
 15 35  1  0  0  0  0
 16 17  1  0  0  0  0
 17 23  1  0  0  0  0
 17 18  2  0  0  0  0
 18 19  1  0  0  0  0
 18 36  1  0  0  0  0
 19 20  2  0  0  0  0
 19 37  1  0  0  0  0
 20 21  1  0  0  0  0
 20 22  1  0  0  0  0
 22 23  2  0  0  0  0
 22 38  1  0  0  0  0
 23 39  1  0  0  0  0
M  CHG  1   6   1
M  END
> <s_m_source_file>
AV-unprocessed.smi

> <i_m_source_file_index>
1851

> <i_lp_mmshare_version>
43012

> <i_f3d_flags>
0

> <s_epik_input>
Tz1bQ0hdW05IXVtDSDJdYyhuMSluKGMoYzEyKVtjSF1bY0hdW2NIXVtjSF0yKVtDSDJdW0NIMl1PYzNbY0hdW2NIXWMoQ2wpW2NIXVtjSF0z

> <s_epik_cmdline>
J2VwaWtfcHl0aG9uJywgJy1waCcsICc3LjAnLCAnLXRuJywgJzgnLCAnLW1hJywgJzIwMCcsICctbWV0YWxfYmluZGluZycsICctaW1hZScsICc8aW5maWxlLm1hZT4nLCAnLW9tYWUnLCAnPG91dGZpbGUubWFlPic=

> <r_lp_tautomer_probability>
1

> <r_epik_Ionization_Penalty>
1.32442

> <r_epik_Ionization_Penalty_Charging>
1.32442

> <r_epik_Ionization_Penalty_Neutral>
7.38905e-08

> <r_epik_State_Penalty>
1.4003

> <r_epik_Charging_Adjusted_Penalty>
2.72472

> <i_epik_Tot_Q>
1

> <i_epik_Tot_abs_Q>
1

> <r_epik_Metal_State_Penalty>
1.46133

> <b_epik_Metal_Only>
0

> <s_lp_Force_Field>
OPLS_2005

> <r_lp_Energy>
15.621

> <b_lp_Chiralities_Consistent>
1

> <s_lp_Variant>
AV-unprocessed.smi:1851-2

> <Gold.Version>
5.8.1

> <Gold.Id.Protein>
6NUR|6NUR_protein|mol2

> <Gold.PLP.Fitness>
52.8890

> <Gold.PLP.PLP>
-45.8381

> <Gold.PLP.part.hbond>
-3.8083

> <Gold.PLP.part.metal>
0.0000

> <Gold.PLP.part.buried>
-0.3756

> <Gold.PLP.part.nonpolar>
-42.3410

> <Gold.PLP.part.repulsive>
0.2874

> <Gold.PLP.ligand.clash>
0.0000

> <Gold.PLP.ligand.torsion>
0.9980

> <Gold.PLP.Chemscore.Hbond>
3.0000

> <Gold.PLP.Chemscore.CHOScore>
0.0000

> <Gold.PLP.Chemscore.Metal>
0.0000

> <Gold.Chemscore.Hbonds>
donor molecule, donor type, donor heavy atom, donor atom, acceptor molecule, acceptor atom, score
      L1  H     3    25       P1  7949  1.00
      L1  H     6    40       P1  7948  2.00

> <Gold.PLP.Chemscore.Internal.Correction>
0.0470

> <Gold.Rescore>
     Score         DG    S(hbond)    S(metal)    S(lipo)     H(rot)  DE(clash)    DE(int)     intcor
     15.88     -18.16       1.26        0.00     126.78       2.49       1.28       1.01       ----

> <Gold.Chemscore.Fitness>
15.8757

> <Gold.Chemscore.DG>
-18.1609

> <Gold.Chemscore.ZeroCoef>
-5.4800

> <Gold.Chemscore.Hbond>
1.2604

> <Gold.Chemscore.Metal>
0.0000

> <Gold.Chemscore.Lipo>
126.7844

> <Gold.Chemscore.Internal_Hbond>
0.0000

> <Gold.Chemscore.DEClash>
1.2754

> <Gold.Chemscore.DEInternal>
1.0098

> <Gold.Chemscore.Rot>
2.4854

> <Gold.Chemscore.Internal.Correction>
   9.000000E+99

> <Gold.Chemscore.Hbonds>
donor molecule, donor type, donor heavy atom, donor atom, acceptor molecule, acceptor atom, score
      L1  H     3    25       P1  7949  0.35
      L1  H     6    40       P1  7948  0.99

> <Gold.Chemscore.Hbond.Weighted>
-4.2098

> <Gold.Chemscore.Metal.Weighted>
-0.0000

> <Gold.Chemscore.Lipo.Weighted>
-14.8338

> <Gold.Chemscore.Internal_Hbond.Weighted>
0.0000

> <Gold.Chemscore.DEClash.Weighted>
1.2754

> <Gold.Chemscore.DEInternal.Weighted>
1.0098

> <Gold.Chemscore.Rot.Weighted>
6.3627

> <Gold.Chemscore.Internal.Correction.Weighted>
   9.000000E+99

> <Gold.Protein.RotatedTorsions>
[ 6907 6896 6895 6894 ] final  -38.96 input  -60.11 | X-H torsion
[ 7974 7965 7964 7962 ] final -179.94 input  175.53 | X-H torsion
[ 8008 7997 7996 7995 ] final  110.90 input   59.86 | X-H torsion
[ 10167 10162 10161 10158 ] final  -24.07 input  -65.29 | X-H torsion
[ 10718 10713 10712 10709 ] final  -32.49 input   66.30 | X-H torsion
[ 10763 10752 10751 10750 ] final  -32.59 input  -60.55 | X-H torsion
[ 11005 11000 10999 10996 ] final -155.71 input  -57.11 | X-H torsion

> <Gold.Protein.ActiveResidues>
 VAL166  LYS551  ARG553  GLY616  TRP617  ASP618  TYR619  PRO620  LYS621  CYS622 
 ASP623  PHE694  ASN695  SER759  ASP760  ASP761  ALA762  ILE779  LEU786  VAL792 
 PHE793  MET794  SER795  GLU796  ALA797  LYS798  CYS799  TRP800  GLU811  SER814 

> <Gold.Protein.RotatedAtoms>
  150.9961  134.9284  159.7926 H   0  0  0  0  0  0  0  0  0  0  0  0  # atno 6907 bound_to 6896
  152.5265  134.3217  159.9160 H   0  0  0  0  0  0  0  0  0  0  0  0  # atno 6908 bound_to 6896
  151.3222  133.3994  159.2690 H   0  0  0  0  0  0  0  0  0  0  0  0  # atno 6909 bound_to 6896
  144.7140  140.0642  143.6431 H   0  0  0  0  0  0  0  0  0  0  0  0  # atno 7974 bound_to 7965
  156.2086  140.3030  155.9681 H   0  0  0  0  0  0  0  0  0  0  0  0  # atno 8008 bound_to 7997
  155.2781  140.0436  157.3030 H   0  0  0  0  0  0  0  0  0  0  0  0  # atno 8009 bound_to 7997
  154.5667  140.2336  155.8261 H   0  0  0  0  0  0  0  0  0  0  0  0  # atno 8010 bound_to 7997
  140.7288  143.4386  151.0692 H   0  0  0  0  0  0  0  0  0  0  0  0  # atno 10167 bound_to 10162
  156.3743  130.4345  149.7520 H   0  0  0  0  0  0  0  0  0  0  0  0  # atno 10718 bound_to 10713
  153.8162  135.6878  153.4833 H   0  0  0  0  0  0  0  0  0  0  0  0  # atno 10763 bound_to 10752
  153.1597  135.4584  154.9753 H   0  0  0  0  0  0  0  0  0  0  0  0  # atno 10764 bound_to 10752
  154.7947  135.3314  154.7638 H   0  0  0  0  0  0  0  0  0  0  0  0  # atno 10765 bound_to 10752
  140.6835  134.4119  157.5225 H   0  0  0  0  0  0  0  0  0  0  0  0  # atno 11005 bound_to 11000
  145.9838  139.2962  143.1026 LP  0  0  0  0  0  0  0  0  0  0  0  0  # atno 17320 bound_to 7965
  145.8980  140.9261  143.0517 LP  0  0  0  0  0  0  0  0  0  0  0  0  # atno 17321 bound_to 7965
  139.8050  143.8030  152.3166 LP  0  0  0  0  0  0  0  0  0  0  0  0  # atno 17342 bound_to 10162
  139.8060  144.7355  150.9761 LP  0  0  0  0  0  0  0  0  0  0  0  0  # atno 17343 bound_to 10162
  156.4635  130.7963  151.2983 LP  0  0  0  0  0  0  0  0  0  0  0  0  # atno 17370 bound_to 10713
  157.7487  131.0058  150.3128 LP  0  0  0  0  0  0  0  0  0  0  0  0  # atno 17371 bound_to 10713
  139.8945  134.8706  156.2176 LP  0  0  0  0  0  0  0  0  0  0  0  0  # atno 17394 bound_to 11000
  141.0299  133.6994  156.1412 LP  0  0  0  0  0  0  0  0  0  0  0  0  # atno 17395 bound_to 11000

$$$$
