AV-unprocessed.smi:1726|AV-procd|sdf|6960|dock5
  -GOLD-   22720 8173D 1   1.00000     0.00000
 Structure written by MMmdl.
 43 44  0  0  0  0  0  0  0  0  2 V2000
  146.6291  142.7523  154.0557 C   0  0  0  0  0  0  0  0  0  0  0  0
  147.2299  141.4405  153.5306 C   0  0  0  0  0  0  0  0  0  0  0  0
  146.3264  140.2786  153.7289 N   0  3  2  0  0  0  0  0  0  0  0  0
  145.9194  140.1246  155.1500 C   0  0  0  0  0  0  0  0  0  0  0  0
  144.8825  139.0015  155.3154 C   0  0  0  0  0  0  0  0  0  0  0  0
  145.4108  137.6758  154.7533 C   0  0  0  0  0  0  0  0  0  0  0  0
  145.8467  137.8618  153.2918 C   0  0  2  0  0  0  0  0  0  0  0  0
  146.4016  136.6134  152.7760 N   0  0  0  0  0  0  0  0  0  0  0  0
  145.7544  135.4394  152.7383 C   0  0  0  0  0  0  0  0  0  0  0  0
  144.5974  135.2977  153.1341 O   0  0  0  0  0  0  0  0  0  0  0  0
  146.5277  134.4789  152.1995 N   0  0  0  0  0  0  0  0  0  0  0  0
  146.2422  133.1178  151.9968 C   0  0  0  0  0  0  0  0  0  0  0  0
  146.9097  132.0882  152.5807 C   0  0  0  0  0  0  0  0  0  0  0  0
  146.5668  130.6998  152.3204 C   0  0  0  0  0  0  0  0  0  0  0  0
  147.3545  129.5535  152.9361 C   0  0  0  0  0  0  0  0  0  0  0  0
  147.8219  128.7300  151.9968 F   0  0  0  0  0  0  0  0  0  0  0  0
  148.3874  130.0070  153.6465 F   0  0  0  0  0  0  0  0  0  0  0  0
  146.5681  128.8504  153.7500 F   0  0  0  0  0  0  0  0  0  0  0  0
  145.5699  130.4823  151.4429 C   0  0  0  0  0  0  0  0  0  0  0  0
  144.8788  131.5346  150.8383 N   0  0  0  0  0  0  0  0  0  0  0  0
  145.1469  132.8423  151.0522 C   0  0  0  0  0  0  0  0  0  0  0  0
  144.4950  133.7126  150.4763 O   0  0  0  0  0  0  0  0  0  0  0  0
  146.8728  139.0097  153.1774 C   0  0  0  0  0  0  0  0  0  0  0  0
  144.1368  131.2887  150.1987 H   0  0  0  0  0  0  0  0  0  0  0  0
  147.3583  143.5600  153.9890 H   0  0  0  0  0  0  0  0  0  0  0  0
  146.3348  142.6605  155.1015 H   0  0  0  0  0  0  0  0  0  0  0  0
  145.7544  143.0619  153.4844 H   0  0  0  0  0  0  0  0  0  0  0  0
  147.4968  141.5330  152.4768 H   0  0  0  0  0  0  0  0  0  0  0  0
  148.1619  141.2657  154.0701 H   0  0  0  0  0  0  0  0  0  0  0  0
  146.7995  139.9186  155.7614 H   0  0  0  0  0  0  0  0  0  0  0  0
  145.4916  141.0591  155.5153 H   0  0  0  0  0  0  0  0  0  0  0  0
  144.6269  138.8832  156.3689 H   0  0  0  0  0  0  0  0  0  0  0  0
  143.9598  139.2760  154.8024 H   0  0  0  0  0  0  0  0  0  0  0  0
  146.2534  137.3328  155.3555 H   0  0  0  0  0  0  0  0  0  0  0  0
  144.6401  136.9075  154.8256 H   0  0  0  0  0  0  0  0  0  0  0  0
  144.9622  138.1188  152.7049 H   0  0  0  0  0  0  0  0  0  0  0  0
  147.3488  136.6447  152.4266 H   0  0  0  0  0  0  0  0  0  0  0  0
  147.4317  134.7700  151.8558 H   0  0  0  0  0  0  0  0  0  0  0  0
  147.7326  132.2703  153.2520 H   0  0  0  0  0  0  0  0  0  0  0  0
  145.2317  129.5030  151.1376 H   0  0  0  0  0  0  0  0  0  0  0  0
  147.1406  139.1478  152.1306 H   0  0  0  0  0  0  0  0  0  0  0  0
  147.7922  138.7503  153.7056 H   0  0  0  0  0  0  0  0  0  0  0  0
  145.4814  140.4827  153.2147 H   0  0  0  0  0  0  0  0  0  0  0  0
  1  2  1  0  0  0  0
  1 25  1  0  0  0  0
  1 26  1  0  0  0  0
  1 27  1  0  0  0  0
  2  3  1  0  0  0  0
  2 28  1  0  0  0  0
  2 29  1  0  0  0  0
  3 23  1  0  0  0  0
  3  4  1  0  0  0  0
  3 43  1  0  0  0  0
  4  5  1  0  0  0  0
  4 30  1  0  0  0  0
  4 31  1  0  0  0  0
  5  6  1  0  0  0  0
  5 32  1  0  0  0  0
  5 33  1  0  0  0  0
  6  7  1  0  0  0  0
  6 34  1  0  0  0  0
  6 35  1  0  0  0  0
  7  8  1  0  0  0  0
  7 23  1  0  0  0  0
  7 36  1  0  0  0  0
  8  9  1  0  0  0  0
  8 37  1  0  0  0  0
  9 10  2  0  0  0  0
  9 11  1  0  0  0  0
 11 12  1  0  0  0  0
 11 38  1  0  0  0  0
 12 21  1  0  0  0  0
 12 13  2  0  0  0  0
 13 14  1  0  0  0  0
 13 39  1  0  0  0  0
 14 15  1  0  0  0  0
 14 19  2  0  0  0  0
 15 16  1  0  0  0  0
 15 17  1  0  0  0  0
 15 18  1  0  0  0  0
 19 20  1  0  0  0  0
 19 40  1  0  0  0  0
 20 24  1  0  0  0  0
 20 21  1  0  0  0  0
 21 22  2  0  0  0  0
 23 41  1  0  0  0  0
 23 42  1  0  0  0  0
M  CHG  1   3   1
M  END
> <s_m_source_file>
AV-unprocessed.smi

> <i_m_source_file_index>
1726

> <i_lp_mmshare_version>
43012

> <i_f3d_flags>
0

> <s_epik_input>
W0NIM11bQ0gyXU4xW0NIMl1bQ0gyXVtDSDJdW0NASF0oW0NIMl0xKVtOSF1DKD1PKVtOSF1jMltjSF1jKEMoRikoRilGKVtjSF1bbkhdYzI9Tw==

> <s_epik_cmdline>
J2VwaWtfcHl0aG9uJywgJy1waCcsICc3LjAnLCAnLXRuJywgJzgnLCAnLW1hJywgJzIwMCcsICctbWV0YWxfYmluZGluZycsICctaW1hZScsICc8aW5maWxlLm1hZT4nLCAnLW9tYWUnLCAnPG91dGZpbGUubWFlPic=

> <r_lp_tautomer_probability>
1

> <r_epik_Ionization_Penalty>
0.00745721

> <r_epik_Ionization_Penalty_Charging>
0.00743804

> <r_epik_Ionization_Penalty_Neutral>
1.91703e-05

> <r_epik_State_Penalty>
-0

> <r_epik_Charging_Adjusted_Penalty>
0.00743804

> <i_epik_Tot_Q>
1

> <i_epik_Tot_abs_Q>
1

> <r_epik_Metal_State_Penalty>
0.37929

> <b_epik_Metal_Only>
0

> <s_lp_Force_Field>
OPLS_2005

> <r_lp_Energy>
26.6941

> <b_lp_Chiralities_Consistent>
1

> <s_lp_Variant>
AV-unprocessed.smi:1726-4

> <Gold.Version>
5.8.1

> <Gold.Id.Protein>
6NUR|6NUR_protein|mol2

> <Gold.PLP.Fitness>
43.7676

> <Gold.PLP.PLP>
-33.1999

> <Gold.PLP.part.hbond>
-3.0000

> <Gold.PLP.part.metal>
0.0000

> <Gold.PLP.part.buried>
-4.1259

> <Gold.PLP.part.nonpolar>
-25.7596

> <Gold.PLP.part.repulsive>
0.3281

> <Gold.PLP.ligand.clash>
0.0000

> <Gold.PLP.ligand.torsion>
0.7189

> <Gold.PLP.Chemscore.Hbond>
3.9833

> <Gold.PLP.Chemscore.CHOScore>
0.0000

> <Gold.PLP.Chemscore.Metal>
0.0000

> <Gold.Chemscore.Hbonds>
donor molecule, donor type, donor heavy atom, donor atom, acceptor molecule, acceptor atom, score
      L1  H     3    43       P1 10175  2.00
      L1  H     8    37       P1  7948  1.00
      L1  H    11    38       P1  7948  0.92

> <Gold.PLP.Chemscore.Internal.Correction>
0.0556

> <Gold.Rescore>
     Score         DG    S(hbond)    S(metal)    S(lipo)     H(rot)  DE(clash)    DE(int)     intcor
     17.70     -18.50       2.82        0.00      58.86       1.29       0.07       0.73       ----

> <Gold.Chemscore.Fitness>
17.6979

> <Gold.Chemscore.DG>
-18.4982

> <Gold.Chemscore.ZeroCoef>
-5.4800

> <Gold.Chemscore.Hbond>
2.8232

> <Gold.Chemscore.Metal>
0.0000

> <Gold.Chemscore.Lipo>
58.8630

> <Gold.Chemscore.Internal_Hbond>
0.0000

> <Gold.Chemscore.DEClash>
0.0678

> <Gold.Chemscore.DEInternal>
0.7326

> <Gold.Chemscore.Rot>
1.2884

> <Gold.Chemscore.Internal.Correction>
   9.000000E+99

> <Gold.Chemscore.Hbonds>
donor molecule, donor type, donor heavy atom, donor atom, acceptor molecule, acceptor atom, score
      L1  H     3    43       P1 10175  0.94
      L1  H     8    37       P1  7948  1.00
      L1  H    11    38       P1  7948  0.58

> <Gold.Chemscore.Hbond.Weighted>
-9.4296

> <Gold.Chemscore.Metal.Weighted>
-0.0000

> <Gold.Chemscore.Lipo.Weighted>
-6.8870

> <Gold.Chemscore.Internal_Hbond.Weighted>
0.0000

> <Gold.Chemscore.DEClash.Weighted>
0.0678

> <Gold.Chemscore.DEInternal.Weighted>
0.7326

> <Gold.Chemscore.Rot.Weighted>
3.2983

> <Gold.Chemscore.Internal.Correction.Weighted>
   9.000000E+99

> <Gold.Protein.RotatedTorsions>
[ 6907 6896 6895 6894 ] final  170.35 input  -60.11 | X-H torsion
[ 7974 7965 7964 7962 ] final  163.28 input  175.53 | X-H torsion
[ 8008 7997 7996 7995 ] final -143.36 input   59.86 | X-H torsion
[ 10167 10162 10161 10158 ] final   70.39 input  -65.29 | X-H torsion
[ 10718 10713 10712 10709 ] final   96.66 input   66.30 | X-H torsion
[ 10763 10752 10751 10750 ] final  -55.67 input  -60.55 | X-H torsion
[ 11005 11000 10999 10996 ] final  -26.52 input  -57.11 | X-H torsion

> <Gold.Protein.ActiveResidues>
 VAL166  LYS551  ARG553  GLY616  TRP617  ASP618  TYR619  PRO620  LYS621  CYS622 
 ASP623  PHE694  ASN695  SER759  ASP760  ASP761  ALA762  ILE779  LEU786  VAL792 
 PHE793  MET794  SER795  GLU796  ALA797  LYS798  CYS799  TRP800  GLU811  SER814 

> <Gold.Protein.RotatedAtoms>
  151.8175  133.3390  159.3573 H   0  0  0  0  0  0  0  0  0  0  0  0  # atno 6907 bound_to 6896
  150.7306  134.5606  159.5849 H   0  0  0  0  0  0  0  0  0  0  0  0  # atno 6908 bound_to 6896
  152.3030  134.7589  160.0404 H   0  0  0  0  0  0  0  0  0  0  0  0  # atno 6909 bound_to 6896
  144.7597  139.8160  143.6337 H   0  0  0  0  0  0  0  0  0  0  0  0  # atno 7974 bound_to 7965
  155.5093  140.0582  157.2926 H   0  0  0  0  0  0  0  0  0  0  0  0  # atno 8008 bound_to 7997
  154.4558  140.1972  156.0333 H   0  0  0  0  0  0  0  0  0  0  0  0  # atno 8009 bound_to 7997
  156.0795  140.3249  155.7680 H   0  0  0  0  0  0  0  0  0  0  0  0  # atno 8010 bound_to 7997
  140.0575  144.5261  150.7318 H   0  0  0  0  0  0  0  0  0  0  0  0  # atno 10167 bound_to 10162
  157.6924  131.0585  150.4525 H   0  0  0  0  0  0  0  0  0  0  0  0  # atno 10718 bound_to 10713
  154.1944  135.6421  153.5069 H   0  0  0  0  0  0  0  0  0  0  0  0  # atno 10763 bound_to 10752
  153.0027  135.5436  154.6381 H   0  0  0  0  0  0  0  0  0  0  0  0  # atno 10764 bound_to 10752
  154.5778  135.2922  155.0736 H   0  0  0  0  0  0  0  0  0  0  0  0  # atno 10765 bound_to 10752
  140.9036  133.7507  156.0577 H   0  0  0  0  0  0  0  0  0  0  0  0  # atno 11005 bound_to 11000
  146.1646  139.4773  142.9966 LP  0  0  0  0  0  0  0  0  0  0  0  0  # atno 17320 bound_to 7965
  145.6661  141.0228  143.1683 LP  0  0  0  0  0  0  0  0  0  0  0  0  # atno 17321 bound_to 7965
  140.7188  143.2569  151.4348 LP  0  0  0  0  0  0  0  0  0  0  0  0  # atno 17342 bound_to 10162
  139.5914  144.1490  152.2093 LP  0  0  0  0  0  0  0  0  0  0  0  0  # atno 17343 bound_to 10162
  156.4875  130.4088  149.6425 LP  0  0  0  0  0  0  0  0  0  0  0  0  # atno 17370 bound_to 10713
  156.3448  130.7401  151.2352 LP  0  0  0  0  0  0  0  0  0  0  0  0  # atno 17371 bound_to 10713
  140.8198  134.3302  157.5385 LP  0  0  0  0  0  0  0  0  0  0  0  0  # atno 17394 bound_to 11000
  139.8746  134.9303  156.3498 LP  0  0  0  0  0  0  0  0  0  0  0  0  # atno 17395 bound_to 11000

$$$$
