AV-unprocessed.smi:695|AV-procd|sdf|3384|dock3
  -GOLD-   22720 0363D 1   1.00000     0.00000
 Structure written by MMmdl.
 38 39  0  0  0  0  0  0  0  0  1 V2000
  145.1623  135.9004  151.8843 C   0  0  0  0  0  0  0  0  0  0  0  0
  145.3293  137.1287  152.7891 C   0  0  0  0  0  0  0  0  0  0  0  0
  146.7365  137.4584  152.9798 N   0  0  0  0  0  0  0  0  0  0  0  0
  147.1884  138.5068  153.6814 C   0  0  0  0  0  0  0  0  0  0  0  0
  146.4620  139.2921  154.2911 O   0  0  0  0  0  0  0  0  0  0  0  0
  148.5237  138.6114  153.6142 N   0  0  0  0  0  0  0  0  0  0  0  0
  149.3209  139.6813  154.2101 C   0  0  0  0  0  0  0  0  0  0  0  0
  150.7096  139.1944  154.6703 C   0  0  0  0  0  0  0  0  0  0  0  0
  151.0642  139.6260  156.0634 C   0  0  0  0  0  0  0  0  0  0  0  0
  151.3567  138.8122  157.1304 C   0  0  0  0  0  0  0  0  0  0  0  0
  151.7820  139.7278  158.5499 S   0  0  0  0  0  0  0  0  0  0  0  0
  151.5208  141.2074  157.6312 C   0  0  0  0  0  0  0  0  0  0  0  0
  151.6939  142.4686  158.1938 N   0  0  0  0  0  0  0  0  0  0  0  0
  152.1585  142.7522  159.5482 C   0  0  0  0  0  0  0  0  0  0  0  0
  152.4860  144.2411  159.6249 C   0  0  0  0  0  0  0  0  0  0  0  0
  151.5068  144.8350  158.6311 C   0  0  0  0  0  0  0  0  0  0  0  0
  151.4428  143.7557  157.5526 C   0  0  0  0  0  0  0  0  0  0  0  0
  151.1487  140.9880  156.3677 N   0  0  0  0  0  0  0  0  0  0  0  0
  144.1092  135.6424  151.7721 H   0  0  0  0  0  0  0  0  0  0  0  0
  145.6746  135.0324  152.3000 H   0  0  0  0  0  0  0  0  0  0  0  0
  145.5665  136.0824  150.8878 H   0  0  0  0  0  0  0  0  0  0  0  0
  144.7906  137.9822  152.3744 H   0  0  0  0  0  0  0  0  0  0  0  0
  144.8899  136.9293  153.7665 H   0  0  0  0  0  0  0  0  0  0  0  0
  147.4106  136.8672  152.5161 H   0  0  0  0  0  0  0  0  0  0  0  0
  149.0265  137.9126  153.0872 H   0  0  0  0  0  0  0  0  0  0  0  0
  149.4247  140.5160  153.5147 H   0  0  0  0  0  0  0  0  0  0  0  0
  148.7708  140.0689  155.0677 H   0  0  0  0  0  0  0  0  0  0  0  0
  150.7424  138.1063  154.6037 H   0  0  0  0  0  0  0  0  0  0  0  0
  151.4638  139.5529  153.9690 H   0  0  0  0  0  0  0  0  0  0  0  0
  151.3689  137.7329  157.1606 H   0  0  0  0  0  0  0  0  0  0  0  0
  151.3597  142.5002  160.2468 H   0  0  0  0  0  0  0  0  0  0  0  0
  153.0267  142.1433  159.8019 H   0  0  0  0  0  0  0  0  0  0  0  0
  152.3800  144.6489  160.6303 H   0  0  0  0  0  0  0  0  0  0  0  0
  153.5093  144.4171  159.2903 H   0  0  0  0  0  0  0  0  0  0  0  0
  150.5287  144.9537  159.0991 H   0  0  0  0  0  0  0  0  0  0  0  0
  151.8208  145.8052  158.2452 H   0  0  0  0  0  0  0  0  0  0  0  0
  152.2144  143.9230  156.8004 H   0  0  0  0  0  0  0  0  0  0  0  0
  150.4768  143.7628  157.0468 H   0  0  0  0  0  0  0  0  0  0  0  0
  1  2  1  0  0  0  0
  1 19  1  0  0  0  0
  1 20  1  0  0  0  0
  1 21  1  0  0  0  0
  2  3  1  0  0  0  0
  2 22  1  0  0  0  0
  2 23  1  0  0  0  0
  3  4  1  0  0  0  0
  3 24  1  0  0  0  0
  4  5  2  0  0  0  0
  4  6  1  0  0  0  0
  6  7  1  0  0  0  0
  6 25  1  0  0  0  0
  7  8  1  0  0  0  0
  7 26  1  0  0  0  0
  7 27  1  0  0  0  0
  8  9  1  0  0  0  0
  8 28  1  0  0  0  0
  8 29  1  0  0  0  0
  9 18  1  0  0  0  0
  9 10  2  0  0  0  0
 10 11  1  0  0  0  0
 10 30  1  0  0  0  0
 11 12  1  0  0  0  0
 12 13  1  0  0  0  0
 12 18  2  0  0  0  0
 13 17  1  0  0  0  0
 13 14  1  0  0  0  0
 14 15  1  0  0  0  0
 14 31  1  0  0  0  0
 14 32  1  0  0  0  0
 15 16  1  0  0  0  0
 15 33  1  0  0  0  0
 15 34  1  0  0  0  0
 16 17  1  0  0  0  0
 16 35  1  0  0  0  0
 16 36  1  0  0  0  0
 17 37  1  0  0  0  0
 17 38  1  0  0  0  0
M  END
> <s_m_source_file>
AV-unprocessed.smi

> <i_m_source_file_index>
695

> <i_lp_mmshare_version>
43012

> <i_f3d_flags>
0

> <s_epik_input>
W0NIM11bQ0gyXVtOSF1DKD1PKVtOSF1bQ0gyXVtDSDJdYzFbY0hdc2MobjEpTjJbQ0gyXVtDSDJdW0NIMl1bQ0gyXTI=

> <s_epik_cmdline>
J2VwaWtfcHl0aG9uJywgJy1waCcsICc3LjAnLCAnLXRuJywgJzgnLCAnLW1hJywgJzIwMCcsICctbWV0YWxfYmluZGluZycsICctaW1hZScsICc8aW5maWxlLm1hZT4nLCAnLW9tYWUnLCAnPG91dGZpbGUubWFlPic=

> <r_epik_Ionization_Penalty>
0.166233

> <r_epik_Ionization_Penalty_Charging>
0

> <r_epik_Ionization_Penalty_Neutral>
0.166233

> <r_epik_State_Penalty>
0.155475

> <r_epik_Charging_Adjusted_Penalty>
0.155475

> <i_epik_Tot_Q>
0

> <i_epik_Tot_abs_Q>
0

> <r_epik_Metal_State_Penalty>
0.121092

> <b_epik_Metal_Only>
0

> <s_lp_Force_Field>
OPLS_2005

> <r_lp_Energy>
13.2485

> <b_lp_Chiralities_Consistent>
1

> <s_lp_Variant>
AV-unprocessed.smi:695-1

> <Gold.Version>
5.8.1

> <Gold.Id.Protein>
6NUR|6NUR_protein|mol2

> <Gold.PLP.Fitness>
41.8167

> <Gold.PLP.PLP>
-37.1153

> <Gold.PLP.part.hbond>
-3.0000

> <Gold.PLP.part.metal>
0.0000

> <Gold.PLP.part.buried>
-2.7503

> <Gold.PLP.part.nonpolar>
-32.4517

> <Gold.PLP.part.repulsive>
0.2819

> <Gold.PLP.ligand.clash>
0.0000

> <Gold.PLP.ligand.torsion>
0.5332

> <Gold.PLP.Chemscore.Hbond>
1.9040

> <Gold.PLP.Chemscore.CHOScore>
0.0000

> <Gold.PLP.Chemscore.Metal>
0.0000

> <Gold.Chemscore.Hbonds>
donor molecule, donor type, donor heavy atom, donor atom, acceptor molecule, acceptor atom, score
      L1  H     3    24       P1  7948  1.00
      L1  H     6    25       P1  7948  0.93

> <Gold.PLP.Chemscore.Internal.Correction>
0.0557

> <Gold.Rescore>
     Score         DG    S(hbond)    S(metal)    S(lipo)     H(rot)  DE(clash)    DE(int)     intcor
     17.42     -18.20       1.93        0.00      90.84       1.70       0.27       0.51       ----

> <Gold.Chemscore.Fitness>
17.4212

> <Gold.Chemscore.DG>
-18.2025

> <Gold.Chemscore.ZeroCoef>
-5.4800

> <Gold.Chemscore.Hbond>
1.9273

> <Gold.Chemscore.Metal>
0.0000

> <Gold.Chemscore.Lipo>
90.8381

> <Gold.Chemscore.Internal_Hbond>
0.0000

> <Gold.Chemscore.DEClash>
0.2682

> <Gold.Chemscore.DEInternal>
0.5131

> <Gold.Chemscore.Rot>
1.6963

> <Gold.Chemscore.Internal.Correction>
   9.000000E+99

> <Gold.Chemscore.Hbonds>
donor molecule, donor type, donor heavy atom, donor atom, acceptor molecule, acceptor atom, score
      L1  H     3    24       P1  7948  1.00
      L1  H     6    25       P1  7948  0.84

> <Gold.Chemscore.Hbond.Weighted>
-6.4371

> <Gold.Chemscore.Metal.Weighted>
-0.0000

> <Gold.Chemscore.Lipo.Weighted>
-10.6281

> <Gold.Chemscore.Internal_Hbond.Weighted>
0.0000

> <Gold.Chemscore.DEClash.Weighted>
0.2682

> <Gold.Chemscore.DEInternal.Weighted>
0.5131

> <Gold.Chemscore.Rot.Weighted>
4.3426

> <Gold.Chemscore.Internal.Correction.Weighted>
   9.000000E+99

> <Gold.Protein.RotatedTorsions>
[ 6907 6896 6895 6894 ] final  152.85 input  -60.11 | X-H torsion
[ 7974 7965 7964 7962 ] final  -96.23 input  175.53 | X-H torsion
[ 8008 7997 7996 7995 ] final   40.15 input   59.86 | X-H torsion
[ 10167 10162 10161 10158 ] final   38.43 input  -65.29 | X-H torsion
[ 10718 10713 10712 10709 ] final   50.54 input   66.30 | X-H torsion
[ 10763 10752 10751 10750 ] final  162.63 input  -60.55 | X-H torsion
[ 11005 11000 10999 10996 ] final -128.19 input  -57.11 | X-H torsion

> <Gold.Protein.ActiveResidues>
 VAL166  LYS551  ARG553  GLY616  TRP617  ASP618  TYR619  PRO620  LYS621  CYS622 
 ASP623  PHE694  ASN695  SER759  ASP760  ASP761  ALA762  ILE779  LEU786  VAL792 
 PHE793  MET794  SER795  GLU796  ALA797  LYS798  CYS799  TRP800  GLU811  SER814 

> <Gold.Protein.RotatedAtoms>
  152.0809  133.4152  159.4500 H   0  0  0  0  0  0  0  0  0  0  0  0  # atno 6907 bound_to 6896
  150.6862  134.2983  159.4705 H   0  0  0  0  0  0  0  0  0  0  0  0  # atno 6908 bound_to 6896
  152.0824  134.9461  160.0624 H   0  0  0  0  0  0  0  0  0  0  0  0  # atno 6909 bound_to 6896
  145.3496  140.9474  143.2561 H   0  0  0  0  0  0  0  0  0  0  0  0  # atno 7974 bound_to 7965
  155.2483  140.3350  155.4285 H   0  0  0  0  0  0  0  0  0  0  0  0  # atno 8008 bound_to 7997
  156.2226  140.1815  156.7483 H   0  0  0  0  0  0  0  0  0  0  0  0  # atno 8009 bound_to 7997
  154.5849  140.0647  156.9142 H   0  0  0  0  0  0  0  0  0  0  0  0  # atno 8010 bound_to 7997
  140.3937  144.1818  150.6131 H   0  0  0  0  0  0  0  0  0  0  0  0  # atno 10167 bound_to 10162
  157.4895  130.8366  149.8186 H   0  0  0  0  0  0  0  0  0  0  0  0  # atno 10718 bound_to 10713
  154.2813  135.2763  155.2696 H   0  0  0  0  0  0  0  0  0  0  0  0  # atno 10763 bound_to 10752
  154.5215  135.5755  153.6688 H   0  0  0  0  0  0  0  0  0  0  0  0  # atno 10764 bound_to 10752
  152.9928  135.6205  154.2973 H   0  0  0  0  0  0  0  0  0  0  0  0  # atno 10765 bound_to 10752
  140.9537  134.1031  157.4037 H   0  0  0  0  0  0  0  0  0  0  0  0  # atno 11005 bound_to 11000
  144.8727  139.5014  143.6760 LP  0  0  0  0  0  0  0  0  0  0  0  0  # atno 17320 bound_to 7965
  146.2973  139.7318  142.9117 LP  0  0  0  0  0  0  0  0  0  0  0  0  # atno 17321 bound_to 7965
  140.4813  143.2378  151.8951 LP  0  0  0  0  0  0  0  0  0  0  0  0  # atno 17342 bound_to 10162
  139.4787  144.5266  151.8726 LP  0  0  0  0  0  0  0  0  0  0  0  0  # atno 17343 bound_to 10162
  156.0165  130.3811  150.2094 LP  0  0  0  0  0  0  0  0  0  0  0  0  # atno 17370 bound_to 10713
  157.0282  130.9999  151.3320 LP  0  0  0  0  0  0  0  0  0  0  0  0  # atno 17371 bound_to 10713
  139.8855  135.0073  156.6440 LP  0  0  0  0  0  0  0  0  0  0  0  0  # atno 17394 bound_to 11000
  140.7567  133.8852  155.8387 LP  0  0  0  0  0  0  0  0  0  0  0  0  # atno 17395 bound_to 11000

$$$$
