AV-unprocessed.smi:546|AV-procd|sdf|2888|dock1
  -GOLD-   2262023383D 1   1.00000     0.00000
 Structure written by MMmdl.
 51 53  0  0  0  0  0  0  0  0  2 V2000
  147.1250  141.8935  155.0702 C   0  0  0  0  0  0  0  0  0  0  0  0
  147.9923  141.0156  155.9748 C   0  0  0  0  0  0  0  0  0  0  0  0
  148.9904  141.8276  156.5650 O   0  0  0  0  0  0  0  0  0  0  0  0
  149.9088  141.0960  157.3592 C   0  0  0  0  0  0  0  0  0  0  0  0
  151.3301  141.6299  157.1282 C   0  0  0  0  0  0  0  0  0  0  0  0
  152.3073  140.9255  157.9531 N   0  0  0  0  0  0  0  0  0  0  0  0
  153.1398  141.4528  158.8908 C   0  0  0  0  0  0  0  0  0  0  0  0
  153.2032  142.8236  159.1542 N   0  0  0  0  0  0  0  0  0  0  0  0
  153.0685  143.8600  158.1253 C   0  0  0  0  0  0  0  0  0  0  0  0
  152.4120  145.1670  158.6287 C   0  0  1  0  0  0  0  0  0  0  0  0
  150.8925  145.0509  158.8293 C   0  0  0  0  0  0  0  0  0  0  0  0
  153.1331  145.6860  159.8837 C   0  0  0  0  0  0  0  0  0  0  0  0
  153.2830  144.5742  160.9336 C   0  0  2  0  0  0  0  0  0  0  0  0
  154.0639  145.0616  162.1612 C   0  0  0  0  0  0  0  0  0  0  0  0
  153.9565  143.3482  160.2929 C   0  0  0  0  0  0  0  0  0  0  0  0
  153.8666  140.5526  159.5561 N   0  0  0  0  0  0  0  0  0  0  0  0
  153.4818  139.3520  158.9808 C   0  0  0  0  0  0  0  0  0  0  0  0
  152.5459  139.5468  158.0132 C   0  0  0  0  0  0  0  0  0  0  0  0
  151.9250  138.4460  157.2402 C   0  0  0  0  0  0  0  0  0  0  0  0
  151.0711  138.6680  156.3845 O   0  0  0  0  0  0  0  0  0  0  0  0
  152.4164  137.2185  157.6012 N   0  5  0  0  0  0  0  0  0  0  0  0
  153.3653  136.9784  158.5711 C   0  0  0  0  0  0  0  0  0  0  0  0
  153.7538  135.8391  158.8325 O   0  0  0  0  0  0  0  0  0  0  0  0
  153.9015  138.0256  159.2726 N   0  0  0  0  0  0  0  0  0  0  0  0
  154.9048  137.7995  160.3168 C   0  0  0  0  0  0  0  0  0  0  0  0
  146.3401  141.3071  154.5925 H   0  0  0  0  0  0  0  0  0  0  0  0
  147.7240  142.3559  154.2852 H   0  0  0  0  0  0  0  0  0  0  0  0
  146.6486  142.6915  155.6403 H   0  0  0  0  0  0  0  0  0  0  0  0
  147.3789  140.5505  156.7476 H   0  0  0  0  0  0  0  0  0  0  0  0
  148.4523  140.2181  155.3894 H   0  0  0  0  0  0  0  0  0  0  0  0
  149.6446  141.1801  158.4142 H   0  0  0  0  0  0  0  0  0  0  0  0
  149.8633  140.0391  157.0925 H   0  0  0  0  0  0  0  0  0  0  0  0
  151.6045  141.5511  156.0787 H   0  0  0  0  0  0  0  0  0  0  0  0
  151.3698  142.6929  157.3418 H   0  0  0  0  0  0  0  0  0  0  0  0
  154.0704  144.0862  157.7582 H   0  0  0  0  0  0  0  0  0  0  0  0
  152.5275  143.4710  157.2633 H   0  0  0  0  0  0  0  0  0  0  0  0
  152.5515  145.9144  157.8467 H   0  0  0  0  0  0  0  0  0  0  0  0
  150.6380  144.3174  159.5926 H   0  0  0  0  0  0  0  0  0  0  0  0
  150.3962  144.7587  157.9040 H   0  0  0  0  0  0  0  0  0  0  0  0
  150.4662  146.0058  159.1374 H   0  0  0  0  0  0  0  0  0  0  0  0
  154.1229  146.0472  159.6006 H   0  0  0  0  0  0  0  0  0  0  0  0
  152.6036  146.5427  160.3026 H   0  0  0  0  0  0  0  0  0  0  0  0
  152.2906  144.2781  161.2759 H   0  0  0  0  0  0  0  0  0  0  0  0
  155.0782  145.3602  161.8944 H   0  0  0  0  0  0  0  0  0  0  0  0
  154.1357  144.2780  162.9162 H   0  0  0  0  0  0  0  0  0  0  0  0
  153.5738  145.9193  162.6223 H   0  0  0  0  0  0  0  0  0  0  0  0
  154.0580  142.5614  161.0417 H   0  0  0  0  0  0  0  0  0  0  0  0
  154.9675  143.5962  159.9666 H   0  0  0  0  0  0  0  0  0  0  0  0
  155.8097  137.3686  159.8870 H   0  0  0  0  0  0  0  0  0  0  0  0
  154.5248  137.1111  161.0729 H   0  0  0  0  0  0  0  0  0  0  0  0
  155.1911  138.7163  160.8312 H   0  0  0  0  0  0  0  0  0  0  0  0
  1  2  1  0  0  0  0
  1 26  1  0  0  0  0
  1 27  1  0  0  0  0
  1 28  1  0  0  0  0
  2  3  1  0  0  0  0
  2 29  1  0  0  0  0
  2 30  1  0  0  0  0
  3  4  1  0  0  0  0
  4  5  1  0  0  0  0
  4 31  1  0  0  0  0
  4 32  1  0  0  0  0
  5  6  1  0  0  0  0
  5 33  1  0  0  0  0
  5 34  1  0  0  0  0
  6 18  1  0  0  0  0
  6  7  1  0  0  0  0
  7  8  1  0  0  0  0
  7 16  2  0  0  0  0
  8 15  1  0  0  0  0
  8  9  1  0  0  0  0
  9 10  1  0  0  0  0
  9 35  1  0  0  0  0
  9 36  1  0  0  0  0
 10 11  1  0  0  0  0
 10 12  1  0  0  0  0
 10 37  1  0  0  0  0
 11 38  1  0  0  0  0
 11 39  1  0  0  0  0
 11 40  1  0  0  0  0
 12 13  1  0  0  0  0
 12 41  1  0  0  0  0
 12 42  1  0  0  0  0
 13 14  1  0  0  0  0
 13 15  1  0  0  0  0
 13 43  1  0  0  0  0
 14 44  1  0  0  0  0
 14 45  1  0  0  0  0
 14 46  1  0  0  0  0
 15 47  1  0  0  0  0
 15 48  1  0  0  0  0
 16 17  1  0  0  0  0
 17 24  1  0  0  0  0
 17 18  2  0  0  0  0
 18 19  1  0  0  0  0
 19 20  2  0  0  0  0
 19 21  1  0  0  0  0
 21 22  1  0  0  0  0
 22 23  2  0  0  0  0
 22 24  1  0  0  0  0
 24 25  1  0  0  0  0
 25 49  1  0  0  0  0
 25 50  1  0  0  0  0
 25 51  1  0  0  0  0
M  CHG  1  21  -1
M  END
> <s_m_source_file>
AV-unprocessed.smi

> <i_m_source_file_index>
546

> <i_lp_mmshare_version>
43012

> <i_f3d_flags>
0

> <s_epik_input>
W0NIM11uMWMoPU8pW25IXWMoPU8pYyhjMTIpbihbQ0gyXVtDSDJdT1tDSDJdW0NIM10pYyhuMilOM1tDSDJdW0NAQEhdKFtDSDNdKVtDSDJdW0NAQEhdKFtDSDNdKVtDSDJdMw==

> <s_epik_cmdline>
J2VwaWtfcHl0aG9uJywgJy1waCcsICc3LjAnLCAnLXRuJywgJzgnLCAnLW1hJywgJzIwMCcsICctbWV0YWxfYmluZGluZycsICctaW1hZScsICc8aW5maWxlLm1hZT4nLCAnLW9tYWUnLCAnPG91dGZpbGUubWFlPic=

> <r_lp_tautomer_probability>
1

> <r_epik_Ionization_Penalty>
5.12825

> <r_epik_Ionization_Penalty_Charging>
0.0743105

> <r_epik_Ionization_Penalty_Neutral>
5.05394

> <r_epik_State_Penalty>
5.04406

> <r_epik_Charging_Adjusted_Penalty>
5.11837

> <i_epik_Tot_Q>
-1

> <i_epik_Tot_abs_Q>
1

> <r_epik_Metal_State_Penalty>
1.15122

> <b_epik_Metal_Only>
1

> <s_lp_Force_Field>
OPLS_2005

> <r_lp_Energy>
44.0722

> <b_lp_Chiralities_Consistent>
1

> <s_lp_Variant>
AV-unprocessed.smi:546-6

> <Gold.Version>
5.8.1

> <Gold.Id.Protein>
6NUR|6NUR_protein|mol2

> <Gold.PLP.Fitness>
47.5109

> <Gold.PLP.PLP>
-46.2269

> <Gold.PLP.part.hbond>
-1.0000

> <Gold.PLP.part.metal>
0.0000

> <Gold.PLP.part.buried>
-4.7358

> <Gold.PLP.part.nonpolar>
-41.2821

> <Gold.PLP.part.repulsive>
0.1075

> <Gold.PLP.ligand.clash>
0.0591

> <Gold.PLP.ligand.torsion>
0.5700

> <Gold.PLP.Chemscore.Hbond>
0.5925

> <Gold.PLP.Chemscore.CHOScore>
0.0000

> <Gold.PLP.Chemscore.Metal>
0.0000

> <Gold.Chemscore.Hbonds>
donor molecule, donor type, donor heavy atom, donor atom, acceptor molecule, acceptor atom, score
      P1  H  6896  6909       L1    23  0.68

> <Gold.PLP.Chemscore.Internal.Correction>
0.7054

> <Gold.Rescore>
     Score         DG    S(hbond)    S(metal)    S(lipo)     H(rot)  DE(clash)    DE(int)     intcor
     14.57     -18.23       0.84        0.00     118.24       1.52       1.59       2.07       ----

> <Gold.Chemscore.Fitness>
14.5749

> <Gold.Chemscore.DG>
-18.2349

> <Gold.Chemscore.ZeroCoef>
-5.4800

> <Gold.Chemscore.Hbond>
0.8423

> <Gold.Chemscore.Metal>
0.0000

> <Gold.Chemscore.Lipo>
118.2418

> <Gold.Chemscore.Internal_Hbond>
0.0000

> <Gold.Chemscore.DEClash>
1.5902

> <Gold.Chemscore.DEInternal>
2.0697

> <Gold.Chemscore.Rot>
1.5206

> <Gold.Chemscore.Internal.Correction>
   9.000000E+99

> <Gold.Chemscore.Hbonds>
donor molecule, donor type, donor heavy atom, donor atom, acceptor molecule, acceptor atom, score
      P1  H  6896  6909       L1    23  0.65

> <Gold.Chemscore.Hbond.Weighted>
-2.8133

> <Gold.Chemscore.Metal.Weighted>
-0.0000

> <Gold.Chemscore.Lipo.Weighted>
-13.8343

> <Gold.Chemscore.Internal_Hbond.Weighted>
0.0000

> <Gold.Chemscore.DEClash.Weighted>
1.5902

> <Gold.Chemscore.DEInternal.Weighted>
2.0697

> <Gold.Chemscore.Rot.Weighted>
3.8926

> <Gold.Chemscore.Internal.Correction.Weighted>
   9.000000E+99

> <Gold.Protein.RotatedTorsions>
[ 6907 6896 6895 6894 ] final -172.08 input  -60.11 | X-H torsion
[ 7974 7965 7964 7962 ] final   62.72 input  175.53 | X-H torsion
[ 8008 7997 7996 7995 ] final  158.28 input   59.86 | X-H torsion
[ 10167 10162 10161 10158 ] final   78.36 input  -65.29 | X-H torsion
[ 10718 10713 10712 10709 ] final   -8.03 input   66.30 | X-H torsion
[ 10763 10752 10751 10750 ] final -168.30 input  -60.55 | X-H torsion
[ 11005 11000 10999 10996 ] final -130.76 input  -57.11 | X-H torsion

> <Gold.Protein.ActiveResidues>
 VAL166  LYS551  ARG553  GLY616  TRP617  ASP618  TYR619  PRO620  LYS621  CYS622 
 ASP623  PHE694  ASN695  SER759  ASP760  ASP761  ALA762  ILE779  LEU786  VAL792 
 PHE793  MET794  SER795  GLU796  ALA797  LYS798  CYS799  TRP800  GLU811  SER814 

> <Gold.Protein.RotatedAtoms>
  151.5341  133.3444  159.2923 H   0  0  0  0  0  0  0  0  0  0  0  0  # atno 6907 bound_to 6896
  150.8575  134.7921  159.7068 H   0  0  0  0  0  0  0  0  0  0  0  0  # atno 6908 bound_to 6896
  152.4604  134.5205  159.9832 H   0  0  0  0  0  0  0  0  0  0  0  0  # atno 6909 bound_to 6896
  145.8701  139.3372  143.0767 H   0  0  0  0  0  0  0  0  0  0  0  0  # atno 7974 bound_to 7965
  156.2312  140.1862  156.7237 H   0  0  0  0  0  0  0  0  0  0  0  0  # atno 8008 bound_to 7997
  154.6026  140.0633  156.9416 H   0  0  0  0  0  0  0  0  0  0  0  0  # atno 8009 bound_to 7997
  155.2148  140.3303  155.4326 H   0  0  0  0  0  0  0  0  0  0  0  0  # atno 8010 bound_to 7997
  139.9718  144.5889  150.7978 H   0  0  0  0  0  0  0  0  0  0  0  0  # atno 10167 bound_to 10162
  156.7085  130.5115  149.5898 H   0  0  0  0  0  0  0  0  0  0  0  0  # atno 10718 bound_to 10713
  154.6642  135.2929  154.9826 H   0  0  0  0  0  0  0  0  0  0  0  0  # atno 10763 bound_to 10752
  154.0875  135.6595  153.4851 H   0  0  0  0  0  0  0  0  0  0  0  0  # atno 10764 bound_to 10752
  153.0448  135.5212  154.7608 H   0  0  0  0  0  0  0  0  0  0  0  0  # atno 10765 bound_to 10752
  140.9318  134.1309  157.4228 H   0  0  0  0  0  0  0  0  0  0  0  0  # atno 11005 bound_to 11000
  145.9147  140.9156  143.0436 LP  0  0  0  0  0  0  0  0  0  0  0  0  # atno 17320 bound_to 7965
  144.6726  140.1207  143.7450 LP  0  0  0  0  0  0  0  0  0  0  0  0  # atno 17321 bound_to 7965
  140.7519  143.2981  151.3151 LP  0  0  0  0  0  0  0  0  0  0  0  0  # atno 17342 bound_to 10162
  139.6475  144.0423  152.2602 LP  0  0  0  0  0  0  0  0  0  0  0  0  # atno 17343 bound_to 10162
  156.1678  130.6417  151.0799 LP  0  0  0  0  0  0  0  0  0  0  0  0  # atno 17370 bound_to 10713
  157.6945  131.0798  150.7009 LP  0  0  0  0  0  0  0  0  0  0  0  0  # atno 17371 bound_to 10713
  139.8798  135.0007  156.6028 LP  0  0  0  0  0  0  0  0  0  0  0  0  # atno 17394 bound_to 11000
  140.7852  133.8627  155.8600 LP  0  0  0  0  0  0  0  0  0  0  0  0  # atno 17395 bound_to 11000

$$$$
