AV-unprocessed.smi:692|AV-procd|sdf|3371|dock5
  -GOLD-   22720 0353D 1   1.00000     0.00000
 Structure written by MMmdl.
 36 37  0  0  0  0  0  0  0  0  2 V2000
  152.6611  143.1154  163.1529 C   0  0  0  0  0  0  0  0  0  0  0  0
  152.5566  142.3803  161.8120 C   0  0  0  0  0  0  0  0  0  0  0  0
  152.0666  143.2711  160.7112 C   0  0  0  0  0  0  0  0  0  0  0  0
  151.7799  144.6086  160.7989 C   0  0  0  0  0  0  0  0  0  0  0  0
  151.2289  145.2492  159.2773 S   0  0  0  0  0  0  0  0  0  0  0  0
  151.4162  143.6521  158.5497 C   0  0  0  0  0  0  0  0  0  0  0  0
  151.1446  143.3523  157.2693 N   0  5  0  0  0  0  0  0  0  0  0  0
  150.4247  142.2464  156.9725 C   0  0  0  0  0  0  0  0  0  0  0  0
  150.5357  141.1381  157.5019 O   0  0  0  0  0  0  0  0  0  0  0  0
  149.5220  142.4359  155.9994 N   0  0  0  0  0  0  0  0  0  0  0  0
  148.6098  141.4276  155.4667 C   0  0  1  0  0  0  0  0  0  0  0  0
  148.0006  141.9217  154.1536 C   0  0  0  0  0  0  0  0  0  0  0  0
  147.0083  140.8905  153.6032 C   0  0  0  0  0  0  0  0  0  0  0  0
  147.5524  139.4537  153.5964 C   0  0  0  0  0  0  0  0  0  0  0  0
  146.9980  138.6272  152.8710 O   0  0  0  0  0  0  0  0  0  0  0  0
  148.5934  139.1327  154.4026 N   0  0  0  0  0  0  0  0  0  0  0  0
  149.1049  137.7617  154.4382 C   0  0  0  0  0  0  0  0  0  0  0  0
  149.3424  140.0926  155.2284 C   0  0  0  0  0  0  0  0  0  0  0  0
  151.8496  142.7469  159.4340 N   0  0  0  0  0  0  0  0  0  0  0  0
  153.0209  142.4473  163.9356 H   0  0  0  0  0  0  0  0  0  0  0  0
  151.6914  143.5034  163.4663 H   0  0  0  0  0  0  0  0  0  0  0  0
  153.3528  143.9557  163.0868 H   0  0  0  0  0  0  0  0  0  0  0  0
  153.5320  141.9678  161.5523 H   0  0  0  0  0  0  0  0  0  0  0  0
  151.8900  141.5241  161.9225 H   0  0  0  0  0  0  0  0  0  0  0  0
  151.8560  145.2532  161.6617 H   0  0  0  0  0  0  0  0  0  0  0  0
  149.4661  143.3597  155.5961 H   0  0  0  0  0  0  0  0  0  0  0  0
  147.7976  141.2704  156.1793 H   0  0  0  0  0  0  0  0  0  0  0  0
  147.4901  142.8728  154.3092 H   0  0  0  0  0  0  0  0  0  0  0  0
  148.7869  142.1072  153.4201 H   0  0  0  0  0  0  0  0  0  0  0  0
  146.1034  140.8967  154.2117 H   0  0  0  0  0  0  0  0  0  0  0  0
  146.7062  141.1692  152.5933 H   0  0  0  0  0  0  0  0  0  0  0  0
  148.3469  137.0819  154.8296 H   0  0  0  0  0  0  0  0  0  0  0  0
  149.9902  137.6684  155.0686 H   0  0  0  0  0  0  0  0  0  0  0  0
  149.3829  137.4256  153.4381 H   0  0  0  0  0  0  0  0  0  0  0  0
  150.2926  140.2804  154.7255 H   0  0  0  0  0  0  0  0  0  0  0  0
  149.5853  139.6399  156.1909 H   0  0  0  0  0  0  0  0  0  0  0  0
  1  2  1  0  0  0  0
  1 20  1  0  0  0  0
  1 21  1  0  0  0  0
  1 22  1  0  0  0  0
  2  3  1  0  0  0  0
  2 23  1  0  0  0  0
  2 24  1  0  0  0  0
  3 19  1  0  0  0  0
  3  4  2  0  0  0  0
  4  5  1  0  0  0  0
  4 25  1  0  0  0  0
  5  6  1  0  0  0  0
  6  7  1  0  0  0  0
  6 19  2  0  0  0  0
  7  8  1  0  0  0  0
  8  9  2  0  0  0  0
  8 10  1  0  0  0  0
 10 11  1  0  0  0  0
 10 26  1  0  0  0  0
 11 18  1  0  0  0  0
 11 12  1  0  0  0  0
 11 27  1  0  0  0  0
 12 13  1  0  0  0  0
 12 28  1  0  0  0  0
 12 29  1  0  0  0  0
 13 14  1  0  0  0  0
 13 30  1  0  0  0  0
 13 31  1  0  0  0  0
 14 15  2  0  0  0  0
 14 16  1  0  0  0  0
 16 17  1  0  0  0  0
 16 18  1  0  0  0  0
 17 32  1  0  0  0  0
 17 33  1  0  0  0  0
 17 34  1  0  0  0  0
 18 35  1  0  0  0  0
 18 36  1  0  0  0  0
M  CHG  1   7  -1
M  END
> <s_m_source_file>
AV-unprocessed.smi

> <i_m_source_file_index>
692

> <i_lp_mmshare_version>
43012

> <i_f3d_flags>
0

> <s_epik_input>
W0NIM11bQ0gyXWMxW2NIXXNjKG4xKVtOSF1DKD1PKVtOSF1bQ0BASF0yW0NIMl1bQ0gyXUMoPU8pTihbQ0gzXSlbQ0gyXTI=

> <s_epik_cmdline>
J2VwaWtfcHl0aG9uJywgJy1waCcsICc3LjAnLCAnLXRuJywgJzgnLCAnLW1hJywgJzIwMCcsICctbWV0YWxfYmluZGluZycsICctaW1hZScsICc8aW5maWxlLm1hZT4nLCAnLW9tYWUnLCAnPG91dGZpbGUubWFlPic=

> <r_lp_tautomer_probability>
1

> <r_epik_Ionization_Penalty>
7.06728

> <r_epik_Ionization_Penalty_Charging>
5.78908

> <r_epik_Ionization_Penalty_Neutral>
1.2782

> <r_epik_State_Penalty>
5.78905

> <r_epik_Charging_Adjusted_Penalty>
11.5781

> <i_epik_Tot_Q>
-1

> <i_epik_Tot_abs_Q>
1

> <r_epik_Metal_State_Penalty>
1.76044

> <b_epik_Metal_Only>
1

> <s_lp_Force_Field>
OPLS_2005

> <r_lp_Energy>
4.22105

> <b_lp_Chiralities_Consistent>
1

> <s_lp_Variant>
AV-unprocessed.smi:692-4

> <Gold.Version>
5.8.1

> <Gold.Id.Protein>
6NUR|6NUR_protein|mol2

> <Gold.PLP.Fitness>
40.7992

> <Gold.PLP.PLP>
-39.6080

> <Gold.PLP.part.hbond>
-0.7514

> <Gold.PLP.part.metal>
0.0000

> <Gold.PLP.part.buried>
-0.3573

> <Gold.PLP.part.nonpolar>
-38.5341

> <Gold.PLP.part.repulsive>
0.5880

> <Gold.PLP.ligand.clash>
0.0000

> <Gold.PLP.ligand.torsion>
0.9105

> <Gold.PLP.Chemscore.Hbond>
0.9920

> <Gold.PLP.Chemscore.CHOScore>
0.0000

> <Gold.PLP.Chemscore.Metal>
0.0000

> <Gold.Chemscore.Hbonds>
donor molecule, donor type, donor heavy atom, donor atom, acceptor molecule, acceptor atom, score
      L1  H    10    26       P1  8028  0.83

> <Gold.PLP.Chemscore.Internal.Correction>
0.0362

> <Gold.Rescore>
     Score         DG    S(hbond)    S(metal)    S(lipo)     H(rot)  DE(clash)    DE(int)     intcor
     11.23     -15.30       1.00        0.00      82.23       1.23       0.07       4.00       ----

> <Gold.Chemscore.Fitness>
11.2339

> <Gold.Chemscore.DG>
-15.3037

> <Gold.Chemscore.ZeroCoef>
-5.4800

> <Gold.Chemscore.Hbond>
0.9999

> <Gold.Chemscore.Metal>
0.0000

> <Gold.Chemscore.Lipo>
82.2258

> <Gold.Chemscore.Internal_Hbond>
0.0000

> <Gold.Chemscore.DEClash>
0.0739

> <Gold.Chemscore.DEInternal>
3.9959

> <Gold.Chemscore.Rot>
1.2251

> <Gold.Chemscore.Internal.Correction>
   9.000000E+99

> <Gold.Chemscore.Hbonds>
donor molecule, donor type, donor heavy atom, donor atom, acceptor molecule, acceptor atom, score
      L1  H    10    26       P1  8028  0.77

> <Gold.Chemscore.Hbond.Weighted>
-3.3395

> <Gold.Chemscore.Metal.Weighted>
-0.0000

> <Gold.Chemscore.Lipo.Weighted>
-9.6204

> <Gold.Chemscore.Internal_Hbond.Weighted>
0.0000

> <Gold.Chemscore.DEClash.Weighted>
0.0739

> <Gold.Chemscore.DEInternal.Weighted>
3.9959

> <Gold.Chemscore.Rot.Weighted>
3.1362

> <Gold.Chemscore.Internal.Correction.Weighted>
   9.000000E+99

> <Gold.Protein.RotatedTorsions>
[ 6907 6896 6895 6894 ] final   22.28 input  -60.11 | X-H torsion
[ 7974 7965 7964 7962 ] final  -55.09 input  175.53 | X-H torsion
[ 8008 7997 7996 7995 ] final  -46.22 input   59.86 | X-H torsion
[ 10167 10162 10161 10158 ] final  -96.18 input  -65.29 | X-H torsion
[ 10718 10713 10712 10709 ] final  -43.02 input   66.30 | X-H torsion
[ 10763 10752 10751 10750 ] final -136.71 input  -60.55 | X-H torsion
[ 11005 11000 10999 10996 ] final  159.29 input  -57.11 | X-H torsion

> <Gold.Protein.ActiveResidues>
 VAL166  LYS551  ARG553  GLY616  TRP617  ASP618  TYR619  PRO620  LYS621  CYS622 
 ASP623  PHE694  ASN695  SER759  ASP760  ASP761  ALA762  ILE779  LEU786  VAL792 
 PHE793  MET794  SER795  GLU796  ALA797  LYS798  CYS799  TRP800  GLU811  SER814 

> <Gold.Protein.RotatedAtoms>
  151.9247  135.0283  160.0524 H   0  0  0  0  0  0  0  0  0  0  0  0  # atno 6907 bound_to 6896
  152.2169  133.4949  159.5149 H   0  0  0  0  0  0  0  0  0  0  0  0  # atno 6908 bound_to 6896
  150.6990  134.1310  159.4112 H   0  0  0  0  0  0  0  0  0  0  0  0  # atno 6909 bound_to 6896
  145.8782  140.8165  142.9853 H   0  0  0  0  0  0  0  0  0  0  0  0  # atno 7974 bound_to 7965
  154.4006  140.1377  156.3975 H   0  0  0  0  0  0  0  0  0  0  0  0  # atno 8008 bound_to 7997
  155.7856  140.3480  155.5300 H   0  0  0  0  0  0  0  0  0  0  0  0  # atno 8009 bound_to 7997
  155.8631  140.0959  157.1591 H   0  0  0  0  0  0  0  0  0  0  0  0  # atno 8010 bound_to 7997
  140.2965  143.3189  152.0292 H   0  0  0  0  0  0  0  0  0  0  0  0  # atno 10167 bound_to 10162
  156.2534  130.4190  149.8624 H   0  0  0  0  0  0  0  0  0  0  0  0  # atno 10718 bound_to 10713
  154.8678  135.3664  154.5106 H   0  0  0  0  0  0  0  0  0  0  0  0  # atno 10763 bound_to 10752
  153.5741  135.7020  153.5496 H   0  0  0  0  0  0  0  0  0  0  0  0  # atno 10764 bound_to 10752
  153.3515  135.4070  155.1613 H   0  0  0  0  0  0  0  0  0  0  0  0  # atno 10765 bound_to 10752
  140.1947  134.8381  157.2952 H   0  0  0  0  0  0  0  0  0  0  0  0  # atno 11005 bound_to 11000
  144.6726  140.1342  143.7441 LP  0  0  0  0  0  0  0  0  0  0  0  0  # atno 17320 bound_to 7965
  145.9056  139.2456  143.1468 LP  0  0  0  0  0  0  0  0  0  0  0  0  # atno 17321 bound_to 7965
  139.4925  144.6487  151.6722 LP  0  0  0  0  0  0  0  0  0  0  0  0  # atno 17342 bound_to 10162
  140.5688  144.0145  150.6206 LP  0  0  0  0  0  0  0  0  0  0  0  0  # atno 17343 bound_to 10162
  156.6164  130.8608  151.3466 LP  0  0  0  0  0  0  0  0  0  0  0  0  # atno 17370 bound_to 10713
  157.7223  130.9575  150.1489 LP  0  0  0  0  0  0  0  0  0  0  0  0  # atno 17371 bound_to 10713
  140.2120  134.4127  155.7608 LP  0  0  0  0  0  0  0  0  0  0  0  0  # atno 17394 bound_to 11000
  141.2227  133.7123  156.8353 LP  0  0  0  0  0  0  0  0  0  0  0  0  # atno 17395 bound_to 11000

$$$$
