#       Name:                AV-unprocessed.smi:3290
#       Creating user name   scv26
#       Creation time:       Fri Mar 27 18:54:21 2020


#       File generated by GOLD software.
#

@<TRIPOS>MOLECULE
AV-unprocessed.smi:3290
    46    47     1
SMALL
NO_CHARGES


@<TRIPOS>ATOM
      1 ****        -2.0168   0.8954   2.1945 C.3            1 S1                 0.0000
      2 ****        -2.5298   0.3240   0.8571 C.3            1 S1                 0.0000
      3 ****        -4.0720   0.3332   0.7897 C.3            1 S1                 0.0000
      4 ****        -4.6428   1.7470   0.5917 C.3            1 S1                 0.0000
      5 ****        -4.0412   2.4176  -0.6513 C.3            1 S1                 0.0000
      6 ****        -2.5056   2.4291  -0.5951 C.3            1 S1                 0.0000
      7 ****        -1.9300   1.0094  -0.4041 C.3            1 S1                 0.0000
      8 ****        -0.3879   1.0282  -0.4385 C.3            1 S1                 0.0000
      9 ****         0.1770  -0.3354  -0.4130 N.4            1 S1                 1.0000
     10 ****         1.6528  -0.3777  -0.4139 C.3            1 S1                 0.0000
     11 ****         2.1743  -1.8233  -0.3426 C.3            1 S1                 0.0000
     12 ****         1.7477  -2.4002   0.8766 O.3            1 S1                 0.0000
     13 ****         3.6870  -1.8689  -0.4883 C.ar           1 S1                 0.0000
     14 ****         4.2759  -2.2678  -1.7065 C.ar           1 S1                 0.0000
     15 ****         5.6821  -2.2896  -1.8004 C.ar           1 S1                 0.0000
     16 ****         6.4984  -1.9443  -0.7821 N.ar           1 S1                 0.0000
     17 ****         5.9301  -1.5606   0.3810 C.ar           1 S1                 0.0000
     18 ****         4.5360  -1.5044   0.5794 C.ar           1 S1                 0.0000
     19 ****        -2.2094   1.9638   2.2869 H              1 S1                 0.0000
     20 ****        -0.9448   0.7399   2.3127 H              1 S1                 0.0000
     21 ****        -2.5004   0.4022   3.0379 H              1 S1                 0.0000
     22 ****        -2.2297  -0.7243   0.8407 H              1 S1                 0.0000
     23 ****        -4.3976  -0.2975  -0.0389 H              1 S1                 0.0000
     24 ****        -4.4934  -0.1151   1.6902 H              1 S1                 0.0000
     25 ****        -5.7279   1.6971   0.4953 H              1 S1                 0.0000
     26 ****        -4.4432   2.3570   1.4730 H              1 S1                 0.0000
     27 ****        -4.3690   1.8865  -1.5458 H              1 S1                 0.0000
     28 ****        -4.4181   3.4366  -0.7429 H              1 S1                 0.0000
     29 ****        -2.1186   2.8662  -1.5165 H              1 S1                 0.0000
     30 ****        -2.1728   3.0827   0.2117 H              1 S1                 0.0000
     31 ****        -2.2548   0.4256  -1.2673 H              1 S1                 0.0000
     32 ****        -0.0487   1.5197  -1.3514 H              1 S1                 0.0000
     33 ****         0.0114   1.6108   0.3920 H              1 S1                 0.0000
     34 ****        -0.1485  -0.8003   0.4229 H              1 S1                 0.0000
     35 ****         2.0113   0.0998  -1.3269 H              1 S1                 0.0000
     36 ****         2.0360   0.2058   0.4249 H              1 S1                 0.0000
     37 ****         1.7321  -2.4071  -1.1512 H              1 S1                 0.0000
     38 ****         2.0409  -3.2988   0.9018 H              1 S1                 0.0000
     39 ****         3.6692  -2.5518  -2.5536 H              1 S1                 0.0000
     40 ****         6.1633  -2.5911  -2.7190 H              1 S1                 0.0000
     41 ****         6.6065  -1.2884   1.1776 H              1 S1                 0.0000
     42 ****         4.1331  -1.1871   1.5301 H              1 S1                 0.0000
     43 ****        -0.1631  -0.8429  -1.2172 H              1 S1                 0.0000
     44 ****         0.7498  -2.3692   0.9336 LP             1 S1                 0.0000
     45 ****         2.1413  -1.8952   1.6447 LP             1 S1                 0.0000
     46 ****         7.4926  -1.9719  -0.8860 LP             1 S1                 0.0000
@<TRIPOS>BOND
    1    1    2 1     
    2    1   19 1     
    3    1   20 1     
    4    1   21 1     
    5    2    7 1     
    6    2    3 1     
    7    2   22 1     
    8    3    4 1     
    9    3   23 1     
   10    3   24 1     
   11    4    5 1     
   12    4   25 1     
   13    4   26 1     
   14    5    6 1     
   15    5   27 1     
   16    5   28 1     
   17    6    7 1     
   18    6   29 1     
   19    6   30 1     
   20    7    8 1     
   21    7   31 1     
   22    8    9 1     
   23    8   32 1     
   24    8   33 1     
   25    9   10 1     
   26    9   34 1     
   27    9   43 1     
   28   10   11 1     
   29   10   35 1     
   30   10   36 1     
   31   11   12 1     
   32   11   13 1     
   33   11   37 1     
   34   12   38 1     
   35   13   18 ar    
   36   13   14 ar    
   37   14   15 ar    
   38   14   39 1     
   39   15   16 ar    
   40   15   40 1     
   41   16   17 ar    
   42   17   18 ar    
   43   17   41 1     
   44   18   42 1     
   45   12   44 1     
   46   12   45 1     
   47   16   46 1     
@<TRIPOS>SUBSTRUCTURE
      1 S1             1
@<TRIPOS>SET
LONE_PAIRS      STATIC     ATOMS    <user>   **** ""
3 44 45 46
DONOR_HYDROGENS      STATIC     ATOMS    <user>   **** ""
3 34 43 38
ATOM$BLUE        STATIC     ATOMS    COLORGROUP SYSTEM
3 44 45 46
ATOM$RED        STATIC     ATOMS    COLORGROUP SYSTEM
3 34 43 38
