AV-unprocessed.smi:3068|AV-procd|sdf|11702|dock7
  -GOLD-   2272017103D 1   1.00000     0.00000
 Structure written by MMmdl.
 40 42  0  0  0  0  0  0  0  0  2 V2000
  144.6325  135.9814  155.9121 N   0  0  0  0  0  0  0  0  0  0  0  0
  144.6680  135.7416  154.7806 C   0  0  0  0  0  0  0  0  0  0  0  0
  144.7139  135.4421  153.3550 C   0  0  0  0  0  0  0  0  0  0  0  0
  143.7271  134.6562  152.8654 N   0  0  0  0  0  0  0  0  0  0  0  0
  143.7624  134.3685  151.5468 C   0  0  0  0  0  0  0  0  0  0  0  0
  144.7817  134.8642  150.7107 C   0  0  0  0  0  0  0  0  0  0  0  0
  145.7695  135.6495  151.1901 N   0  0  0  0  0  0  0  0  0  0  0  0
  145.7468  135.9444  152.5142 C   0  0  0  0  0  0  0  0  0  0  0  0
  146.7700  136.7624  153.0257 N   0  0  0  0  0  0  0  0  0  0  0  0
  146.4463  137.9532  153.7989 C   0  0  0  0  0  0  0  0  0  0  0  0
  147.4438  139.0889  153.5344 C   0  0  2  0  0  0  0  0  0  0  0  0
  148.8171  138.7901  154.1634 C   0  0  0  0  0  0  0  0  0  0  0  0
  149.7373  139.9405  153.9841 N   0  3  2  0  0  0  0  0  0  0  0  0
  151.1034  139.7074  154.5216 C   0  0  0  0  0  0  0  0  0  0  0  0
  151.1449  139.7851  156.0600 C   0  0  0  0  0  0  0  0  0  0  0  0
  150.5569  141.1110  156.5621 C   0  0  0  0  0  0  0  0  0  0  0  0
  149.1449  141.3189  155.9965 C   0  0  0  0  0  0  0  0  0  0  0  0
  149.1444  141.2227  154.4547 C   0  0  2  0  0  0  0  0  0  0  0  0
  147.7407  141.4130  153.8480 C   0  0  0  0  0  0  0  0  0  0  0  0
  146.9285  140.2786  154.1233 O   0  0  0  0  0  0  0  0  0  0  0  0
  142.9747  133.7408  151.1576 H   0  0  0  0  0  0  0  0  0  0  0  0
  144.8054  134.6304  149.6565 H   0  0  0  0  0  0  0  0  0  0  0  0
  147.7049  136.6683  152.6547 H   0  0  0  0  0  0  0  0  0  0  0  0
  145.4327  138.2813  153.5636 H   0  0  0  0  0  0  0  0  0  0  0  0
  146.4640  137.6923  154.8579 H   0  0  0  0  0  0  0  0  0  0  0  0
  147.5569  139.2253  152.4568 H   0  0  0  0  0  0  0  0  0  0  0  0
  148.6962  138.5604  155.2224 H   0  0  0  0  0  0  0  0  0  0  0  0
  149.2523  137.9053  153.6974 H   0  0  0  0  0  0  0  0  0  0  0  0
  151.4808  138.7442  154.1763 H   0  0  0  0  0  0  0  0  0  0  0  0
  151.7679  140.4647  154.1035 H   0  0  0  0  0  0  0  0  0  0  0  0
  150.5953  138.9497  156.4947 H   0  0  0  0  0  0  0  0  0  0  0  0
  152.1735  139.6825  156.4069 H   0  0  0  0  0  0  0  0  0  0  0  0
  150.5314  141.1224  157.6520 H   0  0  0  0  0  0  0  0  0  0  0  0
  151.2003  141.9370  156.2564 H   0  0  0  0  0  0  0  0  0  0  0  0
  148.4657  140.5809  156.4246 H   0  0  0  0  0  0  0  0  0  0  0  0
  148.7680  142.2935  156.3081 H   0  0  0  0  0  0  0  0  0  0  0  0
  149.7769  142.0272  154.0766 H   0  0  0  0  0  0  0  0  0  0  0  0
  147.2639  142.3024  154.2607 H   0  0  0  0  0  0  0  0  0  0  0  0
  147.8052  141.5661  152.7696 H   0  0  0  0  0  0  0  0  0  0  0  0
  149.8463  140.0366  152.9845 H   0  0  0  0  0  0  0  0  0  0  0  0
  1  2  3  0  0  0  0
  2  3  1  0  0  0  0
  3  8  1  0  0  0  0
  3  4  2  0  0  0  0
  4  5  1  0  0  0  0
  5  6  2  0  0  0  0
  5 21  1  0  0  0  0
  6  7  1  0  0  0  0
  6 22  1  0  0  0  0
  7  8  2  0  0  0  0
  8  9  1  0  0  0  0
  9 10  1  0  0  0  0
  9 23  1  0  0  0  0
 10 11  1  0  0  0  0
 10 24  1  0  0  0  0
 10 25  1  0  0  0  0
 11 20  1  0  0  0  0
 11 12  1  0  0  0  0
 11 26  1  0  0  0  0
 12 13  1  0  0  0  0
 12 27  1  0  0  0  0
 12 28  1  0  0  0  0
 13 18  1  0  0  0  0
 13 14  1  0  0  0  0
 13 40  1  0  0  0  0
 14 15  1  0  0  0  0
 14 29  1  0  0  0  0
 14 30  1  0  0  0  0
 15 16  1  0  0  0  0
 15 31  1  0  0  0  0
 15 32  1  0  0  0  0
 16 17  1  0  0  0  0
 16 33  1  0  0  0  0
 16 34  1  0  0  0  0
 17 18  1  0  0  0  0
 17 35  1  0  0  0  0
 17 36  1  0  0  0  0
 18 19  1  0  0  0  0
 18 37  1  0  0  0  0
 19 20  1  0  0  0  0
 19 38  1  0  0  0  0
 19 39  1  0  0  0  0
M  CHG  1  13   1
M  END
> <s_m_source_file>
AV-unprocessed.smi

> <i_m_source_file_index>
3068

> <i_lp_mmshare_version>
43012

> <i_f3d_flags>
0

> <s_epik_input>
TiNDYzFuW2NIXVtjSF1uYzFbTkhdW0NIMl1bQ0BIXShbQ0gyXTIpT1tDSDJdW0NAQEhdKE4yMylbQ0gyXVtDSDJdW0NIMl1bQ0gyXTM=

> <s_epik_cmdline>
J2VwaWtfcHl0aG9uJywgJy1waCcsICc3LjAnLCAnLXRuJywgJzgnLCAnLW1hJywgJzIwMCcsICctbWV0YWxfYmluZGluZycsICctaW1hZScsICc8aW5maWxlLm1hZT4nLCAnLW9tYWUnLCAnPG91dGZpbGUubWFlPic=

> <r_epik_Ionization_Penalty>
0.0804321

> <r_epik_Ionization_Penalty_Charging>
0.0803403

> <r_epik_Ionization_Penalty_Neutral>
9.17277e-05

> <r_epik_State_Penalty>
0.0711481

> <r_epik_Charging_Adjusted_Penalty>
0.151488

> <i_epik_Tot_Q>
1

> <i_epik_Tot_abs_Q>
1

> <r_epik_Metal_State_Penalty>
0.0711481

> <b_epik_Metal_Only>
0

> <s_lp_Force_Field>
OPLS_2005

> <r_lp_Energy>
39.3749

> <b_lp_Chiralities_Consistent>
1

> <s_lp_Variant>
AV-unprocessed.smi:3068-5

> <Gold.Version>
5.8.1

> <Gold.Id.Protein>
6NUR|6NUR_protein|mol2

> <Gold.PLP.Fitness>
37.6917

> <Gold.PLP.PLP>
-27.1029

> <Gold.PLP.part.hbond>
-1.9416

> <Gold.PLP.part.metal>
0.0000

> <Gold.PLP.part.buried>
-2.2545

> <Gold.PLP.part.nonpolar>
-24.0909

> <Gold.PLP.part.repulsive>
1.3268

> <Gold.PLP.ligand.clash>
0.0000

> <Gold.PLP.ligand.torsion>
0.7059

> <Gold.PLP.Chemscore.Hbond>
2.0000

> <Gold.PLP.Chemscore.CHOScore>
2.0000

> <Gold.PLP.Chemscore.Metal>
0.0000

> <Gold.Chemscore.Hbonds>
donor molecule, donor type, donor heavy atom, donor atom, acceptor molecule, acceptor atom, score
      L1  H     9    23       P1  7948  1.00
      L1  H    13    40       P1  7957  1.00
      L1  C     5    21       P1 10186  0.74
      L1  C     6    22       P1  7921  1.00

> <Gold.PLP.Chemscore.Internal.Correction>
0.0007

> <Gold.Rescore>
     Score         DG    S(hbond)    S(metal)    S(lipo)     H(rot)  DE(clash)    DE(int)     intcor
     15.58     -16.75       1.95        0.00      69.38       1.32       0.32       0.85       ----

> <Gold.Chemscore.Fitness>
15.5813

> <Gold.Chemscore.DG>
-16.7499

> <Gold.Chemscore.ZeroCoef>
-5.4800

> <Gold.Chemscore.Hbond>
1.9549

> <Gold.Chemscore.Metal>
0.0000

> <Gold.Chemscore.Lipo>
69.3840

> <Gold.Chemscore.Internal_Hbond>
0.0000

> <Gold.Chemscore.DEClash>
0.3214

> <Gold.Chemscore.DEInternal>
0.8472

> <Gold.Chemscore.Rot>
1.3193

> <Gold.Chemscore.Internal.Correction>
   9.000000E+99

> <Gold.Chemscore.Hbonds>
donor molecule, donor type, donor heavy atom, donor atom, acceptor molecule, acceptor atom, score
      L1  H     9    23       P1  7948  0.94
      L1  H    13    40       P1  7957  1.00

> <Gold.Chemscore.Hbond.Weighted>
-6.5293

> <Gold.Chemscore.Metal.Weighted>
-0.0000

> <Gold.Chemscore.Lipo.Weighted>
-8.1179

> <Gold.Chemscore.Internal_Hbond.Weighted>
0.0000

> <Gold.Chemscore.DEClash.Weighted>
0.3214

> <Gold.Chemscore.DEInternal.Weighted>
0.8472

> <Gold.Chemscore.Rot.Weighted>
3.3774

> <Gold.Chemscore.Internal.Correction.Weighted>
   9.000000E+99

> <Gold.Protein.RotatedTorsions>
[ 6907 6896 6895 6894 ] final  136.85 input  -60.11 | X-H torsion
[ 7974 7965 7964 7962 ] final -125.07 input  175.53 | X-H torsion
[ 8008 7997 7996 7995 ] final  122.54 input   59.86 | X-H torsion
[ 10167 10162 10161 10158 ] final  -70.54 input  -65.29 | X-H torsion
[ 10718 10713 10712 10709 ] final -112.96 input   66.30 | X-H torsion
[ 10763 10752 10751 10750 ] final -110.24 input  -60.55 | X-H torsion
[ 11005 11000 10999 10996 ] final   55.12 input  -57.11 | X-H torsion

> <Gold.Protein.ActiveResidues>
 VAL166  LYS551  ARG553  GLY616  TRP617  ASP618  TYR619  PRO620  LYS621  CYS622 
 ASP623  PHE694  ASN695  SER759  ASP760  ASP761  ALA762  ILE779  LEU786  VAL792 
 PHE793  MET794  SER795  GLU796  ALA797  LYS798  CYS799  TRP800  GLU811  SER814 

> <Gold.Protein.RotatedAtoms>
  152.2848  133.5504  159.5519 H   0  0  0  0  0  0  0  0  0  0  0  0  # atno 6907 bound_to 6896
  150.7210  134.0513  159.3808 H   0  0  0  0  0  0  0  0  0  0  0  0  # atno 6908 bound_to 6896
  151.8422  135.0586  160.0500 H   0  0  0  0  0  0  0  0  0  0  0  0  # atno 6909 bound_to 6896
  145.0014  140.7824  143.4494 H   0  0  0  0  0  0  0  0  0  0  0  0  # atno 7974 bound_to 7965
  156.2731  140.2783  156.1484 H   0  0  0  0  0  0  0  0  0  0  0  0  # atno 8008 bound_to 7997
  155.0879  140.0388  157.2677 H   0  0  0  0  0  0  0  0  0  0  0  0  # atno 8009 bound_to 7997
  154.6912  140.2629  155.6816 H   0  0  0  0  0  0  0  0  0  0  0  0  # atno 8010 bound_to 7997
  140.5344  143.2319  151.7203 H   0  0  0  0  0  0  0  0  0  0  0  0  # atno 10167 bound_to 10162
  156.0737  130.5947  150.8578 H   0  0  0  0  0  0  0  0  0  0  0  0  # atno 10718 bound_to 10713
  154.8237  135.4571  154.0855 H   0  0  0  0  0  0  0  0  0  0  0  0  # atno 10763 bound_to 10752
  153.2187  135.6891  153.8032 H   0  0  0  0  0  0  0  0  0  0  0  0  # atno 10764 bound_to 10752
  153.7457  135.3305  155.3289 H   0  0  0  0  0  0  0  0  0  0  0  0  # atno 10765 bound_to 10752
  140.0632  134.5573  155.9129 H   0  0  0  0  0  0  0  0  0  0  0  0  # atno 11005 bound_to 11000
  145.2148  139.2187  143.5124 LP  0  0  0  0  0  0  0  0  0  0  0  0  # atno 17320 bound_to 7965
  146.3452  140.1993  142.8589 LP  0  0  0  0  0  0  0  0  0  0  0  0  # atno 17321 bound_to 7965
  139.4966  144.4065  152.0127 LP  0  0  0  0  0  0  0  0  0  0  0  0  # atno 17342 bound_to 10162
  140.3169  144.3473  150.6019 LP  0  0  0  0  0  0  0  0  0  0  0  0  # atno 17343 bound_to 10162
  157.5822  131.0946  150.9254 LP  0  0  0  0  0  0  0  0  0  0  0  0  # atno 17370 bound_to 10713
  156.9447  130.5397  149.5281 LP  0  0  0  0  0  0  0  0  0  0  0  0  # atno 17371 bound_to 10713
  141.1982  133.6600  156.5779 LP  0  0  0  0  0  0  0  0  0  0  0  0  # atno 17394 bound_to 11000
  140.3739  134.7582  157.4617 LP  0  0  0  0  0  0  0  0  0  0  0  0  # atno 17395 bound_to 11000

$$$$
