AV-unprocessed.smi:451|AV-procd|sdf|2609|dock1
  -GOLD-   2262023 03D 1   1.00000     0.00000
 Structure written by MMmdl.
 38 38  0  0  0  0  0  0  0  0  1 V2000
  151.8558  145.2278  160.5804 C   0  0  0  0  0  0  0  0  0  0  0  0
  151.2010  145.0047  159.2108 C   0  0  0  0  0  0  0  0  0  0  0  0
  150.2666  143.7799  159.1406 C   0  0  0  0  0  0  0  0  0  0  0  0
  150.8772  142.6044  158.5448 N   0  0  0  0  0  0  0  0  0  0  0  0
  150.4166  142.0231  157.3598 C   0  0  0  0  0  0  0  0  0  0  0  0
  149.3136  142.5932  156.7426 N   0  0  0  0  0  0  0  0  0  0  0  0
  151.0100  140.9203  156.8146 C   0  0  0  0  0  0  0  0  0  0  0  0
  150.5823  140.3260  155.6284 N   0  0  0  0  0  0  0  0  0  0  0  0
  151.2472  139.1482  155.0832 C   0  0  0  0  0  0  0  0  0  0  0  0
  149.5211  140.9077  154.8099 C   0  0  0  0  0  0  0  0  0  0  0  0
  148.3651  139.9202  154.5648 C   0  0  0  0  0  0  0  0  0  0  0  0
  147.3812  140.4587  153.6924 O   0  0  0  0  0  0  0  0  0  0  0  0
  147.0793  141.8254  153.9270 C   0  0  0  0  0  0  0  0  0  0  0  0
  152.1753  140.3092  157.4667 C   0  0  0  0  0  0  0  0  0  0  0  0
  152.7932  139.3251  157.0609 O   0  0  0  0  0  0  0  0  0  0  0  0
  152.5899  140.9351  158.6393 N   0  0  0  0  0  0  0  0  0  0  0  0
  152.0013  142.0572  159.2104 C   0  0  0  0  0  0  0  0  0  0  0  0
  152.4779  142.5230  160.2459 O   0  0  0  0  0  0  0  0  0  0  0  0
  153.3917  140.5436  159.1114 H   0  0  0  0  0  0  0  0  0  0  0  0
  152.4456  146.1446  160.5818 H   0  0  0  0  0  0  0  0  0  0  0  0
  152.5249  144.4077  160.8413 H   0  0  0  0  0  0  0  0  0  0  0  0
  151.1049  145.3140  161.3663 H   0  0  0  0  0  0  0  0  0  0  0  0
  150.6251  145.8935  158.9518 H   0  0  0  0  0  0  0  0  0  0  0  0
  151.9791  144.9219  158.4516 H   0  0  0  0  0  0  0  0  0  0  0  0
  149.8679  143.5196  160.1218 H   0  0  0  0  0  0  0  0  0  0  0  0
  149.3870  143.9981  158.5346 H   0  0  0  0  0  0  0  0  0  0  0  0
  148.8513  143.4030  157.1301 H   0  0  0  0  0  0  0  0  0  0  0  0
  148.9428  142.2354  155.8742 H   0  0  0  0  0  0  0  0  0  0  0  0
  151.7858  138.6116  155.8653 H   0  0  0  0  0  0  0  0  0  0  0  0
  151.9644  139.4289  154.3119 H   0  0  0  0  0  0  0  0  0  0  0  0
  150.5253  138.4581  154.6452 H   0  0  0  0  0  0  0  0  0  0  0  0
  149.1452  141.8078  155.2976 H   0  0  0  0  0  0  0  0  0  0  0  0
  149.9397  141.2331  153.8578 H   0  0  0  0  0  0  0  0  0  0  0  0
  148.7369  138.9665  154.1867 H   0  0  0  0  0  0  0  0  0  0  0  0
  147.8646  139.7039  155.5083 H   0  0  0  0  0  0  0  0  0  0  0  0
  146.3771  142.1749  153.1702 H   0  0  0  0  0  0  0  0  0  0  0  0
  147.9738  142.4462  153.8633 H   0  0  0  0  0  0  0  0  0  0  0  0
  146.6149  141.9784  154.9007 H   0  0  0  0  0  0  0  0  0  0  0  0
  1  2  1  0  0  0  0
  1 20  1  0  0  0  0
  1 21  1  0  0  0  0
  1 22  1  0  0  0  0
  2  3  1  0  0  0  0
  2 23  1  0  0  0  0
  2 24  1  0  0  0  0
  3  4  1  0  0  0  0
  3 25  1  0  0  0  0
  3 26  1  0  0  0  0
  4 17  1  0  0  0  0
  4  5  1  0  0  0  0
  5  6  1  0  0  0  0
  5  7  2  0  0  0  0
  6 27  1  0  0  0  0
  6 28  1  0  0  0  0
  7  8  1  0  0  0  0
  7 14  1  0  0  0  0
  8  9  1  0  0  0  0
  8 10  1  0  0  0  0
  9 29  1  0  0  0  0
  9 30  1  0  0  0  0
  9 31  1  0  0  0  0
 10 11  1  0  0  0  0
 10 32  1  0  0  0  0
 10 33  1  0  0  0  0
 11 12  1  0  0  0  0
 11 34  1  0  0  0  0
 11 35  1  0  0  0  0
 12 13  1  0  0  0  0
 13 36  1  0  0  0  0
 13 37  1  0  0  0  0
 13 38  1  0  0  0  0
 14 15  2  0  0  0  0
 14 16  1  0  0  0  0
 16 19  1  0  0  0  0
 16 17  1  0  0  0  0
 17 18  2  0  0  0  0
M  END
> <s_m_source_file>
AV-unprocessed.smi

> <i_m_source_file_index>
451

> <i_lp_mmshare_version>
43012

> <i_f3d_flags>
0

> <s_epik_input>
W0NIM11bQ0gyXVtDSDJdbjFjKFtOSDJdKWMoYyg9TylbbkhdYzE9TylOKFtDSDNdKVtDSDJdW0NIMl1PW0NIM10=

> <s_epik_cmdline>
J2VwaWtfcHl0aG9uJywgJy1waCcsICc3LjAnLCAnLXRuJywgJzgnLCAnLW1hJywgJzIwMCcsICctbWV0YWxfYmluZGluZycsICctaW1hZScsICc8aW5maWxlLm1hZT4nLCAnLW9tYWUnLCAnPG91dGZpbGUubWFlPic=

> <r_lp_tautomer_probability>
1

> <r_epik_Ionization_Penalty>
2.19941e-05

> <r_epik_Ionization_Penalty_Charging>
2.62604e-06

> <r_epik_Ionization_Penalty_Neutral>
1.93681e-05

> <r_epik_State_Penalty>
-0

> <r_epik_Charging_Adjusted_Penalty>
2.62604e-06

> <i_epik_Tot_Q>
0

> <i_epik_Tot_abs_Q>
0

> <r_epik_Metal_State_Penalty>
-0

> <b_epik_Metal_Only>
0

> <s_epik_Chemistry_Notes>
This compound has an imine and may undergo hydrolysis.

> <s_lp_Force_Field>
OPLS_2005

> <r_lp_Energy>
22.0879

> <b_lp_Chiralities_Consistent>
1

> <s_lp_Variant>
AV-unprocessed.smi:451-1

> <Gold.Version>
5.8.1

> <Gold.Id.Protein>
6NUR|6NUR_protein|mol2

> <Gold.PLP.Fitness>
39.7000

> <Gold.PLP.PLP>
-36.9796

> <Gold.PLP.part.hbond>
-1.4454

> <Gold.PLP.part.metal>
0.0000

> <Gold.PLP.part.buried>
-5.4395

> <Gold.PLP.part.nonpolar>
-30.0077

> <Gold.PLP.part.repulsive>
0.2937

> <Gold.PLP.ligand.clash>
21.3575

> <Gold.PLP.ligand.torsion>
0.3874

> <Gold.PLP.Chemscore.Hbond>
1.1760

> <Gold.PLP.Chemscore.CHOScore>
0.0000

> <Gold.PLP.Chemscore.Metal>
0.0000

> <Gold.Chemscore.Hbonds>
donor molecule, donor type, donor heavy atom, donor atom, acceptor molecule, acceptor atom, score
      L1  H     6    27       P1  8028  0.10
      P1  H  7997  8008       L1    15  1.00

> <Gold.PLP.Chemscore.Internal.Correction>
21.3246

> <Gold.Rescore>
     Score         DG    S(hbond)    S(metal)    S(lipo)     H(rot)  DE(clash)    DE(int)     intcor
      6.30     -10.51       0.93        0.00      60.35       2.00       0.09       4.11       ----

> <Gold.Chemscore.Fitness>
6.3037

> <Gold.Chemscore.DG>
-10.5071

> <Gold.Chemscore.ZeroCoef>
-5.4800

> <Gold.Chemscore.Hbond>
0.9263

> <Gold.Chemscore.Metal>
0.0000

> <Gold.Chemscore.Lipo>
60.3506

> <Gold.Chemscore.Internal_Hbond>
0.0000

> <Gold.Chemscore.DEClash>
0.0895

> <Gold.Chemscore.DEInternal>
4.1140

> <Gold.Chemscore.Rot>
2.0031

> <Gold.Chemscore.Internal.Correction>
   9.000000E+99

> <Gold.Chemscore.Hbonds>
donor molecule, donor type, donor heavy atom, donor atom, acceptor molecule, acceptor atom, score
      L1  H     6    27       P1  8028  0.05
      P1  H  7997  8008       L1    15  0.30

> <Gold.Chemscore.Hbond.Weighted>
-3.0939

> <Gold.Chemscore.Metal.Weighted>
-0.0000

> <Gold.Chemscore.Lipo.Weighted>
-7.0610

> <Gold.Chemscore.Internal_Hbond.Weighted>
0.0000

> <Gold.Chemscore.DEClash.Weighted>
0.0895

> <Gold.Chemscore.DEInternal.Weighted>
4.1140

> <Gold.Chemscore.Rot.Weighted>
5.1278

> <Gold.Chemscore.Internal.Correction.Weighted>
   9.000000E+99

> <Gold.Protein.RotatedTorsions>
[ 6907 6896 6895 6894 ] final   96.27 input  -60.11 | X-H torsion
[ 7974 7965 7964 7962 ] final   30.84 input  175.53 | X-H torsion
[ 8008 7997 7996 7995 ] final  -62.35 input   59.86 | X-H torsion
[ 10167 10162 10161 10158 ] final  106.31 input  -65.29 | X-H torsion
[ 10718 10713 10712 10709 ] final  -87.38 input   66.30 | X-H torsion
[ 10763 10752 10751 10750 ] final  158.43 input  -60.55 | X-H torsion
[ 11005 11000 10999 10996 ] final  -99.43 input  -57.11 | X-H torsion

> <Gold.Protein.ActiveResidues>
 VAL166  LYS551  ARG553  GLY616  TRP617  ASP618  TYR619  PRO620  LYS621  CYS622 
 ASP623  PHE694  ASN695  SER759  ASP760  ASP761  ALA762  ILE779  LEU786  VAL792 
 PHE793  MET794  SER795  GLU796  ALA797  LYS798  CYS799  TRP800  GLU811  SER814 

> <Gold.Protein.RotatedAtoms>
  152.5436  134.0912  159.8277 H   0  0  0  0  0  0  0  0  0  0  0  0  # atno 6907 bound_to 6896
  151.1001  133.5242  159.2617 H   0  0  0  0  0  0  0  0  0  0  0  0  # atno 6908 bound_to 6896
  151.2000  135.0448  159.8923 H   0  0  0  0  0  0  0  0  0  0  0  0  # atno 6909 bound_to 6896
  146.1587  139.6735  142.9049 H   0  0  0  0  0  0  0  0  0  0  0  0  # atno 7974 bound_to 7965
  154.4495  140.0998  156.6574 H   0  0  0  0  0  0  0  0  0  0  0  0  # atno 8008 bound_to 7997
  155.5331  140.3482  155.4412 H   0  0  0  0  0  0  0  0  0  0  0  0  # atno 8009 bound_to 7997
  156.0650  140.1335  156.9885 H   0  0  0  0  0  0  0  0  0  0  0  0  # atno 8010 bound_to 7997
  139.7020  144.7092  151.1170 H   0  0  0  0  0  0  0  0  0  0  0  0  # atno 10167 bound_to 10162
  155.9985  130.4798  150.4858 H   0  0  0  0  0  0  0  0  0  0  0  0  # atno 10718 bound_to 10713
  154.2159  135.2784  155.2942 H   0  0  0  0  0  0  0  0  0  0  0  0  # atno 10763 bound_to 10752
  154.5741  135.5609  153.7126 H   0  0  0  0  0  0  0  0  0  0  0  0  # atno 10764 bound_to 10752
  153.0053  135.6328  154.2299 H   0  0  0  0  0  0  0  0  0  0  0  0  # atno 10765 bound_to 10752
  141.1309  133.8321  157.0970 H   0  0  0  0  0  0  0  0  0  0  0  0  # atno 11005 bound_to 11000
  145.4643  141.0434  143.2734 LP  0  0  0  0  0  0  0  0  0  0  0  0  # atno 17320 bound_to 7965
  144.7997  139.6164  143.7077 LP  0  0  0  0  0  0  0  0  0  0  0  0  # atno 17321 bound_to 7965
  140.7712  143.5411  150.9312 LP  0  0  0  0  0  0  0  0  0  0  0  0  # atno 17342 bound_to 10162
  139.9093  143.6740  152.3118 LP  0  0  0  0  0  0  0  0  0  0  0  0  # atno 17343 bound_to 10162
  157.2859  131.0616  151.2167 LP  0  0  0  0  0  0  0  0  0  0  0  0  # atno 17370 bound_to 10713
  157.3197  130.6931  149.6262 LP  0  0  0  0  0  0  0  0  0  0  0  0  # atno 17371 bound_to 10713
  140.0357  134.9879  157.0865 LP  0  0  0  0  0  0  0  0  0  0  0  0  # atno 17394 bound_to 11000
  140.4215  134.1876  155.7164 LP  0  0  0  0  0  0  0  0  0  0  0  0  # atno 17395 bound_to 11000

$$$$
