AV-unprocessed.smi:1701|AV-procd|sdf|6827|dock9
  -GOLD-   22720 8 03D 1   1.00000     0.00000
 Structure written by MMmdl.
 55 57  0  0  0  0  0  0  0  0  3 V2000
  151.5408  141.2007  159.5498 C   0  0  0  0  0  0  0  0  0  0  0  0
  152.0270  141.0649  158.0996 C   0  0  0  0  0  0  0  0  0  0  0  0
  151.1434  141.7148  157.1318 N   0  0  0  0  0  0  0  0  0  0  0  0
  151.1241  143.1769  157.0442 C   0  0  0  0  0  0  0  0  0  0  0  0
  151.9661  143.8595  158.1334 C   0  0  0  0  0  0  0  0  0  0  0  0
  150.4588  140.9429  156.1619 C   0  0  0  0  0  0  0  0  0  0  0  0
  149.3696  141.4304  155.3967 C   0  0  0  0  0  0  0  0  0  0  0  0
  148.7421  140.5939  154.4513 C   0  0  0  0  0  0  0  0  0  0  0  0
  149.2054  139.2758  154.2611 C   0  0  0  0  0  0  0  0  0  0  0  0
  148.5286  138.4679  153.3079 N   0  0  0  0  0  0  0  0  0  0  0  0
  147.2122  138.4233  153.0215 C   0  0  0  0  0  0  0  0  0  0  0  0
  146.3500  139.0929  153.5847 O   0  0  0  0  0  0  0  0  0  0  0  0
  146.8869  137.5367  152.0633 N   0  0  0  0  0  0  0  0  0  0  0  0
  145.5600  137.2387  151.5182 C   0  0  2  0  0  0  0  0  0  0  0  0
  144.4716  137.2082  152.5839 C   0  0  0  0  0  0  0  0  0  0  0  0
  143.3374  136.4395  151.8996 C   0  0  0  0  0  0  0  0  0  0  0  0
  143.9697  135.5422  150.9018 N   0  3  2  0  0  0  0  0  0  0  0  0
  143.6317  134.1051  151.0824 C   0  0  0  0  0  0  0  0  0  0  0  0
  144.5914  133.2110  150.2830 C   0  0  0  0  0  0  0  0  0  0  0  0
  146.0467  133.3749  150.7608 C   0  0  0  0  0  0  0  0  0  0  0  0
  146.2891  134.7251  151.4621 C   0  0  0  0  0  0  0  0  0  0  0  0
  145.4268  135.8553  150.8488 C   0  0  2  0  0  0  0  0  0  0  0  0
  150.2900  138.8297  155.0522 C   0  0  0  0  0  0  0  0  0  0  0  0
  150.8596  139.6652  155.9470 N   0  3  0  0  0  0  0  0  0  0  0  0
  152.2589  140.7520  160.2363 H   0  0  0  0  0  0  0  0  0  0  0  0
  150.5888  140.6937  159.7020 H   0  0  0  0  0  0  0  0  0  0  0  0
  151.4166  142.2447  159.8377 H   0  0  0  0  0  0  0  0  0  0  0  0
  153.0423  141.4481  157.9997 H   0  0  0  0  0  0  0  0  0  0  0  0
  152.0993  140.0060  157.8497 H   0  0  0  0  0  0  0  0  0  0  0  0
  151.4577  143.4953  156.0560 H   0  0  0  0  0  0  0  0  0  0  0  0
  150.0931  143.5217  157.1265 H   0  0  0  0  0  0  0  0  0  0  0  0
  151.9273  144.9434  158.0226 H   0  0  0  0  0  0  0  0  0  0  0  0
  153.0135  143.5625  158.0782 H   0  0  0  0  0  0  0  0  0  0  0  0
  151.6049  143.6217  159.1330 H   0  0  0  0  0  0  0  0  0  0  0  0
  148.9912  142.4333  155.5219 H   0  0  0  0  0  0  0  0  0  0  0  0
  147.9089  140.9692  153.8750 H   0  0  0  0  0  0  0  0  0  0  0  0
  149.1091  137.8090  152.8111 H   0  0  0  0  0  0  0  0  0  0  0  0
  147.6468  136.9852  151.6905 H   0  0  0  0  0  0  0  0  0  0  0  0
  145.2858  138.0112  150.7966 H   0  0  0  0  0  0  0  0  0  0  0  0
  144.8143  136.6560  153.4605 H   0  0  0  0  0  0  0  0  0  0  0  0
  144.1682  138.2032  152.9116 H   0  0  0  0  0  0  0  0  0  0  0  0
  142.7153  135.9105  152.6228 H   0  0  0  0  0  0  0  0  0  0  0  0
  142.6899  137.1322  151.3611 H   0  0  0  0  0  0  0  0  0  0  0  0
  143.6855  133.8351  152.1386 H   0  0  0  0  0  0  0  0  0  0  0  0
  142.6010  133.9401  150.7670 H   0  0  0  0  0  0  0  0  0  0  0  0
  144.2904  132.1654  150.3564 H   0  0  0  0  0  0  0  0  0  0  0  0
  144.5225  133.4735  149.2264 H   0  0  0  0  0  0  0  0  0  0  0  0
  146.3091  132.5688  151.4468 H   0  0  0  0  0  0  0  0  0  0  0  0
  146.7151  133.2723  149.9051 H   0  0  0  0  0  0  0  0  0  0  0  0
  146.0543  134.6280  152.5231 H   0  0  0  0  0  0  0  0  0  0  0  0
  147.3513  134.9648  151.4087 H   0  0  0  0  0  0  0  0  0  0  0  0
  145.7079  135.9453  149.7985 H   0  0  0  0  0  0  0  0  0  0  0  0
  150.7210  137.8403  155.0217 H   0  0  0  0  0  0  0  0  0  0  0  0
  143.5959  135.8132  150.0032 H   0  0  0  0  0  0  0  0  0  0  0  0
  151.6395  139.3089  156.4999 H   0  0  0  0  0  0  0  0  0  0  0  0
  1  2  1  0  0  0  0
  1 25  1  0  0  0  0
  1 26  1  0  0  0  0
  1 27  1  0  0  0  0
  2  3  1  0  0  0  0
  2 28  1  0  0  0  0
  2 29  1  0  0  0  0
  3  4  1  0  0  0  0
  3  6  1  0  0  0  0
  4  5  1  0  0  0  0
  4 30  1  0  0  0  0
  4 31  1  0  0  0  0
  5 32  1  0  0  0  0
  5 33  1  0  0  0  0
  5 34  1  0  0  0  0
  6 24  1  0  0  0  0
  6  7  2  0  0  0  0
  7  8  1  0  0  0  0
  7 35  1  0  0  0  0
  8  9  2  0  0  0  0
  8 36  1  0  0  0  0
  9 10  1  0  0  0  0
  9 23  1  0  0  0  0
 10 11  1  0  0  0  0
 10 37  1  0  0  0  0
 11 12  2  0  0  0  0
 11 13  1  0  0  0  0
 13 14  1  0  0  0  0
 13 38  1  0  0  0  0
 14 22  1  0  0  0  0
 14 15  1  0  0  0  0
 14 39  1  0  0  0  0
 15 16  1  0  0  0  0
 15 40  1  0  0  0  0
 15 41  1  0  0  0  0
 16 17  1  0  0  0  0
 16 42  1  0  0  0  0
 16 43  1  0  0  0  0
 17 22  1  0  0  0  0
 17 18  1  0  0  0  0
 17 54  1  0  0  0  0
 18 19  1  0  0  0  0
 18 44  1  0  0  0  0
 18 45  1  0  0  0  0
 19 20  1  0  0  0  0
 19 46  1  0  0  0  0
 19 47  1  0  0  0  0
 20 21  1  0  0  0  0
 20 48  1  0  0  0  0
 20 49  1  0  0  0  0
 21 22  1  0  0  0  0
 21 50  1  0  0  0  0
 21 51  1  0  0  0  0
 22 52  1  0  0  0  0
 23 24  2  0  0  0  0
 23 53  1  0  0  0  0
 24 55  1  0  0  0  0
M  CHG  1  17   1
M  CHG  1  24   1
M  END
> <s_m_source_file>
AV-unprocessed.smi

> <i_m_source_file_index>
1701

> <i_lp_mmshare_version>
43012

> <i_f3d_flags>
0

> <s_epik_input>
W0NIM11bQ0gyXU4oW0NIMl1bQ0gzXSljMVtjSF1bY0hdYyhbY0hdbjEpW05IXUMoPU8pW05IXVtDQEhdKFtDSDJdW0NIMl0yKVtDQEBIXShOMjMpW0NIMl1bQ0gyXVtDSDJdW0NIMl0z

> <s_epik_cmdline>
J2VwaWtfcHl0aG9uJywgJy1waCcsICc3LjAnLCAnLXRuJywgJzgnLCAnLW1hJywgJzIwMCcsICctbWV0YWxfYmluZGluZycsICctaW1hZScsICc8aW5maWxlLm1hZT4nLCAnLW9tYWUnLCAnPG91dGZpbGUubWFlPic=

> <r_lp_tautomer_probability>
0.999994

> <r_epik_Ionization_Penalty>
0.302862

> <r_epik_Ionization_Penalty_Charging>
0.302842

> <r_epik_Ionization_Penalty_Neutral>
1.95166e-05

> <r_epik_State_Penalty>
0.019791

> <r_epik_Charging_Adjusted_Penalty>
0.322633

> <i_epik_Tot_Q>
2

> <i_epik_Tot_abs_Q>
2

> <r_epik_Metal_State_Penalty>
0.0536763

> <b_epik_Metal_Only>
0

> <s_lp_Force_Field>
OPLS_2005

> <r_lp_Energy>
67.6643

> <b_lp_Chiralities_Consistent>
1

> <s_lp_Variant>
AV-unprocessed.smi:1701-7

> <Gold.Version>
5.8.1

> <Gold.Id.Protein>
6NUR|6NUR_protein|mol2

> <Gold.PLP.Fitness>
46.2547

> <Gold.PLP.PLP>
-42.2066

> <Gold.PLP.part.hbond>
-2.8822

> <Gold.PLP.part.metal>
0.0000

> <Gold.PLP.part.buried>
-3.6173

> <Gold.PLP.part.nonpolar>
-36.7368

> <Gold.PLP.part.repulsive>
0.3770

> <Gold.PLP.ligand.clash>
0.0000

> <Gold.PLP.ligand.torsion>
0.8565

> <Gold.PLP.Chemscore.Hbond>
1.8800

> <Gold.PLP.Chemscore.CHOScore>
0.0000

> <Gold.PLP.Chemscore.Metal>
0.0000

> <Gold.Chemscore.Hbonds>
donor molecule, donor type, donor heavy atom, donor atom, acceptor molecule, acceptor atom, score
      L1  H    10    37       P1  7948  0.82
      L1  H    13    38       P1  7948  0.89

> <Gold.PLP.Chemscore.Internal.Correction>
0.1211

> <Gold.Rescore>
     Score         DG    S(hbond)    S(metal)    S(lipo)     H(rot)  DE(clash)    DE(int)     intcor
     17.81     -21.06       1.90        0.00     107.48       1.30       0.22       3.03       ----

> <Gold.Chemscore.Fitness>
17.8092

> <Gold.Chemscore.DG>
-21.0635

> <Gold.Chemscore.ZeroCoef>
-5.4800

> <Gold.Chemscore.Hbond>
1.8987

> <Gold.Chemscore.Metal>
0.0000

> <Gold.Chemscore.Lipo>
107.4775

> <Gold.Chemscore.Internal_Hbond>
0.0000

> <Gold.Chemscore.DEClash>
0.2241

> <Gold.Chemscore.DEInternal>
3.0302

> <Gold.Chemscore.Rot>
1.3020

> <Gold.Chemscore.Internal.Correction>
   9.000000E+99

> <Gold.Chemscore.Hbonds>
donor molecule, donor type, donor heavy atom, donor atom, acceptor molecule, acceptor atom, score
      L1  H    10    37       P1  7948  0.80
      L1  H    13    38       P1  7948  0.84

> <Gold.Chemscore.Hbond.Weighted>
-6.3417

> <Gold.Chemscore.Metal.Weighted>
-0.0000

> <Gold.Chemscore.Lipo.Weighted>
-12.5749

> <Gold.Chemscore.Internal_Hbond.Weighted>
0.0000

> <Gold.Chemscore.DEClash.Weighted>
0.2241

> <Gold.Chemscore.DEInternal.Weighted>
3.0302

> <Gold.Chemscore.Rot.Weighted>
3.3330

> <Gold.Chemscore.Internal.Correction.Weighted>
   9.000000E+99

> <Gold.Protein.RotatedTorsions>
[ 6907 6896 6895 6894 ] final  175.76 input  -60.11 | X-H torsion
[ 7974 7965 7964 7962 ] final    3.53 input  175.53 | X-H torsion
[ 8008 7997 7996 7995 ] final -112.13 input   59.86 | X-H torsion
[ 10167 10162 10161 10158 ] final -140.01 input  -65.29 | X-H torsion
[ 10718 10713 10712 10709 ] final  116.21 input   66.30 | X-H torsion
[ 10763 10752 10751 10750 ] final   99.92 input  -60.55 | X-H torsion
[ 11005 11000 10999 10996 ] final   88.25 input  -57.11 | X-H torsion

> <Gold.Protein.ActiveResidues>
 VAL166  LYS551  ARG553  GLY616  TRP617  ASP618  TYR619  PRO620  LYS621  CYS622 
 ASP623  PHE694  ASN695  SER759  ASP760  ASP761  ALA762  ILE779  LEU786  VAL792 
 PHE793  MET794  SER795  GLU796  ALA797  LYS798  CYS799  TRP800  GLU811  SER814 

> <Gold.Protein.RotatedAtoms>
  151.7310  133.3318  159.3340 H   0  0  0  0  0  0  0  0  0  0  0  0  # atno 6907 bound_to 6896
  150.7612  134.6363  159.6222 H   0  0  0  0  0  0  0  0  0  0  0  0  # atno 6908 bound_to 6896
  152.3591  134.6899  160.0264 H   0  0  0  0  0  0  0  0  0  0  0  0  # atno 6909 bound_to 6896
  146.2445  140.0672  142.8365 H   0  0  0  0  0  0  0  0  0  0  0  0  # atno 7974 bound_to 7965
  155.0005  140.0394  157.2358 H   0  0  0  0  0  0  0  0  0  0  0  0  # atno 8008 bound_to 7997
  154.7548  140.2773  155.6240 H   0  0  0  0  0  0  0  0  0  0  0  0  # atno 8009 bound_to 7997
  156.2892  140.2640  156.2311 H   0  0  0  0  0  0  0  0  0  0  0  0  # atno 8010 bound_to 7997
  139.8323  143.7431  152.2665 H   0  0  0  0  0  0  0  0  0  0  0  0  # atno 10167 bound_to 10162
  157.6174  131.1022  150.7440 H   0  0  0  0  0  0  0  0  0  0  0  0  # atno 10718 bound_to 10713
  153.3074  135.4097  155.1306 H   0  0  0  0  0  0  0  0  0  0  0  0  # atno 10763 bound_to 10752
  154.8566  135.3556  154.5769 H   0  0  0  0  0  0  0  0  0  0  0  0  # atno 10764 bound_to 10752
  153.6197  135.7065  153.5374 H   0  0  0  0  0  0  0  0  0  0  0  0  # atno 10765 bound_to 10752
  139.8901  134.8475  156.2974 H   0  0  0  0  0  0  0  0  0  0  0  0  # atno 11005 bound_to 11000
  145.0848  140.9245  143.4804 LP  0  0  0  0  0  0  0  0  0  0  0  0  # atno 17320 bound_to 7965
  145.0832  139.2944  143.5773 LP  0  0  0  0  0  0  0  0  0  0  0  0  # atno 17321 bound_to 7965
  139.7642  144.7497  151.0319 LP  0  0  0  0  0  0  0  0  0  0  0  0  # atno 17342 bound_to 10162
  140.7805  143.4717  151.0137 LP  0  0  0  0  0  0  0  0  0  0  0  0  # atno 17343 bound_to 10162
  156.7804  130.4857  149.5402 LP  0  0  0  0  0  0  0  0  0  0  0  0  # atno 17370 bound_to 10713
  156.1303  130.6173  151.0324 LP  0  0  0  0  0  0  0  0  0  0  0  0  # atno 17371 bound_to 10713
  140.9936  133.7193  156.0852 LP  0  0  0  0  0  0  0  0  0  0  0  0  # atno 17394 bound_to 11000
  140.7592  134.3958  157.5528 LP  0  0  0  0  0  0  0  0  0  0  0  0  # atno 17395 bound_to 11000

$$$$
