AV-unprocessed.smi:861|AV-procd|sdf|3970|dock3
  -GOLD-   22720 1443D 1   1.00000     0.00000
 Structure written by MMmdl.
 43 44  0  0  0  0  0  0  0  0  1 V2000
  152.8202  143.7795  159.6681 C   0  0  0  0  0  0  0  0  0  0  0  0
  151.6913  144.2125  158.7178 C   0  0  0  0  0  0  0  0  0  0  0  0
  150.8334  145.3072  159.3702 C   0  0  0  0  0  0  0  0  0  0  0  0
  150.8145  143.0265  158.2677 C   0  0  0  0  0  0  0  0  0  0  0  0
  151.5968  141.9198  157.5339 C   0  0  0  0  0  0  0  0  0  0  0  0
  150.7807  141.0290  156.7102 N   0  0  0  0  0  0  0  0  0  0  0  0
  150.1717  141.7559  155.6019 C   0  0  0  0  0  0  0  0  0  0  0  0
  149.3141  140.8388  154.7143 C   0  0  0  0  0  0  0  0  0  0  0  0
  150.1105  139.7584  154.2393 O   0  0  0  0  0  0  0  0  0  0  0  0
  150.6790  138.9821  155.2902 C   0  0  1  0  0  0  0  0  0  0  0  0
  151.4897  137.8442  154.6533 C   0  0  0  0  0  0  0  0  0  0  0  0
  150.6365  136.7369  154.2434 N   0  0  0  0  0  0  0  0  0  0  0  0
  150.7380  135.4828  154.8588 C   0  0  0  0  0  0  0  0  0  0  0  0
  149.9620  134.4169  154.3619 C   0  0  0  0  0  0  0  0  0  0  0  0
  150.0823  133.1699  154.9991 C   0  0  0  0  0  0  0  0  0  0  0  0
  150.9713  133.0842  156.0860 C   0  0  0  0  0  0  0  0  0  0  0  0
  151.6934  134.1412  156.5213 N   0  0  0  0  0  0  0  0  0  0  0  0
  151.5774  135.3276  155.9136 N   0  0  0  0  0  0  0  0  0  0  0  0
  151.5446  139.9047  156.1750 C   0  0  0  0  0  0  0  0  0  0  0  0
  152.4229  143.2974  160.5619 H   0  0  0  0  0  0  0  0  0  0  0  0
  153.4117  144.6372  159.9895 H   0  0  0  0  0  0  0  0  0  0  0  0
  153.5047  143.0808  159.1881 H   0  0  0  0  0  0  0  0  0  0  0  0
  152.1501  144.6492  157.8299 H   0  0  0  0  0  0  0  0  0  0  0  0
  150.3427  144.9408  160.2724 H   0  0  0  0  0  0  0  0  0  0  0  0
  150.0583  145.6596  158.6892 H   0  0  0  0  0  0  0  0  0  0  0  0
  151.4402  146.1694  159.6486 H   0  0  0  0  0  0  0  0  0  0  0  0
  150.2988  142.6161  159.1360 H   0  0  0  0  0  0  0  0  0  0  0  0
  150.0369  143.3983  157.5989 H   0  0  0  0  0  0  0  0  0  0  0  0
  152.3346  142.4053  156.8935 H   0  0  0  0  0  0  0  0  0  0  0  0
  152.1658  141.3291  158.2528 H   0  0  0  0  0  0  0  0  0  0  0  0
  149.5518  142.5664  155.9869 H   0  0  0  0  0  0  0  0  0  0  0  0
  150.9491  142.2198  154.9926 H   0  0  0  0  0  0  0  0  0  0  0  0
  148.4570  140.4539  155.2688 H   0  0  0  0  0  0  0  0  0  0  0  0
  148.9220  141.3941  153.8624 H   0  0  0  0  0  0  0  0  0  0  0  0
  149.8669  138.5548  155.8817 H   0  0  0  0  0  0  0  0  0  0  0  0
  152.0135  138.2192  153.7731 H   0  0  0  0  0  0  0  0  0  0  0  0
  152.2490  137.4902  155.3519 H   0  0  0  0  0  0  0  0  0  0  0  0
  149.9435  136.8928  153.5259 H   0  0  0  0  0  0  0  0  0  0  0  0
  149.2958  134.5485  153.5219 H   0  0  0  0  0  0  0  0  0  0  0  0
  149.5156  132.3125  154.6681 H   0  0  0  0  0  0  0  0  0  0  0  0
  151.1068  132.1530  156.6157 H   0  0  0  0  0  0  0  0  0  0  0  0
  152.3907  140.2761  155.5945 H   0  0  0  0  0  0  0  0  0  0  0  0
  151.9612  139.3151  156.9907 H   0  0  0  0  0  0  0  0  0  0  0  0
  1  2  1  0  0  0  0
  1 20  1  0  0  0  0
  1 21  1  0  0  0  0
  1 22  1  0  0  0  0
  2  3  1  0  0  0  0
  2  4  1  0  0  0  0
  2 23  1  0  0  0  0
  3 24  1  0  0  0  0
  3 25  1  0  0  0  0
  3 26  1  0  0  0  0
  4  5  1  0  0  0  0
  4 27  1  0  0  0  0
  4 28  1  0  0  0  0
  5  6  1  0  0  0  0
  5 29  1  0  0  0  0
  5 30  1  0  0  0  0
  6 19  1  0  0  0  0
  6  7  1  0  0  0  0
  7  8  1  0  0  0  0
  7 31  1  0  0  0  0
  7 32  1  0  0  0  0
  8  9  1  0  0  0  0
  8 33  1  0  0  0  0
  8 34  1  0  0  0  0
  9 10  1  0  0  0  0
 10 11  1  0  0  0  0
 10 19  1  0  0  0  0
 10 35  1  0  0  0  0
 11 12  1  0  0  0  0
 11 36  1  0  0  0  0
 11 37  1  0  0  0  0
 12 13  1  0  0  0  0
 12 38  1  0  0  0  0
 13 18  1  0  0  0  0
 13 14  2  0  0  0  0
 14 15  1  0  0  0  0
 14 39  1  0  0  0  0
 15 16  2  0  0  0  0
 15 40  1  0  0  0  0
 16 17  1  0  0  0  0
 16 41  1  0  0  0  0
 17 18  2  0  0  0  0
 19 42  1  0  0  0  0
 19 43  1  0  0  0  0
M  END
> <s_m_source_file>
AV-unprocessed.smi

> <i_m_source_file_index>
861

> <i_lp_mmshare_version>
43012

> <i_f3d_flags>
0

> <s_epik_input>
W0NIM11bQ0hdKFtDSDNdKVtDSDJdW0NIMl1OMVtDSDJdW0NIMl1PW0NASF0oW0NIMl0xKVtDSDJdW05IXWMyW2NIXVtjSF1bY0hdbm4y

> <s_epik_cmdline>
J2VwaWtfcHl0aG9uJywgJy1waCcsICc3LjAnLCAnLXRuJywgJzgnLCAnLW1hJywgJzIwMCcsICctbWV0YWxfYmluZGluZycsICctaW1hZScsICc8aW5maWxlLm1hZT4nLCAnLW9tYWUnLCAnPG91dGZpbGUubWFlPic=

> <r_lp_tautomer_probability>
0.999978

> <r_epik_Ionization_Penalty>
1.1508

> <r_epik_Ionization_Penalty_Charging>
0

> <r_epik_Ionization_Penalty_Neutral>
1.1508

> <r_epik_State_Penalty>
1.22808

> <r_epik_Charging_Adjusted_Penalty>
1.22808

> <i_epik_Tot_Q>
0

> <i_epik_Tot_abs_Q>
0

> <r_epik_Metal_State_Penalty>
1.22149

> <b_epik_Metal_Only>
0

> <s_lp_Force_Field>
OPLS_2005

> <r_lp_Energy>
29.6071

> <b_lp_Chiralities_Consistent>
1

> <s_lp_Variant>
AV-unprocessed.smi:861-5

> <Gold.Version>
5.8.1

> <Gold.Id.Protein>
6NUR|6NUR_protein|mol2

> <Gold.PLP.Fitness>
47.2462

> <Gold.PLP.PLP>
-40.0934

> <Gold.PLP.part.hbond>
-4.3282

> <Gold.PLP.part.metal>
0.0000

> <Gold.PLP.part.buried>
-5.7165

> <Gold.PLP.part.nonpolar>
-31.5970

> <Gold.PLP.part.repulsive>
0.2661

> <Gold.PLP.ligand.clash>
0.0000

> <Gold.PLP.ligand.torsion>
0.3374

> <Gold.PLP.Chemscore.Hbond>
2.5707

> <Gold.PLP.Chemscore.CHOScore>
0.0000

> <Gold.PLP.Chemscore.Metal>
0.0000

> <Gold.Chemscore.Hbonds>
donor molecule, donor type, donor heavy atom, donor atom, acceptor molecule, acceptor atom, score
      L1  H    12    38       P1  7948  0.96
      P1  H  7989  7998       L1     9  0.85
      P1  H 10752 10763       L1    18  1.00

> <Gold.PLP.Chemscore.Internal.Correction>
0.1156

> <Gold.Rescore>
     Score         DG    S(hbond)    S(metal)    S(lipo)     H(rot)  DE(clash)    DE(int)     intcor
     16.16     -16.57       0.90        0.00     105.42       1.66       0.07       0.34       ----

> <Gold.Chemscore.Fitness>
16.1571

> <Gold.Chemscore.DG>
-16.5721

> <Gold.Chemscore.ZeroCoef>
-5.4800

> <Gold.Chemscore.Hbond>
0.8997

> <Gold.Chemscore.Metal>
0.0000

> <Gold.Chemscore.Lipo>
105.4222

> <Gold.Chemscore.Internal_Hbond>
0.0000

> <Gold.Chemscore.DEClash>
0.0727

> <Gold.Chemscore.DEInternal>
0.3422

> <Gold.Chemscore.Rot>
1.6591

> <Gold.Chemscore.Internal.Correction>
   9.000000E+99

> <Gold.Chemscore.Hbonds>
donor molecule, donor type, donor heavy atom, donor atom, acceptor molecule, acceptor atom, score
      L1  H    12    38       P1  7948  0.27
      P1  H  7989  7998       L1     9  0.07
      P1  H 10752 10763       L1    18  0.07

> <Gold.Chemscore.Hbond.Weighted>
-3.0051

> <Gold.Chemscore.Metal.Weighted>
-0.0000

> <Gold.Chemscore.Lipo.Weighted>
-12.3344

> <Gold.Chemscore.Internal_Hbond.Weighted>
0.0000

> <Gold.Chemscore.DEClash.Weighted>
0.0727

> <Gold.Chemscore.DEInternal.Weighted>
0.3422

> <Gold.Chemscore.Rot.Weighted>
4.2474

> <Gold.Chemscore.Internal.Correction.Weighted>
   9.000000E+99

> <Gold.Protein.RotatedTorsions>
[ 6907 6896 6895 6894 ] final -116.59 input  -60.11 | X-H torsion
[ 7974 7965 7964 7962 ] final  128.83 input  175.53 | X-H torsion
[ 8008 7997 7996 7995 ] final   13.70 input   59.86 | X-H torsion
[ 10167 10162 10161 10158 ] final   60.82 input  -65.29 | X-H torsion
[ 10718 10713 10712 10709 ] final  178.89 input   66.30 | X-H torsion
[ 10763 10752 10751 10750 ] final   92.05 input  -60.55 | X-H torsion
[ 11005 11000 10999 10996 ] final  101.97 input  -57.11 | X-H torsion

> <Gold.Protein.ActiveResidues>
 VAL166  LYS551  ARG553  GLY616  TRP617  ASP618  TYR619  PRO620  LYS621  CYS622 
 ASP623  PHE694  ASN695  SER759  ASP760  ASP761  ALA762  ILE779  LEU786  VAL792 
 PHE793  MET794  SER795  GLU796  ALA797  LYS798  CYS799  TRP800  GLU811  SER814 

> <Gold.Protein.RotatedAtoms>
  150.8068  133.8495  159.3201 H   0  0  0  0  0  0  0  0  0  0  0  0  # atno 6907 bound_to 6896
  151.6292  135.1023  160.0127 H   0  0  0  0  0  0  0  0  0  0  0  0  # atno 6908 bound_to 6896
  152.4159  133.6997  159.6473 H   0  0  0  0  0  0  0  0  0  0  0  0  # atno 6909 bound_to 6896
  145.0352  139.4011  143.5129 H   0  0  0  0  0  0  0  0  0  0  0  0  # atno 7974 bound_to 7965
  154.8381  140.2910  155.5677 H   0  0  0  0  0  0  0  0  0  0  0  0  # atno 8008 bound_to 7997
  156.3010  140.2519  156.3250 H   0  0  0  0  0  0  0  0  0  0  0  0  # atno 8009 bound_to 7997
  154.9156  140.0387  157.1959 H   0  0  0  0  0  0  0  0  0  0  0  0  # atno 8010 bound_to 7997
  140.1614  144.4366  150.6707 H   0  0  0  0  0  0  0  0  0  0  0  0  # atno 10167 bound_to 10162
  156.8839  130.9825  151.3058 H   0  0  0  0  0  0  0  0  0  0  0  0  # atno 10718 bound_to 10713
  153.2149  135.4375  155.0423 H   0  0  0  0  0  0  0  0  0  0  0  0  # atno 10763 bound_to 10752
  154.8220  135.3342  154.7013 H   0  0  0  0  0  0  0  0  0  0  0  0  # atno 10764 bound_to 10752
  153.7448  135.7002  153.5014 H   0  0  0  0  0  0  0  0  0  0  0  0  # atno 10765 bound_to 10752
  139.8775  134.9205  156.4988 H   0  0  0  0  0  0  0  0  0  0  0  0  # atno 11005 bound_to 11000
  146.3503  139.9924  142.8684 LP  0  0  0  0  0  0  0  0  0  0  0  0  # atno 17320 bound_to 7965
  145.1718  140.9725  143.4317 LP  0  0  0  0  0  0  0  0  0  0  0  0  # atno 17321 bound_to 7965
  140.6640  143.2261  151.5787 LP  0  0  0  0  0  0  0  0  0  0  0  0  # atno 17342 bound_to 10162
  139.5379  144.2729  152.1290 LP  0  0  0  0  0  0  0  0  0  0  0  0  # atno 17343 bound_to 10162
  157.6124  130.8593  149.8973 LP  0  0  0  0  0  0  0  0  0  0  0  0  # atno 17370 bound_to 10713
  156.0663  130.3692  150.0872 LP  0  0  0  0  0  0  0  0  0  0  0  0  # atno 17371 bound_to 10713
  140.8605  133.8063  155.9260 LP  0  0  0  0  0  0  0  0  0  0  0  0  # atno 17394 bound_to 11000
  140.9054  134.2326  157.5017 LP  0  0  0  0  0  0  0  0  0  0  0  0  # atno 17395 bound_to 11000

$$$$
