#       Name:                AV-unprocessed.smi:2221
#       Creating user name   scv26
#       Creation time:       Fri Mar 27 12:19:32 2020


#       File generated by GOLD software.
#

@<TRIPOS>MOLECULE
AV-unprocessed.smi:2221
    57    58     1
SMALL
NO_CHARGES


@<TRIPOS>ATOM
      1 ****        -3.9043   5.3620  -1.8047 C.3            1 S1                 0.0000
      2 ****        -3.1795   4.1688  -2.3907 C.ar           1 S1                 0.0000
      3 ****        -2.5424   4.2562  -3.6432 C.ar           1 S1                 0.0000
      4 ****        -1.8813   3.1134  -4.1341 C.ar           1 S1                 0.0000
      5 ****        -1.1788   3.1374  -5.4755 C.3            1 S1                 0.0000
      6 ****        -1.8255   1.9467  -3.4563 N.ar           1 S1                 0.0000
      7 ****        -2.4352   1.8515  -2.2488 C.ar           1 S1                 0.0000
      8 ****        -2.4364   0.6712  -1.4590 N.am           1 S1                 0.0000
      9 ****        -1.8000  -0.4880  -1.7009 C.2            1 S1                 0.0000
     10 ****        -1.0889  -0.7214  -2.6781 O.2            1 S1                 0.0000
     11 ****        -2.0158  -1.3772  -0.7203 N.am           1 S1                 0.0000
     12 ****        -1.4641  -2.7302  -0.6741 C.3            1 S1                 0.0000
     13 ****         0.0723  -2.7621  -0.5117 C.3            1 S1                 0.0000
     14 ****         0.5711  -1.8134   0.5171 N.4            1 S1                 1.0000
     15 ****         2.0001  -1.4599   0.3205 C.3            1 S1                 0.0000
     16 ****         2.4497  -0.3880   1.3308 C.3            1 S1                 0.0000
     17 ****         2.2336  -0.8449   2.7931 C.3            1 S1                 0.0000
     18 ****         3.1451  -1.9607   3.2117 N.4            1 S1                 1.0000
     19 ****         2.9130  -2.4293   4.6009 C.3            1 S1                 0.0000
     20 ****         4.5849  -1.6641   3.0071 C.3            1 S1                 0.0000
     21 ****         0.7325  -1.1946   2.9294 C.3            1 S1                 0.0000
     22 ****         0.2942  -2.2596   1.9074 C.3            1 S1                 0.0000
     23 ****        -3.1252   2.9487  -1.6870 C.ar           1 S1                 0.0000
     24 ****        -4.1313   6.1009  -2.5739 H              1 S1                 0.0000
     25 ****        -3.2878   5.8386  -1.0421 H              1 S1                 0.0000
     26 ****        -4.8432   5.0522  -1.3449 H              1 S1                 0.0000
     27 ****        -2.5603   5.1744  -4.2123 H              1 S1                 0.0000
     28 ****        -1.4976   3.9930  -6.0715 H              1 S1                 0.0000
     29 ****        -1.3995   2.2317  -6.0415 H              1 S1                 0.0000
     30 ****        -0.0997   3.2009  -5.3344 H              1 S1                 0.0000
     31 ****        -2.9766   0.7215  -0.6081 H              1 S1                 0.0000
     32 ****        -2.6259  -1.1080   0.0378 H              1 S1                 0.0000
     33 ****        -1.9367  -3.2492   0.1598 H              1 S1                 0.0000
     34 ****        -1.7571  -3.2768  -1.5718 H              1 S1                 0.0000
     35 ****         0.4132  -3.7742  -0.2892 H              1 S1                 0.0000
     36 ****         0.5176  -2.5037  -1.4733 H              1 S1                 0.0000
     37 ****         2.6175  -2.3548   0.4111 H              1 S1                 0.0000
     38 ****         2.1437  -1.0773  -0.6909 H              1 S1                 0.0000
     39 ****         3.4782  -0.0860   1.1403 H              1 S1                 0.0000
     40 ****         1.8632   0.5157   1.1567 H              1 S1                 0.0000
     41 ****         2.4461   0.0024   3.4473 H              1 S1                 0.0000
     42 ****         2.9885  -1.6045   5.3107 H              1 S1                 0.0000
     43 ****         3.6446  -3.1860   4.8866 H              1 S1                 0.0000
     44 ****         1.9365  -2.8985   4.7125 H              1 S1                 0.0000
     45 ****         4.8702  -0.7386   3.5091 H              1 S1                 0.0000
     46 ****         4.8341  -1.5806   1.9504 H              1 S1                 0.0000
     47 ****         5.2098  -2.4663   3.4014 H              1 S1                 0.0000
     48 ****         0.4704  -1.5013   3.9406 H              1 S1                 0.0000
     49 ****         0.1458  -0.2910   2.7568 H              1 S1                 0.0000
     50 ****        -0.7722  -2.4486   2.0293 H              1 S1                 0.0000
     51 ****         0.8052  -3.2042   2.1000 H              1 S1                 0.0000
     52 ****        -3.6067   2.8599  -0.7236 H              1 S1                 0.0000
     53 ****         2.9384  -2.7491   2.6155 H              1 S1                 0.0000
     54 ****         0.0537  -0.9572   0.3755 H              1 S1                 0.0000
     55 ****        -1.3399   1.1616  -3.8406 LP             1 S1                 0.0000
     56 ****        -0.9472  -0.0165  -3.3731 LP             1 S1                 0.0000
     57 ****        -0.6529  -1.6159  -2.7769 LP             1 S1                 0.0000
@<TRIPOS>BOND
    1    1    2 1     
    2    1   24 1     
    3    1   25 1     
    4    1   26 1     
    5    2   23 ar    
    6    2    3 ar    
    7    3    4 ar    
    8    3   27 1     
    9    4    5 1     
   10    4    6 ar    
   11    5   28 1     
   12    5   29 1     
   13    5   30 1     
   14    6    7 ar    
   15    7    8 1     
   16    7   23 ar    
   17    8    9 am    
   18    8   31 1     
   19    9   10 2     
   20    9   11 am    
   21   11   12 1     
   22   11   32 1     
   23   12   13 1     
   24   12   33 1     
   25   12   34 1     
   26   13   14 1     
   27   13   35 1     
   28   13   36 1     
   29   14   22 1     
   30   14   15 1     
   31   14   54 1     
   32   15   16 1     
   33   15   37 1     
   34   15   38 1     
   35   16   17 1     
   36   16   39 1     
   37   16   40 1     
   38   17   18 1     
   39   17   21 1     
   40   17   41 1     
   41   18   19 1     
   42   18   20 1     
   43   18   53 1     
   44   19   42 1     
   45   19   43 1     
   46   19   44 1     
   47   20   45 1     
   48   20   46 1     
   49   20   47 1     
   50   21   22 1     
   51   21   48 1     
   52   21   49 1     
   53   22   50 1     
   54   22   51 1     
   55   23   52 1     
   56    6   55 1     
   57   10   56 1     
   58   10   57 1     
@<TRIPOS>SUBSTRUCTURE
      1 S1             1
@<TRIPOS>SET
LONE_PAIRS      STATIC     ATOMS    <user>   **** ""
3 55 56 57
DONOR_HYDROGENS      STATIC     ATOMS    <user>   **** ""
4 31 32 54 53
ATOM$BLUE        STATIC     ATOMS    COLORGROUP SYSTEM
3 55 56 57
ATOM$RED        STATIC     ATOMS    COLORGROUP SYSTEM
4 31 32 54 53
