AV-unprocessed.smi:3345|AV-procd|sdf|12904|dock5
  -GOLD-   2272019313D 1   1.00000     0.00000
 Structure written by MMmdl.
 41 42  0  0  0  0  0  0  0  0  2 V2000
  146.6066  139.7039  151.5510 C   0  0  0  0  0  0  0  0  0  0  0  0
  146.7066  138.3091  152.1832 C   0  0  1  0  0  0  0  0  0  0  0  0
  147.1354  138.3952  153.6665 C   0  0  0  0  0  0  0  0  0  0  0  0
  148.4714  137.7998  153.9220 N   0  3  0  0  0  0  0  0  0  0  0  0
  149.5715  138.7944  153.9289 C   0  0  0  0  0  0  0  0  0  0  0  0
  150.9237  138.0868  154.1150 C   0  0  0  0  0  0  0  0  0  0  0  0
  150.9035  137.3348  155.3225 O   0  0  0  0  0  0  0  0  0  0  0  0
  149.9020  136.3251  155.3057 C   0  0  0  0  0  0  0  0  0  0  0  0
  148.5150  136.9721  155.1498 C   0  0  0  0  0  0  0  0  0  0  0  0
  145.4190  137.6293  152.0367 N   0  0  0  0  0  0  0  0  0  0  0  0
  145.0280  136.5241  152.6927 C   0  0  0  0  0  0  0  0  0  0  0  0
  145.7181  135.9704  153.5492 O   0  0  0  0  0  0  0  0  0  0  0  0
  143.6444  135.9682  152.3251 C   0  0  2  0  0  0  0  0  0  0  0  0
  142.6643  135.9995  153.5154 C   0  0  0  0  0  0  0  0  0  0  0  0
  143.7782  134.6351  151.7510 N   0  0  0  0  0  0  0  0  0  0  0  0
  143.2925  133.4664  152.1755 C   0  0  0  0  0  0  0  0  0  0  0  0
  143.5655  132.4462  151.3744 N   0  0  0  0  0  0  0  0  0  0  0  0
  144.2621  133.1016  150.3994 C   0  0  0  0  0  0  0  0  0  0  0  0
  144.4078  134.4155  150.5696 N   0  0  0  0  0  0  0  0  0  0  0  0
  147.5608  140.2286  151.6071 H   0  0  0  0  0  0  0  0  0  0  0  0
  145.8596  140.3183  152.0549 H   0  0  0  0  0  0  0  0  0  0  0  0
  146.3297  139.6391  150.4979 H   0  0  0  0  0  0  0  0  0  0  0  0
  147.4649  137.7631  151.6202 H   0  0  0  0  0  0  0  0  0  0  0  0
  147.1252  139.4298  154.0129 H   0  0  0  0  0  0  0  0  0  0  0  0
  146.3891  137.8696  154.2644 H   0  0  0  0  0  0  0  0  0  0  0  0
  149.5829  139.3565  152.9956 H   0  0  0  0  0  0  0  0  0  0  0  0
  149.4131  139.5141  154.7335 H   0  0  0  0  0  0  0  0  0  0  0  0
  151.1417  137.4348  153.2673 H   0  0  0  0  0  0  0  0  0  0  0  0
  151.7284  138.8201  154.1685 H   0  0  0  0  0  0  0  0  0  0  0  0
  150.0951  135.6189  154.4965 H   0  0  0  0  0  0  0  0  0  0  0  0
  149.9513  135.7625  156.2382 H   0  0  0  0  0  0  0  0  0  0  0  0
  148.2883  137.5917  156.0191 H   0  0  0  0  0  0  0  0  0  0  0  0
  147.7527  136.1938  155.1006 H   0  0  0  0  0  0  0  0  0  0  0  0
  144.7843  138.0144  151.3520 H   0  0  0  0  0  0  0  0  0  0  0  0
  143.2252  136.6092  151.5474 H   0  0  0  0  0  0  0  0  0  0  0  0
  142.5419  137.0139  153.8962 H   0  0  0  0  0  0  0  0  0  0  0  0
  143.0016  135.3755  154.3439 H   0  0  0  0  0  0  0  0  0  0  0  0
  141.6786  135.6427  153.2152 H   0  0  0  0  0  0  0  0  0  0  0  0
  142.7234  133.3598  153.0873 H   0  0  0  0  0  0  0  0  0  0  0  0
  144.6672  132.5970  149.5346 H   0  0  0  0  0  0  0  0  0  0  0  0
  148.6520  137.1706  153.1524 H   0  0  0  0  0  0  0  0  0  0  0  0
  1  2  1  0  0  0  0
  1 20  1  0  0  0  0
  1 21  1  0  0  0  0
  1 22  1  0  0  0  0
  2  3  1  0  0  0  0
  2 10  1  0  0  0  0
  2 23  1  0  0  0  0
  3  4  1  0  0  0  0
  3 24  1  0  0  0  0
  3 25  1  0  0  0  0
  4  9  1  0  0  0  0
  4  5  1  0  0  0  0
  4 41  1  0  0  0  0
  5  6  1  0  0  0  0
  5 26  1  0  0  0  0
  5 27  1  0  0  0  0
  6  7  1  0  0  0  0
  6 28  1  0  0  0  0
  6 29  1  0  0  0  0
  7  8  1  0  0  0  0
  8  9  1  0  0  0  0
  8 30  1  0  0  0  0
  8 31  1  0  0  0  0
  9 32  1  0  0  0  0
  9 33  1  0  0  0  0
 10 11  1  0  0  0  0
 10 34  1  0  0  0  0
 11 12  2  0  0  0  0
 11 13  1  0  0  0  0
 13 14  1  0  0  0  0
 13 15  1  0  0  0  0
 13 35  1  0  0  0  0
 14 36  1  0  0  0  0
 14 37  1  0  0  0  0
 14 38  1  0  0  0  0
 15 19  1  0  0  0  0
 15 16  1  0  0  0  0
 16 17  2  0  0  0  0
 16 39  1  0  0  0  0
 17 18  1  0  0  0  0
 18 19  2  0  0  0  0
 18 40  1  0  0  0  0
M  CHG  1   4   1
M  END
> <s_m_source_file>
AV-unprocessed.smi

> <i_m_source_file_index>
3345

> <i_lp_mmshare_version>
43012

> <i_f3d_flags>
0

> <s_epik_input>
W0NIMl0xW0NIMl1PW0NIMl1bQ0gyXU4xW0NIMl1bQ0BASF0oW0NIM10pW05IXUMoPU8pW0NASF0oW0NIM10pbjJbY0hdbltjSF1uMg==

> <s_epik_cmdline>
J2VwaWtfcHl0aG9uJywgJy1waCcsICc3LjAnLCAnLXRuJywgJzgnLCAnLW1hJywgJzIwMCcsICctbWV0YWxfYmluZGluZycsICctaW1hZScsICc8aW5maWxlLm1hZT4nLCAnLW9tYWUnLCAnPG91dGZpbGUubWFlPic=

> <r_lp_tautomer_probability>
1

> <r_epik_Ionization_Penalty>
0.71326

> <r_epik_Ionization_Penalty_Charging>
0.713252

> <r_epik_Ionization_Penalty_Neutral>
8.27671e-06

> <r_epik_State_Penalty>
0.737017

> <r_epik_Charging_Adjusted_Penalty>
1.45027

> <i_epik_Tot_Q>
1

> <i_epik_Tot_abs_Q>
1

> <r_epik_Metal_State_Penalty>
0.73702

> <b_epik_Metal_Only>
0

> <s_lp_Force_Field>
OPLS_2005

> <r_lp_Energy>
28.084

> <b_lp_Chiralities_Consistent>
1

> <s_lp_Variant>
AV-unprocessed.smi:3345-6

> <Gold.Version>
5.8.1

> <Gold.Id.Protein>
6NUR|6NUR_protein|mol2

> <Gold.PLP.Fitness>
37.6837

> <Gold.PLP.PLP>
-27.3521

> <Gold.PLP.part.hbond>
-2.0000

> <Gold.PLP.part.metal>
0.0000

> <Gold.PLP.part.buried>
-1.1240

> <Gold.PLP.part.nonpolar>
-24.6889

> <Gold.PLP.part.repulsive>
1.3887

> <Gold.PLP.ligand.clash>
0.0000

> <Gold.PLP.ligand.torsion>
1.6178

> <Gold.PLP.Chemscore.Hbond>
3.0000

> <Gold.PLP.Chemscore.CHOScore>
1.4686

> <Gold.PLP.Chemscore.Metal>
0.0000

> <Gold.Chemscore.Hbonds>
donor molecule, donor type, donor heavy atom, donor atom, acceptor molecule, acceptor atom, score
      L1  H     4    41       P1  7948  2.00
      L1  H    10    34       P1 10171  1.00
      L1  C    16    39       P1 10957  1.00

> <Gold.PLP.Chemscore.Internal.Correction>
0.1615

> <Gold.Rescore>
     Score         DG    S(hbond)    S(metal)    S(lipo)     H(rot)  DE(clash)    DE(int)     intcor
      7.71     -11.68       2.00        0.00      53.23       2.61       0.98       2.99       ----

> <Gold.Chemscore.Fitness>
7.7141

> <Gold.Chemscore.DG>
-11.6804

> <Gold.Chemscore.ZeroCoef>
-5.4800

> <Gold.Chemscore.Hbond>
1.9953

> <Gold.Chemscore.Metal>
0.0000

> <Gold.Chemscore.Lipo>
53.2252

> <Gold.Chemscore.Internal_Hbond>
0.0000

> <Gold.Chemscore.DEClash>
0.9801

> <Gold.Chemscore.DEInternal>
2.9863

> <Gold.Chemscore.Rot>
2.6138

> <Gold.Chemscore.Internal.Correction>
   9.000000E+99

> <Gold.Chemscore.Hbonds>
donor molecule, donor type, donor heavy atom, donor atom, acceptor molecule, acceptor atom, score
      L1  H     4    41       P1  7948  0.99
      L1  H    10    34       P1 10171  1.00

> <Gold.Chemscore.Hbond.Weighted>
-6.6643

> <Gold.Chemscore.Metal.Weighted>
-0.0000

> <Gold.Chemscore.Lipo.Weighted>
-6.2273

> <Gold.Chemscore.Internal_Hbond.Weighted>
0.0000

> <Gold.Chemscore.DEClash.Weighted>
0.9801

> <Gold.Chemscore.DEInternal.Weighted>
2.9863

> <Gold.Chemscore.Rot.Weighted>
6.6912

> <Gold.Chemscore.Internal.Correction.Weighted>
   9.000000E+99

> <Gold.Protein.RotatedTorsions>
[ 6907 6896 6895 6894 ] final  -23.83 input  -60.11 | X-H torsion
[ 7974 7965 7964 7962 ] final -167.82 input  175.53 | X-H torsion
[ 8008 7997 7996 7995 ] final   56.01 input   59.86 | X-H torsion
[ 10167 10162 10161 10158 ] final -157.87 input  -65.29 | X-H torsion
[ 10718 10713 10712 10709 ] final   90.41 input   66.30 | X-H torsion
[ 10763 10752 10751 10750 ] final  -75.75 input  -60.55 | X-H torsion
[ 11005 11000 10999 10996 ] final  134.18 input  -57.11 | X-H torsion

> <Gold.Protein.ActiveResidues>
 VAL166  LYS551  ARG553  GLY616  TRP617  ASP618  TYR619  PRO620  LYS621  CYS622 
 ASP623  PHE694  ASN695  SER759  ASP760  ASP761  ALA762  ILE779  LEU786  VAL792 
 PHE793  MET794  SER795  GLU796  ALA797  LYS798  CYS799  TRP800  GLU811  SER814 

> <Gold.Protein.RotatedAtoms>
  151.1983  135.0432  159.8861 H   0  0  0  0  0  0  0  0  0  0  0  0  # atno 6907 bound_to 6896
  152.5434  134.0879  159.8274 H   0  0  0  0  0  0  0  0  0  0  0  0  # atno 6908 bound_to 6896
  151.1016  133.5192  159.2642 H   0  0  0  0  0  0  0  0  0  0  0  0  # atno 6909 bound_to 6896
  144.7215  140.2461  143.6285 H   0  0  0  0  0  0  0  0  0  0  0  0  # atno 7974 bound_to 7965
  155.5104  140.3477  155.4387 H   0  0  0  0  0  0  0  0  0  0  0  0  # atno 8008 bound_to 7997
  156.0853  140.1397  156.9688 H   0  0  0  0  0  0  0  0  0  0  0  0  # atno 8009 bound_to 7997
  154.4603  140.0937  156.6851 H   0  0  0  0  0  0  0  0  0  0  0  0  # atno 8010 bound_to 7997
  139.6736  143.9702  152.2298 H   0  0  0  0  0  0  0  0  0  0  0  0  # atno 10167 bound_to 10162
  157.6959  131.0370  150.3574 H   0  0  0  0  0  0  0  0  0  0  0  0  # atno 10718 bound_to 10713
  154.4907  135.5821  153.6457 H   0  0  0  0  0  0  0  0  0  0  0  0  # atno 10763 bound_to 10752
  152.9862  135.6112  154.3128 H   0  0  0  0  0  0  0  0  0  0  0  0  # atno 10764 bound_to 10752
  154.3028  135.2846  155.2582 H   0  0  0  0  0  0  0  0  0  0  0  0  # atno 10765 bound_to 10752
  139.9899  134.9519  156.9830 H   0  0  0  0  0  0  0  0  0  0  0  0  # atno 11005 bound_to 11000
  145.8273  139.2070  143.1903 LP  0  0  0  0  0  0  0  0  0  0  0  0  # atno 17320 bound_to 7965
  146.0462  140.8115  142.9804 LP  0  0  0  0  0  0  0  0  0  0  0  0  # atno 17321 bound_to 7965
  139.9473  144.6643  150.8207 LP  0  0  0  0  0  0  0  0  0  0  0  0  # atno 17342 bound_to 10162
  140.7627  143.3205  151.2633 LP  0  0  0  0  0  0  0  0  0  0  0  0  # atno 17343 bound_to 10162
  156.4014  130.3916  149.6957 LP  0  0  0  0  0  0  0  0  0  0  0  0  # atno 17370 bound_to 10713
  156.4272  130.7797  151.2816 LP  0  0  0  0  0  0  0  0  0  0  0  0  # atno 17371 bound_to 10713
  140.4930  134.1174  155.7236 LP  0  0  0  0  0  0  0  0  0  0  0  0  # atno 17394 bound_to 11000
  141.1556  133.8888  157.1984 LP  0  0  0  0  0  0  0  0  0  0  0  0  # atno 17395 bound_to 11000

$$$$
