AV-unprocessed.smi:3136|AV-procd|sdf|11950|dock8
  -GOLD-   2272017343D 1   1.00000     0.00000
 Structure written by MMmdl.
 40 40  0  0  0  0  0  0  0  0  2 V2000
  146.7175  143.0665  153.6768 C   0  0  0  0  0  0  0  0  0  0  0  0
  147.7673  141.9485  153.6250 C   0  0  0  0  0  0  0  0  0  0  0  0
  148.8555  142.1910  154.5651 N   0  0  0  0  0  0  0  0  0  0  0  0
  149.8570  141.3358  154.8229 C   0  0  0  0  0  0  0  0  0  0  0  0
  149.9575  140.2322  154.2864 O   0  0  0  0  0  0  0  0  0  0  0  0
  150.9012  141.8021  155.8417 C   0  0  0  0  0  0  0  0  0  0  0  0
  150.3522  141.8475  157.2774 C   0  0  0  0  0  0  0  0  0  0  0  0
  148.9954  142.4321  157.3079 N   0  3  0  0  0  0  0  0  0  0  0  0
  148.4466  142.6790  158.6624 C   0  0  2  0  0  0  0  0  0  0  0  0
  146.9251  142.8651  158.5404 C   0  0  0  0  0  0  0  0  0  0  0  0
  149.1466  143.8970  159.3266 C   0  0  1  0  0  0  0  0  0  0  0  0
  148.3837  144.4529  160.5445 C   0  0  0  0  0  0  0  0  0  0  0  0
  150.5193  143.5784  159.7048 N   0  0  0  0  0  0  0  0  0  0  0  0
  151.6919  144.2059  159.3301 C   0  0  0  0  0  0  0  0  0  0  0  0
  152.7168  143.5798  159.9795 C   0  0  0  0  0  0  0  0  0  0  0  0
  152.0667  142.5741  160.7465 C   0  0  0  0  0  0  0  0  0  0  0  0
  150.7532  142.5814  160.5872 N   0  0  0  0  0  0  0  0  0  0  0  0
  145.8952  142.8564  152.9927 H   0  0  0  0  0  0  0  0  0  0  0  0
  147.1454  144.0282  153.3926 H   0  0  0  0  0  0  0  0  0  0  0  0
  146.2981  143.1678  154.6783 H   0  0  0  0  0  0  0  0  0  0  0  0
  147.3025  140.9963  153.8810 H   0  0  0  0  0  0  0  0  0  0  0  0
  148.1578  141.8405  152.6117 H   0  0  0  0  0  0  0  0  0  0  0  0
  148.8466  143.0756  155.0520 H   0  0  0  0  0  0  0  0  0  0  0  0
  151.7557  141.1243  155.8015 H   0  0  0  0  0  0  0  0  0  0  0  0
  151.2654  142.7867  155.5460 H   0  0  0  0  0  0  0  0  0  0  0  0
  150.3144  140.8436  157.7030 H   0  0  0  0  0  0  0  0  0  0  0  0
  151.0168  142.4382  157.9080 H   0  0  0  0  0  0  0  0  0  0  0  0
  149.0058  143.3098  156.8075 H   0  0  0  0  0  0  0  0  0  0  0  0
  148.6149  141.7943  159.2798 H   0  0  0  0  0  0  0  0  0  0  0  0
  146.4448  142.9182  159.5172 H   0  0  0  0  0  0  0  0  0  0  0  0
  146.4704  142.0268  158.0111 H   0  0  0  0  0  0  0  0  0  0  0  0
  146.6774  143.7759  157.9939 H   0  0  0  0  0  0  0  0  0  0  0  0
  149.1924  144.7022  158.5905 H   0  0  0  0  0  0  0  0  0  0  0  0
  147.4243  144.8813  160.2562 H   0  0  0  0  0  0  0  0  0  0  0  0
  148.9500  145.2482  161.0307 H   0  0  0  0  0  0  0  0  0  0  0  0
  148.1926  143.6784  161.2875 H   0  0  0  0  0  0  0  0  0  0  0  0
  151.7017  145.0395  158.6434 H   0  0  0  0  0  0  0  0  0  0  0  0
  153.7707  143.8081  159.9190 H   0  0  0  0  0  0  0  0  0  0  0  0
  152.5065  141.8477  161.4140 H   0  0  0  0  0  0  0  0  0  0  0  0
  148.3756  141.7963  156.8268 H   0  0  0  0  0  0  0  0  0  0  0  0
  1  2  1  0  0  0  0
  1 18  1  0  0  0  0
  1 19  1  0  0  0  0
  1 20  1  0  0  0  0
  2  3  1  0  0  0  0
  2 21  1  0  0  0  0
  2 22  1  0  0  0  0
  3  4  1  0  0  0  0
  3 23  1  0  0  0  0
  4  5  2  0  0  0  0
  4  6  1  0  0  0  0
  6  7  1  0  0  0  0
  6 24  1  0  0  0  0
  6 25  1  0  0  0  0
  7  8  1  0  0  0  0
  7 26  1  0  0  0  0
  7 27  1  0  0  0  0
  8  9  1  0  0  0  0
  8 28  1  0  0  0  0
  8 40  1  0  0  0  0
  9 10  1  0  0  0  0
  9 11  1  0  0  0  0
  9 29  1  0  0  0  0
 10 30  1  0  0  0  0
 10 31  1  0  0  0  0
 10 32  1  0  0  0  0
 11 12  1  0  0  0  0
 11 13  1  0  0  0  0
 11 33  1  0  0  0  0
 12 34  1  0  0  0  0
 12 35  1  0  0  0  0
 12 36  1  0  0  0  0
 13 17  1  0  0  0  0
 13 14  1  0  0  0  0
 14 15  2  0  0  0  0
 14 37  1  0  0  0  0
 15 16  1  0  0  0  0
 15 38  1  0  0  0  0
 16 17  2  0  0  0  0
 16 39  1  0  0  0  0
M  CHG  1   8   1
M  END
> <s_m_source_file>
AV-unprocessed.smi

> <i_m_source_file_index>
3136

> <i_lp_mmshare_version>
43012

> <i_f3d_flags>
0

> <s_epik_input>
W0NIM11bQ0gyXVtOSF1DKD1PKVtDSDJdW0NIMl1bTkhdW0NASF0oW0NIM10pW0NASF0oW0NIM10pbjFbY0hdW2NIXVtjSF1uMQ==

> <s_epik_cmdline>
J2VwaWtfcHl0aG9uJywgJy1waCcsICc3LjAnLCAnLXRuJywgJzgnLCAnLW1hJywgJzIwMCcsICctbWV0YWxfYmluZGluZycsICctaW1hZScsICc8aW5maWxlLm1hZT4nLCAnLW9tYWUnLCAnPG91dGZpbGUubWFlPic=

> <r_lp_tautomer_probability>
1

> <r_epik_Ionization_Penalty>
0.00463447

> <r_epik_Ionization_Penalty_Charging>
0.00462393

> <r_epik_Ionization_Penalty_Neutral>
1.05394e-05

> <r_epik_State_Penalty>
-0

> <r_epik_Charging_Adjusted_Penalty>
0.00462393

> <i_epik_Tot_Q>
1

> <i_epik_Tot_abs_Q>
1

> <r_epik_Metal_State_Penalty>
-0

> <b_epik_Metal_Only>
0

> <s_lp_Force_Field>
OPLS_2005

> <r_lp_Energy>
10.6492

> <b_lp_Chiralities_Consistent>
1

> <s_lp_Variant>
AV-unprocessed.smi:3136-3

> <Gold.Version>
5.8.1

> <Gold.Id.Protein>
6NUR|6NUR_protein|mol2

> <Gold.PLP.Fitness>
46.2073

> <Gold.PLP.PLP>
-38.2236

> <Gold.PLP.part.hbond>
-3.0000

> <Gold.PLP.part.metal>
0.0000

> <Gold.PLP.part.buried>
-4.7615

> <Gold.PLP.part.nonpolar>
-30.8340

> <Gold.PLP.part.repulsive>
0.3861

> <Gold.PLP.ligand.clash>
0.0000

> <Gold.PLP.ligand.torsion>
0.5892

> <Gold.PLP.Chemscore.Hbond>
3.0000

> <Gold.PLP.Chemscore.CHOScore>
0.0000

> <Gold.PLP.Chemscore.Metal>
0.0000

> <Gold.Chemscore.Hbonds>
donor molecule, donor type, donor heavy atom, donor atom, acceptor molecule, acceptor atom, score
      L1  H     3    23       P1  8028  1.00
      L1  H     8    28       P1  8028  2.00
      P1  H  7989  7998       L1     5  0.32

> <Gold.PLP.Chemscore.Internal.Correction>
0.1620

> <Gold.Rescore>
     Score         DG    S(hbond)    S(metal)    S(lipo)     H(rot)  DE(clash)    DE(int)     intcor
     13.01     -15.57       1.92        0.00      82.16       2.32       0.08       2.48       ----

> <Gold.Chemscore.Fitness>
13.0080

> <Gold.Chemscore.DG>
-15.5688

> <Gold.Chemscore.ZeroCoef>
-5.4800

> <Gold.Chemscore.Hbond>
1.9177

> <Gold.Chemscore.Metal>
0.0000

> <Gold.Chemscore.Lipo>
82.1571

> <Gold.Chemscore.Internal_Hbond>
0.0000

> <Gold.Chemscore.DEClash>
0.0835

> <Gold.Chemscore.DEInternal>
2.4772

> <Gold.Chemscore.Rot>
2.3159

> <Gold.Chemscore.Internal.Correction>
   9.000000E+99

> <Gold.Chemscore.Hbonds>
donor molecule, donor type, donor heavy atom, donor atom, acceptor molecule, acceptor atom, score
      L1  H     3    23       P1  8028  1.00
      L1  H     8    28       P1  8028  0.88
      P1  H  7989  7998       L1     5  0.01

> <Gold.Chemscore.Hbond.Weighted>
-6.4050

> <Gold.Chemscore.Metal.Weighted>
-0.0000

> <Gold.Chemscore.Lipo.Weighted>
-9.6124

> <Gold.Chemscore.Internal_Hbond.Weighted>
0.0000

> <Gold.Chemscore.DEClash.Weighted>
0.0835

> <Gold.Chemscore.DEInternal.Weighted>
2.4772

> <Gold.Chemscore.Rot.Weighted>
5.9286

> <Gold.Chemscore.Internal.Correction.Weighted>
   9.000000E+99

> <Gold.Protein.RotatedTorsions>
[ 6907 6896 6895 6894 ] final  100.47 input  -60.11 | X-H torsion
[ 7974 7965 7964 7962 ] final   -4.30 input  175.53 | X-H torsion
[ 8008 7997 7996 7995 ] final   35.12 input   59.86 | X-H torsion
[ 10167 10162 10161 10158 ] final -127.83 input  -65.29 | X-H torsion
[ 10718 10713 10712 10709 ] final -179.37 input   66.30 | X-H torsion
[ 10763 10752 10751 10750 ] final  111.08 input  -60.55 | X-H torsion
[ 11005 11000 10999 10996 ] final  129.03 input  -57.11 | X-H torsion

> <Gold.Protein.ActiveResidues>
 VAL166  LYS551  ARG553  GLY616  TRP617  ASP618  TYR619  PRO620  LYS621  CYS622 
 ASP623  PHE694  ASN695  SER759  ASP760  ASP761  ALA762  ILE779  LEU786  VAL792 
 PHE793  MET794  SER795  GLU796  ALA797  LYS798  CYS799  TRP800  GLU811  SER814 

> <Gold.Protein.RotatedAtoms>
  152.5371  134.0272  159.8007 H   0  0  0  0  0  0  0  0  0  0  0  0  # atno 6907 bound_to 6896
  151.0448  133.5667  159.2655 H   0  0  0  0  0  0  0  0  0  0  0  0  # atno 6908 bound_to 6896
  151.2623  135.0665  159.9156 H   0  0  0  0  0  0  0  0  0  0  0  0  # atno 6909 bound_to 6896
  146.2375  140.1850  142.8332 H   0  0  0  0  0  0  0  0  0  0  0  0  # atno 7974 bound_to 7965
  155.1659  140.3287  155.4402 H   0  0  0  0  0  0  0  0  0  0  0  0  # atno 8008 bound_to 7997
  156.2527  140.1952  156.6715 H   0  0  0  0  0  0  0  0  0  0  0  0  # atno 8009 bound_to 7997
  154.6371  140.0575  156.9788 H   0  0  0  0  0  0  0  0  0  0  0  0  # atno 8010 bound_to 7997
  139.9567  143.5995  152.2458 H   0  0  0  0  0  0  0  0  0  0  0  0  # atno 10167 bound_to 10162
  156.8581  130.9742  151.3086 H   0  0  0  0  0  0  0  0  0  0  0  0  # atno 10718 bound_to 10713
  153.4582  135.3728  155.2323 H   0  0  0  0  0  0  0  0  0  0  0  0  # atno 10763 bound_to 10752
  154.8757  135.3902  154.3956 H   0  0  0  0  0  0  0  0  0  0  0  0  # atno 10764 bound_to 10752
  153.4525  135.7086  153.6164 H   0  0  0  0  0  0  0  0  0  0  0  0  # atno 10765 bound_to 10752
  139.9593  134.9606  156.9088 H   0  0  0  0  0  0  0  0  0  0  0  0  # atno 11005 bound_to 11000
  144.9903  140.8541  143.5343 LP  0  0  0  0  0  0  0  0  0  0  0  0  # atno 17320 bound_to 7965
  145.1855  139.2328  143.5270 LP  0  0  0  0  0  0  0  0  0  0  0  0  # atno 17321 bound_to 7965
  139.6586  144.7662  151.2007 LP  0  0  0  0  0  0  0  0  0  0  0  0  # atno 17342 bound_to 10162
  140.7566  143.6046  150.8665 LP  0  0  0  0  0  0  0  0  0  0  0  0  # atno 17343 bound_to 10162
  157.6265  130.8696  149.9199 LP  0  0  0  0  0  0  0  0  0  0  0  0  # atno 17370 bound_to 10713
  156.0791  130.3675  150.0616 LP  0  0  0  0  0  0  0  0  0  0  0  0  # atno 17371 bound_to 10713
  140.5537  134.0602  155.7377 LP  0  0  0  0  0  0  0  0  0  0  0  0  # atno 17394 bound_to 11000
  141.1268  133.9369  157.2618 LP  0  0  0  0  0  0  0  0  0  0  0  0  # atno 17395 bound_to 11000

$$$$
