AV-unprocessed.smi:861|AV-procd|sdf|3975|dock4
  -GOLD-   22720 1453D 1   1.00000     0.00000
 Structure written by MMmdl.
 45 46  0  0  0  0  0  0  0  0  3 V2000
  153.0422  143.2290  159.9116 C   0  0  0  0  0  0  0  0  0  0  0  0
  152.3747  143.0728  158.5348 C   0  0  0  0  0  0  0  0  0  0  0  0
  151.0203  143.7976  158.5125 C   0  0  0  0  0  0  0  0  0  0  0  0
  152.2090  141.5949  158.1251 C   0  0  0  0  0  0  0  0  0  0  0  0
  153.5432  140.8500  157.9248 C   0  0  0  0  0  0  0  0  0  0  0  0
  153.4246  139.7204  156.9687 N   0  3  2  0  0  0  0  0  0  0  0  0
  154.7271  139.1007  156.6212 C   0  0  0  0  0  0  0  0  0  0  0  0
  154.5211  137.9285  155.6489 C   0  0  0  0  0  0  0  0  0  0  0  0
  153.8359  138.3876  154.4908 O   0  0  0  0  0  0  0  0  0  0  0  0
  152.5382  138.8898  154.7927 C   0  0  2  0  0  0  0  0  0  0  0  0
  151.8621  139.2838  153.4707 C   0  0  0  0  0  0  0  0  0  0  0  0
  150.6570  138.5043  153.2296 N   0  0  0  0  0  0  0  0  0  0  0  0
  149.5110  138.7037  154.0107 C   0  0  0  0  0  0  0  0  0  0  0  0
  149.4214  139.6456  155.0619 C   0  0  0  0  0  0  0  0  0  0  0  0
  148.2083  139.7471  155.7639 C   0  0  0  0  0  0  0  0  0  0  0  0
  147.1562  138.9002  155.3724 C   0  0  0  0  0  0  0  0  0  0  0  0
  147.2621  138.0049  154.3652 N   0  0  0  0  0  0  0  0  0  0  0  0
  148.4359  137.9313  153.7131 N   0  3  0  0  0  0  0  0  0  0  0  0
  152.6890  140.0991  155.7379 C   0  0  0  0  0  0  0  0  0  0  0  0
  152.4641  142.7318  160.6915 H   0  0  0  0  0  0  0  0  0  0  0  0
  153.1306  144.2805  160.1862 H   0  0  0  0  0  0  0  0  0  0  0  0
  154.0483  142.8110  159.9230 H   0  0  0  0  0  0  0  0  0  0  0  0
  153.0123  143.5609  157.7965 H   0  0  0  0  0  0  0  0  0  0  0  0
  150.3251  143.3612  159.2307 H   0  0  0  0  0  0  0  0  0  0  0  0
  150.5587  143.7420  157.5262 H   0  0  0  0  0  0  0  0  0  0  0  0
  151.1348  144.8535  158.7596 H   0  0  0  0  0  0  0  0  0  0  0  0
  151.5941  141.0881  158.8689 H   0  0  0  0  0  0  0  0  0  0  0  0
  151.6497  141.5508  157.1895 H   0  0  0  0  0  0  0  0  0  0  0  0
  154.2739  141.5624  157.5390 H   0  0  0  0  0  0  0  0  0  0  0  0
  153.9386  140.4831  158.8726 H   0  0  0  0  0  0  0  0  0  0  0  0
  155.3796  139.8486  156.1679 H   0  0  0  0  0  0  0  0  0  0  0  0
  155.2303  138.7382  157.5170 H   0  0  0  0  0  0  0  0  0  0  0  0
  155.4843  137.5162  155.3481 H   0  0  0  0  0  0  0  0  0  0  0  0
  153.9625  137.1197  156.1229 H   0  0  0  0  0  0  0  0  0  0  0  0
  151.9459  138.1153  155.2843 H   0  0  0  0  0  0  0  0  0  0  0  0
  151.5861  140.3385  153.5009 H   0  0  0  0  0  0  0  0  0  0  0  0
  152.5606  139.1555  152.6426 H   0  0  0  0  0  0  0  0  0  0  0  0
  150.6005  137.9413  152.3926 H   0  0  0  0  0  0  0  0  0  0  0  0
  150.2521  140.2793  155.3344 H   0  0  0  0  0  0  0  0  0  0  0  0
  148.0866  140.4499  156.5748 H   0  0  0  0  0  0  0  0  0  0  0  0
  146.2035  138.9401  155.8799 H   0  0  0  0  0  0  0  0  0  0  0  0
  151.7020  140.4792  156.0053 H   0  0  0  0  0  0  0  0  0  0  0  0
  153.2188  140.9095  155.2339 H   0  0  0  0  0  0  0  0  0  0  0  0
  152.8697  139.0107  157.4258 H   0  0  0  0  0  0  0  0  0  0  0  0
  148.5223  137.2576  152.9519 H   0  0  0  0  0  0  0  0  0  0  0  0
  1  2  1  0  0  0  0
  1 20  1  0  0  0  0
  1 21  1  0  0  0  0
  1 22  1  0  0  0  0
  2  3  1  0  0  0  0
  2  4  1  0  0  0  0
  2 23  1  0  0  0  0
  3 24  1  0  0  0  0
  3 25  1  0  0  0  0
  3 26  1  0  0  0  0
  4  5  1  0  0  0  0
  4 27  1  0  0  0  0
  4 28  1  0  0  0  0
  5  6  1  0  0  0  0
  5 29  1  0  0  0  0
  5 30  1  0  0  0  0
  6 19  1  0  0  0  0
  6  7  1  0  0  0  0
  6 44  1  0  0  0  0
  7  8  1  0  0  0  0
  7 31  1  0  0  0  0
  7 32  1  0  0  0  0
  8  9  1  0  0  0  0
  8 33  1  0  0  0  0
  8 34  1  0  0  0  0
  9 10  1  0  0  0  0
 10 11  1  0  0  0  0
 10 19  1  0  0  0  0
 10 35  1  0  0  0  0
 11 12  1  0  0  0  0
 11 36  1  0  0  0  0
 11 37  1  0  0  0  0
 12 13  1  0  0  0  0
 12 38  1  0  0  0  0
 13 18  1  0  0  0  0
 13 14  2  0  0  0  0
 14 15  1  0  0  0  0
 14 39  1  0  0  0  0
 15 16  2  0  0  0  0
 15 40  1  0  0  0  0
 16 17  1  0  0  0  0
 16 41  1  0  0  0  0
 17 18  2  0  0  0  0
 18 45  1  0  0  0  0
 19 42  1  0  0  0  0
 19 43  1  0  0  0  0
M  CHG  1   6   1
M  CHG  1  18   1
M  END
> <s_m_source_file>
AV-unprocessed.smi

> <i_m_source_file_index>
861

> <i_lp_mmshare_version>
43012

> <i_f3d_flags>
0

> <s_epik_input>
W0NIM11bQ0hdKFtDSDNdKVtDSDJdW0NIMl1OMVtDSDJdW0NIMl1PW0NASF0oW0NIMl0xKVtDSDJdW05IXWMyW2NIXVtjSF1bY0hdbm4y

> <s_epik_cmdline>
J2VwaWtfcHl0aG9uJywgJy1waCcsICc3LjAnLCAnLXRuJywgJzgnLCAnLW1hJywgJzIwMCcsICctbWV0YWxfYmluZGluZycsICctaW1hZScsICc8aW5maWxlLm1hZT4nLCAnLW9tYWUnLCAnPG91dGZpbGUubWFlPic=

> <r_lp_tautomer_probability>
0.966961

> <r_epik_Ionization_Penalty>
2.478

> <r_epik_Ionization_Penalty_Charging>
2.47799

> <r_epik_Ionization_Penalty_Neutral>
3.15286e-06

> <r_epik_State_Penalty>
2.10794

> <r_epik_Charging_Adjusted_Penalty>
4.58594

> <i_epik_Tot_Q>
2

> <i_epik_Tot_abs_Q>
2

> <r_epik_Metal_State_Penalty>
2.11378

> <b_epik_Metal_Only>
0

> <s_lp_Force_Field>
OPLS_2005

> <r_lp_Energy>
32.9485

> <b_lp_Chiralities_Consistent>
1

> <s_lp_Variant>
AV-unprocessed.smi:861-10

> <Gold.Version>
5.8.1

> <Gold.Id.Protein>
6NUR|6NUR_protein|mol2

> <Gold.PLP.Fitness>
48.2191

> <Gold.PLP.PLP>
-35.5351

> <Gold.PLP.part.hbond>
-4.4057

> <Gold.PLP.part.metal>
0.0000

> <Gold.PLP.part.buried>
-3.2002

> <Gold.PLP.part.nonpolar>
-29.8440

> <Gold.PLP.part.repulsive>
1.7874

> <Gold.PLP.ligand.clash>
0.0000

> <Gold.PLP.ligand.torsion>
1.0354

> <Gold.PLP.Chemscore.Hbond>
4.8960

> <Gold.PLP.Chemscore.CHOScore>
0.0000

> <Gold.PLP.Chemscore.Metal>
0.0000

> <Gold.Chemscore.Hbonds>
donor molecule, donor type, donor heavy atom, donor atom, acceptor molecule, acceptor atom, score
      L1  H    12    38       P1  7949  0.45
      L1  H    18    45       P1  7948  2.00

> <Gold.PLP.Chemscore.Internal.Correction>
0.0667

> <Gold.Rescore>
     Score         DG    S(hbond)    S(metal)    S(lipo)     H(rot)  DE(clash)    DE(int)     intcor
     17.85     -19.13       2.11        0.00      95.22       1.78       0.15       1.13       ----

> <Gold.Chemscore.Fitness>
17.8515

> <Gold.Chemscore.DG>
-19.1327

> <Gold.Chemscore.ZeroCoef>
-5.4800

> <Gold.Chemscore.Hbond>
2.1132

> <Gold.Chemscore.Metal>
0.0000

> <Gold.Chemscore.Lipo>
95.2219

> <Gold.Chemscore.Internal_Hbond>
0.0000

> <Gold.Chemscore.DEClash>
0.1473

> <Gold.Chemscore.DEInternal>
1.1339

> <Gold.Chemscore.Rot>
1.7759

> <Gold.Chemscore.Internal.Correction>
   9.000000E+99

> <Gold.Chemscore.Hbonds>
donor molecule, donor type, donor heavy atom, donor atom, acceptor molecule, acceptor atom, score
      L1  H    12    38       P1  7949  0.01
      L1  H    18    45       P1  7948  0.95

> <Gold.Chemscore.Hbond.Weighted>
-7.0580

> <Gold.Chemscore.Metal.Weighted>
-0.0000

> <Gold.Chemscore.Lipo.Weighted>
-11.1410

> <Gold.Chemscore.Internal_Hbond.Weighted>
0.0000

> <Gold.Chemscore.DEClash.Weighted>
0.1473

> <Gold.Chemscore.DEInternal.Weighted>
1.1339

> <Gold.Chemscore.Rot.Weighted>
4.5462

> <Gold.Chemscore.Internal.Correction.Weighted>
   9.000000E+99

> <Gold.Protein.RotatedTorsions>
[ 6907 6896 6895 6894 ] final -117.65 input  -60.11 | X-H torsion
[ 7974 7965 7964 7962 ] final  145.66 input  175.53 | X-H torsion
[ 8008 7997 7996 7995 ] final -123.47 input   59.86 | X-H torsion
[ 10167 10162 10161 10158 ] final   37.38 input  -65.29 | X-H torsion
[ 10718 10713 10712 10709 ] final -119.33 input   66.30 | X-H torsion
[ 10763 10752 10751 10750 ] final  106.63 input  -60.55 | X-H torsion
[ 11005 11000 10999 10996 ] final   -8.13 input  -57.11 | X-H torsion

> <Gold.Protein.ActiveResidues>
 VAL166  LYS551  ARG553  GLY616  TRP617  ASP618  TYR619  PRO620  LYS621  CYS622 
 ASP623  PHE694  ASN695  SER759  ASP760  ASP761  ALA762  ILE779  LEU786  VAL792 
 PHE793  MET794  SER795  GLU796  ALA797  LYS798  CYS799  TRP800  GLU811  SER814 

> <Gold.Protein.RotatedAtoms>
  150.8154  133.8346  159.3162 H   0  0  0  0  0  0  0  0  0  0  0  0  # atno 6907 bound_to 6896
  151.6120  135.1038  160.0092 H   0  0  0  0  0  0  0  0  0  0  0  0  # atno 6908 bound_to 6896
  152.4246  133.7132  159.6547 H   0  0  0  0  0  0  0  0  0  0  0  0  # atno 6909 bound_to 6896
  144.8734  139.5811  143.5876 H   0  0  0  0  0  0  0  0  0  0  0  0  # atno 7974 bound_to 7965
  155.1811  140.0410  157.2882 H   0  0  0  0  0  0  0  0  0  0  0  0  # atno 8008 bound_to 7997
  154.6203  140.2499  155.7530 H   0  0  0  0  0  0  0  0  0  0  0  0  # atno 8009 bound_to 7997
  156.2430  140.2896  156.0508 H   0  0  0  0  0  0  0  0  0  0  0  0  # atno 8010 bound_to 7997
  140.4038  144.1687  150.6135 H   0  0  0  0  0  0  0  0  0  0  0  0  # atno 10167 bound_to 10162
  156.1173  130.6295  150.9402 H   0  0  0  0  0  0  0  0  0  0  0  0  # atno 10718 bound_to 10713
  153.3957  135.3870  155.1953 H   0  0  0  0  0  0  0  0  0  0  0  0  # atno 10763 bound_to 10752
  154.8724  135.3759  154.4682 H   0  0  0  0  0  0  0  0  0  0  0  0  # atno 10764 bound_to 10752
  153.5173  135.7087  153.5811 H   0  0  0  0  0  0  0  0  0  0  0  0  # atno 10765 bound_to 10752
  140.7202  133.8835  155.8815 H   0  0  0  0  0  0  0  0  0  0  0  0  # atno 11005 bound_to 11000
  146.2946  139.7239  142.9136 LP  0  0  0  0  0  0  0  0  0  0  0  0  # atno 17320 bound_to 7965
  145.4088  141.0394  143.3029 LP  0  0  0  0  0  0  0  0  0  0  0  0  # atno 17321 bound_to 7965
  140.4711  143.2412  151.9087 LP  0  0  0  0  0  0  0  0  0  0  0  0  # atno 17342 bound_to 10162
  139.4784  144.5369  151.8586 LP  0  0  0  0  0  0  0  0  0  0  0  0  # atno 17343 bound_to 10162
  157.6356  131.0916  150.8355 LP  0  0  0  0  0  0  0  0  0  0  0  0  # atno 17370 bound_to 10713
  156.8456  130.5063  149.5317 LP  0  0  0  0  0  0  0  0  0  0  0  0  # atno 17371 bound_to 10713
  141.0010  134.1150  157.4317 LP  0  0  0  0  0  0  0  0  0  0  0  0  # atno 17394 bound_to 11000
  139.8850  135.0068  156.6406 LP  0  0  0  0  0  0  0  0  0  0  0  0  # atno 17395 bound_to 11000

$$$$
