AV-unprocessed.smi:975|AV-procd|sdf|4301|dock3
  -GOLD-   22720 2203D 1   1.00000     0.00000
 Structure written by MMmdl.
 44 45  0  0  0  0  0  0  0  0  1 V2000
  152.1861  144.5374  160.1727 C   0  0  0  0  0  0  0  0  0  0  0  0
  151.9921  143.4409  159.1456 C   0  0  0  0  0  0  0  0  0  0  0  0
  151.1364  143.6461  157.9956 C   0  0  0  0  0  0  0  0  0  0  0  0
  150.9841  142.6507  157.1086 C   0  0  0  0  0  0  0  0  0  0  0  0
  151.6341  141.4127  157.2614 N   0  0  0  0  0  0  0  0  0  0  0  0
  151.4020  140.4007  156.2146 C   0  0  0  0  0  0  0  0  0  0  0  0
  150.0981  140.5817  155.4177 C   0  0  0  0  0  0  0  0  0  0  0  0
  150.1529  140.6459  154.1902 O   0  0  0  0  0  0  0  0  0  0  0  0
  148.9426  140.6566  156.1009 N   0  0  0  0  0  0  0  0  0  0  0  0
  147.6098  140.8212  155.5273 C   0  0  0  0  0  0  0  0  0  0  0  0
  147.6968  141.8798  154.4039 C   0  0  0  0  0  0  0  0  0  0  0  0
  146.3647  142.3024  153.7581 C   0  0  0  0  0  0  0  0  0  0  0  0
  145.7119  143.5678  154.3595 C   0  0  0  0  0  0  0  0  0  0  0  0
  144.7587  143.3232  155.5439 C   0  0  0  0  0  0  0  0  0  0  0  0
  145.3811  143.3924  156.9549 C   0  0  0  0  0  0  0  0  0  0  0  0
  146.6450  142.5499  157.2063 C   0  0  0  0  0  0  0  0  0  0  0  0
  146.5842  141.1158  156.6446 C   0  0  0  0  0  0  0  0  0  0  0  0
  152.4621  141.1575  158.3192 C   0  0  0  0  0  0  0  0  0  0  0  0
  153.0477  140.0827  158.4487 O   0  0  0  0  0  0  0  0  0  0  0  0
  152.6162  142.2506  159.2861 C   0  0  0  0  0  0  0  0  0  0  0  0
  151.6292  145.4350  159.9020 H   0  0  0  0  0  0  0  0  0  0  0  0
  153.2410  144.8020  160.2504 H   0  0  0  0  0  0  0  0  0  0  0  0
  151.8411  144.2048  161.1520 H   0  0  0  0  0  0  0  0  0  0  0  0
  150.6271  144.5875  157.8483 H   0  0  0  0  0  0  0  0  0  0  0  0
  150.3659  142.7396  156.2267 H   0  0  0  0  0  0  0  0  0  0  0  0
  152.2364  140.3815  155.5112 H   0  0  0  0  0  0  0  0  0  0  0  0
  151.3890  139.4042  156.6587 H   0  0  0  0  0  0  0  0  0  0  0  0
  148.9916  140.5917  157.1073 H   0  0  0  0  0  0  0  0  0  0  0  0
  147.3193  139.8785  155.0595 H   0  0  0  0  0  0  0  0  0  0  0  0
  148.2392  142.7653  154.7368 H   0  0  0  0  0  0  0  0  0  0  0  0
  148.3246  141.4565  153.6183 H   0  0  0  0  0  0  0  0  0  0  0  0
  146.5830  142.5317  152.7142 H   0  0  0  0  0  0  0  0  0  0  0  0
  145.6625  141.4686  153.7236 H   0  0  0  0  0  0  0  0  0  0  0  0
  146.4593  144.3220  154.6083 H   0  0  0  0  0  0  0  0  0  0  0  0
  145.1123  144.0144  153.5652 H   0  0  0  0  0  0  0  0  0  0  0  0
  143.9806  144.0867  155.5081 H   0  0  0  0  0  0  0  0  0  0  0  0
  144.2230  142.3848  155.4017 H   0  0  0  0  0  0  0  0  0  0  0  0
  145.6110  144.4320  157.1913 H   0  0  0  0  0  0  0  0  0  0  0  0
  144.6157  143.0932  157.6720 H   0  0  0  0  0  0  0  0  0  0  0  0
  147.5165  143.0816  156.8272 H   0  0  0  0  0  0  0  0  0  0  0  0
  146.8095  142.4984  158.2832 H   0  0  0  0  0  0  0  0  0  0  0  0
  145.5838  140.8790  156.2871 H   0  0  0  0  0  0  0  0  0  0  0  0
  146.7386  140.4117  157.4635 H   0  0  0  0  0  0  0  0  0  0  0  0
  153.2563  142.0912  160.1419 H   0  0  0  0  0  0  0  0  0  0  0  0
  1  2  1  0  0  0  0
  1 21  1  0  0  0  0
  1 22  1  0  0  0  0
  1 23  1  0  0  0  0
  2 20  2  0  0  0  0
  2  3  1  0  0  0  0
  3  4  2  0  0  0  0
  3 24  1  0  0  0  0
  4  5  1  0  0  0  0
  4 25  1  0  0  0  0
  5  6  1  0  0  0  0
  5 18  1  0  0  0  0
  6  7  1  0  0  0  0
  6 26  1  0  0  0  0
  6 27  1  0  0  0  0
  7  8  2  0  0  0  0
  7  9  1  0  0  0  0
  9 10  1  0  0  0  0
  9 28  1  0  0  0  0
 10 17  1  0  0  0  0
 10 11  1  0  0  0  0
 10 29  1  0  0  0  0
 11 12  1  0  0  0  0
 11 30  1  0  0  0  0
 11 31  1  0  0  0  0
 12 13  1  0  0  0  0
 12 32  1  0  0  0  0
 12 33  1  0  0  0  0
 13 14  1  0  0  0  0
 13 34  1  0  0  0  0
 13 35  1  0  0  0  0
 14 15  1  0  0  0  0
 14 36  1  0  0  0  0
 14 37  1  0  0  0  0
 15 16  1  0  0  0  0
 15 38  1  0  0  0  0
 15 39  1  0  0  0  0
 16 17  1  0  0  0  0
 16 40  1  0  0  0  0
 16 41  1  0  0  0  0
 17 42  1  0  0  0  0
 17 43  1  0  0  0  0
 18 19  2  0  0  0  0
 18 20  1  0  0  0  0
 20 44  1  0  0  0  0
M  END
> <s_m_source_file>
AV-unprocessed.smi

> <i_m_source_file_index>
975

> <i_lp_mmshare_version>
43012

> <i_f3d_flags>
0

> <s_epik_input>
W0NIM11jMVtjSF1bY0hdbihjKD1PKVtjSF0xKVtDSDJdQyg9TylbTkhdW0NIXTJbQ0gyXVtDSDJdW0NIMl1bQ0gyXVtDSDJdW0NIMl1bQ0gyXTI=

> <s_epik_cmdline>
J2VwaWtfcHl0aG9uJywgJy1waCcsICc3LjAnLCAnLXRuJywgJzgnLCAnLW1hJywgJzIwMCcsICctbWV0YWxfYmluZGluZycsICctaW1hZScsICc8aW5maWxlLm1hZT4nLCAnLW9tYWUnLCAnPG91dGZpbGUubWFlPic=

> <r_lp_tautomer_probability>
1

> <r_epik_Ionization_Penalty>
5.54847e-07

> <r_epik_Ionization_Penalty_Charging>
5.34632e-07

> <r_epik_Ionization_Penalty_Neutral>
2.02148e-08

> <r_epik_State_Penalty>
-0

> <r_epik_Charging_Adjusted_Penalty>
5.34632e-07

> <i_epik_Tot_Q>
0

> <i_epik_Tot_abs_Q>
0

> <r_epik_Metal_State_Penalty>
-0

> <b_epik_Metal_Only>
0

> <s_lp_Force_Field>
OPLS_2005

> <r_lp_Energy>
31.8723

> <b_lp_Chiralities_Consistent>
1

> <s_lp_Variant>
AV-unprocessed.smi:975-1

> <Gold.Version>
5.8.1

> <Gold.Id.Protein>
6NUR|6NUR_protein|mol2

> <Gold.PLP.Fitness>
46.6531

> <Gold.PLP.PLP>
-39.6971

> <Gold.PLP.part.hbond>
-1.8033

> <Gold.PLP.part.metal>
0.0000

> <Gold.PLP.part.buried>
-5.0378

> <Gold.PLP.part.nonpolar>
-31.9328

> <Gold.PLP.part.repulsive>
0.2066

> <Gold.PLP.ligand.clash>
0.0000

> <Gold.PLP.ligand.torsion>
0.5169

> <Gold.PLP.Chemscore.Hbond>
1.7520

> <Gold.PLP.Chemscore.CHOScore>
0.9023

> <Gold.PLP.Chemscore.Metal>
0.0000

> <Gold.Chemscore.Hbonds>
donor molecule, donor type, donor heavy atom, donor atom, acceptor molecule, acceptor atom, score
      P1  H  7989  7998       L1     8  0.75
      P1  H  7997  8010       L1    19  0.83
      L1  C     4    25       P1  8028  0.90

> <Gold.PLP.Chemscore.Internal.Correction>
0.0268

> <Gold.Rescore>
     Score         DG    S(hbond)    S(metal)    S(lipo)     H(rot)  DE(clash)    DE(int)     intcor
     15.15     -17.92       1.37        0.00      96.27       1.34       0.25       2.52       ----

> <Gold.Chemscore.Fitness>
15.1478

> <Gold.Chemscore.DG>
-17.9164

> <Gold.Chemscore.ZeroCoef>
-5.4800

> <Gold.Chemscore.Hbond>
1.3746

> <Gold.Chemscore.Metal>
0.0000

> <Gold.Chemscore.Lipo>
96.2674

> <Gold.Chemscore.Internal_Hbond>
0.0000

> <Gold.Chemscore.DEClash>
0.2467

> <Gold.Chemscore.DEInternal>
2.5219

> <Gold.Chemscore.Rot>
1.3352

> <Gold.Chemscore.Internal.Correction>
   9.000000E+99

> <Gold.Chemscore.Hbonds>
donor molecule, donor type, donor heavy atom, donor atom, acceptor molecule, acceptor atom, score
      P1  H  7989  7998       L1     8  0.73
      P1  H  7997  8010       L1    19  0.47

> <Gold.Chemscore.Hbond.Weighted>
-4.5912

> <Gold.Chemscore.Metal.Weighted>
-0.0000

> <Gold.Chemscore.Lipo.Weighted>
-11.2633

> <Gold.Chemscore.Internal_Hbond.Weighted>
0.0000

> <Gold.Chemscore.DEClash.Weighted>
0.2467

> <Gold.Chemscore.DEInternal.Weighted>
2.5219

> <Gold.Chemscore.Rot.Weighted>
3.4181

> <Gold.Chemscore.Internal.Correction.Weighted>
   9.000000E+99

> <Gold.Protein.RotatedTorsions>
[ 6907 6896 6895 6894 ] final   19.17 input  -60.11 | X-H torsion
[ 7974 7965 7964 7962 ] final -172.01 input  175.53 | X-H torsion
[ 8008 7997 7996 7995 ] final   32.78 input   59.86 | X-H torsion
[ 10167 10162 10161 10158 ] final -100.01 input  -65.29 | X-H torsion
[ 10718 10713 10712 10709 ] final  -57.62 input   66.30 | X-H torsion
[ 10763 10752 10751 10750 ] final   74.36 input  -60.55 | X-H torsion
[ 11005 11000 10999 10996 ] final -124.10 input  -57.11 | X-H torsion

> <Gold.Protein.ActiveResidues>
 VAL166  LYS551  ARG553  GLY616  TRP617  ASP618  TYR619  PRO620  LYS621  CYS622 
 ASP623  PHE694  ASN695  SER759  ASP760  ASP761  ALA762  ILE779  LEU786  VAL792 
 PHE793  MET794  SER795  GLU796  ALA797  LYS798  CYS799  TRP800  GLU811  SER814 

> <Gold.Protein.RotatedAtoms>
  151.8766  135.0469  160.0484 H   0  0  0  0  0  0  0  0  0  0  0  0  # atno 6907 bound_to 6896
  152.2546  133.5239  159.5354 H   0  0  0  0  0  0  0  0  0  0  0  0  # atno 6908 bound_to 6896
  150.7095  134.0830  159.3947 H   0  0  0  0  0  0  0  0  0  0  0  0  # atno 6909 bound_to 6896
  144.7150  140.1836  143.6356 H   0  0  0  0  0  0  0  0  0  0  0  0  # atno 7974 bound_to 7965
  155.1280  140.3254  155.4481 H   0  0  0  0  0  0  0  0  0  0  0  0  # atno 8008 bound_to 7997
  156.2643  140.2015  156.6349 H   0  0  0  0  0  0  0  0  0  0  0  0  # atno 8009 bound_to 7997
  154.6634  140.0544  157.0074 H   0  0  0  0  0  0  0  0  0  0  0  0  # atno 8010 bound_to 7997
  140.2564  143.3437  152.0666 H   0  0  0  0  0  0  0  0  0  0  0  0  # atno 10167 bound_to 10162
  156.1197  130.4167  150.0466 H   0  0  0  0  0  0  0  0  0  0  0  0  # atno 10718 bound_to 10713
  153.0582  135.5028  154.8030 H   0  0  0  0  0  0  0  0  0  0  0  0  # atno 10763 bound_to 10752
  154.6840  135.2973  154.9575 H   0  0  0  0  0  0  0  0  0  0  0  0  # atno 10764 bound_to 10752
  154.0352  135.6724  153.4837 H   0  0  0  0  0  0  0  0  0  0  0  0  # atno 10765 bound_to 10752
  140.9867  134.0596  157.3702 H   0  0  0  0  0  0  0  0  0  0  0  0  # atno 11005 bound_to 11000
  145.8833  139.2335  143.1592 LP  0  0  0  0  0  0  0  0  0  0  0  0  # atno 17320 bound_to 7965
  145.9973  140.8551  143.0036 LP  0  0  0  0  0  0  0  0  0  0  0  0  # atno 17321 bound_to 7965
  139.5030  144.6746  151.6159 LP  0  0  0  0  0  0  0  0  0  0  0  0  # atno 17342 bound_to 10162
  140.6000  143.9627  150.6380 LP  0  0  0  0  0  0  0  0  0  0  0  0  # atno 17343 bound_to 10162
  156.8407  130.9425  151.3632 LP  0  0  0  0  0  0  0  0  0  0  0  0  # atno 17370 bound_to 10713
  157.6380  130.8782  149.9395 LP  0  0  0  0  0  0  0  0  0  0  0  0  # atno 17371 bound_to 10713
  139.8974  135.0150  156.7098 LP  0  0  0  0  0  0  0  0  0  0  0  0  # atno 17394 bound_to 11000
  140.7103  133.9229  155.8080 LP  0  0  0  0  0  0  0  0  0  0  0  0  # atno 17395 bound_to 11000

$$$$
