AV-unprocessed.smi:1795|AV-procd|sdf|7244|dock1
  -GOLD-   22720 8493D 1   1.00000     0.00000
 Structure written by MMmdl.
 48 49  0  0  0  0  0  0  0  0  2 V2000
  144.6390  132.5874  149.1609 C   0  0  0  0  0  0  0  0  0  0  0  0
  144.8933  133.1805  150.5510 C   0  0  1  0  0  0  0  0  0  0  0  0
  146.2750  133.8677  150.6426 C   0  0  0  0  0  0  0  0  0  0  0  0
  146.4725  134.5367  151.9585 N   0  3  2  0  0  0  0  0  0  0  0  0
  146.8161  133.6015  153.0825 C   0  0  2  0  0  0  0  0  0  0  0  0
  146.6862  134.2529  154.4812 C   0  0  0  0  0  0  0  0  0  0  0  0
  148.2491  133.0314  152.8968 C   0  0  0  0  0  0  0  0  0  0  0  0
  148.5553  131.9555  153.8329 N   0  0  0  0  0  0  0  0  0  0  0  0
  149.3065  132.0873  154.9375 C   0  0  0  0  0  0  0  0  0  0  0  0
  149.7927  133.1589  155.2980 O   0  0  0  0  0  0  0  0  0  0  0  0
  149.5719  130.8143  155.7481 C   0  0  0  0  0  0  0  0  0  0  0  0
  151.0118  130.5479  155.8981 N   0  0  0  0  0  0  0  0  0  0  0  0
  151.5530  129.5254  155.0936 C   0  0  0  0  0  0  0  0  0  0  0  0
  152.8514  129.1890  155.1487 C   0  0  0  0  0  0  0  0  0  0  0  0
  153.7045  129.9100  156.0632 C   0  0  0  0  0  0  0  0  0  0  0  0
  153.1965  130.8851  156.8425 C   0  0  0  0  0  0  0  0  0  0  0  0
  151.7757  131.2483  156.7931 C   0  0  0  0  0  0  0  0  0  0  0  0
  151.3003  132.1226  157.5181 O   0  0  0  0  0  0  0  0  0  0  0  0
  145.3355  135.4701  152.1852 C   0  0  0  0  0  0  0  0  0  0  0  0
  143.9844  134.7308  152.1043 C   0  0  1  0  0  0  0  0  0  0  0  0
  142.7954  135.6787  152.2954 C   0  0  0  0  0  0  0  0  0  0  0  0
  143.8714  134.1361  150.8157 O   0  0  0  0  0  0  0  0  0  0  0  0
  145.3903  131.8380  148.9100 H   0  0  0  0  0  0  0  0  0  0  0  0
  144.6649  133.3585  148.3905 H   0  0  0  0  0  0  0  0  0  0  0  0
  143.6621  132.1051  149.1161 H   0  0  0  0  0  0  0  0  0  0  0  0
  144.8206  132.3715  151.2784 H   0  0  0  0  0  0  0  0  0  0  0  0
  147.0657  133.1546  150.4207 H   0  0  0  0  0  0  0  0  0  0  0  0
  146.3467  134.6307  149.8662 H   0  0  0  0  0  0  0  0  0  0  0  0
  146.1085  132.7738  153.0622 H   0  0  0  0  0  0  0  0  0  0  0  0
  146.9876  133.5711  155.2765 H   0  0  0  0  0  0  0  0  0  0  0  0
  145.6574  134.5282  154.7115 H   0  0  0  0  0  0  0  0  0  0  0  0
  147.3073  135.1452  154.5646 H   0  0  0  0  0  0  0  0  0  0  0  0
  148.4199  132.6504  151.8913 H   0  0  0  0  0  0  0  0  0  0  0  0
  148.9827  133.8241  153.0469 H   0  0  0  0  0  0  0  0  0  0  0  0
  148.1929  131.0382  153.6128 H   0  0  0  0  0  0  0  0  0  0  0  0
  149.1081  130.9134  156.7310 H   0  0  0  0  0  0  0  0  0  0  0  0
  149.0563  129.9758  155.2769 H   0  0  0  0  0  0  0  0  0  0  0  0
  150.8461  129.0334  154.4409 H   0  0  0  0  0  0  0  0  0  0  0  0
  153.2471  128.3992  154.5272 H   0  0  0  0  0  0  0  0  0  0  0  0
  154.7553  129.6675  156.1219 H   0  0  0  0  0  0  0  0  0  0  0  0
  153.8504  131.4146  157.5199 H   0  0  0  0  0  0  0  0  0  0  0  0
  145.4350  136.0295  153.1140 H   0  0  0  0  0  0  0  0  0  0  0  0
  145.3676  136.2301  151.4029 H   0  0  0  0  0  0  0  0  0  0  0  0
  143.9314  133.9533  152.8682 H   0  0  0  0  0  0  0  0  0  0  0  0
  142.8287  136.1576  153.2744 H   0  0  0  0  0  0  0  0  0  0  0  0
  141.8511  135.1387  152.2227 H   0  0  0  0  0  0  0  0  0  0  0  0
  142.7890  136.4633  151.5383 H   0  0  0  0  0  0  0  0  0  0  0  0
  147.2857  135.1276  151.8596 H   0  0  0  0  0  0  0  0  0  0  0  0
  1  2  1  0  0  0  0
  1 23  1  0  0  0  0
  1 24  1  0  0  0  0
  1 25  1  0  0  0  0
  2 22  1  0  0  0  0
  2  3  1  0  0  0  0
  2 26  1  0  0  0  0
  3  4  1  0  0  0  0
  3 27  1  0  0  0  0
  3 28  1  0  0  0  0
  4  5  1  0  0  0  0
  4 19  1  0  0  0  0
  4 48  1  0  0  0  0
  5  6  1  0  0  0  0
  5  7  1  0  0  0  0
  5 29  1  0  0  0  0
  6 30  1  0  0  0  0
  6 31  1  0  0  0  0
  6 32  1  0  0  0  0
  7  8  1  0  0  0  0
  7 33  1  0  0  0  0
  7 34  1  0  0  0  0
  8  9  1  0  0  0  0
  8 35  1  0  0  0  0
  9 10  2  0  0  0  0
  9 11  1  0  0  0  0
 11 12  1  0  0  0  0
 11 36  1  0  0  0  0
 11 37  1  0  0  0  0
 12 17  1  0  0  0  0
 12 13  1  0  0  0  0
 13 14  2  0  0  0  0
 13 38  1  0  0  0  0
 14 15  1  0  0  0  0
 14 39  1  0  0  0  0
 15 16  2  0  0  0  0
 15 40  1  0  0  0  0
 16 17  1  0  0  0  0
 16 41  1  0  0  0  0
 17 18  2  0  0  0  0
 19 20  1  0  0  0  0
 19 42  1  0  0  0  0
 19 43  1  0  0  0  0
 20 21  1  0  0  0  0
 20 22  1  0  0  0  0
 20 44  1  0  0  0  0
 21 45  1  0  0  0  0
 21 46  1  0  0  0  0
 21 47  1  0  0  0  0
M  CHG  1   4   1
M  END
> <s_m_source_file>
AV-unprocessed.smi

> <i_m_source_file_index>
1795

> <i_lp_mmshare_version>
43012

> <i_f3d_flags>
0

> <s_epik_input>
W0NIM11bQ0BASF0xW0NIMl1OKFtDSDJdW0NASF0oTzEpW0NIM10pW0NASF0oW0NIM10pW0NIMl1bTkhdQyg9TylbQ0gyXW4yW2NIXVtjSF1bY0hdW2NIXWMyPU8=

> <s_epik_cmdline>
J2VwaWtfcHl0aG9uJywgJy1waCcsICc3LjAnLCAnLXRuJywgJzgnLCAnLW1hJywgJzIwMCcsICctbWV0YWxfYmluZGluZycsICctaW1hZScsICc8aW5maWxlLm1hZT4nLCAnLW9tYWUnLCAnPG91dGZpbGUubWFlPic=

> <r_lp_tautomer_probability>
1

> <r_epik_Ionization_Penalty>
0.656654

> <r_epik_Ionization_Penalty_Charging>
0.656654

> <r_epik_Ionization_Penalty_Neutral>
8.90321e-08

> <r_epik_State_Penalty>
0.675641

> <r_epik_Charging_Adjusted_Penalty>
1.33229

> <i_epik_Tot_Q>
1

> <i_epik_Tot_abs_Q>
1

> <r_epik_Metal_State_Penalty>
0.675691

> <b_epik_Metal_Only>
0

> <s_lp_Force_Field>
OPLS_2005

> <r_lp_Energy>
32.228

> <b_lp_Chiralities_Consistent>
1

> <s_lp_Variant>
AV-unprocessed.smi:1795-8

> <Gold.Version>
5.8.1

> <Gold.Id.Protein>
6NUR|6NUR_protein|mol2

> <Gold.PLP.Fitness>
44.3927

> <Gold.PLP.PLP>
-36.5210

> <Gold.PLP.part.hbond>
-2.0000

> <Gold.PLP.part.metal>
0.0000

> <Gold.PLP.part.buried>
-6.0094

> <Gold.PLP.part.nonpolar>
-27.8361

> <Gold.PLP.part.repulsive>
0.2190

> <Gold.PLP.ligand.clash>
0.0000

> <Gold.PLP.ligand.torsion>
0.6306

> <Gold.PLP.Chemscore.Hbond>
3.0000

> <Gold.PLP.Chemscore.CHOScore>
0.0000

> <Gold.PLP.Chemscore.Metal>
0.0000

> <Gold.Chemscore.Hbonds>
donor molecule, donor type, donor heavy atom, donor atom, acceptor molecule, acceptor atom, score
      L1  H     4    48       P1  7948  2.00
      P1  H  6896  6909       L1    18  0.75

> <Gold.PLP.Chemscore.Internal.Correction>
0.1330

> <Gold.Rescore>
     Score         DG    S(hbond)    S(metal)    S(lipo)     H(rot)  DE(clash)    DE(int)     intcor
     15.79     -16.63       1.97        0.00      80.26       1.89       0.15       0.68       ----

> <Gold.Chemscore.Fitness>
15.7947

> <Gold.Chemscore.DG>
-16.6292

> <Gold.Chemscore.ZeroCoef>
-5.4800

> <Gold.Chemscore.Hbond>
1.9728

> <Gold.Chemscore.Metal>
0.0000

> <Gold.Chemscore.Lipo>
80.2635

> <Gold.Chemscore.Internal_Hbond>
0.0000

> <Gold.Chemscore.DEClash>
0.1533

> <Gold.Chemscore.DEInternal>
0.6812

> <Gold.Chemscore.Rot>
1.8870

> <Gold.Chemscore.Internal.Correction>
   9.000000E+99

> <Gold.Chemscore.Hbonds>
donor molecule, donor type, donor heavy atom, donor atom, acceptor molecule, acceptor atom, score
      L1  H     4    48       P1  7948  0.94
      P1  H  6896  6909       L1    18  0.72

> <Gold.Chemscore.Hbond.Weighted>
-6.5891

> <Gold.Chemscore.Metal.Weighted>
-0.0000

> <Gold.Chemscore.Lipo.Weighted>
-9.3908

> <Gold.Chemscore.Internal_Hbond.Weighted>
0.0000

> <Gold.Chemscore.DEClash.Weighted>
0.1533

> <Gold.Chemscore.DEInternal.Weighted>
0.6812

> <Gold.Chemscore.Rot.Weighted>
4.8308

> <Gold.Chemscore.Internal.Correction.Weighted>
   9.000000E+99

> <Gold.Protein.RotatedTorsions>
[ 6907 6896 6895 6894 ] final  -60.94 input  -60.11 | X-H torsion
[ 7974 7965 7964 7962 ] final  -41.44 input  175.53 | X-H torsion
[ 8008 7997 7996 7995 ] final   54.24 input   59.86 | X-H torsion
[ 10167 10162 10161 10158 ] final -105.40 input  -65.29 | X-H torsion
[ 10718 10713 10712 10709 ] final -137.84 input   66.30 | X-H torsion
[ 10763 10752 10751 10750 ] final  151.58 input  -60.55 | X-H torsion
[ 11005 11000 10999 10996 ] final   27.23 input  -57.11 | X-H torsion

> <Gold.Protein.ActiveResidues>
 VAL166  LYS551  ARG553  GLY616  TRP617  ASP618  TYR619  PRO620  LYS621  CYS622 
 ASP623  PHE694  ASN695  SER759  ASP760  ASP761  ALA762  ILE779  LEU786  VAL792 
 PHE793  MET794  SER795  GLU796  ALA797  LYS798  CYS799  TRP800  GLU811  SER814 

> <Gold.Protein.RotatedAtoms>
  150.7820  134.6771  159.6423 H   0  0  0  0  0  0  0  0  0  0  0  0  # atno 6907 bound_to 6896
  152.3907  134.6442  160.0117 H   0  0  0  0  0  0  0  0  0  0  0  0  # atno 6908 bound_to 6896
  151.6744  133.3276  159.3240 H   0  0  0  0  0  0  0  0  0  0  0  0  # atno 6909 bound_to 6896
  146.0210  140.6849  142.9178 H   0  0  0  0  0  0  0  0  0  0  0  0  # atno 7974 bound_to 7965
  155.4814  140.3468  155.4340 H   0  0  0  0  0  0  0  0  0  0  0  0  # atno 8008 bound_to 7997
  156.1036  140.1442  156.9462 H   0  0  0  0  0  0  0  0  0  0  0  0  # atno 8009 bound_to 7997
  154.4710  140.0901  156.7122 H   0  0  0  0  0  0  0  0  0  0  0  0  # atno 8010 bound_to 7997
  140.1990  143.3833  152.1145 H   0  0  0  0  0  0  0  0  0  0  0  0  # atno 10167 bound_to 10162
  156.2926  130.7383  151.1413 H   0  0  0  0  0  0  0  0  0  0  0  0  # atno 10718 bound_to 10713
  154.1060  135.2842  155.3241 H   0  0  0  0  0  0  0  0  0  0  0  0  # atno 10763 bound_to 10752
  154.6522  135.5365  153.7919 H   0  0  0  0  0  0  0  0  0  0  0  0  # atno 10764 bound_to 10752
  153.0362  135.6513  154.1221 H   0  0  0  0  0  0  0  0  0  0  0  0  # atno 10765 bound_to 10752
  140.3285  134.2464  155.7706 H   0  0  0  0  0  0  0  0  0  0  0  0  # atno 11005 bound_to 11000
  144.6990  140.3567  143.7171 LP  0  0  0  0  0  0  0  0  0  0  0  0  # atno 17320 bound_to 7965
  145.7192  139.1705  143.2494 LP  0  0  0  0  0  0  0  0  0  0  0  0  # atno 17321 bound_to 7965
  139.5225  144.7059  151.5354 LP  0  0  0  0  0  0  0  0  0  0  0  0  # atno 17342 bound_to 10162
  140.6404  143.8901  150.6686 LP  0  0  0  0  0  0  0  0  0  0  0  0  # atno 17343 bound_to 10162
  157.7346  131.0580  150.5512 LP  0  0  0  0  0  0  0  0  0  0  0  0  # atno 17370 bound_to 10713
  156.5630  130.4260  149.6054 LP  0  0  0  0  0  0  0  0  0  0  0  0  # atno 17371 bound_to 10713
  141.2069  133.7820  157.0148 LP  0  0  0  0  0  0  0  0  0  0  0  0  # atno 17394 bound_to 11000
  140.0881  134.9609  157.1732 LP  0  0  0  0  0  0  0  0  0  0  0  0  # atno 17395 bound_to 11000

$$$$
