#       Name:                AV-unprocessed.smi:927
#       Creating user name   scv26
#       Creation time:       Fri Mar 27 02:09:39 2020


#       File generated by GOLD software.
#

@<TRIPOS>MOLECULE
AV-unprocessed.smi:927
    24    24     1
SMALL
NO_CHARGES


@<TRIPOS>ATOM
      1 ****        -2.0728   2.5049  -0.1232 N.3            1 S1                 0.0000
      2 ****        -1.4995   1.1876   0.1953 C.3            1 S1                 0.0000
      3 ****         0.0216   1.1263  -0.0305 C.3            1 S1                 0.0000
      4 ****         0.6537   1.8769   0.9874 O.3            1 S1                 0.0000
      5 ****         0.5147  -0.3126  -0.0366 C.ar           1 S1                 0.0000
      6 ****         0.5771  -1.0685   1.1543 C.ar           1 S1                 0.0000
      7 ****         1.0349  -2.3993   1.0856 C.ar           1 S1                 0.0000
      8 ****         1.4177  -2.9933  -0.0649 N.ar           1 S1                 0.0000
      9 ****         1.3544  -2.2667  -1.2011 C.ar           1 S1                 0.0000
     10 ****         0.9123  -0.9291  -1.2417 C.ar           1 S1                 0.0000
     11 ****        -1.8759   2.7550  -1.0912 H              1 S1                 0.0000
     12 ****        -3.0862   2.4869  -0.0189 H              1 S1                 0.0000
     13 ****        -1.7431   0.9029   1.2197 H              1 S1                 0.0000
     14 ****        -1.9761   0.4449  -0.4452 H              1 S1                 0.0000
     15 ****         0.2695   1.5838  -0.9895 H              1 S1                 0.0000
     16 ****         1.5806   1.9038   0.8066 H              1 S1                 0.0000
     17 ****         0.2798  -0.6408   2.1006 H              1 S1                 0.0000
     18 ****         1.0938  -3.0032   1.9790 H              1 S1                 0.0000
     19 ****         1.6648  -2.7665  -2.1067 H              1 S1                 0.0000
     20 ****         0.8796  -0.3936  -2.1791 H              1 S1                 0.0000
     21 ****        -1.6638   3.1679   0.5038 LP             1 S1                 0.0000
     22 ****         0.4951   1.4434   1.8745 LP             1 S1                 0.0000
     23 ****         0.2850   2.8064   1.0000 LP             1 S1                 0.0000
     24 ****         1.7377  -3.9406  -0.0751 LP             1 S1                 0.0000
@<TRIPOS>BOND
    1    1    2 1     
    2    1   11 1     
    3    1   12 1     
    4    2    3 1     
    5    2   13 1     
    6    2   14 1     
    7    3    4 1     
    8    3    5 1     
    9    3   15 1     
   10    4   16 1     
   11    5   10 ar    
   12    5    6 ar    
   13    6    7 ar    
   14    6   17 1     
   15    7    8 ar    
   16    7   18 1     
   17    8    9 ar    
   18    9   10 ar    
   19    9   19 1     
   20   10   20 1     
   21    1   21 1     
   22    4   22 1     
   23    4   23 1     
   24    8   24 1     
@<TRIPOS>SUBSTRUCTURE
      1 S1             1
@<TRIPOS>SET
LONE_PAIRS      STATIC     ATOMS    <user>   **** ""
4 21 22 23 24
DONOR_HYDROGENS      STATIC     ATOMS    <user>   **** ""
3 11 12 16
ATOM$BLUE        STATIC     ATOMS    COLORGROUP SYSTEM
4 21 22 23 24
ATOM$RED        STATIC     ATOMS    COLORGROUP SYSTEM
3 11 12 16
