AV-unprocessed.smi:1817|AV-procd|sdf|7377|dock4
  -GOLD-   22720 9 43D 1   1.00000     0.00000
 Structure written by MMmdl.
 42 43  0  0  0  0  0  0  0  0  3 V2000
  144.0017  132.4066  149.9788 C   0  0  0  0  0  0  0  0  0  0  0  0
  144.2989  133.3342  151.1662 C   0  0  0  0  0  0  0  0  0  0  0  0
  145.4319  134.2232  150.8982 N   0  0  0  0  0  0  0  0  0  0  0  0
  145.6010  135.3177  151.8609 C   0  0  0  0  0  0  0  0  0  0  0  0
  146.0737  134.8156  153.2415 C   0  0  0  0  0  0  0  0  0  0  0  0
  147.3470  134.0664  153.1058 N   0  3  0  0  0  0  0  0  0  0  0  0
  147.9786  133.7097  154.4086 C   0  0  1  0  0  0  0  0  0  0  0  0
  149.4222  133.1814  154.2600 C   0  0  0  0  0  0  0  0  0  0  0  0
  147.8739  134.8907  155.4008 C   0  0  0  0  0  0  0  0  0  0  0  0
  147.7837  134.4490  156.7887 N   0  0  0  0  0  0  0  0  0  0  0  0
  148.0696  135.1943  157.8655 C   0  0  0  0  0  0  0  0  0  0  0  0
  148.4689  136.3522  157.7223 O   0  0  0  0  0  0  0  0  0  0  0  0
  147.8682  134.5546  159.0389 N   0  5  0  0  0  0  0  0  0  0  0  0
  147.7117  135.2615  160.1704 C   0  0  0  0  0  0  0  0  0  0  0  0
  147.7036  136.6041  160.1810 N   0  0  0  0  0  0  0  0  0  0  0  0
  147.5285  137.1391  161.4500 N   0  0  0  0  0  0  0  0  0  0  0  0
  147.3993  136.1812  162.3676 C   0  0  0  0  0  0  0  0  0  0  0  0
  147.4764  134.5391  161.7644 S   0  0  0  0  0  0  0  0  0  0  0  0
  147.1888  132.9521  152.1361 C   0  0  0  0  0  0  0  0  0  0  0  0
  146.6985  133.4953  150.7774 C   0  0  0  0  0  0  0  0  0  0  0  0
  143.2479  131.6684  150.2528 H   0  0  0  0  0  0  0  0  0  0  0  0
  144.8944  131.8635  149.6663 H   0  0  0  0  0  0  0  0  0  0  0  0
  143.6173  132.9527  149.1178 H   0  0  0  0  0  0  0  0  0  0  0  0
  143.4046  133.8926  151.4408 H   0  0  0  0  0  0  0  0  0  0  0  0
  144.5478  132.7091  152.0245 H   0  0  0  0  0  0  0  0  0  0  0  0
  146.3389  136.0140  151.4602 H   0  0  0  0  0  0  0  0  0  0  0  0
  144.6786  135.8887  151.9599 H   0  0  0  0  0  0  0  0  0  0  0  0
  146.2250  135.6763  153.8936 H   0  0  0  0  0  0  0  0  0  0  0  0
  145.3123  134.1969  153.7165 H   0  0  0  0  0  0  0  0  0  0  0  0
  147.3831  132.8973  154.8276 H   0  0  0  0  0  0  0  0  0  0  0  0
  149.7924  132.7842  155.2055 H   0  0  0  0  0  0  0  0  0  0  0  0
  150.1115  133.9671  153.9504 H   0  0  0  0  0  0  0  0  0  0  0  0
  149.4837  132.3728  153.5322 H   0  0  0  0  0  0  0  0  0  0  0  0
  148.7501  135.5339  155.3252 H   0  0  0  0  0  0  0  0  0  0  0  0
  147.0124  135.5163  155.1609 H   0  0  0  0  0  0  0  0  0  0  0  0
  147.4649  133.5045  156.9504 H   0  0  0  0  0  0  0  0  0  0  0  0
  147.2542  136.4429  163.4050 H   0  0  0  0  0  0  0  0  0  0  0  0
  148.1429  132.4469  151.9905 H   0  0  0  0  0  0  0  0  0  0  0  0
  146.4943  132.2032  152.5174 H   0  0  0  0  0  0  0  0  0  0  0  0
  146.5886  132.6808  150.0604 H   0  0  0  0  0  0  0  0  0  0  0  0
  147.4495  134.1686  150.3618 H   0  0  0  0  0  0  0  0  0  0  0  0
  147.9875  134.7184  152.6761 H   0  0  0  0  0  0  0  0  0  0  0  0
  1  2  1  0  0  0  0
  1 21  1  0  0  0  0
  1 22  1  0  0  0  0
  1 23  1  0  0  0  0
  2  3  1  0  0  0  0
  2 24  1  0  0  0  0
  2 25  1  0  0  0  0
  3 20  1  0  0  0  0
  3  4  1  0  0  0  0
  4  5  1  0  0  0  0
  4 26  1  0  0  0  0
  4 27  1  0  0  0  0
  5  6  1  0  0  0  0
  5 28  1  0  0  0  0
  5 29  1  0  0  0  0
  6  7  1  0  0  0  0
  6 19  1  0  0  0  0
  6 42  1  0  0  0  0
  7  8  1  0  0  0  0
  7  9  1  0  0  0  0
  7 30  1  0  0  0  0
  8 31  1  0  0  0  0
  8 32  1  0  0  0  0
  8 33  1  0  0  0  0
  9 10  1  0  0  0  0
  9 34  1  0  0  0  0
  9 35  1  0  0  0  0
 10 11  1  0  0  0  0
 10 36  1  0  0  0  0
 11 12  2  0  0  0  0
 11 13  1  0  0  0  0
 13 14  1  0  0  0  0
 14 18  1  0  0  0  0
 14 15  2  0  0  0  0
 15 16  1  0  0  0  0
 16 17  2  0  0  0  0
 17 18  1  0  0  0  0
 17 37  1  0  0  0  0
 19 20  1  0  0  0  0
 19 38  1  0  0  0  0
 19 39  1  0  0  0  0
 20 40  1  0  0  0  0
 20 41  1  0  0  0  0
M  CHG  1   6   1
M  CHG  1  13  -1
M  END
> <s_m_source_file>
AV-unprocessed.smi

> <i_m_source_file_index>
1817

> <i_lp_mmshare_version>
43012

> <i_f3d_flags>
0

> <s_epik_input>
W0NIM11bQ0gyXU4xW0NIMl1bQ0gyXU4oW0NIMl1bQ0gyXTEpW0NASF0oW0NIM10pW0NIMl1bTkhdQyg9TylbTkhdYzJubltjSF1zMg==

> <s_epik_cmdline>
J2VwaWtfcHl0aG9uJywgJy1waCcsICc3LjAnLCAnLXRuJywgJzgnLCAnLW1hJywgJzIwMCcsICctbWV0YWxfYmluZGluZycsICctaW1hZScsICc8aW5maWxlLm1hZT4nLCAnLW9tYWUnLCAnPG91dGZpbGUubWFlPic=

> <r_epik_Ionization_Penalty>
3.16835

> <r_epik_Ionization_Penalty_Charging>
3.13468

> <r_epik_Ionization_Penalty_Neutral>
0.0336711

> <r_epik_State_Penalty>
3.95884

> <r_epik_Charging_Adjusted_Penalty>
7.09351

> <i_epik_Tot_Q>
0

> <i_epik_Tot_abs_Q>
2

> <r_epik_Metal_State_Penalty>
1.39003

> <b_epik_Metal_Only>
1

> <s_lp_Force_Field>
OPLS_2005

> <r_lp_Energy>
12.939

> <b_lp_Chiralities_Consistent>
1

> <s_lp_Variant>
AV-unprocessed.smi:1817-10

> <Gold.Version>
5.8.1

> <Gold.Id.Protein>
6NUR|6NUR_protein|mol2

> <Gold.PLP.Fitness>
41.6051

> <Gold.PLP.PLP>
-31.4622

> <Gold.PLP.part.hbond>
-3.0000

> <Gold.PLP.part.metal>
0.0000

> <Gold.PLP.part.buried>
-5.2993

> <Gold.PLP.part.nonpolar>
-23.1785

> <Gold.PLP.part.repulsive>
0.1624

> <Gold.PLP.ligand.clash>
0.0000

> <Gold.PLP.ligand.torsion>
0.7373

> <Gold.PLP.Chemscore.Hbond>
3.8160

> <Gold.PLP.Chemscore.CHOScore>
0.0000

> <Gold.PLP.Chemscore.Metal>
0.0000

> <Gold.Chemscore.Hbonds>
donor molecule, donor type, donor heavy atom, donor atom, acceptor molecule, acceptor atom, score
      L1  H     6    42       P1  7948  2.00
      P1  H  6931  6943       L1    16  0.98
      P1  H  6934  6947       L1    16  0.82

> <Gold.PLP.Chemscore.Internal.Correction>
0.1695

> <Gold.Rescore>
     Score         DG    S(hbond)    S(metal)    S(lipo)     H(rot)  DE(clash)    DE(int)     intcor
     12.68     -15.08       1.91        0.00      68.70       1.88       0.00       2.40       ----

> <Gold.Chemscore.Fitness>
12.6760

> <Gold.Chemscore.DG>
-15.0768

> <Gold.Chemscore.ZeroCoef>
-5.4800

> <Gold.Chemscore.Hbond>
1.9097

> <Gold.Chemscore.Metal>
0.0000

> <Gold.Chemscore.Lipo>
68.6970

> <Gold.Chemscore.Internal_Hbond>
0.0000

> <Gold.Chemscore.DEClash>
0.0048

> <Gold.Chemscore.DEInternal>
2.3960

> <Gold.Chemscore.Rot>
1.8825

> <Gold.Chemscore.Internal.Correction>
   9.000000E+99

> <Gold.Chemscore.Hbonds>
donor molecule, donor type, donor heavy atom, donor atom, acceptor molecule, acceptor atom, score
      L1  H     6    42       P1  7948  0.74
      P1  H  6931  6943       L1    16  0.48
      P1  H  6934  6947       L1    16  0.18

> <Gold.Chemscore.Hbond.Weighted>
-6.3784

> <Gold.Chemscore.Metal.Weighted>
-0.0000

> <Gold.Chemscore.Lipo.Weighted>
-8.0376

> <Gold.Chemscore.Internal_Hbond.Weighted>
0.0000

> <Gold.Chemscore.DEClash.Weighted>
0.0048

> <Gold.Chemscore.DEInternal.Weighted>
2.3960

> <Gold.Chemscore.Rot.Weighted>
4.8191

> <Gold.Chemscore.Internal.Correction.Weighted>
   9.000000E+99

> <Gold.Protein.RotatedTorsions>
[ 6907 6896 6895 6894 ] final -113.65 input  -60.11 | X-H torsion
[ 7974 7965 7964 7962 ] final  -27.19 input  175.53 | X-H torsion
[ 8008 7997 7996 7995 ] final -103.70 input   59.86 | X-H torsion
[ 10167 10162 10161 10158 ] final   61.19 input  -65.29 | X-H torsion
[ 10718 10713 10712 10709 ] final  174.39 input   66.30 | X-H torsion
[ 10763 10752 10751 10750 ] final   38.92 input  -60.55 | X-H torsion
[ 11005 11000 10999 10996 ] final    6.01 input  -57.11 | X-H torsion

> <Gold.Protein.ActiveResidues>
 VAL166  LYS551  ARG553  GLY616  TRP617  ASP618  TYR619  PRO620  LYS621  CYS622 
 ASP623  PHE694  ASN695  SER759  ASP760  ASP761  ALA762  ILE779  LEU786  VAL792 
 PHE793  MET794  SER795  GLU796  ALA797  LYS798  CYS799  TRP800  GLU811  SER814 

> <Gold.Protein.RotatedAtoms>
  150.7845  133.8913  159.3314 H   0  0  0  0  0  0  0  0  0  0  0  0  # atno 6907 bound_to 6896
  151.6768  135.0966  160.0218 H   0  0  0  0  0  0  0  0  0  0  0  0  # atno 6908 bound_to 6896
  152.3905  133.6633  159.6269 H   0  0  0  0  0  0  0  0  0  0  0  0  # atno 6909 bound_to 6896
  146.1375  140.5119  142.8666 H   0  0  0  0  0  0  0  0  0  0  0  0  # atno 7974 bound_to 7965
  154.8748  140.0421  157.1746 H   0  0  0  0  0  0  0  0  0  0  0  0  # atno 8008 bound_to 7997
  154.8701  140.2957  155.5465 H   0  0  0  0  0  0  0  0  0  0  0  0  # atno 8009 bound_to 7997
  156.2999  140.2430  156.3689 H   0  0  0  0  0  0  0  0  0  0  0  0  # atno 8010 bound_to 7997
  140.1575  144.4403  150.6727 H   0  0  0  0  0  0  0  0  0  0  0  0  # atno 10167 bound_to 10162
  156.9503  131.0029  151.2950 H   0  0  0  0  0  0  0  0  0  0  0  0  # atno 10718 bound_to 10713
  152.9984  135.6235  154.2382 H   0  0  0  0  0  0  0  0  0  0  0  0  # atno 10763 bound_to 10752
  154.2123  135.2799  155.2955 H   0  0  0  0  0  0  0  0  0  0  0  0  # atno 10764 bound_to 10752
  154.5596  135.5709  153.7054 H   0  0  0  0  0  0  0  0  0  0  0  0  # atno 10765 bound_to 10752
  140.5643  134.0163  155.7983 H   0  0  0  0  0  0  0  0  0  0  0  0  # atno 11005 bound_to 11000
  144.7755  140.5731  143.6641 LP  0  0  0  0  0  0  0  0  0  0  0  0  # atno 17320 bound_to 7965
  145.5123  139.1479  143.3598 LP  0  0  0  0  0  0  0  0  0  0  0  0  # atno 17321 bound_to 7965
  140.6664  143.2269  151.5733 LP  0  0  0  0  0  0  0  0  0  0  0  0  # atno 17342 bound_to 10162
  139.5397  144.2683  152.1325 LP  0  0  0  0  0  0  0  0  0  0  0  0  # atno 17343 bound_to 10162
  157.5726  130.8321  149.8413 LP  0  0  0  0  0  0  0  0  0  0  0  0  # atno 17370 bound_to 10713
  156.0366  130.3750  150.1545 LP  0  0  0  0  0  0  0  0  0  0  0  0  # atno 17371 bound_to 10713
  141.1095  133.9639  157.2935 LP  0  0  0  0  0  0  0  0  0  0  0  0  # atno 17394 bound_to 11000
  139.9393  135.0193  156.8656 LP  0  0  0  0  0  0  0  0  0  0  0  0  # atno 17395 bound_to 11000

$$$$
