AV-unprocessed.smi:2923|AV-procd|sdf|11208|dock6
  -GOLD-   2272016103D 1   1.00000     0.00000
 Structure written by MMmdl.
 47 49  0  0  0  0  0  0  0  0  2 V2000
  143.3785  132.3112  149.6647 C   0  0  0  0  0  0  0  0  0  0  0  0
  144.6841  132.7203  150.1709 N   0  0  0  0  0  0  0  0  0  0  0  0
  145.7632  131.7492  150.2938 C   0  0  0  0  0  0  0  0  0  0  0  0
  144.8963  134.0597  150.5630 C   0  0  0  0  0  0  0  0  0  0  0  0
  146.1838  134.6136  150.7677 C   0  0  0  0  0  0  0  0  0  0  0  0
  146.3129  135.9603  151.1645 C   0  0  0  0  0  0  0  0  0  0  0  0
  145.1610  136.7533  151.3480 C   0  0  0  0  0  0  0  0  0  0  0  0
  145.3460  138.0991  151.7663 N   0  0  0  0  0  0  0  0  0  0  0  0
  146.4904  138.7931  151.8908 C   0  0  0  0  0  0  0  0  0  0  0  0
  147.6216  138.3426  151.7125 O   0  0  0  0  0  0  0  0  0  0  0  0
  146.2499  140.0601  152.2520 N   0  0  0  0  0  0  0  0  0  0  0  0
  147.2806  141.0733  152.4440 C   0  0  2  0  0  0  0  0  0  0  0  0
  148.4290  140.5765  153.3226 C   0  0  1  0  0  0  0  0  0  0  0  0
  149.8707  140.2904  153.0966 C   0  0  0  0  0  0  0  0  0  0  0  0
  150.4288  141.0160  154.3504 C   0  0  0  0  0  0  0  0  0  0  0  0
  149.3241  141.7815  154.8914 O   0  0  0  0  0  0  0  0  0  0  0  0
  148.5006  142.0234  153.7693 C   0  0  2  0  0  0  0  0  0  0  0  0
  146.9672  142.0784  153.6163 C   0  0  0  0  0  0  0  0  0  0  0  0
  146.4057  143.4335  153.1852 C   0  0  0  0  0  0  0  0  0  0  0  0
  146.1099  141.6154  154.8119 C   0  0  0  0  0  0  0  0  0  0  0  0
  143.8968  136.1530  151.1369 C   0  0  0  0  0  0  0  0  0  0  0  0
  143.8189  134.8586  150.7594 N   0  3  0  0  0  0  0  0  0  0  0  0
  142.6025  132.4968  150.4081 H   0  0  0  0  0  0  0  0  0  0  0  0
  143.3611  131.2481  149.4240 H   0  0  0  0  0  0  0  0  0  0  0  0
  143.1295  132.8627  148.7576 H   0  0  0  0  0  0  0  0  0  0  0  0
  146.0967  131.6739  151.3292 H   0  0  0  0  0  0  0  0  0  0  0  0
  146.6114  132.0403  149.6737 H   0  0  0  0  0  0  0  0  0  0  0  0
  145.4426  130.7572  149.9753 H   0  0  0  0  0  0  0  0  0  0  0  0
  147.0792  134.0264  150.6290 H   0  0  0  0  0  0  0  0  0  0  0  0
  147.2960  136.3792  151.3243 H   0  0  0  0  0  0  0  0  0  0  0  0
  144.5024  138.5928  152.0188 H   0  0  0  0  0  0  0  0  0  0  0  0
  145.2924  140.3504  152.3864 H   0  0  0  0  0  0  0  0  0  0  0  0
  147.6215  141.5496  151.5199 H   0  0  0  0  0  0  0  0  0  0  0  0
  148.0502  139.9076  154.0991 H   0  0  0  0  0  0  0  0  0  0  0  0
  150.0969  139.2239  153.0936 H   0  0  0  0  0  0  0  0  0  0  0  0
  150.2353  140.7354  152.1697 H   0  0  0  0  0  0  0  0  0  0  0  0
  150.7866  140.3126  155.1027 H   0  0  0  0  0  0  0  0  0  0  0  0
  151.2548  141.6757  154.0823 H   0  0  0  0  0  0  0  0  0  0  0  0
  149.0069  142.6825  153.0546 H   0  0  0  0  0  0  0  0  0  0  0  0
  146.4803  144.1705  153.9854 H   0  0  0  0  0  0  0  0  0  0  0  0
  145.3560  143.3608  152.8994 H   0  0  0  0  0  0  0  0  0  0  0  0
  146.9434  143.8349  152.3260 H   0  0  0  0  0  0  0  0  0  0  0  0
  146.2114  142.3002  155.6544 H   0  0  0  0  0  0  0  0  0  0  0  0
  146.3698  140.6254  155.1822 H   0  0  0  0  0  0  0  0  0  0  0  0
  145.0517  141.5808  154.5504 H   0  0  0  0  0  0  0  0  0  0  0  0
  142.9432  136.6421  151.2646 H   0  0  0  0  0  0  0  0  0  0  0  0
  142.8915  134.4581  150.6174 H   0  0  0  0  0  0  0  0  0  0  0  0
  1  2  1  0  0  0  0
  1 23  1  0  0  0  0
  1 24  1  0  0  0  0
  1 25  1  0  0  0  0
  2  3  1  0  0  0  0
  2  4  1  0  0  0  0
  3 26  1  0  0  0  0
  3 27  1  0  0  0  0
  3 28  1  0  0  0  0
  4 22  1  0  0  0  0
  4  5  2  0  0  0  0
  5  6  1  0  0  0  0
  5 29  1  0  0  0  0
  6  7  2  0  0  0  0
  6 30  1  0  0  0  0
  7  8  1  0  0  0  0
  7 21  1  0  0  0  0
  8  9  1  0  0  0  0
  8 31  1  0  0  0  0
  9 10  2  0  0  0  0
  9 11  1  0  0  0  0
 11 12  1  0  0  0  0
 11 32  1  0  0  0  0
 12 18  1  0  0  0  0
 12 13  1  0  0  0  0
 12 33  1  0  0  0  0
 13 17  1  0  0  0  0
 13 14  1  0  0  0  0
 13 34  1  0  0  0  0
 14 15  1  0  0  0  0
 14 35  1  0  0  0  0
 14 36  1  0  0  0  0
 15 16  1  0  0  0  0
 15 37  1  0  0  0  0
 15 38  1  0  0  0  0
 16 17  1  0  0  0  0
 17 18  1  0  0  0  0
 17 39  1  0  0  0  0
 18 19  1  0  0  0  0
 18 20  1  0  0  0  0
 19 40  1  0  0  0  0
 19 41  1  0  0  0  0
 19 42  1  0  0  0  0
 20 43  1  0  0  0  0
 20 44  1  0  0  0  0
 20 45  1  0  0  0  0
 21 22  2  0  0  0  0
 21 46  1  0  0  0  0
 22 47  1  0  0  0  0
M  CHG  1  22   1
M  END
> <s_m_source_file>
AV-unprocessed.smi

> <i_m_source_file_index>
2923

> <i_lp_mmshare_version>
43012

> <i_f3d_flags>
0

> <s_epik_input>
W0NIM11OKFtDSDNdKWMxW2NIXVtjSF1jKFtjSF1uMSlbTkhdQyg9TylbTkhdW0NASF0yQyhbQ0gzXSkoW0NIM10pW0NAQEhdKFtDQEhdMjMpT1tDSDJdW0NIMl0z

> <s_epik_cmdline>
J2VwaWtfcHl0aG9uJywgJy1waCcsICc3LjAnLCAnLXRuJywgJzgnLCAnLW1hJywgJzIwMCcsICctbWV0YWxfYmluZGluZycsICctaW1hZScsICc8aW5maWxlLm1hZT4nLCAnLW9tYWUnLCAnPG91dGZpbGUubWFlPic=

> <r_lp_tautomer_probability>
0.999994

> <r_epik_Ionization_Penalty>
0.252205

> <r_epik_Ionization_Penalty_Charging>
0.252185

> <r_epik_Ionization_Penalty_Neutral>
1.99479e-05

> <r_epik_State_Penalty>
0.243573

> <r_epik_Charging_Adjusted_Penalty>
0.495758

> <i_epik_Tot_Q>
1

> <i_epik_Tot_abs_Q>
1

> <r_epik_Metal_State_Penalty>
0.534372

> <b_epik_Metal_Only>
0

> <s_lp_Force_Field>
OPLS_2005

> <r_lp_Energy>
68.0101

> <b_lp_Chiralities_Consistent>
1

> <s_lp_Variant>
AV-unprocessed.smi:2923-7

> <Gold.Version>
5.8.1

> <Gold.Id.Protein>
6NUR|6NUR_protein|mol2

> <Gold.PLP.Fitness>
44.0652

> <Gold.PLP.PLP>
-33.1112

> <Gold.PLP.part.hbond>
-3.9869

> <Gold.PLP.part.metal>
0.0000

> <Gold.PLP.part.buried>
3.6408

> <Gold.PLP.part.nonpolar>
-37.9547

> <Gold.PLP.part.repulsive>
5.1211

> <Gold.PLP.ligand.clash>
0.0000

> <Gold.PLP.ligand.torsion>
0.3494

> <Gold.PLP.Chemscore.Hbond>
3.7947

> <Gold.PLP.Chemscore.CHOScore>
0.0000

> <Gold.PLP.Chemscore.Metal>
0.0000

> <Gold.Chemscore.Hbonds>
donor molecule, donor type, donor heavy atom, donor atom, acceptor molecule, acceptor atom, score
      L1  H     8    31       P1 10175  0.82
      L1  H    11    32       P1 10175  1.00
      L1  H    22    47       P1 10186  1.35
      P1  H  7954  7966       L1    10  1.00

> <Gold.PLP.Chemscore.Internal.Correction>
0.2685

> <Gold.Rescore>
     Score         DG    S(hbond)    S(metal)    S(lipo)     H(rot)  DE(clash)    DE(int)     intcor
     12.72     -20.96       2.12        0.00      93.69       1.00       5.19       3.05       ----

> <Gold.Chemscore.Fitness>
12.7180

> <Gold.Chemscore.DG>
-20.9586

> <Gold.Chemscore.ZeroCoef>
-5.4800

> <Gold.Chemscore.Hbond>
2.1190

> <Gold.Chemscore.Metal>
0.0000

> <Gold.Chemscore.Lipo>
93.6855

> <Gold.Chemscore.Internal_Hbond>
0.0000

> <Gold.Chemscore.DEClash>
5.1945

> <Gold.Chemscore.DEInternal>
3.0460

> <Gold.Chemscore.Rot>
1.0000

> <Gold.Chemscore.Internal.Correction>
   9.000000E+99

> <Gold.Chemscore.Hbonds>
donor molecule, donor type, donor heavy atom, donor atom, acceptor molecule, acceptor atom, score
      L1  H     8    31       P1 10175  0.78
      L1  H    11    32       P1 10175  0.60
      L1  H    22    47       P1 10186  0.29
      P1  H  7954  7966       L1    10  0.93

> <Gold.Chemscore.Hbond.Weighted>
-7.0774

> <Gold.Chemscore.Metal.Weighted>
-0.0000

> <Gold.Chemscore.Lipo.Weighted>
-10.9612

> <Gold.Chemscore.Internal_Hbond.Weighted>
0.0000

> <Gold.Chemscore.DEClash.Weighted>
5.1945

> <Gold.Chemscore.DEInternal.Weighted>
3.0460

> <Gold.Chemscore.Rot.Weighted>
2.5600

> <Gold.Chemscore.Internal.Correction.Weighted>
   9.000000E+99

> <Gold.Protein.RotatedTorsions>
[ 6907 6896 6895 6894 ] final   62.43 input  -60.11 | X-H torsion
[ 7974 7965 7964 7962 ] final   89.34 input  175.53 | X-H torsion
[ 8008 7997 7996 7995 ] final   87.07 input   59.86 | X-H torsion
[ 10167 10162 10161 10158 ] final  174.28 input  -65.29 | X-H torsion
[ 10718 10713 10712 10709 ] final -120.25 input   66.30 | X-H torsion
[ 10763 10752 10751 10750 ] final -113.73 input  -60.55 | X-H torsion
[ 11005 11000 10999 10996 ] final  -53.64 input  -57.11 | X-H torsion

> <Gold.Protein.ActiveResidues>
 VAL166  LYS551  ARG553  GLY616  TRP617  ASP618  TYR619  PRO620  LYS621  CYS622 
 ASP623  PHE694  ASN695  SER759  ASP760  ASP761  ALA762  ILE779  LEU786  VAL792 
 PHE793  MET794  SER795  GLU796  ALA797  LYS798  CYS799  TRP800  GLU811  SER814 

> <Gold.Protein.RotatedAtoms>
  152.4171  134.6021  160.0002 H   0  0  0  0  0  0  0  0  0  0  0  0  # atno 6907 bound_to 6896
  151.6182  133.3335  159.3090 H   0  0  0  0  0  0  0  0  0  0  0  0  # atno 6908 bound_to 6896
  150.8060  134.7224  159.6710 H   0  0  0  0  0  0  0  0  0  0  0  0  # atno 6909 bound_to 6896
  145.5337  139.2284  143.2604 H   0  0  0  0  0  0  0  0  0  0  0  0  # atno 7974 bound_to 7965
  155.9708  140.3386  155.6574 H   0  0  0  0  0  0  0  0  0  0  0  0  # atno 8008 bound_to 7997
  155.6677  140.0723  157.2549 H   0  0  0  0  0  0  0  0  0  0  0  0  # atno 8009 bound_to 7997
  154.4166  140.1697  156.1833 H   0  0  0  0  0  0  0  0  0  0  0  0  # atno 8010 bound_to 7997
  139.5136  144.3165  152.0243 H   0  0  0  0  0  0  0  0  0  0  0  0  # atno 10167 bound_to 10162
  156.1244  130.6348  150.9517 H   0  0  0  0  0  0  0  0  0  0  0  0  # atno 10718 bound_to 10713
  154.8409  135.4443  154.1395 H   0  0  0  0  0  0  0  0  0  0  0  0  # atno 10763 bound_to 10752
  153.2584  135.6933  153.7610 H   0  0  0  0  0  0  0  0  0  0  0  0  # atno 10764 bound_to 10752
  153.6896  135.3389  155.3174 H   0  0  0  0  0  0  0  0  0  0  0  0  # atno 10765 bound_to 10752
  141.0986  133.6621  156.4203 H   0  0  0  0  0  0  0  0  0  0  0  0  # atno 11005 bound_to 11000
  146.2027  140.6154  142.9095 LP  0  0  0  0  0  0  0  0  0  0  0  0  # atno 17320 bound_to 7965
  144.7612  140.5427  143.6734 LP  0  0  0  0  0  0  0  0  0  0  0  0  # atno 17321 bound_to 7965
  140.2608  144.4070  150.6186 LP  0  0  0  0  0  0  0  0  0  0  0  0  # atno 17342 bound_to 10162
  140.6159  143.2172  151.6793 LP  0  0  0  0  0  0  0  0  0  0  0  0  # atno 17343 bound_to 10162
  157.6426  131.0908  150.8220 LP  0  0  0  0  0  0  0  0  0  0  0  0  # atno 17370 bound_to 10713
  156.8312  130.5016  149.5331 LP  0  0  0  0  0  0  0  0  0  0  0  0  # atno 17371 bound_to 10713
  140.5078  134.6424  157.5273 LP  0  0  0  0  0  0  0  0  0  0  0  0  # atno 17394 bound_to 11000
  139.9830  134.7106  155.9824 LP  0  0  0  0  0  0  0  0  0  0  0  0  # atno 17395 bound_to 11000

$$$$
