AV-unprocessed.smi:1731|AV-procd|sdf|6974|dock6
  -GOLD-   22720 8183D 1   1.00000     0.00000
 Structure written by MMmdl.
 41 42  0  0  0  0  0  0  0  0  1 V2000
  152.2325  141.8548  158.8838 C   0  0  0  0  0  0  0  0  0  0  0  0
  151.3178  141.2514  157.8087 C   0  0  2  0  0  0  0  0  0  0  0  0
  151.9867  140.0545  157.1065 C   0  0  0  0  0  0  0  0  0  0  0  0
  151.0744  139.4471  156.0292 C   0  0  0  0  0  0  0  0  0  0  0  0
  150.6360  140.5048  154.9964 C   0  0  1  0  0  0  0  0  0  0  0  0
  149.7059  139.9238  154.0326 N   0  0  0  0  0  0  0  0  0  0  0  0
  148.5420  139.3327  154.3385 C   0  0  0  0  0  0  0  0  0  0  0  0
  148.1280  139.1969  155.4902 O   0  0  0  0  0  0  0  0  0  0  0  0
  147.8978  138.9229  153.2335 N   0  0  0  0  0  0  0  0  0  0  0  0
  146.6385  138.2756  153.1625 C   0  0  0  0  0  0  0  0  0  0  0  0
  145.5650  138.4898  154.0653 C   0  0  0  0  0  0  0  0  0  0  0  0
  144.5164  137.7459  153.7480 N   0  0  0  0  0  0  0  0  0  0  0  0
  144.8972  137.0495  152.6477 N   0  0  0  0  0  0  0  0  0  0  0  0
  143.9688  136.1221  152.0254 C   0  0  0  0  0  0  0  0  0  0  0  0
  144.6507  135.3201  150.9151 C   0  0  0  0  0  0  0  0  0  0  0  0
  145.0575  135.9945  149.8364 N   0  0  0  0  0  0  0  0  0  0  0  0
  144.8124  134.1073  151.0312 O   0  0  0  0  0  0  0  0  0  0  0  0
  146.1883  137.3535  152.2606 C   0  0  0  0  0  0  0  0  0  0  0  0
  149.9729  141.7057  155.6957 C   0  0  0  0  0  0  0  0  0  0  0  0
  150.8900  142.3080  156.7725 C   0  0  0  0  0  0  0  0  0  0  0  0
  153.1597  142.2309  158.4505 H   0  0  0  0  0  0  0  0  0  0  0  0
  152.4943  141.1120  159.6378 H   0  0  0  0  0  0  0  0  0  0  0  0
  151.7433  142.6844  159.3949 H   0  0  0  0  0  0  0  0  0  0  0  0
  150.4189  140.8882  158.3094 H   0  0  0  0  0  0  0  0  0  0  0  0
  152.9250  140.3719  156.6492 H   0  0  0  0  0  0  0  0  0  0  0  0
  152.2446  139.2886  157.8388 H   0  0  0  0  0  0  0  0  0  0  0  0
  151.5949  138.6278  155.5319 H   0  0  0  0  0  0  0  0  0  0  0  0
  150.1961  139.0093  156.5062 H   0  0  0  0  0  0  0  0  0  0  0  0
  151.5186  140.8683  154.4662 H   0  0  0  0  0  0  0  0  0  0  0  0
  149.9637  139.9885  153.0587 H   0  0  0  0  0  0  0  0  0  0  0  0
  148.3479  139.1072  152.3490 H   0  0  0  0  0  0  0  0  0  0  0  0
  145.5123  139.1444  154.9227 H   0  0  0  0  0  0  0  0  0  0  0  0
  143.5725  135.4390  152.7783 H   0  0  0  0  0  0  0  0  0  0  0  0
  143.1234  136.6867  151.6294 H   0  0  0  0  0  0  0  0  0  0  0  0
  145.5105  135.5081  149.0766 H   0  0  0  0  0  0  0  0  0  0  0  0
  144.9075  136.9918  149.7844 H   0  0  0  0  0  0  0  0  0  0  0  0
  146.6520  136.8927  151.4010 H   0  0  0  0  0  0  0  0  0  0  0  0
  149.7189  142.4714  154.9617 H   0  0  0  0  0  0  0  0  0  0  0  0
  149.0334  141.3952  156.1555 H   0  0  0  0  0  0  0  0  0  0  0  0
  150.3763  143.1314  157.2697 H   0  0  0  0  0  0  0  0  0  0  0  0
  151.7733  142.7379  156.2975 H   0  0  0  0  0  0  0  0  0  0  0  0
  1  2  1  0  0  0  0
  1 21  1  0  0  0  0
  1 22  1  0  0  0  0
  1 23  1  0  0  0  0
  2 20  1  0  0  0  0
  2  3  1  0  0  0  0
  2 24  1  0  0  0  0
  3  4  1  0  0  0  0
  3 25  1  0  0  0  0
  3 26  1  0  0  0  0
  4  5  1  0  0  0  0
  4 27  1  0  0  0  0
  4 28  1  0  0  0  0
  5  6  1  0  0  0  0
  5 19  1  0  0  0  0
  5 29  1  0  0  0  0
  6  7  1  0  0  0  0
  6 30  1  0  0  0  0
  7  8  2  0  0  0  0
  7  9  1  0  0  0  0
  9 10  1  0  0  0  0
  9 31  1  0  0  0  0
 10 18  2  0  0  0  0
 10 11  1  0  0  0  0
 11 12  2  0  0  0  0
 11 32  1  0  0  0  0
 12 13  1  0  0  0  0
 13 14  1  0  0  0  0
 13 18  1  0  0  0  0
 14 15  1  0  0  0  0
 14 33  1  0  0  0  0
 14 34  1  0  0  0  0
 15 16  1  0  0  0  0
 15 17  2  0  0  0  0
 16 35  1  0  0  0  0
 16 36  1  0  0  0  0
 18 37  1  0  0  0  0
 19 20  1  0  0  0  0
 19 38  1  0  0  0  0
 19 39  1  0  0  0  0
 20 40  1  0  0  0  0
 20 41  1  0  0  0  0
M  END
> <s_m_source_file>
AV-unprocessed.smi

> <i_m_source_file_index>
1731

> <i_lp_mmshare_version>
43012

> <i_f3d_flags>
0

> <s_epik_input>
W0NIM11bQ0BASF0xW0NIMl1bQ0gyXVtDQEhdKFtDSDJdW0NIMl0xKVtOSF1DKD1PKVtOSF1jMltjSF1ubihbY0hdMilbQ0gyXUMoPU8pW05IMl0=

> <s_epik_cmdline>
J2VwaWtfcHl0aG9uJywgJy1waCcsICc3LjAnLCAnLXRuJywgJzgnLCAnLW1hJywgJzIwMCcsICctbWV0YWxfYmluZGluZycsICctaW1hZScsICc8aW5maWxlLm1hZT4nLCAnLW9tYWUnLCAnPG91dGZpbGUubWFlPic=

> <r_lp_tautomer_probability>
1

> <r_epik_Ionization_Penalty>
4.81284e-05

> <r_epik_Ionization_Penalty_Charging>
0

> <r_epik_Ionization_Penalty_Neutral>
4.81284e-05

> <r_epik_State_Penalty>
-0

> <r_epik_Charging_Adjusted_Penalty>
0

> <i_epik_Tot_Q>
0

> <i_epik_Tot_abs_Q>
0

> <r_epik_Metal_State_Penalty>
-0

> <b_epik_Metal_Only>
0

> <s_lp_Force_Field>
OPLS_2005

> <r_lp_Energy>
12.4361

> <b_lp_Chiralities_Consistent>
1

> <s_lp_Variant>
AV-unprocessed.smi:1731-1

> <Gold.Version>
5.8.1

> <Gold.Id.Protein>
6NUR|6NUR_protein|mol2

> <Gold.PLP.Fitness>
43.4160

> <Gold.PLP.PLP>
-30.2772

> <Gold.PLP.part.hbond>
-4.5085

> <Gold.PLP.part.metal>
0.0000

> <Gold.PLP.part.buried>
-1.0012

> <Gold.PLP.part.nonpolar>
-26.0748

> <Gold.PLP.part.repulsive>
1.2125

> <Gold.PLP.ligand.clash>
0.0000

> <Gold.PLP.ligand.torsion>
0.3133

> <Gold.PLP.Chemscore.Hbond>
4.0000

> <Gold.PLP.Chemscore.CHOScore>
0.5869

> <Gold.PLP.Chemscore.Metal>
0.0000

> <Gold.Chemscore.Hbonds>
donor molecule, donor type, donor heavy atom, donor atom, acceptor molecule, acceptor atom, score
      L1  H     6    30       P1  7957  1.00
      L1  H     9    31       P1  7957  1.00
      L1  H    16    35       P1  7921  1.00
      L1  H    16    36       P1 10171  1.00
      L1  C    18    37       P1  7948  0.66

> <Gold.PLP.Chemscore.Internal.Correction>
0.0045

> <Gold.Rescore>
     Score         DG    S(hbond)    S(metal)    S(lipo)     H(rot)  DE(clash)    DE(int)     intcor
     17.36     -22.03       3.95        0.00      70.24       1.90       1.85       2.81       ----

> <Gold.Chemscore.Fitness>
17.3645

> <Gold.Chemscore.DG>
-22.0282

> <Gold.Chemscore.ZeroCoef>
-5.4800

> <Gold.Chemscore.Hbond>
3.9525

> <Gold.Chemscore.Metal>
0.0000

> <Gold.Chemscore.Lipo>
70.2419

> <Gold.Chemscore.Internal_Hbond>
0.0000

> <Gold.Chemscore.DEClash>
1.8498

> <Gold.Chemscore.DEInternal>
2.8138

> <Gold.Chemscore.Rot>
1.9029

> <Gold.Chemscore.Internal.Correction>
   9.000000E+99

> <Gold.Chemscore.Hbonds>
donor molecule, donor type, donor heavy atom, donor atom, acceptor molecule, acceptor atom, score
      L1  H     6    30       P1  7957  0.98
      L1  H     9    31       P1  7957  0.97
      L1  H    16    35       P1  7921  1.00
      L1  H    16    36       P1 10171  0.98

> <Gold.Chemscore.Hbond.Weighted>
-13.2013

> <Gold.Chemscore.Metal.Weighted>
-0.0000

> <Gold.Chemscore.Lipo.Weighted>
-8.2183

> <Gold.Chemscore.Internal_Hbond.Weighted>
0.0000

> <Gold.Chemscore.DEClash.Weighted>
1.8498

> <Gold.Chemscore.DEInternal.Weighted>
2.8138

> <Gold.Chemscore.Rot.Weighted>
4.8714

> <Gold.Chemscore.Internal.Correction.Weighted>
   9.000000E+99

> <Gold.Protein.RotatedTorsions>
[ 6907 6896 6895 6894 ] final  -90.24 input  -60.11 | X-H torsion
[ 7974 7965 7964 7962 ] final  -75.77 input  175.53 | X-H torsion
[ 8008 7997 7996 7995 ] final  143.92 input   59.86 | X-H torsion
[ 10167 10162 10161 10158 ] final  -88.86 input  -65.29 | X-H torsion
[ 10718 10713 10712 10709 ] final -176.18 input   66.30 | X-H torsion
[ 10763 10752 10751 10750 ] final    6.95 input  -60.55 | X-H torsion
[ 11005 11000 10999 10996 ] final  111.56 input  -57.11 | X-H torsion

> <Gold.Protein.ActiveResidues>
 VAL166  LYS551  ARG553  GLY616  TRP617  ASP618  TYR619  PRO620  LYS621  CYS622 
 ASP623  PHE694  ASN695  SER759  ASP760  ASP761  ALA762  ILE779  LEU786  VAL792 
 PHE793  MET794  SER795  GLU796  ALA797  LYS798  CYS799  TRP800  GLU811  SER814 

> <Gold.Protein.RotatedAtoms>
  150.6880  134.2462  159.4492 H   0  0  0  0  0  0  0  0  0  0  0  0  # atno 6907 bound_to 6896
  152.0403  134.9713  160.0583 H   0  0  0  0  0  0  0  0  0  0  0  0  # atno 6908 bound_to 6896
  152.1217  133.4322  159.4716 H   0  0  0  0  0  0  0  0  0  0  0  0  # atno 6909 bound_to 6896
  145.6217  140.9361  143.1135 H   0  0  0  0  0  0  0  0  0  0  0  0  # atno 7974 bound_to 7965
  156.2920  140.2249  156.4969 H   0  0  0  0  0  0  0  0  0  0  0  0  # atno 8008 bound_to 7997
  154.7723  140.0466  157.1082 H   0  0  0  0  0  0  0  0  0  0  0  0  # atno 8009 bound_to 7997
  154.9859  140.3084  155.4930 H   0  0  0  0  0  0  0  0  0  0  0  0  # atno 8010 bound_to 7997
  140.3706  143.2796  151.9505 H   0  0  0  0  0  0  0  0  0  0  0  0  # atno 10167 bound_to 10162
  156.8109  130.9585  151.3116 H   0  0  0  0  0  0  0  0  0  0  0  0  # atno 10718 bound_to 10713
  153.2418  135.6904  153.7775 H   0  0  0  0  0  0  0  0  0  0  0  0  # atno 10763 bound_to 10752
  153.6902  135.3314  155.3201 H   0  0  0  0  0  0  0  0  0  0  0  0  # atno 10764 bound_to 10752
  154.8358  135.4543  154.1343 H   0  0  0  0  0  0  0  0  0  0  0  0  # atno 10765 bound_to 10752
  139.8906  134.9510  156.6451 H   0  0  0  0  0  0  0  0  0  0  0  0  # atno 11005 bound_to 11000
  144.7228  139.7972  143.7375 LP  0  0  0  0  0  0  0  0  0  0  0  0  # atno 17320 bound_to 7965
  146.1426  139.4487  143.0099 LP  0  0  0  0  0  0  0  0  0  0  0  0  # atno 17321 bound_to 7965
  139.4804  144.5910  151.7771 LP  0  0  0  0  0  0  0  0  0  0  0  0  # atno 17342 bound_to 10162
  140.5037  144.1130  150.5977 LP  0  0  0  0  0  0  0  0  0  0  0  0  # atno 17343 bound_to 10162
  157.6506  130.8881  149.9626 LP  0  0  0  0  0  0  0  0  0  0  0  0  # atno 17370 bound_to 10713
  156.1045  130.3653  150.0158 LP  0  0  0  0  0  0  0  0  0  0  0  0  # atno 17371 bound_to 10713
  140.7564  133.8854  155.8385 LP  0  0  0  0  0  0  0  0  0  0  0  0  # atno 17394 bound_to 11000
  140.9958  134.1216  157.4364 LP  0  0  0  0  0  0  0  0  0  0  0  0  # atno 17395 bound_to 11000

$$$$
