AV-unprocessed.smi:479|AV-procd|sdf|2674|dock5
  -GOLD-   2262023 93D 1   1.00000     0.00000
 Structure written by MMmdl.
 46 48  0  0  0  0  0  0  0  0  2 V2000
  143.5921  140.8689  157.8388 C   0  0  0  0  0  0  0  0  0  0  0  0
  143.0475  139.9356  156.9179 O   0  0  0  0  0  0  0  0  0  0  0  0
  142.1478  140.3876  155.9743 C   0  0  0  0  0  0  0  0  0  0  0  0
  141.7612  141.7462  155.8461 C   0  0  0  0  0  0  0  0  0  0  0  0
  140.8301  142.1487  154.8611 C   0  0  0  0  0  0  0  0  0  0  0  0
  140.4104  143.5714  154.7065 C   0  0  0  0  0  0  0  0  0  0  0  0
  141.1152  144.6229  155.5621 C   0  0  0  0  0  0  0  0  0  0  0  0
  139.5310  143.9382  153.9276 O   0  0  0  0  0  0  0  0  0  0  0  0
  140.2843  141.1715  154.0028 C   0  0  0  0  0  0  0  0  0  0  0  0
  140.6622  139.8228  154.1209 C   0  0  0  0  0  0  0  0  0  0  0  0
  141.6002  139.4202  155.1024 C   0  0  0  0  0  0  0  0  0  0  0  0
  142.0272  138.1179  155.2640 O   0  0  0  0  0  0  0  0  0  0  0  0
  141.6716  137.1576  154.2768 C   0  0  0  0  0  0  0  0  0  0  0  0
  142.8510  136.9280  153.3133 C   0  0  2  0  0  0  0  0  0  0  0  0
  142.9430  138.0071  152.4079 O   0  0  0  0  0  0  0  0  0  0  0  0
  142.8258  135.5895  152.5466 C   0  0  0  0  0  0  0  0  0  0  0  0
  144.1446  135.2228  152.0068 N   0  0  0  0  0  0  0  0  0  0  0  0
  145.3055  135.9330  152.0164 C   0  0  0  0  0  0  0  0  0  0  0  0
  146.2610  135.1713  151.4168 N   0  3  0  0  0  0  0  0  0  0  0  0
  145.7025  133.9588  151.0083 C   0  0  0  0  0  0  0  0  0  0  0  0
  146.2753  132.8674  150.3624 C   0  0  0  0  0  0  0  0  0  0  0  0
  145.4248  131.7769  150.0860 C   0  0  0  0  0  0  0  0  0  0  0  0
  144.0618  131.8011  150.4440 C   0  0  0  0  0  0  0  0  0  0  0  0
  143.4917  132.9155  151.0928 C   0  0  0  0  0  0  0  0  0  0  0  0
  144.3392  133.9875  151.3735 C   0  0  0  0  0  0  0  0  0  0  0  0
  144.2867  140.3535  158.5020 H   0  0  0  0  0  0  0  0  0  0  0  0
  142.8158  141.3177  158.4597 H   0  0  0  0  0  0  0  0  0  0  0  0
  144.1481  141.6553  157.3266 H   0  0  0  0  0  0  0  0  0  0  0  0
  142.1798  142.4871  156.5082 H   0  0  0  0  0  0  0  0  0  0  0  0
  140.9665  144.4158  156.6220 H   0  0  0  0  0  0  0  0  0  0  0  0
  140.7173  145.6156  155.3502 H   0  0  0  0  0  0  0  0  0  0  0  0
  142.1845  144.6333  155.3513 H   0  0  0  0  0  0  0  0  0  0  0  0
  139.5674  141.4453  153.2419 H   0  0  0  0  0  0  0  0  0  0  0  0
  140.2134  139.1147  153.4413 H   0  0  0  0  0  0  0  0  0  0  0  0
  141.3669  136.2189  154.7422 H   0  0  0  0  0  0  0  0  0  0  0  0
  140.8236  137.5285  153.6990 H   0  0  0  0  0  0  0  0  0  0  0  0
  143.7653  136.9598  153.9071 H   0  0  0  0  0  0  0  0  0  0  0  0
  143.3246  138.7463  152.8566 H   0  0  0  0  0  0  0  0  0  0  0  0
  142.4501  134.7892  153.1821 H   0  0  0  0  0  0  0  0  0  0  0  0
  142.1376  135.6549  151.7029 H   0  0  0  0  0  0  0  0  0  0  0  0
  145.4458  136.9189  152.4357 H   0  0  0  0  0  0  0  0  0  0  0  0
  147.3193  132.8474  150.0855 H   0  0  0  0  0  0  0  0  0  0  0  0
  145.8252  130.9054  149.5888 H   0  0  0  0  0  0  0  0  0  0  0  0
  143.4392  130.9477  150.2178 H   0  0  0  0  0  0  0  0  0  0  0  0
  142.4463  132.9145  151.3614 H   0  0  0  0  0  0  0  0  0  0  0  0
  147.2234  135.4602  151.2960 H   0  0  0  0  0  0  0  0  0  0  0  0
  1  2  1  0  0  0  0
  1 26  1  0  0  0  0
  1 27  1  0  0  0  0
  1 28  1  0  0  0  0
  2  3  1  0  0  0  0
  3 11  1  0  0  0  0
  3  4  2  0  0  0  0
  4  5  1  0  0  0  0
  4 29  1  0  0  0  0
  5  6  1  0  0  0  0
  5  9  2  0  0  0  0
  6  7  1  0  0  0  0
  6  8  2  0  0  0  0
  7 30  1  0  0  0  0
  7 31  1  0  0  0  0
  7 32  1  0  0  0  0
  9 10  1  0  0  0  0
  9 33  1  0  0  0  0
 10 11  2  0  0  0  0
 10 34  1  0  0  0  0
 11 12  1  0  0  0  0
 12 13  1  0  0  0  0
 13 14  1  0  0  0  0
 13 35  1  0  0  0  0
 13 36  1  0  0  0  0
 14 15  1  0  0  0  0
 14 16  1  0  0  0  0
 14 37  1  0  0  0  0
 15 38  1  0  0  0  0
 16 17  1  0  0  0  0
 16 39  1  0  0  0  0
 16 40  1  0  0  0  0
 17 25  1  0  0  0  0
 17 18  1  0  0  0  0
 18 19  2  0  0  0  0
 18 41  1  0  0  0  0
 19 20  1  0  0  0  0
 19 46  1  0  0  0  0
 20 25  2  0  0  0  0
 20 21  1  0  0  0  0
 21 22  2  0  0  0  0
 21 42  1  0  0  0  0
 22 23  1  0  0  0  0
 22 43  1  0  0  0  0
 23 24  2  0  0  0  0
 23 44  1  0  0  0  0
 24 25  1  0  0  0  0
 24 45  1  0  0  0  0
M  CHG  1  19   1
M  END
> <s_m_source_file>
AV-unprocessed.smi

> <i_m_source_file_index>
479

> <i_lp_mmshare_version>
43012

> <i_f3d_flags>
0

> <s_epik_input>
W0NIM11PYzFbY0hdYyhDKD1PKVtDSDNdKVtjSF1bY0hdYzFPW0NIMl1bQ0BIXShbT0hdKVtDSDJdbihbY0hdbjIpYyhjMjMpW2NIXVtjSF1bY0hdW2NIXTM=

> <s_epik_cmdline>
J2VwaWtfcHl0aG9uJywgJy1waCcsICc3LjAnLCAnLXRuJywgJzgnLCAnLW1hJywgJzIwMCcsICctbWV0YWxfYmluZGluZycsICctaW1hZScsICc8aW5maWxlLm1hZT4nLCAnLW9tYWUnLCAnPG91dGZpbGUubWFlPic=

> <r_lp_tautomer_probability>
0.99995

> <r_epik_Ionization_Penalty>
1.37698

> <r_epik_Ionization_Penalty_Charging>
1.37698

> <r_epik_Ionization_Penalty_Neutral>
2.3993e-06

> <r_epik_State_Penalty>
1.45717

> <r_epik_Charging_Adjusted_Penalty>
2.83415

> <i_epik_Tot_Q>
1

> <i_epik_Tot_abs_Q>
1

> <r_epik_Metal_State_Penalty>
5.49703

> <b_epik_Metal_Only>
0

> <s_lp_Force_Field>
OPLS_2005

> <r_lp_Energy>
30.5916

> <b_lp_Chiralities_Consistent>
1

> <s_lp_Variant>
AV-unprocessed.smi:479-3

> <Gold.Version>
5.8.1

> <Gold.Id.Protein>
6NUR|6NUR_protein|mol2

> <Gold.PLP.Fitness>
47.2565

> <Gold.PLP.PLP>
-37.2766

> <Gold.PLP.part.hbond>
-3.9650

> <Gold.PLP.part.metal>
0.0000

> <Gold.PLP.part.buried>
-7.3896

> <Gold.PLP.part.nonpolar>
-27.3215

> <Gold.PLP.part.repulsive>
0.2353

> <Gold.PLP.ligand.clash>
0.0000

> <Gold.PLP.ligand.torsion>
0.7289

> <Gold.PLP.Chemscore.Hbond>
3.7680

> <Gold.PLP.Chemscore.CHOScore>
0.0000

> <Gold.PLP.Chemscore.Metal>
0.0000

> <Gold.Chemscore.Hbonds>
donor molecule, donor type, donor heavy atom, donor atom, acceptor molecule, acceptor atom, score
      L1  H    15    38       P1 10175  0.70
      L1  H    19    46       P1  7948  2.00
      P1  H 10162 10167       L1     8  1.00

> <Gold.PLP.Chemscore.Internal.Correction>
0.1336

> <Gold.Rescore>
     Score         DG    S(hbond)    S(metal)    S(lipo)     H(rot)  DE(clash)    DE(int)     intcor
     16.55     -17.43       2.83        0.00      81.48       2.75       0.07       0.81       ----

> <Gold.Chemscore.Fitness>
16.5532

> <Gold.Chemscore.DG>
-17.4340

> <Gold.Chemscore.ZeroCoef>
-5.4800

> <Gold.Chemscore.Hbond>
2.8317

> <Gold.Chemscore.Metal>
0.0000

> <Gold.Chemscore.Lipo>
81.4796

> <Gold.Chemscore.Internal_Hbond>
0.0000

> <Gold.Chemscore.DEClash>
0.0739

> <Gold.Chemscore.DEInternal>
0.8070

> <Gold.Chemscore.Rot>
2.7487

> <Gold.Chemscore.Internal.Correction>
   9.000000E+99

> <Gold.Chemscore.Hbonds>
donor molecule, donor type, donor heavy atom, donor atom, acceptor molecule, acceptor atom, score
      L1  H    15    38       P1 10175  0.70
      L1  H    19    46       P1  7948  0.89
      P1  H 10162 10167       L1     8  0.99

> <Gold.Chemscore.Hbond.Weighted>
-9.4577

> <Gold.Chemscore.Metal.Weighted>
-0.0000

> <Gold.Chemscore.Lipo.Weighted>
-9.5331

> <Gold.Chemscore.Internal_Hbond.Weighted>
0.0000

> <Gold.Chemscore.DEClash.Weighted>
0.0739

> <Gold.Chemscore.DEInternal.Weighted>
0.8070

> <Gold.Chemscore.Rot.Weighted>
7.0368

> <Gold.Chemscore.Internal.Correction.Weighted>
   9.000000E+99

> <Gold.Protein.RotatedTorsions>
[ 6907 6896 6895 6894 ] final  168.44 input  -60.11 | X-H torsion
[ 7974 7965 7964 7962 ] final   43.87 input  175.53 | X-H torsion
[ 8008 7997 7996 7995 ] final -177.11 input   59.86 | X-H torsion
[ 10167 10162 10161 10158 ] final -154.72 input  -65.29 | X-H torsion
[ 10718 10713 10712 10709 ] final  140.66 input   66.30 | X-H torsion
[ 10763 10752 10751 10750 ] final   90.81 input  -60.55 | X-H torsion
[ 11005 11000 10999 10996 ] final -152.81 input  -57.11 | X-H torsion

> <Gold.Protein.ActiveResidues>
 VAL166  LYS551  ARG553  GLY616  TRP617  ASP618  TYR619  PRO620  LYS621  CYS622 
 ASP623  PHE694  ASN695  SER759  ASP760  ASP761  ALA762  ILE779  LEU786  VAL792 
 PHE793  MET794  SER795  GLU796  ALA797  LYS798  CYS799  TRP800  GLU811  SER814 

> <Gold.Protein.RotatedAtoms>
  151.8476  133.3434  159.3662 H   0  0  0  0  0  0  0  0  0  0  0  0  # atno 6907 bound_to 6896
  150.7216  134.5330  159.5719 H   0  0  0  0  0  0  0  0  0  0  0  0  # atno 6908 bound_to 6896
  152.2817  134.7822  160.0446 H   0  0  0  0  0  0  0  0  0  0  0  0  # atno 6909 bound_to 6896
  146.0618  139.5138  142.9653 H   0  0  0  0  0  0  0  0  0  0  0  0  # atno 7974 bound_to 7965
  156.0030  140.1224  157.0529 H   0  0  0  0  0  0  0  0  0  0  0  0  # atno 8008 bound_to 7997
  154.4249  140.1103  156.5792 H   0  0  0  0  0  0  0  0  0  0  0  0  # atno 8009 bound_to 7997
  155.6186  140.3472  155.4647 H   0  0  0  0  0  0  0  0  0  0  0  0  # atno 8010 bound_to 7997
  139.6990  143.9294  152.2420 H   0  0  0  0  0  0  0  0  0  0  0  0  # atno 10167 bound_to 10162
  157.4008  131.1016  151.0554 H   0  0  0  0  0  0  0  0  0  0  0  0  # atno 10718 bound_to 10713
  153.2015  135.4420  155.0272 H   0  0  0  0  0  0  0  0  0  0  0  0  # atno 10763 bound_to 10752
  154.8149  135.3311  154.7205 H   0  0  0  0  0  0  0  0  0  0  0  0  # atno 10764 bound_to 10752
  153.7650  135.6989  153.4973 H   0  0  0  0  0  0  0  0  0  0  0  0  # atno 10765 bound_to 10752
  140.7149  134.3792  157.5192 H   0  0  0  0  0  0  0  0  0  0  0  0  # atno 11005 bound_to 11000
  145.6547  141.0255  143.1741 LP  0  0  0  0  0  0  0  0  0  0  0  0  # atno 17320 bound_to 7965
  144.7179  139.8131  143.7392 LP  0  0  0  0  0  0  0  0  0  0  0  0  # atno 17321 bound_to 7965
  139.9131  144.6844  150.8541 LP  0  0  0  0  0  0  0  0  0  0  0  0  # atno 17342 bound_to 10162
  140.7704  143.3429  151.2172 LP  0  0  0  0  0  0  0  0  0  0  0  0  # atno 17343 bound_to 10162
  157.1553  130.6202  149.5594 LP  0  0  0  0  0  0  0  0  0  0  0  0  # atno 17370 bound_to 10713
  155.9823  130.4835  150.6872 LP  0  0  0  0  0  0  0  0  0  0  0  0  # atno 17371 bound_to 10713
  139.8862  134.8915  156.2596 LP  0  0  0  0  0  0  0  0  0  0  0  0  # atno 17394 bound_to 11000
  141.0053  133.7127  156.1025 LP  0  0  0  0  0  0  0  0  0  0  0  0  # atno 17395 bound_to 11000

$$$$
