AV-unprocessed.smi:1396|AV-procd|sdf|5674|dock6
  -GOLD-   22720 5293D 1   1.00000     0.00000
 Structure written by MMmdl.
 46 47  0  0  0  0  0  0  0  0  1 V2000
  147.0197  129.0391  152.7282 C   0  0  0  0  0  0  0  0  0  0  0  0
  147.2136  130.3589  152.1480 N   0  0  0  0  0  0  0  0  0  0  0  0
  146.4183  131.4121  152.3856 C   0  0  0  0  0  0  0  0  0  0  0  0
  145.4419  131.3678  153.1334 O   0  0  0  0  0  0  0  0  0  0  0  0
  146.7818  132.7209  151.6739 C   0  0  0  0  0  0  0  0  0  0  0  0
  145.7959  133.8140  151.8415 N   0  0  0  0  0  0  0  0  0  0  0  0
  146.0216  134.8297  150.8074 C   0  0  0  0  0  0  0  0  0  0  0  0
  144.9342  135.9164  150.8680 C   0  0  0  0  0  0  0  0  0  0  0  0
  144.9020  136.5887  152.2473 C   0  0  0  0  0  0  0  0  0  0  0  0
  143.7916  137.5336  152.3147 N   0  0  0  0  0  0  0  0  0  0  0  0
  142.4961  137.2095  152.1988 C   0  0  0  0  0  0  0  0  0  0  0  0
  142.0966  136.0558  152.0433 O   0  0  0  0  0  0  0  0  0  0  0  0
  141.7125  138.2973  152.2926 N   0  0  0  0  0  0  0  0  0  0  0  0
  140.3024  138.3861  152.1411 C   0  0  0  0  0  0  0  0  0  0  0  0
  139.5591  137.1889  152.1514 C   0  0  0  0  0  0  0  0  0  0  0  0
  138.1581  137.2486  152.0297 C   0  0  0  0  0  0  0  0  0  0  0  0
  137.5404  138.5092  151.9096 C   0  0  0  0  0  0  0  0  0  0  0  0
  136.1664  138.5633  151.7938 O   0  0  0  0  0  0  0  0  0  0  0  0
  135.4523  137.3405  151.6468 C   0  0  0  0  0  0  0  0  0  0  0  0
  138.2449  139.6677  151.9101 N   0  0  0  0  0  0  0  0  0  0  0  0
  139.5884  139.6039  152.0254 C   0  0  0  0  0  0  0  0  0  0  0  0
  144.7668  135.5021  153.3270 C   0  0  0  0  0  0  0  0  0  0  0  0
  145.8566  134.4267  153.1768 C   0  0  0  0  0  0  0  0  0  0  0  0
  147.8099  128.3663  152.3952 H   0  0  0  0  0  0  0  0  0  0  0  0
  146.0614  128.6182  152.4210 H   0  0  0  0  0  0  0  0  0  0  0  0
  147.0475  129.0847  153.8176 H   0  0  0  0  0  0  0  0  0  0  0  0
  147.9939  130.4804  151.5184 H   0  0  0  0  0  0  0  0  0  0  0  0
  147.7615  133.0532  152.0226 H   0  0  0  0  0  0  0  0  0  0  0  0
  146.8932  132.4913  150.6132 H   0  0  0  0  0  0  0  0  0  0  0  0
  147.0102  135.2779  150.9228 H   0  0  0  0  0  0  0  0  0  0  0  0
  145.9989  134.3649  149.8209 H   0  0  0  0  0  0  0  0  0  0  0  0
  145.1151  136.6625  150.0934 H   0  0  0  0  0  0  0  0  0  0  0  0
  143.9635  135.4693  150.6468 H   0  0  0  0  0  0  0  0  0  0  0  0
  145.8415  137.1253  152.3926 H   0  0  0  0  0  0  0  0  0  0  0  0
  144.0302  138.5056  152.4464 H   0  0  0  0  0  0  0  0  0  0  0  0
  142.1785  139.1628  152.5219 H   0  0  0  0  0  0  0  0  0  0  0  0
  140.0539  136.2336  152.2500 H   0  0  0  0  0  0  0  0  0  0  0  0
  137.5677  136.3443  152.0314 H   0  0  0  0  0  0  0  0  0  0  0  0
  134.3865  137.5529  151.5630 H   0  0  0  0  0  0  0  0  0  0  0  0
  135.5932  136.6898  152.5112 H   0  0  0  0  0  0  0  0  0  0  0  0
  135.7549  136.8075  150.7443 H   0  0  0  0  0  0  0  0  0  0  0  0
  140.0824  140.5625  152.0471 H   0  0  0  0  0  0  0  0  0  0  0  0
  144.8299  135.9474  154.3205 H   0  0  0  0  0  0  0  0  0  0  0  0
  143.7842  135.0318  153.2621 H   0  0  0  0  0  0  0  0  0  0  0  0
  145.7018  133.6818  153.9570 H   0  0  0  0  0  0  0  0  0  0  0  0
  146.8432  134.8613  153.3472 H   0  0  0  0  0  0  0  0  0  0  0  0
  1  2  1  0  0  0  0
  1 24  1  0  0  0  0
  1 25  1  0  0  0  0
  1 26  1  0  0  0  0
  2  3  1  0  0  0  0
  2 27  1  0  0  0  0
  3  4  2  0  0  0  0
  3  5  1  0  0  0  0
  5  6  1  0  0  0  0
  5 28  1  0  0  0  0
  5 29  1  0  0  0  0
  6 23  1  0  0  0  0
  6  7  1  0  0  0  0
  7  8  1  0  0  0  0
  7 30  1  0  0  0  0
  7 31  1  0  0  0  0
  8  9  1  0  0  0  0
  8 32  1  0  0  0  0
  8 33  1  0  0  0  0
  9 10  1  0  0  0  0
  9 22  1  0  0  0  0
  9 34  1  0  0  0  0
 10 11  1  0  0  0  0
 10 35  1  0  0  0  0
 11 12  2  0  0  0  0
 11 13  1  0  0  0  0
 13 14  1  0  0  0  0
 13 36  1  0  0  0  0
 14 21  1  0  0  0  0
 14 15  2  0  0  0  0
 15 16  1  0  0  0  0
 15 37  1  0  0  0  0
 16 17  2  0  0  0  0
 16 38  1  0  0  0  0
 17 18  1  0  0  0  0
 17 20  1  0  0  0  0
 18 19  1  0  0  0  0
 19 39  1  0  0  0  0
 19 40  1  0  0  0  0
 19 41  1  0  0  0  0
 20 21  2  0  0  0  0
 21 42  1  0  0  0  0
 22 23  1  0  0  0  0
 22 43  1  0  0  0  0
 22 44  1  0  0  0  0
 23 45  1  0  0  0  0
 23 46  1  0  0  0  0
M  END
> <s_m_source_file>
AV-unprocessed.smi

> <i_m_source_file_index>
1396

> <i_lp_mmshare_version>
43012

> <i_f3d_flags>
0

> <s_epik_input>
W0NIM11bTkhdQyg9TylbQ0gyXU4xW0NIMl1bQ0gyXVtDSF0oW0NIMl1bQ0gyXTEpW05IXUMoPU8pW05IXWMyW2NIXVtjSF1jKE9bQ0gzXSluW2NIXTI=

> <s_epik_cmdline>
J2VwaWtfcHl0aG9uJywgJy1waCcsICc3LjAnLCAnLXRuJywgJzgnLCAnLW1hJywgJzIwMCcsICctbWV0YWxfYmluZGluZycsICctaW1hZScsICc8aW5maWxlLm1hZT4nLCAnLW9tYWUnLCAnPG91dGZpbGUubWFlPic=

> <r_lp_tautomer_probability>
1

> <r_epik_Ionization_Penalty>
0.16483

> <r_epik_Ionization_Penalty_Charging>
0

> <r_epik_Ionization_Penalty_Neutral>
0.16483

> <r_epik_State_Penalty>
0.154069

> <r_epik_Charging_Adjusted_Penalty>
0.154069

> <i_epik_Tot_Q>
0

> <i_epik_Tot_abs_Q>
0

> <r_epik_Metal_State_Penalty>
0.158584

> <b_epik_Metal_Only>
0

> <s_lp_Force_Field>
OPLS_2005

> <r_lp_Energy>
15.765

> <b_lp_Chiralities_Consistent>
1

> <s_lp_Variant>
AV-unprocessed.smi:1396-1

> <Gold.Version>
5.8.1

> <Gold.Id.Protein>
6NUR|6NUR_protein|mol2

> <Gold.PLP.Fitness>
44.9415

> <Gold.PLP.PLP>
-35.2427

> <Gold.PLP.part.hbond>
-4.0000

> <Gold.PLP.part.metal>
0.0000

> <Gold.PLP.part.buried>
-3.9276

> <Gold.PLP.part.nonpolar>
-27.8500

> <Gold.PLP.part.repulsive>
0.6081

> <Gold.PLP.ligand.clash>
0.5686

> <Gold.PLP.ligand.torsion>
0.2628

> <Gold.PLP.Chemscore.Hbond>
3.0000

> <Gold.PLP.Chemscore.CHOScore>
0.5883

> <Gold.PLP.Chemscore.Metal>
0.0000

> <Gold.Chemscore.Hbonds>
donor molecule, donor type, donor heavy atom, donor atom, acceptor molecule, acceptor atom, score
      L1  H     2    27       P1 10747  1.00
      L1  H    10    35       P1 10175  1.00
      L1  H    13    36       P1 10175  1.00

> <Gold.PLP.Chemscore.Internal.Correction>
0.0282

> <Gold.Rescore>
     Score         DG    S(hbond)    S(metal)    S(lipo)     H(rot)  DE(clash)    DE(int)     intcor
     14.63     -17.73       2.94        0.00      63.78       1.96       0.05       3.05       ----

> <Gold.Chemscore.Fitness>
14.6308

> <Gold.Chemscore.DG>
-17.7269

> <Gold.Chemscore.ZeroCoef>
-5.4800

> <Gold.Chemscore.Hbond>
2.9382

> <Gold.Chemscore.Metal>
0.0000

> <Gold.Chemscore.Lipo>
63.7789

> <Gold.Chemscore.Internal_Hbond>
0.0000

> <Gold.Chemscore.DEClash>
0.0456

> <Gold.Chemscore.DEInternal>
3.0505

> <Gold.Chemscore.Rot>
1.9645

> <Gold.Chemscore.Internal.Correction>
   9.000000E+99

> <Gold.Chemscore.Hbonds>
donor molecule, donor type, donor heavy atom, donor atom, acceptor molecule, acceptor atom, score
      L1  H     2    27       P1 10747  0.99
      L1  H    10    35       P1 10175  0.96
      L1  H    13    36       P1 10175  0.81

> <Gold.Chemscore.Hbond.Weighted>
-9.8138

> <Gold.Chemscore.Metal.Weighted>
-0.0000

> <Gold.Chemscore.Lipo.Weighted>
-7.4621

> <Gold.Chemscore.Internal_Hbond.Weighted>
0.0000

> <Gold.Chemscore.DEClash.Weighted>
0.0456

> <Gold.Chemscore.DEInternal.Weighted>
3.0505

> <Gold.Chemscore.Rot.Weighted>
5.0290

> <Gold.Chemscore.Internal.Correction.Weighted>
   9.000000E+99

> <Gold.Protein.RotatedTorsions>
[ 6907 6896 6895 6894 ] final   36.71 input  -60.11 | X-H torsion
[ 7974 7965 7964 7962 ] final -149.28 input  175.53 | X-H torsion
[ 8008 7997 7996 7995 ] final -159.15 input   59.86 | X-H torsion
[ 10167 10162 10161 10158 ] final   -7.91 input  -65.29 | X-H torsion
[ 10718 10713 10712 10709 ] final -117.13 input   66.30 | X-H torsion
[ 10763 10752 10751 10750 ] final   92.37 input  -60.55 | X-H torsion
[ 11005 11000 10999 10996 ] final  -69.18 input  -57.11 | X-H torsion

> <Gold.Protein.ActiveResidues>
 VAL166  LYS551  ARG553  GLY616  TRP617  ASP618  TYR619  PRO620  LYS621  CYS622 
 ASP623  PHE694  ASN695  SER759  ASP760  ASP761  ALA762  ILE779  LEU786  VAL792 
 PHE793  MET794  SER795  GLU796  ALA797  LYS798  CYS799  TRP800  GLU811  SER814 

> <Gold.Protein.RotatedAtoms>
  152.1334  134.9117  160.0557 H   0  0  0  0  0  0  0  0  0  0  0  0  # atno 6907 bound_to 6896
  152.0213  133.3895  159.4267 H   0  0  0  0  0  0  0  0  0  0  0  0  # atno 6908 bound_to 6896
  150.6858  134.3544  159.4967 H   0  0  0  0  0  0  0  0  0  0  0  0  # atno 6909 bound_to 6896
  144.7977  140.5085  143.5729 H   0  0  0  0  0  0  0  0  0  0  0  0  # atno 7974 bound_to 7965
  155.7583  140.0835  157.2168 H   0  0  0  0  0  0  0  0  0  0  0  0  # atno 8008 bound_to 7997
  154.4006  140.1547  156.2859 H   0  0  0  0  0  0  0  0  0  0  0  0  # atno 8009 bound_to 7997
  155.8864  140.3417  155.5927 H   0  0  0  0  0  0  0  0  0  0  0  0  # atno 8010 bound_to 7997
  140.7043  143.6028  150.8781 H   0  0  0  0  0  0  0  0  0  0  0  0  # atno 10167 bound_to 10162
  156.1012  130.6174  150.9125 H   0  0  0  0  0  0  0  0  0  0  0  0  # atno 10718 bound_to 10713
  153.2185  135.4364  155.0461 H   0  0  0  0  0  0  0  0  0  0  0  0  # atno 10763 bound_to 10752
  154.8237  135.3350  154.6963 H   0  0  0  0  0  0  0  0  0  0  0  0  # atno 10764 bound_to 10752
  153.7396  135.7005  153.5026 H   0  0  0  0  0  0  0  0  0  0  0  0  # atno 10765 bound_to 10752
  141.1548  133.6758  156.6561 H   0  0  0  0  0  0  0  0  0  0  0  0  # atno 11005 bound_to 11000
  145.5632  139.1480  143.3330 LP  0  0  0  0  0  0  0  0  0  0  0  0  # atno 17320 bound_to 7965
  146.2250  140.5767  142.9000 LP  0  0  0  0  0  0  0  0  0  0  0  0  # atno 17321 bound_to 7965
  139.9752  143.6012  152.2961 LP  0  0  0  0  0  0  0  0  0  0  0  0  # atno 17342 bound_to 10162
  139.6613  144.7662  151.1957 LP  0  0  0  0  0  0  0  0  0  0  0  0  # atno 17343 bound_to 10162
  157.6183  131.0931  150.8670 LP  0  0  0  0  0  0  0  0  0  0  0  0  # atno 17370 bound_to 10713
  156.8798  130.5175  149.5291 LP  0  0  0  0  0  0  0  0  0  0  0  0  # atno 17371 bound_to 10713
  140.3283  134.7950  157.4306 LP  0  0  0  0  0  0  0  0  0  0  0  0  # atno 17394 bound_to 11000
  140.1038  134.5437  155.8328 LP  0  0  0  0  0  0  0  0  0  0  0  0  # atno 17395 bound_to 11000

$$$$
