AV-unprocessed.smi:300|AV-procd|sdf|2269|dock8
  -GOLD-   2262022163D 1   1.00000     0.00000
 Structure written by MMmdl.
 45 46  0  0  0  0  0  0  0  0  1 V2000
  146.7300  135.0824  162.6988 C   0  0  0  0  0  0  0  0  0  0  0  0
  147.0679  134.9792  161.2943 N   0  0  0  0  0  0  0  0  0  0  0  0
  146.9962  133.7142  160.6625 C   0  0  0  0  0  0  0  0  0  0  0  0
  146.6535  132.6926  161.2583 O   0  0  0  0  0  0  0  0  0  0  0  0
  147.3701  133.7220  159.2533 C   0  0  0  0  0  0  0  0  0  0  0  0
  147.7544  134.8644  158.6431 C   0  0  0  0  0  0  0  0  0  0  0  0
  147.8252  136.0864  159.2870 N   0  0  0  0  0  0  0  0  0  0  0  0
  148.2687  137.2749  158.5470 C   0  0  0  0  0  0  0  0  0  0  0  0
  149.7366  137.6378  158.8100 C   0  0  0  0  0  0  0  0  0  0  0  0
  150.3777  137.0724  159.6973 O   0  0  0  0  0  0  0  0  0  0  0  0
  150.2628  138.5755  158.0081 N   0  0  0  0  0  0  0  0  0  0  0  0
  151.6354  139.0608  158.0770 C   0  0  0  0  0  0  0  0  0  0  0  0
  151.7906  140.4176  157.3649 C   0  0  0  0  0  0  0  0  0  0  0  0
  151.5837  141.5367  158.2958 N   0  0  0  0  0  0  0  0  0  0  0  0
  150.5155  142.4805  157.9321 C   0  0  0  0  0  0  0  0  0  0  0  0
  151.0490  143.8937  157.6269 C   0  0  0  0  0  0  0  0  0  0  0  0
  151.3107  144.7467  158.8769 C   0  0  0  0  0  0  0  0  0  0  0  0
  152.4018  144.1933  159.8050 C   0  0  0  0  0  0  0  0  0  0  0  0
  152.0612  142.8111  160.3858 C   0  0  0  0  0  0  0  0  0  0  0  0
  152.3517  141.6690  159.4039 C   0  0  0  0  0  0  0  0  0  0  0  0
  153.2721  140.8947  159.6699 O   0  0  0  0  0  0  0  0  0  0  0  0
  147.4824  136.1677  160.6536 C   0  0  0  0  0  0  0  0  0  0  0  0
  147.5508  137.2417  161.2568 O   0  0  0  0  0  0  0  0  0  0  0  0
  146.2266  134.1812  163.0480 H   0  0  0  0  0  0  0  0  0  0  0  0
  146.0526  135.9299  162.8196 H   0  0  0  0  0  0  0  0  0  0  0  0
  147.6646  135.2380  163.2397 H   0  0  0  0  0  0  0  0  0  0  0  0
  147.3414  132.7999  158.6916 H   0  0  0  0  0  0  0  0  0  0  0  0
  148.0254  134.8162  157.5985 H   0  0  0  0  0  0  0  0  0  0  0  0
  148.1469  137.1118  157.4754 H   0  0  0  0  0  0  0  0  0  0  0  0
  147.6290  138.1257  158.7891 H   0  0  0  0  0  0  0  0  0  0  0  0
  149.6689  138.9846  157.3011 H   0  0  0  0  0  0  0  0  0  0  0  0
  151.9057  139.1519  159.1294 H   0  0  0  0  0  0  0  0  0  0  0  0
  152.3144  138.3225  157.6469 H   0  0  0  0  0  0  0  0  0  0  0  0
  152.7721  140.4843  156.8944 H   0  0  0  0  0  0  0  0  0  0  0  0
  151.0835  140.4831  156.5357 H   0  0  0  0  0  0  0  0  0  0  0  0
  149.9891  142.1297  157.0440 H   0  0  0  0  0  0  0  0  0  0  0  0
  149.7579  142.5121  158.7162 H   0  0  0  0  0  0  0  0  0  0  0  0
  151.9479  143.8341  157.0117 H   0  0  0  0  0  0  0  0  0  0  0  0
  150.3084  144.4145  157.0190 H   0  0  0  0  0  0  0  0  0  0  0  0
  151.5972  145.7504  158.5615 H   0  0  0  0  0  0  0  0  0  0  0  0
  150.3820  144.8643  159.4367 H   0  0  0  0  0  0  0  0  0  0  0  0
  153.3567  144.1602  159.2783 H   0  0  0  0  0  0  0  0  0  0  0  0
  152.5422  144.8933  160.6292 H   0  0  0  0  0  0  0  0  0  0  0  0
  152.6695  142.6478  161.2766 H   0  0  0  0  0  0  0  0  0  0  0  0
  151.0256  142.7682  160.7246 H   0  0  0  0  0  0  0  0  0  0  0  0
  1  2  1  0  0  0  0
  1 24  1  0  0  0  0
  1 25  1  0  0  0  0
  1 26  1  0  0  0  0
  2 22  1  0  0  0  0
  2  3  1  0  0  0  0
  3  4  2  0  0  0  0
  3  5  1  0  0  0  0
  5  6  2  0  0  0  0
  5 27  1  0  0  0  0
  6  7  1  0  0  0  0
  6 28  1  0  0  0  0
  7  8  1  0  0  0  0
  7 22  1  0  0  0  0
  8  9  1  0  0  0  0
  8 29  1  0  0  0  0
  8 30  1  0  0  0  0
  9 10  2  0  0  0  0
  9 11  1  0  0  0  0
 11 12  1  0  0  0  0
 11 31  1  0  0  0  0
 12 13  1  0  0  0  0
 12 32  1  0  0  0  0
 12 33  1  0  0  0  0
 13 14  1  0  0  0  0
 13 34  1  0  0  0  0
 13 35  1  0  0  0  0
 14 20  1  0  0  0  0
 14 15  1  0  0  0  0
 15 16  1  0  0  0  0
 15 36  1  0  0  0  0
 15 37  1  0  0  0  0
 16 17  1  0  0  0  0
 16 38  1  0  0  0  0
 16 39  1  0  0  0  0
 17 18  1  0  0  0  0
 17 40  1  0  0  0  0
 17 41  1  0  0  0  0
 18 19  1  0  0  0  0
 18 42  1  0  0  0  0
 18 43  1  0  0  0  0
 19 20  1  0  0  0  0
 19 44  1  0  0  0  0
 19 45  1  0  0  0  0
 20 21  2  0  0  0  0
 22 23  2  0  0  0  0
M  END
> <s_m_source_file>
AV-unprocessed.smi

> <i_m_source_file_index>
300

> <i_lp_mmshare_version>
43012

> <i_f3d_flags>
0

> <s_epik_input>
W0NIM11uMWMoPU8pW2NIXVtjSF1uKGMxPU8pW0NIMl1DKD1PKVtOSF1bQ0gyXVtDSDJdTjJbQ0gyXVtDSDJdW0NIMl1bQ0gyXVtDSDJdQzI9Tw==

> <s_epik_cmdline>
J2VwaWtfcHl0aG9uJywgJy1waCcsICc3LjAnLCAnLXRuJywgJzgnLCAnLW1hJywgJzIwMCcsICctbWV0YWxfYmluZGluZycsICctaW1hZScsICc8aW5maWxlLm1hZT4nLCAnLW9tYWUnLCAnPG91dGZpbGUubWFlPic=

> <r_lp_tautomer_probability>
1

> <r_epik_Ionization_Penalty>
6.11943e-08

> <r_epik_Ionization_Penalty_Charging>
1.13819e-08

> <r_epik_Ionization_Penalty_Neutral>
4.98124e-08

> <r_epik_State_Penalty>
-0

> <r_epik_Charging_Adjusted_Penalty>
1.13819e-08

> <i_epik_Tot_Q>
0

> <i_epik_Tot_abs_Q>
0

> <r_epik_Metal_State_Penalty>
-0

> <b_epik_Metal_Only>
0

> <s_lp_Force_Field>
OPLS_2005

> <r_lp_Energy>
25.2871

> <b_lp_Chiralities_Consistent>
1

> <s_lp_Variant>
AV-unprocessed.smi:300-1

> <Gold.Version>
5.8.1

> <Gold.Id.Protein>
6NUR|6NUR_protein|mol2

> <Gold.PLP.Fitness>
52.7380

> <Gold.PLP.PLP>
-46.0202

> <Gold.PLP.part.hbond>
-3.1026

> <Gold.PLP.part.metal>
0.0000

> <Gold.PLP.part.buried>
-4.5415

> <Gold.PLP.part.nonpolar>
-37.7519

> <Gold.PLP.part.repulsive>
0.0712

> <Gold.PLP.ligand.clash>
0.0000

> <Gold.PLP.ligand.torsion>
0.6926

> <Gold.PLP.Chemscore.Hbond>
2.6880

> <Gold.PLP.Chemscore.CHOScore>
0.0000

> <Gold.PLP.Chemscore.Metal>
0.0000

> <Gold.Chemscore.Hbonds>
donor molecule, donor type, donor heavy atom, donor atom, acceptor molecule, acceptor atom, score
      P1  H  6896  6908       L1    10  0.76
      P1  H  6931  6943       L1    23  0.90
      P1  H  6934  6947       L1    23  0.90

> <Gold.PLP.Chemscore.Internal.Correction>
0.0389

> <Gold.Rescore>
     Score         DG    S(hbond)    S(metal)    S(lipo)     H(rot)  DE(clash)    DE(int)     intcor
     17.82     -18.69       2.73        0.00      82.73       2.18       0.04       0.82       ----

> <Gold.Chemscore.Fitness>
17.8229

> <Gold.Chemscore.DG>
-18.6897

> <Gold.Chemscore.ZeroCoef>
-5.4800

> <Gold.Chemscore.Hbond>
2.7295

> <Gold.Chemscore.Metal>
0.0000

> <Gold.Chemscore.Lipo>
82.7275

> <Gold.Chemscore.Internal_Hbond>
0.0000

> <Gold.Chemscore.DEClash>
0.0425

> <Gold.Chemscore.DEInternal>
0.8243

> <Gold.Chemscore.Rot>
2.1820

> <Gold.Chemscore.Internal.Correction>
   9.000000E+99

> <Gold.Chemscore.Hbonds>
donor molecule, donor type, donor heavy atom, donor atom, acceptor molecule, acceptor atom, score
      P1  H  6896  6908       L1    10  0.75
      P1  H  6931  6943       L1    23  0.88
      P1  H  6934  6947       L1    23  0.88

> <Gold.Chemscore.Hbond.Weighted>
-9.1165

> <Gold.Chemscore.Metal.Weighted>
-0.0000

> <Gold.Chemscore.Lipo.Weighted>
-9.6791

> <Gold.Chemscore.Internal_Hbond.Weighted>
0.0000

> <Gold.Chemscore.DEClash.Weighted>
0.0425

> <Gold.Chemscore.DEInternal.Weighted>
0.8243

> <Gold.Chemscore.Rot.Weighted>
5.5860

> <Gold.Chemscore.Internal.Correction.Weighted>
   9.000000E+99

> <Gold.Protein.RotatedTorsions>
[ 6907 6896 6895 6894 ] final -143.51 input  -60.11 | X-H torsion
[ 7974 7965 7964 7962 ] final  140.95 input  175.53 | X-H torsion
[ 8008 7997 7996 7995 ] final  101.29 input   59.86 | X-H torsion
[ 10167 10162 10161 10158 ] final   30.45 input  -65.29 | X-H torsion
[ 10718 10713 10712 10709 ] final   24.99 input   66.30 | X-H torsion
[ 10763 10752 10751 10750 ] final   40.87 input  -60.55 | X-H torsion
[ 11005 11000 10999 10996 ] final   41.72 input  -57.11 | X-H torsion

> <Gold.Protein.ActiveResidues>
 VAL166  LYS551  ARG553  GLY616  TRP617  ASP618  TYR619  PRO620  LYS621  CYS622 
 ASP623  PHE694  ASN695  SER759  ASP760  ASP761  ALA762  ILE779  LEU786  VAL792 
 PHE793  MET794  SER795  GLU796  ALA797  LYS798  CYS799  TRP800  GLU811  SER814 

> <Gold.Protein.RotatedAtoms>
  151.1015  133.5240  159.2609 H   0  0  0  0  0  0  0  0  0  0  0  0  # atno 6907 bound_to 6896
  151.2069  135.0465  159.8905 H   0  0  0  0  0  0  0  0  0  0  0  0  # atno 6908 bound_to 6896
  152.5443  134.0836  159.8299 H   0  0  0  0  0  0  0  0  0  0  0  0  # atno 6909 bound_to 6896
  144.9140  139.5255  143.5695 H   0  0  0  0  0  0  0  0  0  0  0  0  # atno 7974 bound_to 7965
  156.1285  140.3200  155.8313 H   0  0  0  0  0  0  0  0  0  0  0  0  # atno 8008 bound_to 7997
  155.4375  140.0523  157.3030 H   0  0  0  0  0  0  0  0  0  0  0  0  # atno 8009 bound_to 7997
  154.4881  140.2081  155.9623 H   0  0  0  0  0  0  0  0  0  0  0  0  # atno 8010 bound_to 7997
  140.4676  144.0811  150.6229 H   0  0  0  0  0  0  0  0  0  0  0  0  # atno 10167 bound_to 10162
  157.1872  130.6830  149.6136 H   0  0  0  0  0  0  0  0  0  0  0  0  # atno 10718 bound_to 10713
  152.9924  135.6178  154.2697 H   0  0  0  0  0  0  0  0  0  0  0  0  # atno 10763 bound_to 10752
  154.2430  135.2788  155.2848 H   0  0  0  0  0  0  0  0  0  0  0  0  # atno 10764 bound_to 10752
  154.5353  135.5776  153.6851 H   0  0  0  0  0  0  0  0  0  0  0  0  # atno 10765 bound_to 10752
  140.1808  134.4107  155.8201 H   0  0  0  0  0  0  0  0  0  0  0  0  # atno 11005 bound_to 11000
  146.3172  139.7968  142.8974 LP  0  0  0  0  0  0  0  0  0  0  0  0  # atno 17320 bound_to 7965
  145.3407  141.0287  143.3394 LP  0  0  0  0  0  0  0  0  0  0  0  0  # atno 17321 bound_to 7965
  140.4016  143.2701  151.9940 LP  0  0  0  0  0  0  0  0  0  0  0  0  # atno 17342 bound_to 10162
  139.4814  144.5992  151.7635 LP  0  0  0  0  0  0  0  0  0  0  0  0  # atno 17343 bound_to 10162
  155.9716  130.4626  150.6154 LP  0  0  0  0  0  0  0  0  0  0  0  0  # atno 17370 bound_to 10713
  157.3895  131.0793  151.1406 LP  0  0  0  0  0  0  0  0  0  0  0  0  # atno 17371 bound_to 10713
  141.2223  133.6999  156.7926 LP  0  0  0  0  0  0  0  0  0  0  0  0  # atno 17394 bound_to 11000
  140.2270  134.8714  157.3437 LP  0  0  0  0  0  0  0  0  0  0  0  0  # atno 17395 bound_to 11000

$$$$
