#       Name:                AV-unprocessed.smi:539
#       Creating user name   scv26
#       Creation time:       Thu Mar 26 23:36:01 2020


#       File generated by GOLD software.
#

@<TRIPOS>MOLECULE
AV-unprocessed.smi:539
    47    49     1
SMALL
NO_CHARGES


@<TRIPOS>ATOM
      1 ****        -3.6480   0.2848   1.6848 C.3            1 S1                 0.0000
      2 ****        -2.2445   0.4519   1.7732 O.3            1 S1                 0.0000
      3 ****        -1.5546  -0.7828   1.8803 C.3            1 S1                 0.0000
      4 ****        -0.0410  -0.5321   1.9332 C.3            1 S1                 0.0000
      5 ****         0.4279   0.2083   0.7636 N.pl3          1 S1                 0.0000
      6 ****         0.7174  -0.2725  -0.4751 C.2            1 S1                 0.0000
      7 ****         0.6289  -1.6298  -0.7756 N.pl3          1 S1                 0.0000
      8 ****         0.0032  -2.1996  -1.9606 C.3            1 S1                 0.0000
      9 ****        -0.1334  -3.7116  -1.7396 C.3            1 S1                 0.0000
     10 ****         0.6411  -3.9835  -0.4543 C.3            1 S1                 0.0000
     11 ****         1.4583  -2.7119  -0.2687 C.3            1 S1                 0.0000
     12 ****         1.0408   0.6588  -1.3757 N.2            1 S1                 0.0000
     13 ****         0.9810   1.8344  -0.6429 C.2            1 S1                 0.0000
     14 ****         0.6083   1.5880   0.6394 C.2            1 S1                 0.0000
     15 ****         0.4237   2.6636   1.6244 C.2            1 S1                 0.0000
     16 ****         0.0734   2.4710   2.7863 O.2            1 S1                 0.0000
     17 ****         0.6736   3.8961   1.1192 N.am           1 S1                 0.0000
     18 ****         1.0556   4.2110  -0.1557 C.2            1 S1                 0.0000
     19 ****         1.2402   5.3868  -0.4696 O.2            1 S1                 0.0000
     20 ****         1.2167   3.1801  -1.0455 N.am           1 S1                 0.0000
     21 ****         1.6207   3.4594  -2.4248 C.3            1 S1                 0.0000
     22 ****         0.5603   4.6714   1.7557 H              1 S1                 0.0000
     23 ****        -4.1281   1.2600   1.6067 H              1 S1                 0.0000
     24 ****        -4.0424  -0.2152   2.5703 H              1 S1                 0.0000
     25 ****        -3.9208  -0.2966   0.8030 H              1 S1                 0.0000
     26 ****        -1.8735  -1.3125   2.7789 H              1 S1                 0.0000
     27 ****        -1.7940  -1.4182   1.0260 H              1 S1                 0.0000
     28 ****         0.2232   0.0071   2.8404 H              1 S1                 0.0000
     29 ****         0.4845  -1.4796   2.0082 H              1 S1                 0.0000
     30 ****        -0.9700  -1.7386  -2.1312 H              1 S1                 0.0000
     31 ****         0.6260  -1.9903  -2.8312 H              1 S1                 0.0000
     32 ****        -1.1767  -4.0123  -1.6378 H              1 S1                 0.0000
     33 ****         0.2919  -4.2584  -2.5817 H              1 S1                 0.0000
     34 ****        -0.0526  -4.1020   0.3793 H              1 S1                 0.0000
     35 ****         1.2611  -4.8785  -0.5102 H              1 S1                 0.0000
     36 ****         2.3673  -2.7565  -0.8704 H              1 S1                 0.0000
     37 ****         1.7690  -2.5722   0.7646 H              1 S1                 0.0000
     38 ****         2.5271   4.0663  -2.4485 H              1 S1                 0.0000
     39 ****         0.8327   4.0035  -2.9471 H              1 S1                 0.0000
     40 ****         1.8268   2.5525  -2.9928 H              1 S1                 0.0000
     41 ****        -2.0379   1.0054   2.5801 LP             1 S1                 0.0000
     42 ****        -1.9261   0.9267   0.9528 LP             1 S1                 0.0000
     43 ****         1.2699   0.5380  -2.3415 LP             1 S1                 0.0000
     44 ****        -0.1031   1.5406   3.1077 LP             1 S1                 0.0000
     45 ****        -0.0353   3.2446   3.4106 LP             1 S1                 0.0000
     46 ****         1.1108   6.1113   0.2075 LP             1 S1                 0.0000
     47 ****         1.5195   5.6175  -1.4016 LP             1 S1                 0.0000
@<TRIPOS>BOND
    1    1    2 1     
    2    1   23 1     
    3    1   24 1     
    4    1   25 1     
    5    2    3 1     
    6    3    4 1     
    7    3   26 1     
    8    3   27 1     
    9    4    5 1     
   10    4   28 1     
   11    4   29 1     
   12    5   14 1     
   13    5    6 1     
   14    6    7 1     
   15    6   12 2     
   16    7   11 1     
   17    7    8 1     
   18    8    9 1     
   19    8   30 1     
   20    8   31 1     
   21    9   10 1     
   22    9   32 1     
   23    9   33 1     
   24   10   11 1     
   25   10   34 1     
   26   10   35 1     
   27   11   36 1     
   28   11   37 1     
   29   12   13 1     
   30   13   20 1     
   31   13   14 2     
   32   14   15 1     
   33   15   16 2     
   34   15   17 1     
   35   17   22 1     
   36   17   18 1     
   37   18   19 2     
   38   18   20 1     
   39   20   21 1     
   40   21   38 1     
   41   21   39 1     
   42   21   40 1     
   43    2   41 1     
   44    2   42 1     
   45   12   43 1     
   46   16   44 1     
   47   16   45 1     
   48   19   46 1     
   49   19   47 1     
@<TRIPOS>SUBSTRUCTURE
      1 S1             1
@<TRIPOS>SET
LONE_PAIRS      STATIC     ATOMS    <user>   **** ""
7 41 42 43 44 45 46 47
DONOR_HYDROGENS      STATIC     ATOMS    <user>   **** ""
1 22
ATOM$BLUE        STATIC     ATOMS    COLORGROUP SYSTEM
7 41 42 43 44 45 46 47
ATOM$RED        STATIC     ATOMS    COLORGROUP SYSTEM
1 22
