AV-unprocessed.smi:1830|AV-procd|sdf|7437|dock4
  -GOLD-   22720 9123D 1   1.00000     0.00000
 Structure written by MMmdl.
 53 56  0  0  0  0  0  0  0  0  2 V2000
  146.5628  137.8290  151.0808 O   0  0  0  0  0  0  0  0  0  0  0  0
  146.6559  137.4013  152.2316 C   0  0  0  0  0  0  0  0  0  0  0  0
  147.0828  138.1452  153.2614 N   0  0  0  0  0  0  0  0  0  0  0  0
  147.4814  139.5459  153.1696 C   0  0  0  0  0  0  0  0  0  0  0  0
  148.2304  140.0167  154.4291 C   0  0  1  0  0  0  0  0  0  0  0  0
  148.5630  141.5196  154.3694 C   0  0  0  0  0  0  0  0  0  0  0  0
  149.1687  142.0017  155.6328 N   0  3  2  0  0  0  0  0  0  0  0  0
  150.6117  141.7314  155.8177 C   0  0  0  0  0  0  0  0  0  0  0  0
  150.8307  141.5702  157.3304 C   0  0  0  0  0  0  0  0  0  0  0  0
  149.4670  141.8460  157.9722 C   0  0  0  0  0  0  0  0  0  0  0  0
  148.4624  141.5625  156.8540 C   0  0  2  0  0  0  0  0  0  0  0  0
  148.0786  140.0671  156.7781 C   0  0  0  0  0  0  0  0  0  0  0  0
  147.3987  139.7911  155.5616 O   0  0  0  0  0  0  0  0  0  0  0  0
  146.3368  136.1579  152.6275 N   0  0  0  0  0  0  0  0  0  0  0  0
  145.8303  135.0819  151.8432 C   0  0  0  0  0  0  0  0  0  0  0  0
  144.9017  135.2969  150.7947 C   0  0  0  0  0  0  0  0  0  0  0  0
  144.4179  134.1984  150.0639 C   0  0  0  0  0  0  0  0  0  0  0  0
  144.8827  132.9177  150.4043 C   0  0  0  0  0  0  0  0  0  0  0  0
  145.7809  132.6975  151.3846 N   0  0  0  0  0  0  0  0  0  0  0  0
  146.2693  133.7484  152.0889 C   0  0  0  0  0  0  0  0  0  0  0  0
  147.2244  133.4547  153.0896 N   0  0  0  0  0  0  0  0  0  0  0  0
  148.5415  132.9846  152.6704 C   0  0  0  0  0  0  0  0  0  0  0  0
  148.9877  131.9541  153.7134 C   0  0  0  0  0  0  0  0  0  0  0  0
  148.1376  132.2851  154.9360 C   0  0  0  0  0  0  0  0  0  0  0  0
  146.8288  132.7504  154.3049 C   0  0  0  0  0  0  0  0  0  0  0  0
  147.1269  137.7169  154.1747 H   0  0  0  0  0  0  0  0  0  0  0  0
  148.1040  139.6859  152.2842 H   0  0  0  0  0  0  0  0  0  0  0  0
  146.5867  140.1499  153.0161 H   0  0  0  0  0  0  0  0  0  0  0  0
  149.1530  139.4429  154.5309 H   0  0  0  0  0  0  0  0  0  0  0  0
  149.2254  141.7424  153.5319 H   0  0  0  0  0  0  0  0  0  0  0  0
  147.6462  142.0862  154.2023 H   0  0  0  0  0  0  0  0  0  0  0  0
  150.9148  140.8220  155.2975 H   0  0  0  0  0  0  0  0  0  0  0  0
  151.1957  142.5562  155.4087 H   0  0  0  0  0  0  0  0  0  0  0  0
  151.1492  140.5503  157.5503 H   0  0  0  0  0  0  0  0  0  0  0  0
  151.6006  142.2424  157.7102 H   0  0  0  0  0  0  0  0  0  0  0  0
  149.2912  141.2523  158.8700 H   0  0  0  0  0  0  0  0  0  0  0  0
  149.4068  142.8976  158.2563 H   0  0  0  0  0  0  0  0  0  0  0  0
  147.5573  142.1580  156.9800 H   0  0  0  0  0  0  0  0  0  0  0  0
  148.9559  139.4229  156.8588 H   0  0  0  0  0  0  0  0  0  0  0  0
  147.4265  139.8080  157.6126 H   0  0  0  0  0  0  0  0  0  0  0  0
  146.3689  135.9866  153.6217 H   0  0  0  0  0  0  0  0  0  0  0  0
  144.5577  136.2856  150.5330 H   0  0  0  0  0  0  0  0  0  0  0  0
  143.7057  134.3350  149.2636 H   0  0  0  0  0  0  0  0  0  0  0  0
  144.5310  132.0471  149.8709 H   0  0  0  0  0  0  0  0  0  0  0  0
  148.5258  132.5551  151.6677 H   0  0  0  0  0  0  0  0  0  0  0  0
  149.2308  133.8291  152.6673 H   0  0  0  0  0  0  0  0  0  0  0  0
  148.7474  130.9498  153.3622 H   0  0  0  0  0  0  0  0  0  0  0  0
  150.0583  131.9921  153.9156 H   0  0  0  0  0  0  0  0  0  0  0  0
  148.0074  131.4378  155.6098 H   0  0  0  0  0  0  0  0  0  0  0  0
  148.5932  133.1015  155.4981 H   0  0  0  0  0  0  0  0  0  0  0  0
  146.2635  133.3988  154.9748 H   0  0  0  0  0  0  0  0  0  0  0  0
  146.2137  131.8819  154.0671 H   0  0  0  0  0  0  0  0  0  0  0  0
  149.0952  143.0091  155.6219 H   0  0  0  0  0  0  0  0  0  0  0  0
  1  2  2  0  0  0  0
  2  3  1  0  0  0  0
  2 14  1  0  0  0  0
  3  4  1  0  0  0  0
  3 26  1  0  0  0  0
  4  5  1  0  0  0  0
  4 27  1  0  0  0  0
  4 28  1  0  0  0  0
  5 13  1  0  0  0  0
  5  6  1  0  0  0  0
  5 29  1  0  0  0  0
  6  7  1  0  0  0  0
  6 30  1  0  0  0  0
  6 31  1  0  0  0  0
  7 11  1  0  0  0  0
  7  8  1  0  0  0  0
  7 53  1  0  0  0  0
  8  9  1  0  0  0  0
  8 32  1  0  0  0  0
  8 33  1  0  0  0  0
  9 10  1  0  0  0  0
  9 34  1  0  0  0  0
  9 35  1  0  0  0  0
 10 11  1  0  0  0  0
 10 36  1  0  0  0  0
 10 37  1  0  0  0  0
 11 12  1  0  0  0  0
 11 38  1  0  0  0  0
 12 13  1  0  0  0  0
 12 39  1  0  0  0  0
 12 40  1  0  0  0  0
 14 15  1  0  0  0  0
 14 41  1  0  0  0  0
 15 20  1  0  0  0  0
 15 16  2  0  0  0  0
 16 17  1  0  0  0  0
 16 42  1  0  0  0  0
 17 18  2  0  0  0  0
 17 43  1  0  0  0  0
 18 19  1  0  0  0  0
 18 44  1  0  0  0  0
 19 20  2  0  0  0  0
 20 21  1  0  0  0  0
 21 25  1  0  0  0  0
 21 22  1  0  0  0  0
 22 23  1  0  0  0  0
 22 45  1  0  0  0  0
 22 46  1  0  0  0  0
 23 24  1  0  0  0  0
 23 47  1  0  0  0  0
 23 48  1  0  0  0  0
 24 25  1  0  0  0  0
 24 49  1  0  0  0  0
 24 50  1  0  0  0  0
 25 51  1  0  0  0  0
 25 52  1  0  0  0  0
M  CHG  1   7   1
M  END
> <s_m_source_file>
AV-unprocessed.smi

> <i_m_source_file_index>
1830

> <i_lp_mmshare_version>
43012

> <i_f3d_flags>
0

> <s_epik_input>
W0NIMl0xW0NIMl1bQ0gyXVtDQEhdKE4xMilbQ0gyXU9bQ0BASF0oW0NIMl0yKVtDSDJdW05IXUMoPU8pW05IXWMzW2NIXVtjSF1bY0hdbmMzTjRbQ0gyXVtDSDJdW0NIMl1bQ0gyXTQ=

> <s_epik_cmdline>
J2VwaWtfcHl0aG9uJywgJy1waCcsICc3LjAnLCAnLXRuJywgJzgnLCAnLW1hJywgJzIwMCcsICctbWV0YWxfYmluZGluZycsICctaW1hZScsICc8aW5maWxlLm1hZT4nLCAnLW9tYWUnLCAnPG91dGZpbGUubWFlPic=

> <r_lp_tautomer_probability>
1

> <r_epik_Ionization_Penalty>
0.193547

> <r_epik_Ionization_Penalty_Charging>
0.10673

> <r_epik_Ionization_Penalty_Neutral>
0.0868166

> <r_epik_State_Penalty>
0.173595

> <r_epik_Charging_Adjusted_Penalty>
0.280326

> <i_epik_Tot_Q>
1

> <i_epik_Tot_abs_Q>
1

> <r_epik_Metal_State_Penalty>
0.164683

> <b_epik_Metal_Only>
0

> <s_lp_Force_Field>
OPLS_2005

> <r_lp_Energy>
64.4771

> <b_lp_Chiralities_Consistent>
1

> <s_lp_Variant>
AV-unprocessed.smi:1830-6

> <Gold.Version>
5.8.1

> <Gold.Id.Protein>
6NUR|6NUR_protein|mol2

> <Gold.PLP.Fitness>
42.3852

> <Gold.PLP.PLP>
-34.1116

> <Gold.PLP.part.hbond>
-3.8855

> <Gold.PLP.part.metal>
0.0000

> <Gold.PLP.part.buried>
-1.5733

> <Gold.PLP.part.nonpolar>
-31.3315

> <Gold.PLP.part.repulsive>
2.3273

> <Gold.PLP.ligand.clash>
0.0000

> <Gold.PLP.ligand.torsion>
0.5318

> <Gold.PLP.Chemscore.Hbond>
3.0000

> <Gold.PLP.Chemscore.CHOScore>
0.0000

> <Gold.PLP.Chemscore.Metal>
0.0000

> <Gold.Chemscore.Hbonds>
donor molecule, donor type, donor heavy atom, donor atom, acceptor molecule, acceptor atom, score
      L1  H     7    53       P1  8028  2.00
      P1  H  7954  7966       L1     1  1.00

> <Gold.PLP.Chemscore.Internal.Correction>
0.3372

> <Gold.Rescore>
     Score         DG    S(hbond)    S(metal)    S(lipo)     H(rot)  DE(clash)    DE(int)     intcor
     14.03     -18.73       1.98        0.00      87.63       1.41       3.28       1.43       ----

> <Gold.Chemscore.Fitness>
14.0282

> <Gold.Chemscore.DG>
-18.7350

> <Gold.Chemscore.ZeroCoef>
-5.4800

> <Gold.Chemscore.Hbond>
1.9772

> <Gold.Chemscore.Metal>
0.0000

> <Gold.Chemscore.Lipo>
87.6256

> <Gold.Chemscore.Internal_Hbond>
0.0000

> <Gold.Chemscore.DEClash>
3.2754

> <Gold.Chemscore.DEInternal>
1.4315

> <Gold.Chemscore.Rot>
1.4067

> <Gold.Chemscore.Internal.Correction>
   9.000000E+99

> <Gold.Chemscore.Hbonds>
donor molecule, donor type, donor heavy atom, donor atom, acceptor molecule, acceptor atom, score
      L1  H     7    53       P1  8028  1.00
      P1  H  7954  7966       L1     1  0.94

> <Gold.Chemscore.Hbond.Weighted>
-6.6039

> <Gold.Chemscore.Metal.Weighted>
-0.0000

> <Gold.Chemscore.Lipo.Weighted>
-10.2522

> <Gold.Chemscore.Internal_Hbond.Weighted>
0.0000

> <Gold.Chemscore.DEClash.Weighted>
3.2754

> <Gold.Chemscore.DEInternal.Weighted>
1.4315

> <Gold.Chemscore.Rot.Weighted>
3.6011

> <Gold.Chemscore.Internal.Correction.Weighted>
   9.000000E+99

> <Gold.Protein.RotatedTorsions>
[ 6907 6896 6895 6894 ] final -127.97 input  -60.11 | X-H torsion
[ 7974 7965 7964 7962 ] final  178.19 input  175.53 | X-H torsion
[ 8008 7997 7996 7995 ] final  157.29 input   59.86 | X-H torsion
[ 10167 10162 10161 10158 ] final   13.48 input  -65.29 | X-H torsion
[ 10718 10713 10712 10709 ] final -133.87 input   66.30 | X-H torsion
[ 10763 10752 10751 10750 ] final   73.77 input  -60.55 | X-H torsion
[ 11005 11000 10999 10996 ] final  179.13 input  -57.11 | X-H torsion

> <Gold.Protein.ActiveResidues>
 VAL166  LYS551  ARG553  GLY616  TRP617  ASP618  TYR619  PRO620  LYS621  CYS622 
 ASP623  PHE694  ASN695  SER759  ASP760  ASP761  ALA762  ILE779  LEU786  VAL792 
 PHE793  MET794  SER795  GLU796  ALA797  LYS798  CYS799  TRP800  GLU811  SER814 

> <Gold.Protein.RotatedAtoms>
  150.9130  133.6974  159.2850 H   0  0  0  0  0  0  0  0  0  0  0  0  # atno 6907 bound_to 6896
  151.4455  135.1023  159.9692 H   0  0  0  0  0  0  0  0  0  0  0  0  # atno 6908 bound_to 6896
  152.4940  133.8528  159.7265 H   0  0  0  0  0  0  0  0  0  0  0  0  # atno 6909 bound_to 6896
  144.7159  140.0360  143.6438 H   0  0  0  0  0  0  0  0  0  0  0  0  # atno 7974 bound_to 7965
  156.2372  140.1889  156.7086 H   0  0  0  0  0  0  0  0  0  0  0  0  # atno 8008 bound_to 7997
  154.6129  140.0619  156.9544 H   0  0  0  0  0  0  0  0  0  0  0  0  # atno 8009 bound_to 7997
  155.1986  140.3290  155.4349 H   0  0  0  0  0  0  0  0  0  0  0  0  # atno 8010 bound_to 7997
  140.6000  143.8624  150.6955 H   0  0  0  0  0  0  0  0  0  0  0  0  # atno 10167 bound_to 10162
  156.2494  130.7144  151.1037 H   0  0  0  0  0  0  0  0  0  0  0  0  # atno 10718 bound_to 10713
  153.0543  135.5050  154.7943 H   0  0  0  0  0  0  0  0  0  0  0  0  # atno 10763 bound_to 10752
  154.6781  135.2963  154.9653 H   0  0  0  0  0  0  0  0  0  0  0  0  # atno 10764 bound_to 10752
  154.0449  135.6712  153.4846 H   0  0  0  0  0  0  0  0  0  0  0  0  # atno 10765 bound_to 10752
  140.4027  134.6763  157.4571 H   0  0  0  0  0  0  0  0  0  0  0  0  # atno 11005 bound_to 11000
  146.0063  139.3133  143.0897 LP  0  0  0  0  0  0  0  0  0  0  0  0  # atno 17320 bound_to 7965
  145.8734  140.9406  143.0639 LP  0  0  0  0  0  0  0  0  0  0  0  0  # atno 17321 bound_to 7965
  140.2168  143.3840  152.1675 LP  0  0  0  0  0  0  0  0  0  0  0  0  # atno 17342 bound_to 10162
  139.5284  144.7130  151.5144 LP  0  0  0  0  0  0  0  0  0  0  0  0  # atno 17343 bound_to 10162
  157.7208  131.0682  150.6141 LP  0  0  0  0  0  0  0  0  0  0  0  0  # atno 17370 bound_to 10713
  156.6220  130.4408  149.5818 LP  0  0  0  0  0  0  0  0  0  0  0  0  # atno 17371 bound_to 10713
  140.0324  134.6386  155.9088 LP  0  0  0  0  0  0  0  0  0  0  0  0  # atno 17394 bound_to 11000
  141.1851  133.6554  156.5182 LP  0  0  0  0  0  0  0  0  0  0  0  0  # atno 17395 bound_to 11000

$$$$
