AV-unprocessed.smi:763|AV-procd|sdf|3636|dock2
  -GOLD-   22720 1 33D 1   1.00000     0.00000
 Structure written by MMmdl.
 44 45  0  0  0  0  0  0  0  0  1 V2000
  146.4129  131.3898  149.7080 C   0  0  0  0  0  0  0  0  0  0  0  0
  146.0376  132.2075  150.8023 O   0  0  0  0  0  0  0  0  0  0  0  0
  147.1549  132.6662  151.5445 C   0  0  0  0  0  0  0  0  0  0  0  0
  146.6838  133.1046  152.9403 C   0  0  0  0  0  0  0  0  0  0  0  0
  147.6951  133.8400  153.6298 O   0  0  0  0  0  0  0  0  0  0  0  0
  148.7751  133.1787  154.1858 C   0  0  0  0  0  0  0  0  0  0  0  0
  148.8673  131.8339  154.0304 N   0  0  0  0  0  0  0  0  0  0  0  0
  149.9259  131.1946  154.5688 C   0  0  0  0  0  0  0  0  0  0  0  0
  150.9444  131.8555  155.2798 C   0  0  0  0  0  0  0  0  0  0  0  0
  150.8518  133.2502  155.4385 C   0  0  0  0  0  0  0  0  0  0  0  0
  149.7468  133.9330  154.8832 C   0  0  0  0  0  0  0  0  0  0  0  0
  149.5901  135.3197  154.9988 N   0  0  0  0  0  0  0  0  0  0  0  0
  150.6075  136.4857  155.7859 S   0  0  0  0  0  0  0  0  0  0  0  0
  149.8081  136.9709  156.9206 O   0  0  0  0  0  0  0  0  0  0  0  0
  151.8920  135.8069  156.0188 O   0  0  0  0  0  0  0  0  0  0  0  0
  150.7940  137.8092  154.4760 C   0  0  2  0  0  0  0  0  0  0  0  0
  151.9364  138.7816  154.8356 C   0  0  0  0  0  0  0  0  0  0  0  0
  151.5615  139.7018  156.0109 C   0  0  0  0  0  0  0  0  0  0  0  0
  150.2808  140.4953  155.7052 C   0  0  0  0  0  0  0  0  0  0  0  0
  149.1127  139.5639  155.3421 C   0  0  0  0  0  0  0  0  0  0  0  0
  149.4989  138.6109  154.1925 C   0  0  2  0  0  0  0  0  0  0  0  0
  148.4218  137.7549  153.8697 O   0  0  0  0  0  0  0  0  0  0  0  0
  145.5217  131.0607  149.1739 H   0  0  0  0  0  0  0  0  0  0  0  0
  146.9503  130.5023  150.0446 H   0  0  0  0  0  0  0  0  0  0  0  0
  147.0438  131.9361  149.0055 H   0  0  0  0  0  0  0  0  0  0  0  0
  147.9213  131.8931  151.6062 H   0  0  0  0  0  0  0  0  0  0  0  0
  147.5982  133.5207  151.0310 H   0  0  0  0  0  0  0  0  0  0  0  0
  145.7548  133.6733  152.8789 H   0  0  0  0  0  0  0  0  0  0  0  0
  146.4442  132.2220  153.5336 H   0  0  0  0  0  0  0  0  0  0  0  0
  149.9632  130.1247  154.4262 H   0  0  0  0  0  0  0  0  0  0  0  0
  151.7768  131.3059  155.6934 H   0  0  0  0  0  0  0  0  0  0  0  0
  151.6267  133.7731  155.9773 H   0  0  0  0  0  0  0  0  0  0  0  0
  148.7826  135.6964  154.5231 H   0  0  0  0  0  0  0  0  0  0  0  0
  151.0836  137.2932  153.5610 H   0  0  0  0  0  0  0  0  0  0  0  0
  152.8505  138.2333  155.0637 H   0  0  0  0  0  0  0  0  0  0  0  0
  152.1697  139.3964  153.9653 H   0  0  0  0  0  0  0  0  0  0  0  0
  151.4219  139.1137  156.9186 H   0  0  0  0  0  0  0  0  0  0  0  0
  152.3813  140.3908  156.2158 H   0  0  0  0  0  0  0  0  0  0  0  0
  150.0109  141.1125  156.5626 H   0  0  0  0  0  0  0  0  0  0  0  0
  150.4684  141.1818  154.8786 H   0  0  0  0  0  0  0  0  0  0  0  0
  148.8066  139.0089  156.2273 H   0  0  0  0  0  0  0  0  0  0  0  0
  148.2484  140.1621  155.0512 H   0  0  0  0  0  0  0  0  0  0  0  0
  149.6746  139.2211  153.3055 H   0  0  0  0  0  0  0  0  0  0  0  0
  148.5976  137.3487  153.0349 H   0  0  0  0  0  0  0  0  0  0  0  0
  1  2  1  0  0  0  0
  1 23  1  0  0  0  0
  1 24  1  0  0  0  0
  1 25  1  0  0  0  0
  2  3  1  0  0  0  0
  3  4  1  0  0  0  0
  3 26  1  0  0  0  0
  3 27  1  0  0  0  0
  4  5  1  0  0  0  0
  4 28  1  0  0  0  0
  4 29  1  0  0  0  0
  5  6  1  0  0  0  0
  6 11  1  0  0  0  0
  6  7  2  0  0  0  0
  7  8  1  0  0  0  0
  8  9  2  0  0  0  0
  8 30  1  0  0  0  0
  9 10  1  0  0  0  0
  9 31  1  0  0  0  0
 10 11  2  0  0  0  0
 10 32  1  0  0  0  0
 11 12  1  0  0  0  0
 12 13  1  0  0  0  0
 12 33  1  0  0  0  0
 13 14  2  0  0  0  0
 13 15  2  0  0  0  0
 13 16  1  0  0  0  0
 16 21  1  0  0  0  0
 16 17  1  0  0  0  0
 16 34  1  0  0  0  0
 17 18  1  0  0  0  0
 17 35  1  0  0  0  0
 17 36  1  0  0  0  0
 18 19  1  0  0  0  0
 18 37  1  0  0  0  0
 18 38  1  0  0  0  0
 19 20  1  0  0  0  0
 19 39  1  0  0  0  0
 19 40  1  0  0  0  0
 20 21  1  0  0  0  0
 20 41  1  0  0  0  0
 20 42  1  0  0  0  0
 21 22  1  0  0  0  0
 21 43  1  0  0  0  0
 22 44  1  0  0  0  0
M  END
> <s_m_source_file>
AV-unprocessed.smi

> <i_m_source_file_index>
763

> <i_lp_mmshare_version>
43012

> <i_f3d_flags>
0

> <s_epik_input>
W0NIM11PW0NIMl1bQ0gyXU9jMW5bY0hdW2NIXVtjSF1jMVtOSF1TKD1PKSg9TylbQ0BASF0yW0NIMl1bQ0gyXVtDSDJdW0NIMl1bQ0BIXTJbT0hd

> <s_epik_cmdline>
J2VwaWtfcHl0aG9uJywgJy1waCcsICc3LjAnLCAnLXRuJywgJzgnLCAnLW1hJywgJzIwMCcsICctbWV0YWxfYmluZGluZycsICctaW1hZScsICc8aW5maWxlLm1hZT4nLCAnLW9tYWUnLCAnPG91dGZpbGUubWFlPic=

> <r_epik_Ionization_Penalty>
0.124685

> <r_epik_Ionization_Penalty_Charging>
0

> <r_epik_Ionization_Penalty_Neutral>
0.124685

> <r_epik_State_Penalty>
0.114154

> <r_epik_Charging_Adjusted_Penalty>
0.114154

> <i_epik_Tot_Q>
0

> <i_epik_Tot_abs_Q>
0

> <r_epik_Metal_State_Penalty>
0.443785

> <b_epik_Metal_Only>
0

> <s_lp_Force_Field>
OPLS_2005

> <r_lp_Energy>
4.78457

> <b_lp_Chiralities_Consistent>
1

> <s_lp_Variant>
AV-unprocessed.smi:763-3

> <Gold.Version>
5.8.1

> <Gold.Id.Protein>
6NUR|6NUR_protein|mol2

> <Gold.PLP.Fitness>
44.3627

> <Gold.PLP.PLP>
-39.3813

> <Gold.PLP.part.hbond>
-2.6647

> <Gold.PLP.part.metal>
0.0000

> <Gold.PLP.part.buried>
-4.9538

> <Gold.PLP.part.nonpolar>
-33.4535

> <Gold.PLP.part.repulsive>
1.7934

> <Gold.PLP.ligand.clash>
0.0000

> <Gold.PLP.ligand.torsion>
1.1758

> <Gold.PLP.Chemscore.Hbond>
2.0000

> <Gold.PLP.Chemscore.CHOScore>
0.0000

> <Gold.PLP.Chemscore.Metal>
0.0000

> <Gold.Chemscore.Hbonds>
donor molecule, donor type, donor heavy atom, donor atom, acceptor molecule, acceptor atom, score
      L1  H    22    44       P1  7948  1.00
      P1  H 10752 10763       L1    15  1.00

> <Gold.PLP.Chemscore.Internal.Correction>
1.3331

> <Gold.Rescore>
     Score         DG    S(hbond)    S(metal)    S(lipo)     H(rot)  DE(clash)    DE(int)     intcor
     11.66     -15.36       1.93        0.00      82.07       2.41       0.02       3.68       ----

> <Gold.Chemscore.Fitness>
11.6554

> <Gold.Chemscore.DG>
-15.3634

> <Gold.Chemscore.ZeroCoef>
-5.4800

> <Gold.Chemscore.Hbond>
1.9276

> <Gold.Chemscore.Metal>
0.0000

> <Gold.Chemscore.Lipo>
82.0724

> <Gold.Chemscore.Internal_Hbond>
0.0000

> <Gold.Chemscore.DEClash>
0.0231

> <Gold.Chemscore.DEInternal>
3.6848

> <Gold.Chemscore.Rot>
2.4052

> <Gold.Chemscore.Internal.Correction>
   9.000000E+99

> <Gold.Chemscore.Hbonds>
donor molecule, donor type, donor heavy atom, donor atom, acceptor molecule, acceptor atom, score
      L1  H    22    44       P1  7948  1.00
      P1  H 10752 10763       L1    15  0.97

> <Gold.Chemscore.Hbond.Weighted>
-6.4383

> <Gold.Chemscore.Metal.Weighted>
-0.0000

> <Gold.Chemscore.Lipo.Weighted>
-9.6025

> <Gold.Chemscore.Internal_Hbond.Weighted>
0.0000

> <Gold.Chemscore.DEClash.Weighted>
0.0231

> <Gold.Chemscore.DEInternal.Weighted>
3.6848

> <Gold.Chemscore.Rot.Weighted>
6.1574

> <Gold.Chemscore.Internal.Correction.Weighted>
   9.000000E+99

> <Gold.Protein.RotatedTorsions>
[ 6907 6896 6895 6894 ] final  -55.59 input  -60.11 | X-H torsion
[ 7974 7965 7964 7962 ] final   44.60 input  175.53 | X-H torsion
[ 8008 7997 7996 7995 ] final   79.08 input   59.86 | X-H torsion
[ 10167 10162 10161 10158 ] final  -70.19 input  -65.29 | X-H torsion
[ 10718 10713 10712 10709 ] final  155.94 input   66.30 | X-H torsion
[ 10763 10752 10751 10750 ] final  103.84 input  -60.55 | X-H torsion
[ 11005 11000 10999 10996 ] final  -78.70 input  -57.11 | X-H torsion

> <Gold.Protein.ActiveResidues>
 VAL166  LYS551  ARG553  GLY616  TRP617  ASP618  TYR619  PRO620  LYS621  CYS622 
 ASP623  PHE694  ASN695  SER759  ASP760  ASP761  ALA762  ILE779  LEU786  VAL792 
 PHE793  MET794  SER795  GLU796  ALA797  LYS798  CYS799  TRP800  GLU811  SER814 

> <Gold.Protein.RotatedAtoms>
  150.8239  134.7460  159.6795 H   0  0  0  0  0  0  0  0  0  0  0  0  # atno 6907 bound_to 6896
  152.4352  134.5697  159.9927 H   0  0  0  0  0  0  0  0  0  0  0  0  # atno 6908 bound_to 6896
  151.5874  133.3333  159.3057 H   0  0  0  0  0  0  0  0  0  0  0  0  # atno 6909 bound_to 6896
  146.0554  139.5057  142.9691 H   0  0  0  0  0  0  0  0  0  0  0  0  # atno 7974 bound_to 7965
  155.8647  140.3452  155.5780 H   0  0  0  0  0  0  0  0  0  0  0  0  # atno 8008 bound_to 7997
  155.7894  140.0869  157.2036 H   0  0  0  0  0  0  0  0  0  0  0  0  # atno 8009 bound_to 7997
  154.4014  140.1486  156.3132 H   0  0  0  0  0  0  0  0  0  0  0  0  # atno 8010 bound_to 7997
  140.5371  143.2317  151.7156 H   0  0  0  0  0  0  0  0  0  0  0  0  # atno 10167 bound_to 10162
  157.2117  131.0699  151.1965 H   0  0  0  0  0  0  0  0  0  0  0  0  # atno 10718 bound_to 10713
  153.3580  135.3963  155.1697 H   0  0  0  0  0  0  0  0  0  0  0  0  # atno 10763 bound_to 10752
  154.8674  135.3672  154.5136 H   0  0  0  0  0  0  0  0  0  0  0  0  # atno 10764 bound_to 10752
  153.5593  135.7081  153.5615 H   0  0  0  0  0  0  0  0  0  0  0  0  # atno 10765 bound_to 10752
  141.1665  133.7074  156.8011 H   0  0  0  0  0  0  0  0  0  0  0  0  # atno 11005 bound_to 11000
  145.6652  141.0230  143.1687 LP  0  0  0  0  0  0  0  0  0  0  0  0  # atno 17320 bound_to 7965
  144.7145  139.8246  143.7403 LP  0  0  0  0  0  0  0  0  0  0  0  0  # atno 17321 bound_to 7965
  139.4975  144.4025  152.0166 LP  0  0  0  0  0  0  0  0  0  0  0  0  # atno 17342 bound_to 10162
  140.3131  144.3514  150.6028 LP  0  0  0  0  0  0  0  0  0  0  0  0  # atno 17343 bound_to 10162
  157.3665  130.7159  149.6536 LP  0  0  0  0  0  0  0  0  0  0  0  0  # atno 17370 bound_to 10713
  155.9690  130.4210  150.4452 LP  0  0  0  0  0  0  0  0  0  0  0  0  # atno 17371 bound_to 10713
  140.2256  134.8725  157.3423 LP  0  0  0  0  0  0  0  0  0  0  0  0  # atno 17394 bound_to 11000
  140.1944  134.4332  155.7698 LP  0  0  0  0  0  0  0  0  0  0  0  0  # atno 17395 bound_to 11000

$$$$
