AV-unprocessed.smi:3349|AV-procd|sdf|12934|dock1
  -GOLD-   2272019363D 1   1.00000     0.00000
 Structure written by MMmdl.
 40 41  0  0  0  0  0  0  0  0  1 V2000
  151.8860  145.7483  160.0453 C   0  0  0  0  0  0  0  0  0  0  0  0
  151.0549  144.4711  159.7582 C   0  0  1  0  0  0  0  0  0  0  0  0
  151.0145  144.2295  158.2235 C   0  0  0  0  0  0  0  0  0  0  0  0
  149.9487  143.3166  157.8266 N   0  0  0  0  0  0  0  0  0  0  0  0
  150.1388  142.0489  157.4327 C   0  0  0  0  0  0  0  0  0  0  0  0
  151.2496  141.5187  157.3880 O   0  0  0  0  0  0  0  0  0  0  0  0
  148.8789  141.2661  157.0318 C   0  0  1  0  0  0  0  0  0  0  0  0
  147.5802  142.0326  157.3423 C   0  0  0  0  0  0  0  0  0  0  0  0
  148.9381  140.8911  155.6260 N   0  0  0  0  0  0  0  0  0  0  0  0
  148.8709  141.6329  154.5165 C   0  0  0  0  0  0  0  0  0  0  0  0
  148.9467  140.9300  153.3952 N   0  0  0  0  0  0  0  0  0  0  0  0
  149.0618  139.6743  153.9209 C   0  0  0  0  0  0  0  0  0  0  0  0
  149.0584  139.5948  155.2517 N   0  0  0  0  0  0  0  0  0  0  0  0
  151.5345  143.2943  160.5204 N   0  0  0  0  0  0  0  0  0  0  0  0
  152.0209  143.6425  161.8607 C   0  0  0  0  0  0  0  0  0  0  0  0
  152.5426  142.4242  162.6427 C   0  0  0  0  0  0  0  0  0  0  0  0
  153.5695  141.7811  161.9007 O   0  0  0  0  0  0  0  0  0  0  0  0
  153.1168  141.3558  160.6229 C   0  0  0  0  0  0  0  0  0  0  0  0
  152.6044  142.5680  159.8261 C   0  0  0  0  0  0  0  0  0  0  0  0
  151.5627  146.6018  159.4503 H   0  0  0  0  0  0  0  0  0  0  0  0
  152.9434  145.5850  159.8346 H   0  0  0  0  0  0  0  0  0  0  0  0
  151.7949  146.0777  161.0793 H   0  0  0  0  0  0  0  0  0  0  0  0
  150.0315  144.6809  160.0737 H   0  0  0  0  0  0  0  0  0  0  0  0
  150.8964  145.1805  157.7012 H   0  0  0  0  0  0  0  0  0  0  0  0
  151.9395  143.7785  157.8669 H   0  0  0  0  0  0  0  0  0  0  0  0
  149.0054  143.6768  157.8422 H   0  0  0  0  0  0  0  0  0  0  0  0
  148.8649  140.3496  157.6254 H   0  0  0  0  0  0  0  0  0  0  0  0
  147.5321  142.3207  158.3929 H   0  0  0  0  0  0  0  0  0  0  0  0
  146.7064  141.4152  157.1329 H   0  0  0  0  0  0  0  0  0  0  0  0
  147.4925  142.9400  156.7435 H   0  0  0  0  0  0  0  0  0  0  0  0
  148.7636  142.7080  154.5302 H   0  0  0  0  0  0  0  0  0  0  0  0
  149.1489  138.7916  153.3046 H   0  0  0  0  0  0  0  0  0  0  0  0
  152.8117  144.3902  161.7850 H   0  0  0  0  0  0  0  0  0  0  0  0
  151.2247  144.0814  162.4585 H   0  0  0  0  0  0  0  0  0  0  0  0
  152.9440  142.7371  163.6068 H   0  0  0  0  0  0  0  0  0  0  0  0
  151.7337  141.7206  162.8460 H   0  0  0  0  0  0  0  0  0  0  0  0
  153.9414  140.8769  160.0946 H   0  0  0  0  0  0  0  0  0  0  0  0
  152.3310  140.6071  160.7361 H   0  0  0  0  0  0  0  0  0  0  0  0
  152.2545  142.1917  158.8666 H   0  0  0  0  0  0  0  0  0  0  0  0
  153.4361  143.2431  159.6190 H   0  0  0  0  0  0  0  0  0  0  0  0
  1  2  1  0  0  0  0
  1 20  1  0  0  0  0
  1 21  1  0  0  0  0
  1 22  1  0  0  0  0
  2  3  1  0  0  0  0
  2 14  1  0  0  0  0
  2 23  1  0  0  0  0
  3  4  1  0  0  0  0
  3 24  1  0  0  0  0
  3 25  1  0  0  0  0
  4  5  1  0  0  0  0
  4 26  1  0  0  0  0
  5  6  2  0  0  0  0
  5  7  1  0  0  0  0
  7  8  1  0  0  0  0
  7  9  1  0  0  0  0
  7 27  1  0  0  0  0
  8 28  1  0  0  0  0
  8 29  1  0  0  0  0
  8 30  1  0  0  0  0
  9 13  1  0  0  0  0
  9 10  1  0  0  0  0
 10 11  2  0  0  0  0
 10 31  1  0  0  0  0
 11 12  1  0  0  0  0
 12 13  2  0  0  0  0
 12 32  1  0  0  0  0
 14 19  1  0  0  0  0
 14 15  1  0  0  0  0
 15 16  1  0  0  0  0
 15 33  1  0  0  0  0
 15 34  1  0  0  0  0
 16 17  1  0  0  0  0
 16 35  1  0  0  0  0
 16 36  1  0  0  0  0
 17 18  1  0  0  0  0
 18 19  1  0  0  0  0
 18 37  1  0  0  0  0
 18 38  1  0  0  0  0
 19 39  1  0  0  0  0
 19 40  1  0  0  0  0
M  END
> <s_m_source_file>
AV-unprocessed.smi

> <i_m_source_file_index>
3349

> <i_lp_mmshare_version>
43012

> <i_f3d_flags>
0

> <s_epik_input>
W0NIMl0xW0NIMl1PW0NIMl1bQ0gyXU4xW0NASF0oW0NIM10pW0NIMl1bTkhdQyg9TylbQ0BIXShbQ0gzXSluMltjSF1uW2NIXW4y

> <s_epik_cmdline>
J2VwaWtfcHl0aG9uJywgJy1waCcsICc3LjAnLCAnLXRuJywgJzgnLCAnLW1hJywgJzIwMCcsICctbWV0YWxfYmluZGluZycsICctaW1hZScsICc8aW5maWxlLm1hZT4nLCAnLW9tYWUnLCAnPG91dGZpbGUubWFlPic=

> <r_lp_tautomer_probability>
1

> <r_epik_Ionization_Penalty>
0.211373

> <r_epik_Ionization_Penalty_Charging>
0

> <r_epik_Ionization_Penalty_Neutral>
0.211373

> <r_epik_State_Penalty>
0.201459

> <r_epik_Charging_Adjusted_Penalty>
0.201459

> <i_epik_Tot_Q>
0

> <i_epik_Tot_abs_Q>
0

> <r_epik_Metal_State_Penalty>
0.201458

> <b_epik_Metal_Only>
0

> <s_lp_Force_Field>
OPLS_2005

> <r_lp_Energy>
35.0343

> <b_lp_Chiralities_Consistent>
1

> <s_lp_Variant>
AV-unprocessed.smi:3349-4

> <Gold.Version>
5.8.1

> <Gold.Id.Protein>
6NUR|6NUR_protein|mol2

> <Gold.PLP.Fitness>
44.9428

> <Gold.PLP.PLP>
-39.6592

> <Gold.PLP.part.hbond>
-3.1231

> <Gold.PLP.part.metal>
0.0000

> <Gold.PLP.part.buried>
-2.5827

> <Gold.PLP.part.nonpolar>
-35.8910

> <Gold.PLP.part.repulsive>
2.8923

> <Gold.PLP.ligand.clash>
0.4608

> <Gold.PLP.ligand.torsion>
0.8449

> <Gold.PLP.Chemscore.Hbond>
0.9760

> <Gold.PLP.Chemscore.CHOScore>
1.4547

> <Gold.PLP.Chemscore.Metal>
0.0000

> <Gold.Chemscore.Hbonds>
donor molecule, donor type, donor heavy atom, donor atom, acceptor molecule, acceptor atom, score
      P1  H  8011  8017       L1    11  0.75
      L1  C    10    31       P1  8028  1.00
      L1  C    12    32       P1  7948  0.04
      L1  C    12    32       P1  7957  0.32

> <Gold.PLP.Chemscore.Internal.Correction>
0.1420

> <Gold.Rescore>
     Score         DG    S(hbond)    S(metal)    S(lipo)     H(rot)  DE(clash)    DE(int)     intcor
      8.47      -8.73       0.00        0.00      83.69       2.56       0.13       0.13       ----

> <Gold.Chemscore.Fitness>
8.4672

> <Gold.Chemscore.DG>
-8.7253

> <Gold.Chemscore.ZeroCoef>
-5.4800

> <Gold.Chemscore.Hbond>
0.0000

> <Gold.Chemscore.Metal>
0.0000

> <Gold.Chemscore.Lipo>
83.6855

> <Gold.Chemscore.Internal_Hbond>
0.0000

> <Gold.Chemscore.DEClash>
0.1279

> <Gold.Chemscore.DEInternal>
0.1302

> <Gold.Chemscore.Rot>
2.5570

> <Gold.Chemscore.Internal.Correction>
   9.000000E+99

> <Gold.Chemscore.Hbonds>
donor molecule, donor type, donor heavy atom, donor atom, acceptor molecule, acceptor atom, score
      P1  H  8011  8017       L1    11  0.09

> <Gold.Chemscore.Hbond.Weighted>
-0.0000

> <Gold.Chemscore.Metal.Weighted>
-0.0000

> <Gold.Chemscore.Lipo.Weighted>
-9.7912

> <Gold.Chemscore.Internal_Hbond.Weighted>
0.0000

> <Gold.Chemscore.DEClash.Weighted>
0.1279

> <Gold.Chemscore.DEInternal.Weighted>
0.1302

> <Gold.Chemscore.Rot.Weighted>
6.5459

> <Gold.Chemscore.Internal.Correction.Weighted>
   9.000000E+99

> <Gold.Protein.RotatedTorsions>
[ 6907 6896 6895 6894 ] final   60.46 input  -60.11 | X-H torsion
[ 7974 7965 7964 7962 ] final   38.71 input  175.53 | X-H torsion
[ 8008 7997 7996 7995 ] final   95.07 input   59.86 | X-H torsion
[ 10167 10162 10161 10158 ] final  154.79 input  -65.29 | X-H torsion
[ 10718 10713 10712 10709 ] final  110.04 input   66.30 | X-H torsion
[ 10763 10752 10751 10750 ] final -118.24 input  -60.55 | X-H torsion
[ 11005 11000 10999 10996 ] final  -98.20 input  -57.11 | X-H torsion

> <Gold.Protein.ActiveResidues>
 VAL166  LYS551  ARG553  GLY616  TRP617  ASP618  TYR619  PRO620  LYS621  CYS622 
 ASP623  PHE694  ASN695  SER759  ASP760  ASP761  ALA762  ILE779  LEU786  VAL792 
 PHE793  MET794  SER795  GLU796  ALA797  LYS798  CYS799  TRP800  GLU811  SER814 

> <Gold.Protein.RotatedAtoms>
  152.4005  134.6294  160.0071 H   0  0  0  0  0  0  0  0  0  0  0  0  # atno 6907 bound_to 6896
  151.6501  133.3316  159.3158 H   0  0  0  0  0  0  0  0  0  0  0  0  # atno 6908 bound_to 6896
  150.7906  134.6969  159.6573 H   0  0  0  0  0  0  0  0  0  0  0  0  # atno 6909 bound_to 6896
  146.1041  139.5739  142.9395 H   0  0  0  0  0  0  0  0  0  0  0  0  # atno 7974 bound_to 7965
  156.0649  140.3291  155.7506 H   0  0  0  0  0  0  0  0  0  0  0  0  # atno 8008 bound_to 7997
  155.5397  140.0600  157.2890 H   0  0  0  0  0  0  0  0  0  0  0  0  # atno 8009 bound_to 7997
  154.4500  140.1913  156.0566 H   0  0  0  0  0  0  0  0  0  0  0  0  # atno 8010 bound_to 7997
  139.4822  144.5155  151.7957 H   0  0  0  0  0  0  0  0  0  0  0  0  # atno 10167 bound_to 10162
  157.6513  131.0925  150.6542 H   0  0  0  0  0  0  0  0  0  0  0  0  # atno 10718 bound_to 10713
  154.8581  135.4281  154.2107 H   0  0  0  0  0  0  0  0  0  0  0  0  # atno 10763 bound_to 10752
  153.3134  135.6977  153.7101 H   0  0  0  0  0  0  0  0  0  0  0  0  # atno 10764 bound_to 10752
  153.6185  135.3506  155.2977 H   0  0  0  0  0  0  0  0  0  0  0  0  # atno 10765 bound_to 10752
  141.1353  133.8228  157.0808 H   0  0  0  0  0  0  0  0  0  0  0  0  # atno 11005 bound_to 11000
  145.5797  141.0384  143.2129 LP  0  0  0  0  0  0  0  0  0  0  0  0  # atno 17320 bound_to 7965
  144.7456  139.7329  143.7293 LP  0  0  0  0  0  0  0  0  0  0  0  0  # atno 17321 bound_to 7965
  140.4663  144.1650  150.5912 LP  0  0  0  0  0  0  0  0  0  0  0  0  # atno 17342 bound_to 10162
  140.4430  143.2518  151.9448 LP  0  0  0  0  0  0  0  0  0  0  0  0  # atno 17343 bound_to 10162
  156.6853  130.4579  149.5615 LP  0  0  0  0  0  0  0  0  0  0  0  0  # atno 17370 bound_to 10713
  156.1900  130.6553  151.1050 LP  0  0  0  0  0  0  0  0  0  0  0  0  # atno 17371 bound_to 10713
  140.0452  134.9834  157.1036 LP  0  0  0  0  0  0  0  0  0  0  0  0  # atno 17394 bound_to 11000
  140.4073  134.2018  155.7163 LP  0  0  0  0  0  0  0  0  0  0  0  0  # atno 17395 bound_to 11000

$$$$
