AV-unprocessed.smi:3187|AV-procd|sdf|12181|dock4
  -GOLD-   2272018 23D 1   1.00000     0.00000
 Structure written by MMmdl.
 42 43  0  0  0  0  0  0  0  0  3 V2000
  152.1627  139.2657  158.1564 C   0  0  0  0  0  0  0  0  0  0  0  0
  152.4058  140.6315  158.7773 C   0  0  0  0  0  0  0  0  0  0  0  0
  153.1841  140.7390  159.8712 C   0  0  0  0  0  0  0  0  0  0  0  0
  153.5552  142.0482  160.5282 C   0  0  0  0  0  0  0  0  0  0  0  0
  153.3833  143.2180  159.5565 C   0  0  0  0  0  0  0  0  0  0  0  0
  152.0046  143.1853  158.8769 C   0  0  1  0  0  0  0  0  0  0  0  0
  151.8452  144.4309  157.9837 C   0  0  0  0  0  0  0  0  0  0  0  0
  151.7573  141.8558  158.0983 C   0  0  2  0  0  0  0  0  0  0  0  0
  150.2391  141.6649  157.8396 C   0  0  0  0  0  0  0  0  0  0  0  0
  149.8231  142.1019  156.4905 N   0  3  0  0  0  0  0  0  0  0  0  0
  148.5876  141.4573  156.0037 C   0  0  0  0  0  0  0  0  0  0  0  0
  148.3885  141.7053  154.5017 C   0  0  0  0  0  0  0  0  0  0  0  0
  148.0382  140.4744  153.7884 N   0  0  0  0  0  0  0  0  0  0  0  0
  146.9103  140.2367  153.0451 C   0  0  0  0  0  0  0  0  0  0  0  0
  147.0163  138.9535  152.5735 C   0  0  0  0  0  0  0  0  0  0  0  0
  148.2031  138.4627  153.0476 N   0  3  0  0  0  0  0  0  0  0  0  0
  148.8232  139.3888  153.7863 C   0  0  0  0  0  0  0  0  0  0  0  0
  152.3800  139.2872  157.0883 H   0  0  0  0  0  0  0  0  0  0  0  0
  151.1311  138.9475  158.3041 H   0  0  0  0  0  0  0  0  0  0  0  0
  152.8028  138.5065  158.6070 H   0  0  0  0  0  0  0  0  0  0  0  0
  153.5995  139.8519  160.3272 H   0  0  0  0  0  0  0  0  0  0  0  0
  152.9340  142.1837  161.4140 H   0  0  0  0  0  0  0  0  0  0  0  0
  154.5907  141.9993  160.8660 H   0  0  0  0  0  0  0  0  0  0  0  0
  153.5231  144.1566  160.0941 H   0  0  0  0  0  0  0  0  0  0  0  0
  154.1659  143.1791  158.7971 H   0  0  0  0  0  0  0  0  0  0  0  0
  151.2616  143.2531  159.6735 H   0  0  0  0  0  0  0  0  0  0  0  0
  152.5559  144.4176  157.1568 H   0  0  0  0  0  0  0  0  0  0  0  0
  152.0241  145.3435  158.5534 H   0  0  0  0  0  0  0  0  0  0  0  0
  150.8461  144.5161  157.5595 H   0  0  0  0  0  0  0  0  0  0  0  0
  152.2591  141.9507  157.1341 H   0  0  0  0  0  0  0  0  0  0  0  0
  149.9702  140.6175  157.9855 H   0  0  0  0  0  0  0  0  0  0  0  0
  149.6449  142.2338  158.5526 H   0  0  0  0  0  0  0  0  0  0  0  0
  149.6848  143.1025  156.5069 H   0  0  0  0  0  0  0  0  0  0  0  0
  148.6424  140.3855  156.2007 H   0  0  0  0  0  0  0  0  0  0  0  0
  147.7355  141.8461  156.5632 H   0  0  0  0  0  0  0  0  0  0  0  0
  147.5882  142.4272  154.3321 H   0  0  0  0  0  0  0  0  0  0  0  0
  149.2936  142.1166  154.0521 H   0  0  0  0  0  0  0  0  0  0  0  0
  146.1354  140.9773  152.9091 H   0  0  0  0  0  0  0  0  0  0  0  0
  146.3537  138.3682  151.9519 H   0  0  0  0  0  0  0  0  0  0  0  0
  149.7716  139.2785  154.2815 H   0  0  0  0  0  0  0  0  0  0  0  0
  150.5718  141.8908  155.8460 H   0  0  0  0  0  0  0  0  0  0  0  0
  148.5629  137.5338  152.8651 H   0  0  0  0  0  0  0  0  0  0  0  0
  1  2  1  0  0  0  0
  1 18  1  0  0  0  0
  1 19  1  0  0  0  0
  1 20  1  0  0  0  0
  2  8  1  0  0  0  0
  2  3  2  0  0  0  0
  3  4  1  0  0  0  0
  3 21  1  0  0  0  0
  4  5  1  0  0  0  0
  4 22  1  0  0  0  0
  4 23  1  0  0  0  0
  5  6  1  0  0  0  0
  5 24  1  0  0  0  0
  5 25  1  0  0  0  0
  6  7  1  0  0  0  0
  6  8  1  0  0  0  0
  6 26  1  0  0  0  0
  7 27  1  0  0  0  0
  7 28  1  0  0  0  0
  7 29  1  0  0  0  0
  8  9  1  0  0  0  0
  8 30  1  0  0  0  0
  9 10  1  0  0  0  0
  9 31  1  0  0  0  0
  9 32  1  0  0  0  0
 10 11  1  0  0  0  0
 10 33  1  0  0  0  0
 10 41  1  0  0  0  0
 11 12  1  0  0  0  0
 11 34  1  0  0  0  0
 11 35  1  0  0  0  0
 12 13  1  0  0  0  0
 12 36  1  0  0  0  0
 12 37  1  0  0  0  0
 13 17  1  0  0  0  0
 13 14  1  0  0  0  0
 14 15  2  0  0  0  0
 14 38  1  0  0  0  0
 15 16  1  0  0  0  0
 15 39  1  0  0  0  0
 16 17  2  0  0  0  0
 16 42  1  0  0  0  0
 17 40  1  0  0  0  0
M  CHG  1  10   1
M  CHG  1  16   1
M  END
> <s_m_source_file>
AV-unprocessed.smi

> <i_m_source_file_index>
3187

> <i_lp_mmshare_version>
43012

> <i_f3d_flags>
0

> <s_epik_input>
W0NIM11DMT1bQ0hdW0NIMl1bQ0gyXVtDQEBIXShbQ0gzXSlbQ0BIXTFbQ0gyXVtOSF1bQ0gyXVtDSDJdbjJbY0hdW2NIXW5bY0hdMg==

> <s_epik_cmdline>
J2VwaWtfcHl0aG9uJywgJy1waCcsICc3LjAnLCAnLXRuJywgJzgnLCAnLW1hJywgJzIwMCcsICctbWV0YWxfYmluZGluZycsICctaW1hZScsICc8aW5maWxlLm1hZT4nLCAnLW9tYWUnLCAnPG91dGZpbGUubWFlPic=

> <r_lp_tautomer_probability>
1

> <r_epik_Ionization_Penalty>
1.51066

> <r_epik_Ionization_Penalty_Charging>
0.0026721

> <r_epik_Ionization_Penalty_Neutral>
1.50798

> <r_epik_State_Penalty>
1.12593

> <r_epik_Charging_Adjusted_Penalty>
1.12861

> <i_epik_Tot_Q>
2

> <i_epik_Tot_abs_Q>
2

> <r_epik_Metal_State_Penalty>
5.12155

> <b_epik_Metal_Only>
0

> <s_lp_Force_Field>
OPLS_2005

> <r_lp_Energy>
24.2978

> <b_lp_Chiralities_Consistent>
1

> <s_lp_Variant>
AV-unprocessed.smi:3187-7

> <Gold.Version>
5.8.1

> <Gold.Id.Protein>
6NUR|6NUR_protein|mol2

> <Gold.PLP.Fitness>
52.6646

> <Gold.PLP.PLP>
-39.9041

> <Gold.PLP.part.hbond>
-3.0000

> <Gold.PLP.part.metal>
0.0000

> <Gold.PLP.part.buried>
-0.1293

> <Gold.PLP.part.nonpolar>
-37.5170

> <Gold.PLP.part.repulsive>
0.1058

> <Gold.PLP.ligand.clash>
0.0000

> <Gold.PLP.ligand.torsion>
1.0810

> <Gold.PLP.Chemscore.Hbond>
3.9840

> <Gold.PLP.Chemscore.CHOScore>
0.9449

> <Gold.PLP.Chemscore.Metal>
0.0000

> <Gold.Chemscore.Hbonds>
donor molecule, donor type, donor heavy atom, donor atom, acceptor molecule, acceptor atom, score
      L1  H    10    33       P1  8028  1.95
      L1  H    16    42       P1  7948  2.00
      L1  C    14    38       P1 10175  0.92

> <Gold.PLP.Chemscore.Internal.Correction>
0.1358

> <Gold.Rescore>
     Score         DG    S(hbond)    S(metal)    S(lipo)     H(rot)  DE(clash)    DE(int)     intcor
     18.21     -19.38       1.82        0.00     109.97       1.97       0.12       1.05       ----

> <Gold.Chemscore.Fitness>
18.2100

> <Gold.Chemscore.DG>
-19.3799

> <Gold.Chemscore.ZeroCoef>
-5.4800

> <Gold.Chemscore.Hbond>
1.8218

> <Gold.Chemscore.Metal>
0.0000

> <Gold.Chemscore.Lipo>
109.9705

> <Gold.Chemscore.Internal_Hbond>
0.0000

> <Gold.Chemscore.DEClash>
0.1156

> <Gold.Chemscore.DEInternal>
1.0543

> <Gold.Chemscore.Rot>
1.9732

> <Gold.Chemscore.Internal.Correction>
   9.000000E+99

> <Gold.Chemscore.Hbonds>
donor molecule, donor type, donor heavy atom, donor atom, acceptor molecule, acceptor atom, score
      L1  H    10    33       P1  8028  0.90
      L1  H    16    42       P1  7948  0.97

> <Gold.Chemscore.Hbond.Weighted>
-6.0847

> <Gold.Chemscore.Metal.Weighted>
-0.0000

> <Gold.Chemscore.Lipo.Weighted>
-12.8665

> <Gold.Chemscore.Internal_Hbond.Weighted>
0.0000

> <Gold.Chemscore.DEClash.Weighted>
0.1156

> <Gold.Chemscore.DEInternal.Weighted>
1.0543

> <Gold.Chemscore.Rot.Weighted>
5.0514

> <Gold.Chemscore.Internal.Correction.Weighted>
   9.000000E+99

> <Gold.Protein.RotatedTorsions>
[ 6907 6896 6895 6894 ] final -100.05 input  -60.11 | X-H torsion
[ 7974 7965 7964 7962 ] final    3.76 input  175.53 | X-H torsion
[ 8008 7997 7996 7995 ] final -147.34 input   59.86 | X-H torsion
[ 10167 10162 10161 10158 ] final   19.10 input  -65.29 | X-H torsion
[ 10718 10713 10712 10709 ] final  -11.38 input   66.30 | X-H torsion
[ 10763 10752 10751 10750 ] final  -77.44 input  -60.55 | X-H torsion
[ 11005 11000 10999 10996 ] final   25.99 input  -57.11 | X-H torsion

> <Gold.Protein.ActiveResidues>
 VAL166  LYS551  ARG553  GLY616  TRP617  ASP618  TYR619  PRO620  LYS621  CYS622 
 ASP623  PHE694  ASN695  SER759  ASP760  ASP761  ALA762  ILE779  LEU786  VAL792 
 PHE793  MET794  SER795  GLU796  ALA797  LYS798  CYS799  TRP800  GLU811  SER814 

> <Gold.Protein.RotatedAtoms>
  150.7102  134.0946  159.3943 H   0  0  0  0  0  0  0  0  0  0  0  0  # atno 6907 bound_to 6896
  151.8932  135.0406  160.0509 H   0  0  0  0  0  0  0  0  0  0  0  0  # atno 6908 bound_to 6896
  152.2475  133.5151  159.5342 H   0  0  0  0  0  0  0  0  0  0  0  0  # atno 6909 bound_to 6896
  146.2445  140.0637  142.8367 H   0  0  0  0  0  0  0  0  0  0  0  0  # atno 7974 bound_to 7965
  155.5740  140.0637  157.2800 H   0  0  0  0  0  0  0  0  0  0  0  0  # atno 8008 bound_to 7997
  154.4352  140.1864  156.0954 H   0  0  0  0  0  0  0  0  0  0  0  0  # atno 8009 bound_to 7997
  156.0355  140.3301  155.7190 H   0  0  0  0  0  0  0  0  0  0  0  0  # atno 8010 bound_to 7997
  140.5604  143.9347  150.6639 H   0  0  0  0  0  0  0  0  0  0  0  0  # atno 10167 bound_to 10162
  156.6598  130.4978  149.6034 H   0  0  0  0  0  0  0  0  0  0  0  0  # atno 10718 bound_to 10713
  154.5130  135.5763  153.6620 H   0  0  0  0  0  0  0  0  0  0  0  0  # atno 10763 bound_to 10752
  152.9901  135.6163  154.2854 H   0  0  0  0  0  0  0  0  0  0  0  0  # atno 10764 bound_to 10752
  154.2770  135.2852  155.2693 H   0  0  0  0  0  0  0  0  0  0  0  0  # atno 10765 bound_to 10752
  140.3419  134.2324  155.7689 H   0  0  0  0  0  0  0  0  0  0  0  0  # atno 11005 bound_to 11000
  145.0877  140.9264  143.4787 LP  0  0  0  0  0  0  0  0  0  0  0  0  # atno 17320 bound_to 7965
  145.0803  139.2965  143.5787 LP  0  0  0  0  0  0  0  0  0  0  0  0  # atno 17321 bound_to 7965
  140.2796  143.3398  152.1163 LP  0  0  0  0  0  0  0  0  0  0  0  0  # atno 17342 bound_to 10162
  139.5067  144.6819  151.5986 LP  0  0  0  0  0  0  0  0  0  0  0  0  # atno 17343 bound_to 10162
  156.2020  130.6625  151.1177 LP  0  0  0  0  0  0  0  0  0  0  0  0  # atno 17370 bound_to 10713
  157.7113  131.0732  150.6489 LP  0  0  0  0  0  0  0  0  0  0  0  0  # atno 17371 bound_to 10713
  141.2036  133.7908  157.0330 LP  0  0  0  0  0  0  0  0  0  0  0  0  # atno 17394 bound_to 11000
  140.0774  134.9668  157.1568 LP  0  0  0  0  0  0  0  0  0  0  0  0  # atno 17395 bound_to 11000

$$$$
