AV-unprocessed.smi:2614|AV-procd|sdf|10214|dock5
  -GOLD-   2272014223D 1   1.00000     0.00000
 Structure written by MMmdl.
 24 25  0  0  0  0  0  0  0  0  2 V2000
  153.1651  138.2474  154.5557 C   0  0  0  0  0  0  0  0  0  0  0  0
  152.4572  139.2494  155.4022 C   0  0  0  0  0  0  0  0  0  0  0  0
  152.7764  139.4759  156.7097 N   0  0  0  0  0  0  0  0  0  0  0  0
  151.8903  140.4195  157.0082 C   0  0  0  0  0  0  0  0  0  0  0  0
  151.7620  141.0644  158.3494 C   0  0  0  0  0  0  0  0  0  0  0  0
  151.1053  140.7444  155.9717 N   0  0  0  0  0  0  0  0  0  0  0  0
  150.0294  141.6914  155.8771 C   0  0  0  0  0  0  0  0  0  0  0  0
  148.7494  141.5581  156.7058 C   0  0  0  0  0  0  0  0  0  0  0  0
  148.0314  142.1292  155.5738 N   0  3  0  0  0  0  0  0  0  0  0  0
  149.0866  141.6748  154.6760 C   0  0  0  0  0  0  0  0  0  0  0  0
  151.4597  139.9809  154.9112 N   0  0  0  0  0  0  0  0  0  0  0  0
  154.0010  137.8046  155.0983 H   0  0  0  0  0  0  0  0  0  0  0  0
  153.5526  138.7203  153.6530 H   0  0  0  0  0  0  0  0  0  0  0  0
  152.4813  137.4499  154.2643 H   0  0  0  0  0  0  0  0  0  0  0  0
  152.4974  140.6536  159.0418 H   0  0  0  0  0  0  0  0  0  0  0  0
  150.7664  140.8887  158.7573 H   0  0  0  0  0  0  0  0  0  0  0  0
  151.9257  142.1389  158.2675 H   0  0  0  0  0  0  0  0  0  0  0  0
  150.4729  142.6804  156.0134 H   0  0  0  0  0  0  0  0  0  0  0  0
  148.4435  140.5278  156.8984 H   0  0  0  0  0  0  0  0  0  0  0  0
  148.7187  142.1713  157.6068 H   0  0  0  0  0  0  0  0  0  0  0  0
  147.1318  141.7037  155.4007 H   0  0  0  0  0  0  0  0  0  0  0  0
  149.3347  142.3838  153.8856 H   0  0  0  0  0  0  0  0  0  0  0  0
  148.8939  140.6733  154.2862 H   0  0  0  0  0  0  0  0  0  0  0  0
  147.9990  143.1373  155.6281 H   0  0  0  0  0  0  0  0  0  0  0  0
  1  2  1  0  0  0  0
  1 12  1  0  0  0  0
  1 13  1  0  0  0  0
  1 14  1  0  0  0  0
  2 11  2  0  0  0  0
  2  3  1  0  0  0  0
  3  4  2  0  0  0  0
  4  5  1  0  0  0  0
  4  6  1  0  0  0  0
  5 15  1  0  0  0  0
  5 16  1  0  0  0  0
  5 17  1  0  0  0  0
  6  7  1  0  0  0  0
  6 11  1  0  0  0  0
  7 10  1  0  0  0  0
  7  8  1  0  0  0  0
  7 18  1  0  0  0  0
  8  9  1  0  0  0  0
  8 19  1  0  0  0  0
  8 20  1  0  0  0  0
  9 10  1  0  0  0  0
  9 21  1  0  0  0  0
  9 24  1  0  0  0  0
 10 22  1  0  0  0  0
 10 23  1  0  0  0  0
M  CHG  1   9   1
M  END
> <s_m_source_file>
AV-unprocessed.smi

> <i_m_source_file_index>
2614

> <i_lp_mmshare_version>
43012

> <i_f3d_flags>
0

> <s_epik_input>
W0NIM11jMW5jKFtDSDNdKW4objEpW0NIXTJbQ0gyXVtOSF1bQ0gyXTI=

> <s_epik_cmdline>
J2VwaWtfcHl0aG9uJywgJy1waCcsICc3LjAnLCAnLXRuJywgJzgnLCAnLW1hJywgJzIwMCcsICctbWV0YWxfYmluZGluZycsICctaW1hZScsICc8aW5maWxlLm1hZT4nLCAnLW9tYWUnLCAnPG91dGZpbGUubWFlPic=

> <r_lp_tautomer_probability>
1

> <r_epik_Ionization_Penalty>
0.00796611

> <r_epik_Ionization_Penalty_Charging>
0.00792139

> <r_epik_Ionization_Penalty_Neutral>
4.47227e-05

> <r_epik_State_Penalty>
0.00594323

> <r_epik_Charging_Adjusted_Penalty>
0.0138646

> <i_epik_Tot_Q>
1

> <i_epik_Tot_abs_Q>
1

> <r_epik_Metal_State_Penalty>
-0

> <b_epik_Metal_Only>
0

> <s_lp_Force_Field>
OPLS_2005

> <r_lp_Energy>
14.7939

> <b_lp_Chiralities_Consistent>
1

> <s_lp_Variant>
AV-unprocessed.smi:2614-1

> <Gold.Version>
5.8.1

> <Gold.Id.Protein>
6NUR|6NUR_protein|mol2

> <Gold.PLP.Fitness>
34.7320

> <Gold.PLP.PLP>
-22.8370

> <Gold.PLP.part.hbond>
-3.0000

> <Gold.PLP.part.metal>
0.0000

> <Gold.PLP.part.buried>
-0.4558

> <Gold.PLP.part.nonpolar>
-18.4471

> <Gold.PLP.part.repulsive>
0.1368

> <Gold.PLP.ligand.clash>
0.0000

> <Gold.PLP.ligand.torsion>
0.1500

> <Gold.PLP.Chemscore.Hbond>
3.9840

> <Gold.PLP.Chemscore.CHOScore>
0.0000

> <Gold.PLP.Chemscore.Metal>
0.0000

> <Gold.Chemscore.Hbonds>
donor molecule, donor type, donor heavy atom, donor atom, acceptor molecule, acceptor atom, score
      L1  H     9    24       P1  8028  2.00
      P1  H  7989  7998       L1    11  1.00
      P1  H  7997  8010       L1     3  0.70

> <Gold.PLP.Chemscore.Internal.Correction>
0.2431

> <Gold.Rescore>
     Score         DG    S(hbond)    S(metal)    S(lipo)     H(rot)  DE(clash)    DE(int)     intcor
     13.61     -13.81       1.98        0.00      36.49       1.00       0.01       0.20       ----

> <Gold.Chemscore.Fitness>
13.6074

> <Gold.Chemscore.DG>
-13.8089

> <Gold.Chemscore.ZeroCoef>
-5.4800

> <Gold.Chemscore.Hbond>
1.9819

> <Gold.Chemscore.Metal>
0.0000

> <Gold.Chemscore.Lipo>
36.4894

> <Gold.Chemscore.Internal_Hbond>
0.0000

> <Gold.Chemscore.DEClash>
0.0063

> <Gold.Chemscore.DEInternal>
0.1952

> <Gold.Chemscore.Rot>
1.0000

> <Gold.Chemscore.Internal.Correction>
   9.000000E+99

> <Gold.Chemscore.Hbonds>
donor molecule, donor type, donor heavy atom, donor atom, acceptor molecule, acceptor atom, score
      L1  H     9    24       P1  8028  0.66
      P1  H  7989  7998       L1    11  0.83
      P1  H  7997  8010       L1     3  0.06

> <Gold.Chemscore.Hbond.Weighted>
-6.6197

> <Gold.Chemscore.Metal.Weighted>
-0.0000

> <Gold.Chemscore.Lipo.Weighted>
-4.2693

> <Gold.Chemscore.Internal_Hbond.Weighted>
0.0000

> <Gold.Chemscore.DEClash.Weighted>
0.0063

> <Gold.Chemscore.DEInternal.Weighted>
0.1952

> <Gold.Chemscore.Rot.Weighted>
2.5600

> <Gold.Chemscore.Internal.Correction.Weighted>
   9.000000E+99

> <Gold.Protein.RotatedTorsions>
[ 6907 6896 6895 6894 ] final  -16.08 input  -60.11 | X-H torsion
[ 7974 7965 7964 7962 ] final    0.30 input  175.53 | X-H torsion
[ 8008 7997 7996 7995 ] final   78.34 input   59.86 | X-H torsion
[ 10167 10162 10161 10158 ] final   60.80 input  -65.29 | X-H torsion
[ 10718 10713 10712 10709 ] final -178.85 input   66.30 | X-H torsion
[ 10763 10752 10751 10750 ] final  -89.13 input  -60.55 | X-H torsion
[ 11005 11000 10999 10996 ] final  110.72 input  -57.11 | X-H torsion

> <Gold.Protein.ActiveResidues>
 VAL166  LYS551  ARG553  GLY616  TRP617  ASP618  TYR619  PRO620  LYS621  CYS622 
 ASP623  PHE694  ASN695  SER759  ASP760  ASP761  ALA762  ILE779  LEU786  VAL792 
 PHE793  MET794  SER795  GLU796  ALA797  LYS798  CYS799  TRP800  GLU811  SER814 

> <Gold.Protein.RotatedAtoms>
  151.3141  135.0802  159.9282 H   0  0  0  0  0  0  0  0  0  0  0  0  # atno 6907 bound_to 6896
  152.5271  133.9705  159.7770 H   0  0  0  0  0  0  0  0  0  0  0  0  # atno 6908 bound_to 6896
  151.0014  133.6000  159.2724 H   0  0  0  0  0  0  0  0  0  0  0  0  # atno 6909 bound_to 6896
  146.2433  140.1158  142.8342 H   0  0  0  0  0  0  0  0  0  0  0  0  # atno 7974 bound_to 7965
  155.8544  140.3456  155.5714 H   0  0  0  0  0  0  0  0  0  0  0  0  # atno 8008 bound_to 7997
  155.8003  140.0884  157.1980 H   0  0  0  0  0  0  0  0  0  0  0  0  # atno 8009 bound_to 7997
  154.4009  140.1467  156.3253 H   0  0  0  0  0  0  0  0  0  0  0  0  # atno 8010 bound_to 7997
  140.1617  144.4364  150.6706 H   0  0  0  0  0  0  0  0  0  0  0  0  # atno 10167 bound_to 10162
  156.8503  130.9717  151.3093 H   0  0  0  0  0  0  0  0  0  0  0  0  # atno 10718 bound_to 10713
  154.6520  135.5352  153.7913 H   0  0  0  0  0  0  0  0  0  0  0  0  # atno 10763 bound_to 10752
  153.0392  135.6485  154.1002 H   0  0  0  0  0  0  0  0  0  0  0  0  # atno 10764 bound_to 10752
  154.0918  135.2939  155.3250 H   0  0  0  0  0  0  0  0  0  0  0  0  # atno 10765 bound_to 10752
  139.8888  134.9491  156.6322 H   0  0  0  0  0  0  0  0  0  0  0  0  # atno 11005 bound_to 11000
  145.0448  140.8973  143.5030 LP  0  0  0  0  0  0  0  0  0  0  0  0  # atno 17320 bound_to 7965
  145.1245  139.2672  143.5571 LP  0  0  0  0  0  0  0  0  0  0  0  0  # atno 17321 bound_to 7965
  140.6639  143.2261  151.5790 LP  0  0  0  0  0  0  0  0  0  0  0  0  # atno 17342 bound_to 10162
  139.5378  144.2731  152.1288 LP  0  0  0  0  0  0  0  0  0  0  0  0  # atno 17343 bound_to 10162
  157.6307  130.8727  149.9268 LP  0  0  0  0  0  0  0  0  0  0  0  0  # atno 17370 bound_to 10713
  156.0831  130.3671  150.0540 LP  0  0  0  0  0  0  0  0  0  0  0  0  # atno 17371 bound_to 10713
  140.7657  133.8780  155.8453 LP  0  0  0  0  0  0  0  0  0  0  0  0  # atno 17394 bound_to 11000
  140.9884  134.1312  157.4431 LP  0  0  0  0  0  0  0  0  0  0  0  0  # atno 17395 bound_to 11000

$$$$
