AV-unprocessed.smi:1752|AV-procd|sdf|7060|dock10
  -GOLD-   22720 8273D 1   1.00000     0.00000
 Structure written by MMmdl.
 43 44  0  0  0  0  0  0  0  0  2 V2000
  151.1511  140.3547  155.8894 C   0  0  0  0  0  0  0  0  0  0  0  0
  150.4287  141.6689  156.2139 C   0  0  2  0  0  0  0  0  0  0  0  0
  150.4022  141.9341  157.7344 C   0  0  0  0  0  0  0  0  0  0  0  0
  151.4338  142.8615  158.1640 N   0  0  0  0  0  0  0  0  0  0  0  0
  151.6768  144.1428  157.7155 C   0  0  0  0  0  0  0  0  0  0  0  0
  152.7515  144.6192  158.4099 C   0  0  0  0  0  0  0  0  0  0  0  0
  153.0979  143.5441  159.2756 C   0  0  0  0  0  0  0  0  0  0  0  0
  152.3050  142.4950  159.1285 N   0  0  0  0  0  0  0  0  0  0  0  0
  149.0724  141.6055  155.6718 N   0  0  0  0  0  0  0  0  0  0  0  0
  148.7414  141.3409  154.3956 C   0  0  0  0  0  0  0  0  0  0  0  0
  149.5841  141.1424  153.5198 O   0  0  0  0  0  0  0  0  0  0  0  0
  147.4069  141.3168  154.1495 N   0  0  0  0  0  0  0  0  0  0  0  0
  146.3470  141.6103  155.1286 C   0  0  0  0  0  0  0  0  0  0  0  0
  145.9282  140.3291  155.8703 C   0  0  0  0  0  0  0  0  0  0  0  0
  145.4529  139.1925  154.9408 C   0  0  0  0  0  0  0  0  0  0  0  0
  146.5779  138.6054  154.1640 N   0  3  1  0  0  0  0  0  0  0  0  0
  146.4719  137.1351  154.0331 C   0  0  0  0  0  0  0  0  0  0  0  0
  146.8305  139.2536  152.8462 C   0  0  0  0  0  0  0  0  0  0  0  0
  146.8869  140.7988  152.8778 C   0  0  0  0  0  0  0  0  0  0  0  0
  152.1822  140.3777  156.2434 H   0  0  0  0  0  0  0  0  0  0  0  0
  151.1778  140.1757  154.8140 H   0  0  0  0  0  0  0  0  0  0  0  0
  150.6572  139.5028  156.3584 H   0  0  0  0  0  0  0  0  0  0  0  0
  150.9874  142.4690  155.7245 H   0  0  0  0  0  0  0  0  0  0  0  0
  149.4300  142.3247  158.0387 H   0  0  0  0  0  0  0  0  0  0  0  0
  150.5450  141.0003  158.2801 H   0  0  0  0  0  0  0  0  0  0  0  0
  151.0743  144.6018  156.9456 H   0  0  0  0  0  0  0  0  0  0  0  0
  153.2188  145.5880  158.3155 H   0  0  0  0  0  0  0  0  0  0  0  0
  153.8951  143.4956  160.0026 H   0  0  0  0  0  0  0  0  0  0  0  0
  148.3204  141.7713  156.3248 H   0  0  0  0  0  0  0  0  0  0  0  0
  146.6493  142.3746  155.8453 H   0  0  0  0  0  0  0  0  0  0  0  0
  145.4780  142.0423  154.6311 H   0  0  0  0  0  0  0  0  0  0  0  0
  146.7512  139.9739  156.4919 H   0  0  0  0  0  0  0  0  0  0  0  0
  145.1214  140.5797  156.5597 H   0  0  0  0  0  0  0  0  0  0  0  0
  145.0120  138.4218  155.5747 H   0  0  0  0  0  0  0  0  0  0  0  0
  144.6540  139.5250  154.2764 H   0  0  0  0  0  0  0  0  0  0  0  0
  145.5743  136.8555  153.4798 H   0  0  0  0  0  0  0  0  0  0  0  0
  146.4329  136.6603  155.0142 H   0  0  0  0  0  0  0  0  0  0  0  0
  147.3379  136.7308  153.5079 H   0  0  0  0  0  0  0  0  0  0  0  0
  147.7846  138.8771  152.4747 H   0  0  0  0  0  0  0  0  0  0  0  0
  146.0753  138.9360  152.1257 H   0  0  0  0  0  0  0  0  0  0  0  0
  145.8853  141.1887  152.6942 H   0  0  0  0  0  0  0  0  0  0  0  0
  147.4789  141.1684  152.0388 H   0  0  0  0  0  0  0  0  0  0  0  0
  147.4051  138.7675  154.7209 H   0  0  0  0  0  0  0  0  0  0  0  0
  1  2  1  0  0  0  0
  1 20  1  0  0  0  0
  1 21  1  0  0  0  0
  1 22  1  0  0  0  0
  2  3  1  0  0  0  0
  2  9  1  0  0  0  0
  2 23  1  0  0  0  0
  3  4  1  0  0  0  0
  3 24  1  0  0  0  0
  3 25  1  0  0  0  0
  4  8  1  0  0  0  0
  4  5  1  0  0  0  0
  5  6  2  0  0  0  0
  5 26  1  0  0  0  0
  6  7  1  0  0  0  0
  6 27  1  0  0  0  0
  7  8  2  0  0  0  0
  7 28  1  0  0  0  0
  9 10  1  0  0  0  0
  9 29  1  0  0  0  0
 10 11  2  0  0  0  0
 10 12  1  0  0  0  0
 12 19  1  0  0  0  0
 12 13  1  0  0  0  0
 13 14  1  0  0  0  0
 13 30  1  0  0  0  0
 13 31  1  0  0  0  0
 14 15  1  0  0  0  0
 14 32  1  0  0  0  0
 14 33  1  0  0  0  0
 15 16  1  0  0  0  0
 15 34  1  0  0  0  0
 15 35  1  0  0  0  0
 16 17  1  0  0  0  0
 16 18  1  0  0  0  0
 16 43  1  0  0  0  0
 17 36  1  0  0  0  0
 17 37  1  0  0  0  0
 17 38  1  0  0  0  0
 18 19  1  0  0  0  0
 18 39  1  0  0  0  0
 18 40  1  0  0  0  0
 19 41  1  0  0  0  0
 19 42  1  0  0  0  0
M  CHG  1  16   1
M  END
> <s_m_source_file>
AV-unprocessed.smi

> <i_m_source_file_index>
1752

> <i_lp_mmshare_version>
43012

> <i_f3d_flags>
0

> <s_epik_input>
bjFbY0hdW2NIXVtjSF1uMVtDSDJdW0NAQEhdKFtDSDNdKVtOSF1DKD1PKU4yW0NIMl1bQ0gyXVtDSDJdTihbQ0gzXSlbQ0gyXVtDSDJdMg==

> <s_epik_cmdline>
J2VwaWtfcHl0aG9uJywgJy1waCcsICc3LjAnLCAnLXRuJywgJzgnLCAnLW1hJywgJzIwMCcsICctbWV0YWxfYmluZGluZycsICctaW1hZScsICc8aW5maWxlLm1hZT4nLCAnLW9tYWUnLCAnPG91dGZpbGUubWFlPic=

> <r_lp_tautomer_probability>
1

> <r_epik_Ionization_Penalty>
0.00208423

> <r_epik_Ionization_Penalty_Charging>
0.00203643

> <r_epik_Ionization_Penalty_Neutral>
4.77939e-05

> <r_epik_State_Penalty>
0.00139278

> <r_epik_Charging_Adjusted_Penalty>
0.00342922

> <i_epik_Tot_Q>
1

> <i_epik_Tot_abs_Q>
1

> <r_epik_Metal_State_Penalty>
-0

> <b_epik_Metal_Only>
0

> <s_lp_Force_Field>
OPLS_2005

> <r_lp_Energy>
39.6128

> <b_lp_Chiralities_Consistent>
1

> <s_lp_Variant>
AV-unprocessed.smi:1752-3

> <Gold.Version>
5.8.1

> <Gold.Id.Protein>
6NUR|6NUR_protein|mol2

> <Gold.PLP.Fitness>
41.9797

> <Gold.PLP.PLP>
-36.4819

> <Gold.PLP.part.hbond>
-2.8105

> <Gold.PLP.part.metal>
0.0000

> <Gold.PLP.part.buried>
-4.5979

> <Gold.PLP.part.nonpolar>
-33.7299

> <Gold.PLP.part.repulsive>
3.6505

> <Gold.PLP.ligand.clash>
0.0000

> <Gold.PLP.ligand.torsion>
0.6237

> <Gold.PLP.Chemscore.Hbond>
1.2400

> <Gold.PLP.Chemscore.CHOScore>
1.0000

> <Gold.PLP.Chemscore.Metal>
0.0000

> <Gold.Chemscore.Hbonds>
donor molecule, donor type, donor heavy atom, donor atom, acceptor molecule, acceptor atom, score
      P1  H  7989  7998       L1    11  0.21
      P1  H  8011  8017       L1    11  1.00
      L1  C     5    26       P1  8028  1.00

> <Gold.PLP.Chemscore.Internal.Correction>
0.0253

> <Gold.Rescore>
     Score         DG    S(hbond)    S(metal)    S(lipo)     H(rot)  DE(clash)    DE(int)     intcor
     13.69     -15.60       1.17        0.00      84.06       1.41       1.33       0.57       ----

> <Gold.Chemscore.Fitness>
13.6903

> <Gold.Chemscore.DG>
-15.5994

> <Gold.Chemscore.ZeroCoef>
-5.4800

> <Gold.Chemscore.Hbond>
1.1679

> <Gold.Chemscore.Metal>
0.0000

> <Gold.Chemscore.Lipo>
84.0568

> <Gold.Chemscore.Internal_Hbond>
0.0000

> <Gold.Chemscore.DEClash>
1.3346

> <Gold.Chemscore.DEInternal>
0.5745

> <Gold.Chemscore.Rot>
1.4125

> <Gold.Chemscore.Internal.Correction>
   9.000000E+99

> <Gold.Chemscore.Hbonds>
donor molecule, donor type, donor heavy atom, donor atom, acceptor molecule, acceptor atom, score
      P1  H  7989  7998       L1    11  0.21
      P1  H  8011  8017       L1    11  0.90

> <Gold.Chemscore.Hbond.Weighted>
-3.9007

> <Gold.Chemscore.Metal.Weighted>
-0.0000

> <Gold.Chemscore.Lipo.Weighted>
-9.8346

> <Gold.Chemscore.Internal_Hbond.Weighted>
0.0000

> <Gold.Chemscore.DEClash.Weighted>
1.3346

> <Gold.Chemscore.DEInternal.Weighted>
0.5745

> <Gold.Chemscore.Rot.Weighted>
3.6160

> <Gold.Chemscore.Internal.Correction.Weighted>
   9.000000E+99

> <Gold.Protein.RotatedTorsions>
[ 6907 6896 6895 6894 ] final   36.04 input  -60.11 | X-H torsion
[ 7974 7965 7964 7962 ] final  -35.49 input  175.53 | X-H torsion
[ 8008 7997 7996 7995 ] final  -28.91 input   59.86 | X-H torsion
[ 10167 10162 10161 10158 ] final  135.17 input  -65.29 | X-H torsion
[ 10718 10713 10712 10709 ] final   82.65 input   66.30 | X-H torsion
[ 10763 10752 10751 10750 ] final  168.31 input  -60.55 | X-H torsion
[ 11005 11000 10999 10996 ] final  -10.61 input  -57.11 | X-H torsion

> <Gold.Protein.ActiveResidues>
 VAL166  LYS551  ARG553  GLY616  TRP617  ASP618  TYR619  PRO620  LYS621  CYS622 
 ASP623  PHE694  ASN695  SER759  ASP760  ASP761  ALA762  ILE779  LEU786  VAL792 
 PHE793  MET794  SER795  GLU796  ALA797  LYS798  CYS799  TRP800  GLU811  SER814 

> <Gold.Protein.RotatedAtoms>
  152.1243  134.9182  160.0561 H   0  0  0  0  0  0  0  0  0  0  0  0  # atno 6907 bound_to 6896
  152.0311  133.3933  159.4306 H   0  0  0  0  0  0  0  0  0  0  0  0  # atno 6908 bound_to 6896
  150.6851  134.3440  159.4924 H   0  0  0  0  0  0  0  0  0  0  0  0  # atno 6909 bound_to 6896
  146.0742  140.6165  142.8938 H   0  0  0  0  0  0  0  0  0  0  0  0  # atno 7974 bound_to 7965
  154.4312  140.1832  156.1164 H   0  0  0  0  0  0  0  0  0  0  0  0  # atno 8008 bound_to 7997
  156.0177  140.3344  155.6981 H   0  0  0  0  0  0  0  0  0  0  0  0  # atno 8009 bound_to 7997
  155.6020  140.0641  157.2721 H   0  0  0  0  0  0  0  0  0  0  0  0  # atno 8010 bound_to 7997
  139.5227  144.6530  151.5244 H   0  0  0  0  0  0  0  0  0  0  0  0  # atno 10167 bound_to 10162
  157.6862  131.0057  150.2406 H   0  0  0  0  0  0  0  0  0  0  0  0  # atno 10718 bound_to 10713
  154.3666  135.2753  155.2290 H   0  0  0  0  0  0  0  0  0  0  0  0  # atno 10763 bound_to 10752
  154.4455  135.5944  153.6161 H   0  0  0  0  0  0  0  0  0  0  0  0  # atno 10764 bound_to 10752
  152.9840  135.6029  154.3893 H   0  0  0  0  0  0  0  0  0  0  0  0  # atno 10765 bound_to 10752
  140.7466  133.8626  155.9010 H   0  0  0  0  0  0  0  0  0  0  0  0  # atno 11005 bound_to 11000
  144.7251  140.4498  143.6979 LP  0  0  0  0  0  0  0  0  0  0  0  0  # atno 17320 bound_to 7965
  145.6336  139.1540  143.2955 LP  0  0  0  0  0  0  0  0  0  0  0  0  # atno 17321 bound_to 7965
  140.6344  143.9013  150.6634 LP  0  0  0  0  0  0  0  0  0  0  0  0  # atno 17342 bound_to 10162
  140.2328  143.3723  152.1552 LP  0  0  0  0  0  0  0  0  0  0  0  0  # atno 17343 bound_to 10162
  156.3021  130.3760  149.7740 LP  0  0  0  0  0  0  0  0  0  0  0  0  # atno 17370 bound_to 10713
  156.5367  130.8281  151.3255 LP  0  0  0  0  0  0  0  0  0  0  0  0  # atno 17371 bound_to 10713
  140.9789  134.1432  157.4512 LP  0  0  0  0  0  0  0  0  0  0  0  0  # atno 17394 bound_to 11000
  139.8795  135.0004  156.6007 LP  0  0  0  0  0  0  0  0  0  0  0  0  # atno 17395 bound_to 11000

$$$$
