AV-unprocessed.smi:1916|AV-procd|sdf|7764|dock4
  -GOLD-   22720 9503D 1   1.00000     0.00000
 Structure written by MMmdl.
 45 47  0  0  0  0  0  0  0  0  1 V2000
  149.3858  140.4393  158.3060 O   0  0  0  0  0  0  0  0  0  0  0  0
  150.2792  139.5927  158.2633 C   0  0  0  0  0  0  0  0  0  0  0  0
  150.0781  138.2938  158.5362 N   0  0  0  0  0  0  0  0  0  0  0  0
  148.7840  137.6840  158.8349 C   0  0  0  0  0  0  0  0  0  0  0  0
  148.8689  136.6657  159.9908 C   0  0  0  0  0  0  0  0  0  0  0  0
  147.5903  136.5512  160.8055 C   0  0  0  0  0  0  0  0  0  0  0  0
  147.4527  135.5565  161.7983 C   0  0  0  0  0  0  0  0  0  0  0  0
  146.2323  135.4682  162.4954 C   0  0  0  0  0  0  0  0  0  0  0  0
  145.2024  136.3741  162.1771 C   0  0  0  0  0  0  0  0  0  0  0  0
  145.4425  137.3365  161.1761 C   0  0  0  0  0  0  0  0  0  0  0  0
  146.6096  137.4314  160.5029 N   0  0  0  0  0  0  0  0  0  0  0  0
  151.7005  139.9910  157.8360 C   0  0  2  0  0  0  0  0  0  0  0  0
  152.7510  139.6155  158.8963 C   0  0  0  0  0  0  0  0  0  0  0  0
  153.1718  140.9543  159.4802 C   0  0  0  0  0  0  0  0  0  0  0  0
  153.8916  141.0432  160.4739 O   0  0  0  0  0  0  0  0  0  0  0  0
  152.6456  141.9779  158.7926 N   0  0  0  0  0  0  0  0  0  0  0  0
  152.7855  143.3965  159.1626 C   0  0  0  0  0  0  0  0  0  0  0  0
  152.2288  143.7780  160.5496 C   0  0  0  0  0  0  0  0  0  0  0  0
  151.8415  145.2474  160.4153 C   0  0  0  0  0  0  0  0  0  0  0  0
  151.2666  145.3422  159.0045 C   0  0  0  0  0  0  0  0  0  0  0  0
  152.0776  144.3447  158.1681 C   0  0  0  0  0  0  0  0  0  0  0  0
  151.8346  141.5182  157.6717 C   0  0  0  0  0  0  0  0  0  0  0  0
  150.8711  137.6712  158.4800 H   0  0  0  0  0  0  0  0  0  0  0  0
  148.0879  138.4794  159.1014 H   0  0  0  0  0  0  0  0  0  0  0  0
  148.3693  137.2066  157.9453 H   0  0  0  0  0  0  0  0  0  0  0  0
  149.1237  135.6830  159.5920 H   0  0  0  0  0  0  0  0  0  0  0  0
  149.6867  136.9392  160.6585 H   0  0  0  0  0  0  0  0  0  0  0  0
  148.2559  134.8665  162.0107 H   0  0  0  0  0  0  0  0  0  0  0  0
  146.0861  134.7147  163.2552 H   0  0  0  0  0  0  0  0  0  0  0  0
  144.2518  136.3330  162.6879 H   0  0  0  0  0  0  0  0  0  0  0  0
  144.6759  138.0485  160.9078 H   0  0  0  0  0  0  0  0  0  0  0  0
  151.9386  139.4974  156.8922 H   0  0  0  0  0  0  0  0  0  0  0  0
  152.3731  138.9541  159.6777 H   0  0  0  0  0  0  0  0  0  0  0  0
  153.6157  139.1340  158.4386 H   0  0  0  0  0  0  0  0  0  0  0  0
  153.8501  143.6382  159.1608 H   0  0  0  0  0  0  0  0  0  0  0  0
  151.3219  143.2220  160.7875 H   0  0  0  0  0  0  0  0  0  0  0  0
  152.9464  143.6034  161.3519 H   0  0  0  0  0  0  0  0  0  0  0  0
  151.1332  145.5673  161.1800 H   0  0  0  0  0  0  0  0  0  0  0  0
  152.7308  145.8738  160.4972 H   0  0  0  0  0  0  0  0  0  0  0  0
  150.2190  145.0380  159.0188 H   0  0  0  0  0  0  0  0  0  0  0  0
  151.3096  146.3555  158.6041 H   0  0  0  0  0  0  0  0  0  0  0  0
  152.8186  144.8649  157.5600 H   0  0  0  0  0  0  0  0  0  0  0  0
  151.4179  143.8129  157.4809 H   0  0  0  0  0  0  0  0  0  0  0  0
  152.3419  141.7586  156.7364 H   0  0  0  0  0  0  0  0  0  0  0  0
  150.8646  142.0169  157.6611 H   0  0  0  0  0  0  0  0  0  0  0  0
  1  2  2  0  0  0  0
  2  3  1  0  0  0  0
  2 12  1  0  0  0  0
  3  4  1  0  0  0  0
  3 23  1  0  0  0  0
  4  5  1  0  0  0  0
  4 24  1  0  0  0  0
  4 25  1  0  0  0  0
  5  6  1  0  0  0  0
  5 26  1  0  0  0  0
  5 27  1  0  0  0  0
  6 11  1  0  0  0  0
  6  7  2  0  0  0  0
  7  8  1  0  0  0  0
  7 28  1  0  0  0  0
  8  9  2  0  0  0  0
  8 29  1  0  0  0  0
  9 10  1  0  0  0  0
  9 30  1  0  0  0  0
 10 11  2  0  0  0  0
 10 31  1  0  0  0  0
 12 22  1  0  0  0  0
 12 13  1  0  0  0  0
 12 32  1  0  0  0  0
 13 14  1  0  0  0  0
 13 33  1  0  0  0  0
 13 34  1  0  0  0  0
 14 15  2  0  0  0  0
 14 16  1  0  0  0  0
 16 17  1  0  0  0  0
 16 22  1  0  0  0  0
 17 21  1  0  0  0  0
 17 18  1  0  0  0  0
 17 35  1  0  0  0  0
 18 19  1  0  0  0  0
 18 36  1  0  0  0  0
 18 37  1  0  0  0  0
 19 20  1  0  0  0  0
 19 38  1  0  0  0  0
 19 39  1  0  0  0  0
 20 21  1  0  0  0  0
 20 40  1  0  0  0  0
 20 41  1  0  0  0  0
 21 42  1  0  0  0  0
 21 43  1  0  0  0  0
 22 44  1  0  0  0  0
 22 45  1  0  0  0  0
M  END
> <s_m_source_file>
AV-unprocessed.smi

> <i_m_source_file_index>
1916

> <i_lp_mmshare_version>
43012

> <i_f3d_flags>
0

> <s_epik_input>
W0NIMl0xW0NIMl1bQ0gyXVtDSDJdW0NIXTFOKFtDSDJdMilDKD1PKVtDSDJdW0NASF0yQyg9TylbTkhdW0NIMl1bQ0gyXWMzW2NIXVtjSF1bY0hdW2NIXW4z

> <s_epik_cmdline>
J2VwaWtfcHl0aG9uJywgJy1waCcsICc3LjAnLCAnLXRuJywgJzgnLCAnLW1hJywgJzIwMCcsICctbWV0YWxfYmluZGluZycsICctaW1hZScsICc8aW5maWxlLm1hZT4nLCAnLW9tYWUnLCAnPG91dGZpbGUubWFlPic=

> <r_epik_Ionization_Penalty>
0.0252359

> <r_epik_Ionization_Penalty_Charging>
0

> <r_epik_Ionization_Penalty_Neutral>
0.0252359

> <r_epik_State_Penalty>
0.020532

> <r_epik_Charging_Adjusted_Penalty>
0.020532

> <i_epik_Tot_Q>
0

> <i_epik_Tot_abs_Q>
0

> <r_epik_Metal_State_Penalty>
0.0196901

> <b_epik_Metal_Only>
0

> <s_lp_Force_Field>
OPLS_2005

> <r_lp_Energy>
33.617

> <b_lp_Chiralities_Consistent>
1

> <s_lp_Variant>
AV-unprocessed.smi:1916-1

> <Gold.Version>
5.8.1

> <Gold.Id.Protein>
6NUR|6NUR_protein|mol2

> <Gold.PLP.Fitness>
51.2103

> <Gold.PLP.PLP>
-48.9891

> <Gold.PLP.part.hbond>
-1.0444

> <Gold.PLP.part.metal>
0.0000

> <Gold.PLP.part.buried>
-6.4020

> <Gold.PLP.part.nonpolar>
-40.9959

> <Gold.PLP.part.repulsive>
0.1658

> <Gold.PLP.ligand.clash>
0.0000

> <Gold.PLP.ligand.torsion>
0.4298

> <Gold.PLP.Chemscore.Hbond>
1.0000

> <Gold.PLP.Chemscore.CHOScore>
0.0000

> <Gold.PLP.Chemscore.Metal>
0.0000

> <Gold.Chemscore.Hbonds>
donor molecule, donor type, donor heavy atom, donor atom, acceptor molecule, acceptor atom, score
      P1  H  6934  6947       L1    11  1.00

> <Gold.PLP.Chemscore.Internal.Correction>
0.0807

> <Gold.Rescore>
     Score         DG    S(hbond)    S(metal)    S(lipo)     H(rot)  DE(clash)    DE(int)     intcor
     18.41     -19.06       0.85        0.00     127.08       1.61       0.13       0.51       ----

> <Gold.Chemscore.Fitness>
18.4117

> <Gold.Chemscore.DG>
-19.0558

> <Gold.Chemscore.ZeroCoef>
-5.4800

> <Gold.Chemscore.Hbond>
0.8478

> <Gold.Chemscore.Metal>
0.0000

> <Gold.Chemscore.Lipo>
127.0816

> <Gold.Chemscore.Internal_Hbond>
0.0000

> <Gold.Chemscore.DEClash>
0.1296

> <Gold.Chemscore.DEInternal>
0.5145

> <Gold.Chemscore.Rot>
1.6110

> <Gold.Chemscore.Internal.Correction>
   9.000000E+99

> <Gold.Chemscore.Hbonds>
donor molecule, donor type, donor heavy atom, donor atom, acceptor molecule, acceptor atom, score
      P1  H  6934  6947       L1    11  0.26

> <Gold.Chemscore.Hbond.Weighted>
-2.8315

> <Gold.Chemscore.Metal.Weighted>
-0.0000

> <Gold.Chemscore.Lipo.Weighted>
-14.8685

> <Gold.Chemscore.Internal_Hbond.Weighted>
0.0000

> <Gold.Chemscore.DEClash.Weighted>
0.1296

> <Gold.Chemscore.DEInternal.Weighted>
0.5145

> <Gold.Chemscore.Rot.Weighted>
4.1243

> <Gold.Chemscore.Internal.Correction.Weighted>
   9.000000E+99

> <Gold.Protein.RotatedTorsions>
[ 6907 6896 6895 6894 ] final -107.43 input  -60.11 | X-H torsion
[ 7974 7965 7964 7962 ] final -126.16 input  175.53 | X-H torsion
[ 8008 7997 7996 7995 ] final  -17.45 input   59.86 | X-H torsion
[ 10167 10162 10161 10158 ] final  162.33 input  -65.29 | X-H torsion
[ 10718 10713 10712 10709 ] final  108.35 input   66.30 | X-H torsion
[ 10763 10752 10751 10750 ] final  166.20 input  -60.55 | X-H torsion
[ 11005 11000 10999 10996 ] final  -21.82 input  -57.11 | X-H torsion

> <Gold.Protein.ActiveResidues>
 VAL166  LYS551  ARG553  GLY616  TRP617  ASP618  TYR619  PRO620  LYS621  CYS622 
 ASP623  PHE694  ASN695  SER759  ASP760  ASP761  ALA762  ILE779  LEU786  VAL792 
 PHE793  MET794  SER795  GLU796  ALA797  LYS798  CYS799  TRP800  GLU811  SER814 

> <Gold.Protein.RotatedAtoms>
  150.7443  133.9828  159.3581 H   0  0  0  0  0  0  0  0  0  0  0  0  # atno 6907 bound_to 6896
  151.7770  135.0769  160.0377 H   0  0  0  0  0  0  0  0  0  0  0  0  # atno 6908 bound_to 6896
  152.3300  133.5911  159.5839 H   0  0  0  0  0  0  0  0  0  0  0  0  # atno 6909 bound_to 6896
  144.9902  140.7724  143.4559 H   0  0  0  0  0  0  0  0  0  0  0  0  # atno 7974 bound_to 7965
  154.4977  140.2142  155.9411 H   0  0  0  0  0  0  0  0  0  0  0  0  # atno 8008 bound_to 7997
  156.1393  140.3182  155.8438 H   0  0  0  0  0  0  0  0  0  0  0  0  # atno 8009 bound_to 7997
  155.4151  140.0493  157.3020 H   0  0  0  0  0  0  0  0  0  0  0  0  # atno 8010 bound_to 7997
  139.4859  144.4448  151.8906 H   0  0  0  0  0  0  0  0  0  0  0  0  # atno 10167 bound_to 10162
  157.6590  131.0892  150.6292 H   0  0  0  0  0  0  0  0  0  0  0  0  # atno 10718 bound_to 10713
  154.3355  135.2754  155.2450 H   0  0  0  0  0  0  0  0  0  0  0  0  # atno 10763 bound_to 10752
  154.4743  135.5875  153.6347 H   0  0  0  0  0  0  0  0  0  0  0  0  # atno 10764 bound_to 10752
  152.9862  135.6096  154.3551 H   0  0  0  0  0  0  0  0  0  0  0  0  # atno 10765 bound_to 10752
  140.8598  133.7796  156.0061 H   0  0  0  0  0  0  0  0  0  0  0  0  # atno 11005 bound_to 11000
  145.2297  139.2121  143.5049 LP  0  0  0  0  0  0  0  0  0  0  0  0  # atno 17320 bound_to 7965
  146.3429  140.2171  142.8591 LP  0  0  0  0  0  0  0  0  0  0  0  0  # atno 17321 bound_to 7965
  140.3901  144.2626  150.5900 LP  0  0  0  0  0  0  0  0  0  0  0  0  # atno 17342 bound_to 10162
  140.5154  143.2279  151.8472 LP  0  0  0  0  0  0  0  0  0  0  0  0  # atno 17343 bound_to 10162
  156.6596  130.4508  149.5692 LP  0  0  0  0  0  0  0  0  0  0  0  0  # atno 17370 bound_to 10713
  156.2077  130.6659  151.1236 LP  0  0  0  0  0  0  0  0  0  0  0  0  # atno 17371 bound_to 10713
  140.8696  134.2742  157.5197 LP  0  0  0  0  0  0  0  0  0  0  0  0  # atno 17394 bound_to 11000
  139.8706  134.9560  156.4225 LP  0  0  0  0  0  0  0  0  0  0  0  0  # atno 17395 bound_to 11000

$$$$
