#       Name:                AV-unprocessed.smi:1867
#       Creating user name   scv26
#       Creation time:       Fri Mar 27 09:28:56 2020


#       File generated by GOLD software.
#

@<TRIPOS>MOLECULE
AV-unprocessed.smi:1867
    55    58     1
SMALL
NO_CHARGES


@<TRIPOS>ATOM
      1 ****        -0.4350   2.0175   0.4137 O.2            1 S1                 0.0000
      2 ****        -0.7973   0.8425   0.4176 C.2            1 S1                 0.0000
      3 ****         0.1321  -0.1320   0.2603 N.am           1 S1                 0.0000
      4 ****         1.5179  -0.0117  -0.0264 C.ar           1 S1                 0.0000
      5 ****         2.3654  -1.0705   0.3595 C.ar           1 S1                 0.0000
      6 ****         3.7428  -1.0066   0.0661 C.ar           1 S1                 0.0000
      7 ****         4.2608   0.1152  -0.6228 C.ar           1 S1                 0.0000
      8 ****         5.6211   0.2405  -0.9609 N.pl3          1 S1                 0.0000
      9 ****         6.1692   1.4752  -1.4980 C.3            1 S1                 0.0000
     10 ****         7.6699   1.2108  -1.6077 C.3            1 S1                 0.0000
     11 ****         7.9428   0.2653  -0.4371 C.3            1 S1                 0.0000
     12 ****         6.6510  -0.5499  -0.3027 C.3            1 S1                 0.0000
     13 ****         3.4068   1.1001  -0.9903 N.pl3          1 S1                 1.0000
     14 ****         2.0824   1.0801  -0.7270 C.ar           1 S1                 0.0000
     15 ****        -2.1085   0.5061   0.6112 N.pl3          1 S1                -1.0000
     16 ****        -2.7374  -0.8284   0.6052 C.3            1 S1                 0.0000
     17 ****        -2.9152  -1.3207   2.0547 C.3            1 S1                 0.0000
     18 ****        -4.3230  -0.8625   2.4910 C.3            1 S1                 0.0000
     19 ****        -4.9166  -0.2105   1.3065 N.4            1 S1                 1.0000
     20 ****        -6.3882  -0.2786   1.1655 C.3            1 S1                 0.0000
     21 ****        -6.8241   0.5088  -0.0871 C.3            1 S1                 0.0000
     22 ****        -6.0744   0.0388  -1.3506 C.3            1 S1                 0.0000
     23 ****        -4.5491   0.0692  -1.1336 C.3            1 S1                 0.0000
     24 ****        -4.1990  -0.7400   0.1353 C.3            1 S1                 0.0000
     25 ****        -0.2027  -1.0747   0.3941 H              1 S1                 0.0000
     26 ****         1.9650  -1.9286   0.8796 H              1 S1                 0.0000
     27 ****         4.3820  -1.8241   0.3646 H              1 S1                 0.0000
     28 ****         5.7320   1.7263  -2.4648 H              1 S1                 0.0000
     29 ****         5.9713   2.2929  -0.8035 H              1 S1                 0.0000
     30 ****         7.8886   0.7032  -2.5483 H              1 S1                 0.0000
     31 ****         8.2662   2.1227  -1.5698 H              1 S1                 0.0000
     32 ****         8.8226  -0.3595  -0.5921 H              1 S1                 0.0000
     33 ****         8.1023   0.8486   0.4707 H              1 S1                 0.0000
     34 ****         6.4180  -0.7422   0.7452 H              1 S1                 0.0000
     35 ****         6.7422  -1.5076  -0.8160 H              1 S1                 0.0000
     36 ****         1.5287   1.9281  -1.1021 H              1 S1                 0.0000
     37 ****        -2.1846  -1.5537   0.0070 H              1 S1                 0.0000
     38 ****        -2.8697  -2.4101   2.0763 H              1 S1                 0.0000
     39 ****        -2.1353  -0.9587   2.7265 H              1 S1                 0.0000
     40 ****        -4.9211  -1.7208   2.8018 H              1 S1                 0.0000
     41 ****        -4.2865  -0.1586   3.3233 H              1 S1                 0.0000
     42 ****        -6.7044  -1.3199   1.0890 H              1 S1                 0.0000
     43 ****        -6.8596   0.1382   2.0561 H              1 S1                 0.0000
     44 ****        -7.8999   0.4104  -0.2336 H              1 S1                 0.0000
     45 ****        -6.6312   1.5709   0.0700 H              1 S1                 0.0000
     46 ****        -6.3860  -0.9759  -1.6011 H              1 S1                 0.0000
     47 ****        -6.3443   0.6642  -2.2020 H              1 S1                 0.0000
     48 ****        -4.0426  -0.3407  -2.0089 H              1 S1                 0.0000
     49 ****        -4.2262   1.1081  -1.0420 H              1 S1                 0.0000
     50 ****        -4.5432  -1.7646  -0.0235 H              1 S1                 0.0000
     51 ****        -4.6559   0.7642   1.3623 H              1 S1                 0.0000
     52 ****         3.7818   1.9007  -1.4989 H              1 S1                 0.0000
     53 ****         0.5323   2.2421   0.2957 LP             1 S1                 0.0000
     54 ****        -1.1077   2.7486   0.5284 LP             1 S1                 0.0000
     55 ****        -2.7282   1.2725   0.7806 LP             1 S1                 0.0000
@<TRIPOS>BOND
    1    1    2 2     
    2    2    3 am    
    3    2   15 1     
    4    3    4 1     
    5    3   25 1     
    6    4   14 ar    
    7    4    5 ar    
    8    5    6 ar    
    9    5   26 1     
   10    6    7 ar    
   11    6   27 1     
   12    7    8 1     
   13    7   13 ar    
   14    8   12 1     
   15    8    9 1     
   16    9   10 1     
   17    9   28 1     
   18    9   29 1     
   19   10   11 1     
   20   10   30 1     
   21   10   31 1     
   22   11   12 1     
   23   11   32 1     
   24   11   33 1     
   25   12   34 1     
   26   12   35 1     
   27   13   14 ar    
   28   13   52 1     
   29   14   36 1     
   30   15   16 1     
   31   16   24 1     
   32   16   17 1     
   33   16   37 1     
   34   17   18 1     
   35   17   38 1     
   36   17   39 1     
   37   18   19 1     
   38   18   40 1     
   39   18   41 1     
   40   19   24 1     
   41   19   20 1     
   42   19   51 1     
   43   20   21 1     
   44   20   42 1     
   45   20   43 1     
   46   21   22 1     
   47   21   44 1     
   48   21   45 1     
   49   22   23 1     
   50   22   46 1     
   51   22   47 1     
   52   23   24 1     
   53   23   48 1     
   54   23   49 1     
   55   24   50 1     
   56    1   53 1     
   57    1   54 1     
   58   15   55 1     
@<TRIPOS>SUBSTRUCTURE
      1 S1             1
@<TRIPOS>SET
LONE_PAIRS      STATIC     ATOMS    <user>   **** ""
3 53 54 55
DONOR_HYDROGENS      STATIC     ATOMS    <user>   **** ""
3 25 52 51
ATOM$BLUE        STATIC     ATOMS    COLORGROUP SYSTEM
3 53 54 55
ATOM$RED        STATIC     ATOMS    COLORGROUP SYSTEM
3 25 52 51
