AV-unprocessed.smi:2340|AV-procd|sdf|9348|dock2
  -GOLD-   2272012573D 1   1.00000     0.00000
 Structure written by MMmdl.
 40 41  0  0  0  0  0  0  0  0  1 V2000
  145.6693  128.6823  152.2437 C   0  0  0  0  0  0  0  0  0  0  0  0
  145.9535  130.1511  152.2247 C   0  0  0  0  0  0  0  0  0  0  0  0
  145.2303  131.1242  151.5814 C   0  0  0  0  0  0  0  0  0  0  0  0
  145.9150  132.7077  151.8228 S   0  0  0  0  0  0  0  0  0  0  0  0
  147.1819  131.9782  152.8076 C   0  0  0  0  0  0  0  0  0  0  0  0
  148.2857  132.7588  153.4515 C   0  0  2  0  0  0  0  0  0  0  0  0
  149.3115  131.8293  154.1228 C   0  0  0  0  0  0  0  0  0  0  0  0
  147.7246  133.8443  154.3953 C   0  0  0  0  0  0  0  0  0  0  0  0
  148.2747  135.1690  154.1248 N   0  0  0  0  0  0  0  0  0  0  0  0
  148.3291  136.1730  155.0105 C   0  0  0  0  0  0  0  0  0  0  0  0
  147.9144  136.0959  156.1670 O   0  0  0  0  0  0  0  0  0  0  0  0
  148.8954  137.2683  154.4851 N   0  0  0  0  0  0  0  0  0  0  0  0
  149.1018  138.5345  155.1889 C   0  0  2  0  0  0  0  0  0  0  0  0
  148.1939  139.6215  154.6144 C   0  0  0  0  0  0  0  0  0  0  0  0
  149.1311  140.7994  154.3690 C   0  0  0  0  0  0  0  0  0  0  0  0
  150.3708  140.1748  154.0876 O   0  0  0  0  0  0  0  0  0  0  0  0
  150.5256  139.1160  155.0211 C   0  0  2  0  0  0  0  0  0  0  0  0
  151.6371  138.1618  154.5546 C   0  0  0  0  0  0  0  0  0  0  0  0
  147.0597  130.6521  152.9168 N   0  0  0  0  0  0  0  0  0  0  0  0
  144.8195  128.4317  151.6082 H   0  0  0  0  0  0  0  0  0  0  0  0
  145.4389  128.3397  153.2526 H   0  0  0  0  0  0  0  0  0  0  0  0
  146.5264  128.1106  151.8869 H   0  0  0  0  0  0  0  0  0  0  0  0
  144.3397  131.0063  150.9820 H   0  0  0  0  0  0  0  0  0  0  0  0
  148.8127  133.2723  152.6456 H   0  0  0  0  0  0  0  0  0  0  0  0
  149.7020  131.1017  153.4108 H   0  0  0  0  0  0  0  0  0  0  0  0
  148.8661  131.2777  154.9512 H   0  0  0  0  0  0  0  0  0  0  0  0
  150.1621  132.3870  154.5148 H   0  0  0  0  0  0  0  0  0  0  0  0
  146.6363  133.8820  154.3215 H   0  0  0  0  0  0  0  0  0  0  0  0
  147.9522  133.5933  155.4316 H   0  0  0  0  0  0  0  0  0  0  0  0
  148.6431  135.3295  153.1988 H   0  0  0  0  0  0  0  0  0  0  0  0
  149.2105  137.2268  153.5270 H   0  0  0  0  0  0  0  0  0  0  0  0
  148.8892  138.4106  156.2523 H   0  0  0  0  0  0  0  0  0  0  0  0
  147.7581  139.3063  153.6648 H   0  0  0  0  0  0  0  0  0  0  0  0
  147.3730  139.8812  155.2833 H   0  0  0  0  0  0  0  0  0  0  0  0
  148.8036  141.4363  153.5471 H   0  0  0  0  0  0  0  0  0  0  0  0
  149.2270  141.4149  155.2649 H   0  0  0  0  0  0  0  0  0  0  0  0
  150.8284  139.5629  155.9700 H   0  0  0  0  0  0  0  0  0  0  0  0
  151.7661  137.3357  155.2544 H   0  0  0  0  0  0  0  0  0  0  0  0
  152.5902  138.6863  154.4860 H   0  0  0  0  0  0  0  0  0  0  0  0
  151.4226  137.7437  153.5709 H   0  0  0  0  0  0  0  0  0  0  0  0
  1  2  1  0  0  0  0
  1 20  1  0  0  0  0
  1 21  1  0  0  0  0
  1 22  1  0  0  0  0
  2 19  1  0  0  0  0
  2  3  2  0  0  0  0
  3  4  1  0  0  0  0
  3 23  1  0  0  0  0
  4  5  1  0  0  0  0
  5  6  1  0  0  0  0
  5 19  2  0  0  0  0
  6  7  1  0  0  0  0
  6  8  1  0  0  0  0
  6 24  1  0  0  0  0
  7 25  1  0  0  0  0
  7 26  1  0  0  0  0
  7 27  1  0  0  0  0
  8  9  1  0  0  0  0
  8 28  1  0  0  0  0
  8 29  1  0  0  0  0
  9 10  1  0  0  0  0
  9 30  1  0  0  0  0
 10 11  2  0  0  0  0
 10 12  1  0  0  0  0
 12 13  1  0  0  0  0
 12 31  1  0  0  0  0
 13 17  1  0  0  0  0
 13 14  1  0  0  0  0
 13 32  1  0  0  0  0
 14 15  1  0  0  0  0
 14 33  1  0  0  0  0
 14 34  1  0  0  0  0
 15 16  1  0  0  0  0
 15 35  1  0  0  0  0
 15 36  1  0  0  0  0
 16 17  1  0  0  0  0
 17 18  1  0  0  0  0
 17 37  1  0  0  0  0
 18 38  1  0  0  0  0
 18 39  1  0  0  0  0
 18 40  1  0  0  0  0
M  END
> <s_m_source_file>
AV-unprocessed.smi

> <i_m_source_file_index>
2340

> <i_lp_mmshare_version>
43012

> <i_f3d_flags>
0

> <s_epik_input>
W0NIM11jMVtjSF1zYyhuMSlbQ0BIXShbQ0gzXSlbQ0gyXVtOSF1DKD1PKVtOSF1bQ0BASF0yW0NIMl1bQ0gyXU9bQ0BIXTJbQ0gzXQ==

> <s_epik_cmdline>
J2VwaWtfcHl0aG9uJywgJy1waCcsICc3LjAnLCAnLXRuJywgJzgnLCAnLW1hJywgJzIwMCcsICctbWV0YWxfYmluZGluZycsICctaW1hZScsICc8aW5maWxlLm1hZT4nLCAnLW9tYWUnLCAnPG91dGZpbGUubWFlPic=

> <r_epik_Ionization_Penalty>
0.00156622

> <r_epik_Ionization_Penalty_Charging>
0

> <r_epik_Ionization_Penalty_Neutral>
0.00156622

> <r_epik_State_Penalty>
0.00101902

> <r_epik_Charging_Adjusted_Penalty>
0.00101902

> <i_epik_Tot_Q>
0

> <i_epik_Tot_abs_Q>
0

> <r_epik_Metal_State_Penalty>
-0

> <b_epik_Metal_Only>
0

> <s_lp_Force_Field>
OPLS_2005

> <r_lp_Energy>
6.07196

> <b_lp_Chiralities_Consistent>
1

> <s_lp_Variant>
AV-unprocessed.smi:2340-5

> <Gold.Version>
5.8.1

> <Gold.Id.Protein>
6NUR|6NUR_protein|mol2

> <Gold.PLP.Fitness>
40.2206

> <Gold.PLP.PLP>
-33.6218

> <Gold.PLP.part.hbond>
-2.7088

> <Gold.PLP.part.metal>
0.0000

> <Gold.PLP.part.buried>
-4.8025

> <Gold.PLP.part.nonpolar>
-27.2750

> <Gold.PLP.part.repulsive>
0.7093

> <Gold.PLP.ligand.clash>
0.0000

> <Gold.PLP.ligand.torsion>
0.9924

> <Gold.PLP.Chemscore.Hbond>
2.8320

> <Gold.PLP.Chemscore.CHOScore>
0.0000

> <Gold.PLP.Chemscore.Metal>
0.0000

> <Gold.Chemscore.Hbonds>
donor molecule, donor type, donor heavy atom, donor atom, acceptor molecule, acceptor atom, score
      L1  H     9    30       P1  7948  1.00
      L1  H    12    31       P1  7948  0.86
      P1  H  7989  7998       L1    16  1.00

> <Gold.PLP.Chemscore.Internal.Correction>
0.0876

> <Gold.Rescore>
     Score         DG    S(hbond)    S(metal)    S(lipo)     H(rot)  DE(clash)    DE(int)     intcor
     19.54     -20.47       2.74        0.00      83.40       1.53       0.00       0.92       ----

> <Gold.Chemscore.Fitness>
19.5447

> <Gold.Chemscore.DG>
-20.4667

> <Gold.Chemscore.ZeroCoef>
-5.4800

> <Gold.Chemscore.Hbond>
2.7403

> <Gold.Chemscore.Metal>
0.0000

> <Gold.Chemscore.Lipo>
83.3960

> <Gold.Chemscore.Internal_Hbond>
0.0000

> <Gold.Chemscore.DEClash>
0.0042

> <Gold.Chemscore.DEInternal>
0.9178

> <Gold.Chemscore.Rot>
1.5325

> <Gold.Chemscore.Internal.Correction>
   9.000000E+99

> <Gold.Chemscore.Hbonds>
donor molecule, donor type, donor heavy atom, donor atom, acceptor molecule, acceptor atom, score
      L1  H     9    30       P1  7948  0.83
      L1  H    12    31       P1  7948  0.84
      P1  H  7989  7998       L1    16  0.89

> <Gold.Chemscore.Hbond.Weighted>
-9.1527

> <Gold.Chemscore.Metal.Weighted>
-0.0000

> <Gold.Chemscore.Lipo.Weighted>
-9.7573

> <Gold.Chemscore.Internal_Hbond.Weighted>
0.0000

> <Gold.Chemscore.DEClash.Weighted>
0.0042

> <Gold.Chemscore.DEInternal.Weighted>
0.9178

> <Gold.Chemscore.Rot.Weighted>
3.9233

> <Gold.Chemscore.Internal.Correction.Weighted>
   9.000000E+99

> <Gold.Protein.RotatedTorsions>
[ 6907 6896 6895 6894 ] final   31.58 input  -60.11 | X-H torsion
[ 7974 7965 7964 7962 ] final  150.62 input  175.53 | X-H torsion
[ 8008 7997 7996 7995 ] final  178.47 input   59.86 | X-H torsion
[ 10167 10162 10161 10158 ] final    8.54 input  -65.29 | X-H torsion
[ 10718 10713 10712 10709 ] final   87.10 input   66.30 | X-H torsion
[ 10763 10752 10751 10750 ] final   81.87 input  -60.55 | X-H torsion
[ 11005 11000 10999 10996 ] final  125.01 input  -57.11 | X-H torsion

> <Gold.Protein.ActiveResidues>
 VAL166  LYS551  ARG553  GLY616  TRP617  ASP618  TYR619  PRO620  LYS621  CYS622 
 ASP623  PHE694  ASN695  SER759  ASP760  ASP761  ALA762  ILE779  LEU786  VAL792 
 PHE793  MET794  SER795  GLU796  ALA797  LYS798  CYS799  TRP800  GLU811  SER814 

> <Gold.Protein.RotatedAtoms>
  152.0623  134.9586  160.0574 H   0  0  0  0  0  0  0  0  0  0  0  0  # atno 6907 bound_to 6896
  152.0944  133.4212  159.4567 H   0  0  0  0  0  0  0  0  0  0  0  0  # atno 6908 bound_to 6896
  150.6837  134.2753  159.4648 H   0  0  0  0  0  0  0  0  0  0  0  0  # atno 6909 bound_to 6896
  144.8351  139.6431  143.6041 H   0  0  0  0  0  0  0  0  0  0  0  0  # atno 7974 bound_to 7965
  156.0543  140.1332  157.0015 H   0  0  0  0  0  0  0  0  0  0  0  0  # atno 8008 bound_to 7997
  154.4450  140.1004  156.6493 H   0  0  0  0  0  0  0  0  0  0  0  0  # atno 8009 bound_to 7997
  155.5476  140.3462  155.4463 H   0  0  0  0  0  0  0  0  0  0  0  0  # atno 8010 bound_to 7997
  140.6308  143.7997  150.7293 H   0  0  0  0  0  0  0  0  0  0  0  0  # atno 10167 bound_to 10162
  157.6936  131.0242  150.3072 H   0  0  0  0  0  0  0  0  0  0  0  0  # atno 10718 bound_to 10713
  153.1153  135.4749  154.9105 H   0  0  0  0  0  0  0  0  0  0  0  0  # atno 10763 bound_to 10752
  154.7522  135.3109  154.8538 H   0  0  0  0  0  0  0  0  0  0  0  0  # atno 10764 bound_to 10752
  153.9116  135.6864  153.4804 H   0  0  0  0  0  0  0  0  0  0  0  0  # atno 10765 bound_to 10752
  139.9386  134.9637  156.8495 H   0  0  0  0  0  0  0  0  0  0  0  0  # atno 11005 bound_to 11000
  146.2651  139.6500  142.9335 LP  0  0  0  0  0  0  0  0  0  0  0  0  # atno 17320 bound_to 7965
  145.4812  141.0438  143.2645 LP  0  0  0  0  0  0  0  0  0  0  0  0  # atno 17321 bound_to 7965
  140.1608  143.4277  152.2068 LP  0  0  0  0  0  0  0  0  0  0  0  0  # atno 17342 bound_to 10162
  139.5523  144.7346  151.4399 LP  0  0  0  0  0  0  0  0  0  0  0  0  # atno 17343 bound_to 10162
  156.3579  130.3842  149.7275 LP  0  0  0  0  0  0  0  0  0  0  0  0  # atno 17370 bound_to 10713
  156.4731  130.8006  151.3023 LP  0  0  0  0  0  0  0  0  0  0  0  0  # atno 17371 bound_to 10713
  140.6011  134.0171  155.7537 LP  0  0  0  0  0  0  0  0  0  0  0  0  # atno 17394 bound_to 11000
  141.1011  133.9767  157.3078 LP  0  0  0  0  0  0  0  0  0  0  0  0  # atno 17395 bound_to 11000

$$$$
