AV-unprocessed.smi:2002|AV-procd|sdf|8114|dock7
  -GOLD-   2272010343D 1   1.00000     0.00000
 Structure written by MMmdl.
 39 40  0  0  0  0  0  0  0  0  2 V2000
  144.6349  131.7949  150.6861 C   0  0  0  0  0  0  0  0  0  0  0  0
  143.2938  132.5407  150.7162 C   0  0  0  0  0  0  0  0  0  0  0  0
  143.4752  134.0058  150.8404 N   0  3  2  0  0  0  0  0  0  0  0  0
  144.3729  134.5919  149.8220 C   0  0  0  0  0  0  0  0  0  0  0  0
  144.9956  135.8159  150.4877 C   0  0  0  0  0  0  0  0  0  0  0  0
  145.1801  135.3492  151.9286 C   0  0  1  0  0  0  0  0  0  0  0  0
  145.3814  136.4965  152.9373 C   0  0  0  0  0  0  0  0  0  0  0  0
  146.7620  136.9719  152.9578 N   0  0  0  0  0  0  0  0  0  0  0  0
  147.2315  137.9726  153.7173 C   0  0  0  0  0  0  0  0  0  0  0  0
  146.5328  138.6101  154.5050 O   0  0  0  0  0  0  0  0  0  0  0  0
  148.5436  138.1693  153.5057 N   0  0  0  0  0  0  0  0  0  0  0  0
  149.4049  139.1116  154.1255 C   0  0  0  0  0  0  0  0  0  0  0  0
  149.0049  140.2510  154.8827 C   0  0  0  0  0  0  0  0  0  0  0  0
  150.1971  140.8099  155.2473 C   0  0  0  0  0  0  0  0  0  0  0  0
  150.5480  142.0176  156.0466 C   0  0  0  0  0  0  0  0  0  0  0  0
  151.2336  140.0775  154.7582 O   0  0  0  0  0  0  0  0  0  0  0  0
  150.7170  138.9921  154.0410 N   0  0  0  0  0  0  0  0  0  0  0  0
  143.9397  134.4730  152.1695 C   0  0  0  0  0  0  0  0  0  0  0  0
  144.4752  130.7176  150.6385 H   0  0  0  0  0  0  0  0  0  0  0  0
  145.2218  132.0027  151.5812 H   0  0  0  0  0  0  0  0  0  0  0  0
  145.2342  132.0751  149.8198 H   0  0  0  0  0  0  0  0  0  0  0  0
  142.7073  132.3122  149.8252 H   0  0  0  0  0  0  0  0  0  0  0  0
  142.7176  132.1853  151.5716 H   0  0  0  0  0  0  0  0  0  0  0  0
  145.1595  133.8793  149.5670 H   0  0  0  0  0  0  0  0  0  0  0  0
  143.8342  134.8393  148.9068 H   0  0  0  0  0  0  0  0  0  0  0  0
  145.9309  136.1215  150.0176 H   0  0  0  0  0  0  0  0  0  0  0  0
  144.3031  136.6580  150.4450 H   0  0  0  0  0  0  0  0  0  0  0  0
  146.0600  134.7035  151.9527 H   0  0  0  0  0  0  0  0  0  0  0  0
  144.7499  137.3399  152.6575 H   0  0  0  0  0  0  0  0  0  0  0  0
  145.0589  136.1952  153.9356 H   0  0  0  0  0  0  0  0  0  0  0  0
  147.4087  136.5067  152.3371 H   0  0  0  0  0  0  0  0  0  0  0  0
  148.9842  137.5689  152.8243 H   0  0  0  0  0  0  0  0  0  0  0  0
  148.0182  140.6138  155.1272 H   0  0  0  0  0  0  0  0  0  0  0  0
  149.6633  142.6225  156.2465 H   0  0  0  0  0  0  0  0  0  0  0  0
  151.2684  142.6388  155.5142 H   0  0  0  0  0  0  0  0  0  0  0  0
  150.9867  141.7329  157.0028 H   0  0  0  0  0  0  0  0  0  0  0  0
  143.1295  135.0540  152.6105 H   0  0  0  0  0  0  0  0  0  0  0  0
  144.1677  133.6543  152.8535 H   0  0  0  0  0  0  0  0  0  0  0  0
  142.5700  134.4296  150.6933 H   0  0  0  0  0  0  0  0  0  0  0  0
  1  2  1  0  0  0  0
  1 19  1  0  0  0  0
  1 20  1  0  0  0  0
  1 21  1  0  0  0  0
  2  3  1  0  0  0  0
  2 22  1  0  0  0  0
  2 23  1  0  0  0  0
  3 18  1  0  0  0  0
  3  4  1  0  0  0  0
  3 39  1  0  0  0  0
  4  5  1  0  0  0  0
  4 24  1  0  0  0  0
  4 25  1  0  0  0  0
  5  6  1  0  0  0  0
  5 26  1  0  0  0  0
  5 27  1  0  0  0  0
  6  7  1  0  0  0  0
  6 18  1  0  0  0  0
  6 28  1  0  0  0  0
  7  8  1  0  0  0  0
  7 29  1  0  0  0  0
  7 30  1  0  0  0  0
  8  9  1  0  0  0  0
  8 31  1  0  0  0  0
  9 10  2  0  0  0  0
  9 11  1  0  0  0  0
 11 12  1  0  0  0  0
 11 32  1  0  0  0  0
 12 17  2  0  0  0  0
 12 13  1  0  0  0  0
 13 14  2  0  0  0  0
 13 33  1  0  0  0  0
 14 15  1  0  0  0  0
 14 16  1  0  0  0  0
 15 34  1  0  0  0  0
 15 35  1  0  0  0  0
 15 36  1  0  0  0  0
 16 17  1  0  0  0  0
 18 37  1  0  0  0  0
 18 38  1  0  0  0  0
M  CHG  1   3   1
M  END
> <s_m_source_file>
AV-unprocessed.smi

> <i_m_source_file_index>
2002

> <i_lp_mmshare_version>
43012

> <i_f3d_flags>
0

> <s_epik_input>
W0NIM11bQ0gyXU4xW0NIMl1bQ0gyXVtDQEhdKFtDSDJdMSlbQ0gyXVtOSF1DKD1PKVtOSF1jMltjSF1jKFtDSDNdKW9uMg==

> <s_epik_cmdline>
J2VwaWtfcHl0aG9uJywgJy1waCcsICc3LjAnLCAnLXRuJywgJzgnLCAnLW1hJywgJzIwMCcsICctbWV0YWxfYmluZGluZycsICctaW1hZScsICc8aW5maWxlLm1hZT4nLCAnLW9tYWUnLCAnPG91dGZpbGUubWFlPic=

> <r_epik_Ionization_Penalty>
0.000632871

> <r_epik_Ionization_Penalty_Charging>
0.000610951

> <r_epik_Ionization_Penalty_Neutral>
2.19198e-05

> <r_epik_State_Penalty>
0.000385263

> <r_epik_Charging_Adjusted_Penalty>
0.000996214

> <i_epik_Tot_Q>
1

> <i_epik_Tot_abs_Q>
1

> <r_epik_Metal_State_Penalty>
-0

> <b_epik_Metal_Only>
0

> <s_lp_Force_Field>
OPLS_2005

> <r_lp_Energy>
27.554

> <b_lp_Chiralities_Consistent>
1

> <s_lp_Variant>
AV-unprocessed.smi:2002-2

> <Gold.Version>
5.8.1

> <Gold.Id.Protein>
6NUR|6NUR_protein|mol2

> <Gold.PLP.Fitness>
41.8736

> <Gold.PLP.PLP>
-28.8951

> <Gold.PLP.part.hbond>
-4.8623

> <Gold.PLP.part.metal>
0.0000

> <Gold.PLP.part.buried>
1.0448

> <Gold.PLP.part.nonpolar>
-24.5933

> <Gold.PLP.part.repulsive>
0.3990

> <Gold.PLP.ligand.clash>
0.0000

> <Gold.PLP.ligand.torsion>
0.3018

> <Gold.PLP.Chemscore.Hbond>
4.5240

> <Gold.PLP.Chemscore.CHOScore>
0.0000

> <Gold.PLP.Chemscore.Metal>
0.0000

> <Gold.Chemscore.Hbonds>
donor molecule, donor type, donor heavy atom, donor atom, acceptor molecule, acceptor atom, score
      L1  H     3    39       P1 10186  1.79
      L1  H     8    31       P1  7948  1.00
      L1  H    11    32       P1  7948  1.00
      P1  H  7989  7998       L1    16  0.75

> <Gold.PLP.Chemscore.Internal.Correction>
0.0101

> <Gold.Rescore>
     Score         DG    S(hbond)    S(metal)    S(lipo)     H(rot)  DE(clash)    DE(int)     intcor
     15.79     -18.91       2.82        0.00      67.61       1.52       1.73       1.39       ----

> <Gold.Chemscore.Fitness>
15.7926

> <Gold.Chemscore.DG>
-18.9133

> <Gold.Chemscore.ZeroCoef>
-5.4800

> <Gold.Chemscore.Hbond>
2.8204

> <Gold.Chemscore.Metal>
0.0000

> <Gold.Chemscore.Lipo>
67.6094

> <Gold.Chemscore.Internal_Hbond>
0.0000

> <Gold.Chemscore.DEClash>
1.7287

> <Gold.Chemscore.DEInternal>
1.3920

> <Gold.Chemscore.Rot>
1.5223

> <Gold.Chemscore.Internal.Correction>
   9.000000E+99

> <Gold.Chemscore.Hbonds>
donor molecule, donor type, donor heavy atom, donor atom, acceptor molecule, acceptor atom, score
      L1  H     3    39       P1 10186  0.26
      L1  H     8    31       P1  7948  0.94
      L1  H    11    32       P1  7948  0.95
      P1  H  7989  7998       L1    16  0.04

> <Gold.Chemscore.Hbond.Weighted>
-9.4200

> <Gold.Chemscore.Metal.Weighted>
-0.0000

> <Gold.Chemscore.Lipo.Weighted>
-7.9103

> <Gold.Chemscore.Internal_Hbond.Weighted>
0.0000

> <Gold.Chemscore.DEClash.Weighted>
1.7287

> <Gold.Chemscore.DEInternal.Weighted>
1.3920

> <Gold.Chemscore.Rot.Weighted>
3.8971

> <Gold.Chemscore.Internal.Correction.Weighted>
   9.000000E+99

> <Gold.Protein.RotatedTorsions>
[ 6907 6896 6895 6894 ] final -146.09 input  -60.11 | X-H torsion
[ 7974 7965 7964 7962 ] final  -40.07 input  175.53 | X-H torsion
[ 8008 7997 7996 7995 ] final  -11.79 input   59.86 | X-H torsion
[ 10167 10162 10161 10158 ] final  -23.65 input  -65.29 | X-H torsion
[ 10718 10713 10712 10709 ] final  -66.15 input   66.30 | X-H torsion
[ 10763 10752 10751 10750 ] final  -44.51 input  -60.55 | X-H torsion
[ 11005 11000 10999 10996 ] final   50.71 input  -57.11 | X-H torsion

> <Gold.Protein.ActiveResidues>
 VAL166  LYS551  ARG553  GLY616  TRP617  ASP618  TYR619  PRO620  LYS621  CYS622 
 ASP623  PHE694  ASN695  SER759  ASP760  ASP761  ALA762  ILE779  LEU786  VAL792 
 PHE793  MET794  SER795  GLU796  ALA797  LYS798  CYS799  TRP800  GLU811  SER814 

> <Gold.Protein.RotatedAtoms>
  151.1368  133.4999  159.2597 H   0  0  0  0  0  0  0  0  0  0  0  0  # atno 6907 bound_to 6896
  151.1698  135.0312  159.8756 H   0  0  0  0  0  0  0  0  0  0  0  0  # atno 6908 bound_to 6896
  152.5461  134.1233  159.8461 H   0  0  0  0  0  0  0  0  0  0  0  0  # atno 6909 bound_to 6896
  146.0339  140.6697  142.9119 H   0  0  0  0  0  0  0  0  0  0  0  0  # atno 7974 bound_to 7965
  154.5433  140.2293  155.8604 H   0  0  0  0  0  0  0  0  0  0  0  0  # atno 8008 bound_to 7997
  156.1879  140.3084  155.9237 H   0  0  0  0  0  0  0  0  0  0  0  0  # atno 8009 bound_to 7997
  155.3214  140.0440  157.3030 H   0  0  0  0  0  0  0  0  0  0  0  0  # atno 8010 bound_to 7997
  140.7288  143.4424  151.0637 H   0  0  0  0  0  0  0  0  0  0  0  0  # atno 10167 bound_to 10162
  156.0628  130.4258  150.1667 H   0  0  0  0  0  0  0  0  0  0  0  0  # atno 10718 bound_to 10713
  154.0133  135.6678  153.4767 H   0  0  0  0  0  0  0  0  0  0  0  0  # atno 10763 bound_to 10752
  153.0611  135.5027  154.8092 H   0  0  0  0  0  0  0  0  0  0  0  0  # atno 10764 bound_to 10752
  154.6982  135.3074  154.9344 H   0  0  0  0  0  0  0  0  0  0  0  0  # atno 10765 bound_to 10752
  140.0994  134.5101  155.8776 H   0  0  0  0  0  0  0  0  0  0  0  0  # atno 11005 bound_to 11000
  144.7043  140.3785  143.7131 LP  0  0  0  0  0  0  0  0  0  0  0  0  # atno 17320 bound_to 7965
  145.6996  139.1658  143.2600 LP  0  0  0  0  0  0  0  0  0  0  0  0  # atno 17321 bound_to 7965
  139.8092  143.7974  152.3170 LP  0  0  0  0  0  0  0  0  0  0  0  0  # atno 17342 bound_to 10162
  139.8018  144.7371  150.9814 LP  0  0  0  0  0  0  0  0  0  0  0  0  # atno 17343 bound_to 10162
  156.9733  130.9841  151.3454 LP  0  0  0  0  0  0  0  0  0  0  0  0  # atno 17370 bound_to 10713
  157.5650  130.8271  149.8315 LP  0  0  0  0  0  0  0  0  0  0  0  0  # atno 17371 bound_to 10713
  141.2101  133.6691  156.6488 LP  0  0  0  0  0  0  0  0  0  0  0  0  # atno 17394 bound_to 11000
  140.3241  134.7984  157.4275 LP  0  0  0  0  0  0  0  0  0  0  0  0  # atno 17395 bound_to 11000

$$$$
