AV-unprocessed.smi:2114|AV-procd|sdf|8618|dock5
  -GOLD-   2272011363D 1   1.00000     0.00000
 Structure written by MMmdl.
 47 48  0  0  0  0  0  0  0  0  1 V2000
  153.9145  132.7569  164.9340 C   0  0  0  0  0  0  0  0  0  0  0  0
  154.9078  133.7386  164.6966 O   0  0  0  0  0  0  0  0  0  0  0  0
  154.4684  134.7545  163.8090 C   0  0  0  0  0  0  0  0  0  0  0  0
  155.4434  135.9403  163.8683 C   0  0  1  0  0  0  0  0  0  0  0  0
  156.8616  135.5250  163.4446 C   0  0  0  0  0  0  0  0  0  0  0  0
  154.9528  137.0149  163.0100 N   0  0  0  0  0  0  0  0  0  0  0  0
  155.2743  138.3136  163.1261 C   0  0  0  0  0  0  0  0  0  0  0  0
  156.0726  138.7471  163.9572 O   0  0  0  0  0  0  0  0  0  0  0  0
  154.6427  139.2273  162.1167 C   0  0  0  0  0  0  0  0  0  0  0  0
  154.5188  140.6081  162.3749 C   0  0  0  0  0  0  0  0  0  0  0  0
  153.9023  141.4330  161.4147 C   0  0  0  0  0  0  0  0  0  0  0  0
  153.4145  140.8554  160.2188 C   0  0  0  0  0  0  0  0  0  0  0  0
  152.7964  141.6652  159.2421 N   0  0  0  0  0  0  0  0  0  0  0  0
  152.4575  143.0389  159.6063 C   0  0  0  0  0  0  0  0  0  0  0  0
  152.0713  143.8477  158.3543 C   0  0  2  0  0  0  0  0  0  0  0  0
  151.5945  145.2605  158.7065 C   0  0  0  0  0  0  0  0  0  0  0  0
  151.0165  143.1757  157.6716 O   0  0  0  0  0  0  0  0  0  0  0  0
  151.3977  141.8774  157.2246 C   0  0  2  0  0  0  0  0  0  0  0  0
  150.2333  141.2842  156.4253 C   0  0  0  0  0  0  0  0  0  0  0  0
  151.7652  141.0097  158.4430 C   0  0  0  0  0  0  0  0  0  0  0  0
  153.5167  139.5246  159.9810 N   0  0  0  0  0  0  0  0  0  0  0  0
  154.1099  138.7380  160.9035 C   0  0  0  0  0  0  0  0  0  0  0  0
  154.3005  132.0044  165.6216 H   0  0  0  0  0  0  0  0  0  0  0  0
  153.6288  132.2533  164.0096 H   0  0  0  0  0  0  0  0  0  0  0  0
  153.0235  133.1977  165.3829 H   0  0  0  0  0  0  0  0  0  0  0  0
  154.4300  134.3558  162.7937 H   0  0  0  0  0  0  0  0  0  0  0  0
  153.4590  135.0772  164.0710 H   0  0  0  0  0  0  0  0  0  0  0  0
  155.4810  136.2950  164.9001 H   0  0  0  0  0  0  0  0  0  0  0  0
  157.2420  134.7265  164.0822 H   0  0  0  0  0  0  0  0  0  0  0  0
  157.5585  136.3604  163.5186 H   0  0  0  0  0  0  0  0  0  0  0  0
  156.8799  135.1660  162.4151 H   0  0  0  0  0  0  0  0  0  0  0  0
  154.3047  136.7514  162.2817 H   0  0  0  0  0  0  0  0  0  0  0  0
  154.8910  141.0380  163.2937 H   0  0  0  0  0  0  0  0  0  0  0  0
  153.7972  142.4894  161.6122 H   0  0  0  0  0  0  0  0  0  0  0  0
  151.6306  143.0284  160.3181 H   0  0  0  0  0  0  0  0  0  0  0  0
  153.3063  143.5163  160.0980 H   0  0  0  0  0  0  0  0  0  0  0  0
  152.9328  143.9288  157.6890 H   0  0  0  0  0  0  0  0  0  0  0  0
  152.3739  145.8198  159.2245 H   0  0  0  0  0  0  0  0  0  0  0  0
  150.7171  145.2309  159.3532 H   0  0  0  0  0  0  0  0  0  0  0  0
  151.3278  145.8171  157.8080 H   0  0  0  0  0  0  0  0  0  0  0  0
  152.2616  141.9659  156.5630 H   0  0  0  0  0  0  0  0  0  0  0  0
  150.4820  140.2925  156.0466 H   0  0  0  0  0  0  0  0  0  0  0  0
  149.9876  141.9146  155.5705 H   0  0  0  0  0  0  0  0  0  0  0  0
  149.3378  141.1935  157.0407 H   0  0  0  0  0  0  0  0  0  0  0  0
  152.0878  140.0284  158.0980 H   0  0  0  0  0  0  0  0  0  0  0  0
  150.8865  140.8517  159.0697 H   0  0  0  0  0  0  0  0  0  0  0  0
  154.1514  137.6868  160.6581 H   0  0  0  0  0  0  0  0  0  0  0  0
  1  2  1  0  0  0  0
  1 23  1  0  0  0  0
  1 24  1  0  0  0  0
  1 25  1  0  0  0  0
  2  3  1  0  0  0  0
  3  4  1  0  0  0  0
  3 26  1  0  0  0  0
  3 27  1  0  0  0  0
  4  5  1  0  0  0  0
  4  6  1  0  0  0  0
  4 28  1  0  0  0  0
  5 29  1  0  0  0  0
  5 30  1  0  0  0  0
  5 31  1  0  0  0  0
  6  7  1  0  0  0  0
  6 32  1  0  0  0  0
  7  8  2  0  0  0  0
  7  9  1  0  0  0  0
  9 22  1  0  0  0  0
  9 10  2  0  0  0  0
 10 11  1  0  0  0  0
 10 33  1  0  0  0  0
 11 12  2  0  0  0  0
 11 34  1  0  0  0  0
 12 13  1  0  0  0  0
 12 21  1  0  0  0  0
 13 20  1  0  0  0  0
 13 14  1  0  0  0  0
 14 15  1  0  0  0  0
 14 35  1  0  0  0  0
 14 36  1  0  0  0  0
 15 16  1  0  0  0  0
 15 17  1  0  0  0  0
 15 37  1  0  0  0  0
 16 38  1  0  0  0  0
 16 39  1  0  0  0  0
 16 40  1  0  0  0  0
 17 18  1  0  0  0  0
 18 19  1  0  0  0  0
 18 20  1  0  0  0  0
 18 41  1  0  0  0  0
 19 42  1  0  0  0  0
 19 43  1  0  0  0  0
 19 44  1  0  0  0  0
 20 45  1  0  0  0  0
 20 46  1  0  0  0  0
 21 22  2  0  0  0  0
 22 47  1  0  0  0  0
M  END
> <s_m_source_file>
AV-unprocessed.smi

> <i_m_source_file_index>
2114

> <i_lp_mmshare_version>
43012

> <i_f3d_flags>
0

> <s_epik_input>
W0NIM11PW0NIMl1bQ0BIXShbQ0gzXSlbTkhdQyg9TyljMVtjSF1bY0hdYyhuW2NIXTEpTjJbQ0gyXVtDQEBIXShbQ0gzXSlPW0NAQEhdKFtDSDNdKVtDSDJdMg==

> <s_epik_cmdline>
J2VwaWtfcHl0aG9uJywgJy1waCcsICc3LjAnLCAnLXRuJywgJzgnLCAnLW1hJywgJzIwMCcsICctbWV0YWxfYmluZGluZycsICctaW1hZScsICc8aW5maWxlLm1hZT4nLCAnLW9tYWUnLCAnPG91dGZpbGUubWFlPic=

> <r_lp_tautomer_probability>
1

> <r_epik_Ionization_Penalty>
1.92915e-05

> <r_epik_Ionization_Penalty_Charging>
0

> <r_epik_Ionization_Penalty_Neutral>
1.92915e-05

> <r_epik_State_Penalty>
-0

> <r_epik_Charging_Adjusted_Penalty>
0

> <i_epik_Tot_Q>
0

> <i_epik_Tot_abs_Q>
0

> <r_epik_Metal_State_Penalty>
-0

> <b_epik_Metal_Only>
0

> <s_lp_Force_Field>
OPLS_2005

> <r_lp_Energy>
18.3403

> <b_lp_Chiralities_Consistent>
1

> <s_lp_Variant>
AV-unprocessed.smi:2114-2

> <Gold.Version>
5.8.1

> <Gold.Id.Protein>
6NUR|6NUR_protein|mol2

> <Gold.PLP.Fitness>
39.5104

> <Gold.PLP.PLP>
-41.2661

> <Gold.PLP.part.hbond>
0.0000

> <Gold.PLP.part.metal>
0.0000

> <Gold.PLP.part.buried>
-5.9156

> <Gold.PLP.part.nonpolar>
-34.8232

> <Gold.PLP.part.repulsive>
0.2182

> <Gold.PLP.ligand.clash>
0.0000

> <Gold.PLP.ligand.torsion>
1.0497

> <Gold.PLP.Chemscore.Hbond>
0.0000

> <Gold.PLP.Chemscore.CHOScore>
0.0000

> <Gold.PLP.Chemscore.Metal>
0.0000

> <Gold.PLP.Chemscore.Internal.Correction>
0.3438

> <Gold.Rescore>
     Score         DG    S(hbond)    S(metal)    S(lipo)     H(rot)  DE(clash)    DE(int)     intcor
     14.83     -16.08       0.00        0.00     123.89       1.52       0.08       1.16       ----

> <Gold.Chemscore.Fitness>
14.8340

> <Gold.Chemscore.DG>
-16.0776

> <Gold.Chemscore.ZeroCoef>
-5.4800

> <Gold.Chemscore.Hbond>
0.0000

> <Gold.Chemscore.Metal>
0.0000

> <Gold.Chemscore.Lipo>
123.8934

> <Gold.Chemscore.Internal_Hbond>
0.0000

> <Gold.Chemscore.DEClash>
0.0843

> <Gold.Chemscore.DEInternal>
1.1593

> <Gold.Chemscore.Rot>
1.5226

> <Gold.Chemscore.Internal.Correction>
   9.000000E+99

> <Gold.Chemscore.Hbond.Weighted>
-0.0000

> <Gold.Chemscore.Metal.Weighted>
-0.0000

> <Gold.Chemscore.Lipo.Weighted>
-14.4955

> <Gold.Chemscore.Internal_Hbond.Weighted>
0.0000

> <Gold.Chemscore.DEClash.Weighted>
0.0843

> <Gold.Chemscore.DEInternal.Weighted>
1.1593

> <Gold.Chemscore.Rot.Weighted>
3.8980

> <Gold.Chemscore.Internal.Correction.Weighted>
   9.000000E+99

> <Gold.Protein.RotatedTorsions>
[ 6907 6896 6895 6894 ] final  -53.06 input  -60.11 | X-H torsion
[ 7974 7965 7964 7962 ] final   63.22 input  175.53 | X-H torsion
[ 8008 7997 7996 7995 ] final  117.86 input   59.86 | X-H torsion
[ 10167 10162 10161 10158 ] final  -77.67 input  -65.29 | X-H torsion
[ 10718 10713 10712 10709 ] final  105.75 input   66.30 | X-H torsion
[ 10763 10752 10751 10750 ] final  100.21 input  -60.55 | X-H torsion
[ 11005 11000 10999 10996 ] final  -68.04 input  -57.11 | X-H torsion

> <Gold.Protein.ActiveResidues>
 VAL166  LYS551  ARG553  GLY616  TRP617  ASP618  TYR619  PRO620  LYS621  CYS622 
 ASP623  PHE694  ASN695  SER759  ASP760  ASP761  ALA762  ILE779  LEU786  VAL792 
 PHE793  MET794  SER795  GLU796  ALA797  LYS798  CYS799  TRP800  GLU811  SER814 

> <Gold.Protein.RotatedAtoms>
  150.8461  134.7770  159.6971 H   0  0  0  0  0  0  0  0  0  0  0  0  # atno 6907 bound_to 6896
  152.4537  134.5334  159.9827 H   0  0  0  0  0  0  0  0  0  0  0  0  # atno 6908 bound_to 6896
  151.5464  133.3386  159.2980 H   0  0  0  0  0  0  0  0  0  0  0  0  # atno 6909 bound_to 6896
  145.8644  139.3336  143.0800 H   0  0  0  0  0  0  0  0  0  0  0  0  # atno 7974 bound_to 7965
  156.2516  140.2887  156.0744 H   0  0  0  0  0  0  0  0  0  0  0  0  # atno 8008 bound_to 7997
  155.1635  140.0400  157.2865 H   0  0  0  0  0  0  0  0  0  0  0  0  # atno 8009 bound_to 7997
  154.6376  140.2514  155.7367 H   0  0  0  0  0  0  0  0  0  0  0  0  # atno 8010 bound_to 7997
  140.4750  143.2416  151.8147 H   0  0  0  0  0  0  0  0  0  0  0  0  # atno 10167 bound_to 10162
  157.6694  131.0835  150.5903 H   0  0  0  0  0  0  0  0  0  0  0  0  # atno 10718 bound_to 10713
  153.3110  135.4087  155.1336 H   0  0  0  0  0  0  0  0  0  0  0  0  # atno 10763 bound_to 10752
  154.8576  135.3564  154.5723 H   0  0  0  0  0  0  0  0  0  0  0  0  # atno 10764 bound_to 10752
  153.6152  135.7066  153.5390 H   0  0  0  0  0  0  0  0  0  0  0  0  # atno 10765 bound_to 10752
  141.1523  133.6732  156.6386 H   0  0  0  0  0  0  0  0  0  0  0  0  # atno 11005 bound_to 11000
  145.9211  140.9115  143.0405 LP  0  0  0  0  0  0  0  0  0  0  0  0  # atno 17320 bound_to 7965
  144.6726  140.1290  143.7445 LP  0  0  0  0  0  0  0  0  0  0  0  0  # atno 17321 bound_to 7965
  139.4824  144.4844  151.9265 LP  0  0  0  0  0  0  0  0  0  0  0  0  # atno 17342 bound_to 10162
  140.3930  144.2591  150.5898 LP  0  0  0  0  0  0  0  0  0  0  0  0  # atno 17343 bound_to 10162
  156.6204  130.4404  149.5824 LP  0  0  0  0  0  0  0  0  0  0  0  0  # atno 17370 bound_to 10713
  156.2360  130.6823  151.1510 LP  0  0  0  0  0  0  0  0  0  0  0  0  # atno 17371 bound_to 10713
  140.3411  134.7848  157.4398 LP  0  0  0  0  0  0  0  0  0  0  0  0  # atno 17394 bound_to 11000
  140.0937  134.5566  155.8419 LP  0  0  0  0  0  0  0  0  0  0  0  0  # atno 17395 bound_to 11000

$$$$
