AV-unprocessed.smi:560|AV-procd|sdf|2931|dock5
  -GOLD-   2262023423D 1   1.00000     0.00000
 Structure written by MMmdl.
 42 43  0  0  0  0  0  0  0  0  2 V2000
  150.2422  139.8267  158.6286 C   0  0  0  0  0  0  0  0  0  0  0  0
  151.5285  140.3254  157.9389 C   0  0  1  0  0  0  0  0  0  0  0  0
  151.6270  139.8860  156.4689 C   0  0  0  0  0  0  0  0  0  0  0  0
  152.7014  139.9260  155.8684 O   0  0  0  0  0  0  0  0  0  0  0  0
  150.4855  139.4696  155.8970 N   0  0  0  0  0  0  0  0  0  0  0  0
  150.3537  138.9849  154.5238 C   0  0  2  0  0  0  0  0  0  0  0  0
  148.8786  138.8871  154.0861 C   0  0  0  0  0  0  0  0  0  0  0  0
  148.1405  137.7455  154.8061 C   0  0  0  0  0  0  0  0  0  0  0  0
  148.8330  136.4461  154.5962 N   0  3  2  0  0  0  0  0  0  0  0  0
  148.0825  135.2899  155.1509 C   0  0  0  0  0  0  0  0  0  0  0  0
  148.5966  133.9405  154.6382 C   0  0  0  0  0  0  0  0  0  0  0  0
  148.6612  133.7837  153.3141 N   0  0  0  0  0  0  0  0  0  0  0  0
  148.9173  133.0475  155.4202 O   0  0  0  0  0  0  0  0  0  0  0  0
  150.2384  136.4927  155.0746 C   0  0  0  0  0  0  0  0  0  0  0  0
  151.0312  137.6116  154.3732 C   0  0  0  0  0  0  0  0  0  0  0  0
  151.6850  141.7716  158.0489 N   0  0  0  0  0  0  0  0  0  0  0  0
  152.5835  142.4713  158.8288 C   0  0  0  0  0  0  0  0  0  0  0  0
  152.3934  143.8008  158.5828 C   0  0  0  0  0  0  0  0  0  0  0  0
  151.3493  143.8196  157.6171 C   0  0  0  0  0  0  0  0  0  0  0  0
  150.9339  142.6063  157.2934 N   0  0  0  0  0  0  0  0  0  0  0  0
  150.1717  138.7392  158.5897 H   0  0  0  0  0  0  0  0  0  0  0  0
  149.3428  140.2321  158.1631 H   0  0  0  0  0  0  0  0  0  0  0  0
  150.2280  140.1166  159.6795 H   0  0  0  0  0  0  0  0  0  0  0  0
  152.3695  139.8713  158.4652 H   0  0  0  0  0  0  0  0  0  0  0  0
  149.6522  139.4612  156.4666 H   0  0  0  0  0  0  0  0  0  0  0  0
  150.8696  139.6902  153.8696 H   0  0  0  0  0  0  0  0  0  0  0  0
  148.3612  139.8320  154.2551 H   0  0  0  0  0  0  0  0  0  0  0  0
  148.8371  138.7121  153.0102 H   0  0  0  0  0  0  0  0  0  0  0  0
  148.0700  137.9555  155.8745 H   0  0  0  0  0  0  0  0  0  0  0  0
  147.1183  137.6922  154.4305 H   0  0  0  0  0  0  0  0  0  0  0  0
  148.1877  135.2702  156.2364 H   0  0  0  0  0  0  0  0  0  0  0  0
  147.0173  135.3998  154.9408 H   0  0  0  0  0  0  0  0  0  0  0  0
  148.9963  132.9167  152.9192 H   0  0  0  0  0  0  0  0  0  0  0  0
  148.3768  134.5393  152.7065 H   0  0  0  0  0  0  0  0  0  0  0  0
  150.2511  136.6358  156.1562 H   0  0  0  0  0  0  0  0  0  0  0  0
  150.7252  135.5371  154.8773 H   0  0  0  0  0  0  0  0  0  0  0  0
  151.1180  137.3722  153.3123 H   0  0  0  0  0  0  0  0  0  0  0  0
  152.0509  137.6482  154.7587 H   0  0  0  0  0  0  0  0  0  0  0  0
  153.2770  141.9705  159.4879 H   0  0  0  0  0  0  0  0  0  0  0  0
  152.9218  144.6334  159.0229 H   0  0  0  0  0  0  0  0  0  0  0  0
  150.8873  144.6720  157.1414 H   0  0  0  0  0  0  0  0  0  0  0  0
  148.8779  136.2949  153.5981 H   0  0  0  0  0  0  0  0  0  0  0  0
  1  2  1  0  0  0  0
  1 21  1  0  0  0  0
  1 22  1  0  0  0  0
  1 23  1  0  0  0  0
  2  3  1  0  0  0  0
  2 16  1  0  0  0  0
  2 24  1  0  0  0  0
  3  4  2  0  0  0  0
  3  5  1  0  0  0  0
  5  6  1  0  0  0  0
  5 25  1  0  0  0  0
  6 15  1  0  0  0  0
  6  7  1  0  0  0  0
  6 26  1  0  0  0  0
  7  8  1  0  0  0  0
  7 27  1  0  0  0  0
  7 28  1  0  0  0  0
  8  9  1  0  0  0  0
  8 29  1  0  0  0  0
  8 30  1  0  0  0  0
  9 10  1  0  0  0  0
  9 14  1  0  0  0  0
  9 42  1  0  0  0  0
 10 11  1  0  0  0  0
 10 31  1  0  0  0  0
 10 32  1  0  0  0  0
 11 12  1  0  0  0  0
 11 13  2  0  0  0  0
 12 33  1  0  0  0  0
 12 34  1  0  0  0  0
 14 15  1  0  0  0  0
 14 35  1  0  0  0  0
 14 36  1  0  0  0  0
 15 37  1  0  0  0  0
 15 38  1  0  0  0  0
 16 20  1  0  0  0  0
 16 17  1  0  0  0  0
 17 18  2  0  0  0  0
 17 39  1  0  0  0  0
 18 19  1  0  0  0  0
 18 40  1  0  0  0  0
 19 20  2  0  0  0  0
 19 41  1  0  0  0  0
M  CHG  1   9   1
M  END
> <s_m_source_file>
AV-unprocessed.smi

> <i_m_source_file_index>
560

> <i_lp_mmshare_version>
43012

> <i_f3d_flags>
0

> <s_epik_input>
bjFbY0hdW2NIXVtjSF1uMVtDQEhdKFtDSDNdKUMoPU8pW05IXVtDSF0yW0NIMl1bQ0gyXU4oW0NIMl1bQ0gyXTIpW0NIMl1DKD1PKVtOSDJd

> <s_epik_cmdline>
J2VwaWtfcHl0aG9uJywgJy1waCcsICc3LjAnLCAnLXRuJywgJzgnLCAnLW1hJywgJzIwMCcsICctbWV0YWxfYmluZGluZycsICctaW1hZScsICc8aW5maWxlLm1hZT4nLCAnLW9tYWUnLCAnPG91dGZpbGUubWFlPic=

> <r_lp_tautomer_probability>
1

> <r_epik_Ionization_Penalty>
1.02943

> <r_epik_Ionization_Penalty_Charging>
1.02936

> <r_epik_Ionization_Penalty_Neutral>
7.4537e-05

> <r_epik_State_Penalty>
1.08036

> <r_epik_Charging_Adjusted_Penalty>
2.10972

> <i_epik_Tot_Q>
1

> <i_epik_Tot_abs_Q>
1

> <r_epik_Metal_State_Penalty>
1.09347

> <b_epik_Metal_Only>
0

> <s_lp_Force_Field>
OPLS_2005

> <r_lp_Energy>
15.8217

> <b_lp_Chiralities_Consistent>
1

> <s_lp_Variant>
AV-unprocessed.smi:560-6

> <Gold.Version>
5.8.1

> <Gold.Id.Protein>
6NUR|6NUR_protein|mol2

> <Gold.PLP.Fitness>
44.6526

> <Gold.PLP.PLP>
-31.4255

> <Gold.PLP.part.hbond>
-3.0000

> <Gold.PLP.part.metal>
0.0000

> <Gold.PLP.part.buried>
-1.9928

> <Gold.PLP.part.nonpolar>
-26.9499

> <Gold.PLP.part.repulsive>
0.1721

> <Gold.PLP.ligand.clash>
0.0000

> <Gold.PLP.ligand.torsion>
0.7689

> <Gold.PLP.Chemscore.Hbond>
3.8800

> <Gold.PLP.Chemscore.CHOScore>
0.9989

> <Gold.PLP.Chemscore.Metal>
0.0000

> <Gold.Chemscore.Hbonds>
donor molecule, donor type, donor heavy atom, donor atom, acceptor molecule, acceptor atom, score
      L1  H     9    42       P1  7948  2.00
      L1  H    12    34       P1  7948  0.88
      P1  H  7997  8009       L1     4  1.00
      L1  C    19    41       P1  8028  1.00

> <Gold.PLP.Chemscore.Internal.Correction>
0.1282

> <Gold.Rescore>
     Score         DG    S(hbond)    S(metal)    S(lipo)     H(rot)  DE(clash)    DE(int)     intcor
     15.91     -16.49       2.57        0.00      75.84       2.52       0.01       0.57       ----

> <Gold.Chemscore.Fitness>
15.9054

> <Gold.Chemscore.DG>
-16.4894

> <Gold.Chemscore.ZeroCoef>
-5.4800

> <Gold.Chemscore.Hbond>
2.5745

> <Gold.Chemscore.Metal>
0.0000

> <Gold.Chemscore.Lipo>
75.8360

> <Gold.Chemscore.Internal_Hbond>
0.0000

> <Gold.Chemscore.DEClash>
0.0143

> <Gold.Chemscore.DEInternal>
0.5697

> <Gold.Chemscore.Rot>
2.5243

> <Gold.Chemscore.Internal.Correction>
   9.000000E+99

> <Gold.Chemscore.Hbonds>
donor molecule, donor type, donor heavy atom, donor atom, acceptor molecule, acceptor atom, score
      L1  H     9    42       P1  7948  1.00
      L1  H    12    34       P1  7948  0.22
      P1  H  7997  8009       L1     4  0.98

> <Gold.Chemscore.Hbond.Weighted>
-8.5988

> <Gold.Chemscore.Metal.Weighted>
-0.0000

> <Gold.Chemscore.Lipo.Weighted>
-8.8728

> <Gold.Chemscore.Internal_Hbond.Weighted>
0.0000

> <Gold.Chemscore.DEClash.Weighted>
0.0143

> <Gold.Chemscore.DEInternal.Weighted>
0.5697

> <Gold.Chemscore.Rot.Weighted>
6.4622

> <Gold.Chemscore.Internal.Correction.Weighted>
   9.000000E+99

> <Gold.Protein.RotatedTorsions>
[ 6907 6896 6895 6894 ] final   82.06 input  -60.11 | X-H torsion
[ 7974 7965 7964 7962 ] final  -36.27 input  175.53 | X-H torsion
[ 8008 7997 7996 7995 ] final -138.98 input   59.86 | X-H torsion
[ 10167 10162 10161 10158 ] final   50.97 input  -65.29 | X-H torsion
[ 10718 10713 10712 10709 ] final  -44.76 input   66.30 | X-H torsion
[ 10763 10752 10751 10750 ] final -109.36 input  -60.55 | X-H torsion
[ 11005 11000 10999 10996 ] final   55.39 input  -57.11 | X-H torsion

> <Gold.Protein.ActiveResidues>
 VAL166  LYS551  ARG553  GLY616  TRP617  ASP618  TYR619  PRO620  LYS621  CYS622 
 ASP623  PHE694  ASN695  SER759  ASP760  ASP761  ALA762  ILE779  LEU786  VAL792 
 PHE793  MET794  SER795  GLU796  ALA797  LYS798  CYS799  TRP800  GLU811  SER814 

> <Gold.Protein.RotatedAtoms>
  152.5287  134.3108  159.9112 H   0  0  0  0  0  0  0  0  0  0  0  0  # atno 6907 bound_to 6896
  151.3058  133.4096  159.2651 H   0  0  0  0  0  0  0  0  0  0  0  0  # atno 6908 bound_to 6896
  151.0080  134.9391  159.8048 H   0  0  0  0  0  0  0  0  0  0  0  0  # atno 6909 bound_to 6896
  146.0676  140.6258  142.8967 H   0  0  0  0  0  0  0  0  0  0  0  0  # atno 7974 bound_to 7965
  155.4373  140.0529  157.3013 H   0  0  0  0  0  0  0  0  0  0  0  0  # atno 8008 bound_to 7997
  154.4833  140.2090  155.9669 H   0  0  0  0  0  0  0  0  0  0  0  0  # atno 8009 bound_to 7997
  156.1239  140.3183  155.8253 H   0  0  0  0  0  0  0  0  0  0  0  0  # atno 8010 bound_to 7997
  140.2668  144.3310  150.6301 H   0  0  0  0  0  0  0  0  0  0  0  0  # atno 10167 bound_to 10162
  156.2352  130.4175  149.8826 H   0  0  0  0  0  0  0  0  0  0  0  0  # atno 10718 bound_to 10713
  154.8189  135.4604  154.0721 H   0  0  0  0  0  0  0  0  0  0  0  0  # atno 10763 bound_to 10752
  153.2091  135.6879  153.8142 H   0  0  0  0  0  0  0  0  0  0  0  0  # atno 10764 bound_to 10752
  153.7600  135.3285  155.3312 H   0  0  0  0  0  0  0  0  0  0  0  0  # atno 10765 bound_to 10752
  140.0611  134.5601  155.9151 H   0  0  0  0  0  0  0  0  0  0  0  0  # atno 11005 bound_to 11000
  144.7212  140.4378  143.7007 LP  0  0  0  0  0  0  0  0  0  0  0  0  # atno 17320 bound_to 7965
  145.6449  139.1555  143.2895 LP  0  0  0  0  0  0  0  0  0  0  0  0  # atno 17321 bound_to 7965
  140.5922  143.2168  151.7232 LP  0  0  0  0  0  0  0  0  0  0  0  0  # atno 17342 bound_to 10162
  139.5000  144.3922  152.0268 LP  0  0  0  0  0  0  0  0  0  0  0  0  # atno 17343 bound_to 10162
  156.6426  130.8711  151.3517 LP  0  0  0  0  0  0  0  0  0  0  0  0  # atno 17370 bound_to 10713
  157.7151  130.9487  150.1227 LP  0  0  0  0  0  0  0  0  0  0  0  0  # atno 17371 bound_to 10713
  141.1973  133.6596  156.5736 LP  0  0  0  0  0  0  0  0  0  0  0  0  # atno 17394 bound_to 11000
  140.3769  134.7557  157.4636 LP  0  0  0  0  0  0  0  0  0  0  0  0  # atno 17395 bound_to 11000

$$$$
