AV-unprocessed.smi:1093|AV-procd|sdf|4741|dock2
  -GOLD-   22720 3273D 1   1.00000     0.00000
 Structure written by MMmdl.
 48 49  0  0  0  0  0  0  0  0  3 V2000
  141.3810  137.4031  153.4434 C   0  0  0  0  0  0  0  0  0  0  0  0
  142.7931  137.5720  154.0223 C   0  0  0  0  0  0  0  0  0  0  0  0
  143.8380  137.6340  152.9690 N   0  3  2  0  0  0  0  0  0  0  0  0
  143.8675  136.4031  152.1368 C   0  0  0  0  0  0  0  0  0  0  0  0
  144.8550  136.5460  150.9673 C   0  0  0  0  0  0  0  0  0  0  0  0
  146.2611  136.8955  151.4712 C   0  0  0  0  0  0  0  0  0  0  0  0
  146.2061  138.1522  152.3577 C   0  0  2  0  0  0  0  0  0  0  0  0
  147.5243  138.4512  152.9118 N   0  0  0  0  0  0  0  0  0  0  0  0
  147.7964  139.4586  153.7542 C   0  0  0  0  0  0  0  0  0  0  0  0
  146.9478  140.2559  154.1524 O   0  0  0  0  0  0  0  0  0  0  0  0
  149.1009  139.4857  154.0787 N   0  0  0  0  0  0  0  0  0  0  0  0
  149.7742  140.3719  154.9636 C   0  0  0  0  0  0  0  0  0  0  0  0
  150.8987  139.8809  155.6592 C   0  0  0  0  0  0  0  0  0  0  0  0
  151.5883  140.7177  156.5605 C   0  0  0  0  0  0  0  0  0  0  0  0
  151.1435  142.0461  156.7707 C   0  0  0  0  0  0  0  0  0  0  0  0
  151.7784  142.9434  157.6567 N   0  0  0  0  0  0  0  0  0  0  0  0
  151.5847  144.3785  157.4946 C   0  0  0  0  0  0  0  0  0  0  0  0
  152.5128  142.4264  158.8063 C   0  0  0  0  0  0  0  0  0  0  0  0
  150.0507  142.4684  156.0889 N   0  3  0  0  0  0  0  0  0  0  0  0
  149.3622  141.7022  155.2156 C   0  0  0  0  0  0  0  0  0  0  0  0
  145.1885  137.9647  153.4992 C   0  0  0  0  0  0  0  0  0  0  0  0
  140.6540  137.2636  154.2440 H   0  0  0  0  0  0  0  0  0  0  0  0
  141.3239  136.5307  152.7920 H   0  0  0  0  0  0  0  0  0  0  0  0
  141.0645  138.2739  152.8705 H   0  0  0  0  0  0  0  0  0  0  0  0
  142.8468  138.4574  154.6572 H   0  0  0  0  0  0  0  0  0  0  0  0
  142.9875  136.7161  154.6701 H   0  0  0  0  0  0  0  0  0  0  0  0
  144.1396  135.5482  152.7581 H   0  0  0  0  0  0  0  0  0  0  0  0
  142.8721  136.2017  151.7387 H   0  0  0  0  0  0  0  0  0  0  0  0
  144.8856  135.6213  150.3901 H   0  0  0  0  0  0  0  0  0  0  0  0
  144.5063  137.3239  150.2867 H   0  0  0  0  0  0  0  0  0  0  0  0
  146.6661  136.0552  152.0374 H   0  0  0  0  0  0  0  0  0  0  0  0
  146.9299  137.0531  150.6241 H   0  0  0  0  0  0  0  0  0  0  0  0
  145.8751  138.9972  151.7506 H   0  0  0  0  0  0  0  0  0  0  0  0
  148.2841  137.8486  152.6303 H   0  0  0  0  0  0  0  0  0  0  0  0
  149.6899  138.8146  153.6077 H   0  0  0  0  0  0  0  0  0  0  0  0
  151.2384  138.8672  155.5034 H   0  0  0  0  0  0  0  0  0  0  0  0
  152.4492  140.3227  157.0788 H   0  0  0  0  0  0  0  0  0  0  0  0
  151.9583  144.7101  156.5251 H   0  0  0  0  0  0  0  0  0  0  0  0
  152.1155  144.9398  158.2638 H   0  0  0  0  0  0  0  0  0  0  0  0
  150.5267  144.6326  157.5668 H   0  0  0  0  0  0  0  0  0  0  0  0
  153.3213  141.7703  158.4821 H   0  0  0  0  0  0  0  0  0  0  0  0
  151.8491  141.8621  159.4620 H   0  0  0  0  0  0  0  0  0  0  0  0
  152.9544  143.2332  159.3915 H   0  0  0  0  0  0  0  0  0  0  0  0
  148.5063  142.1853  154.7692 H   0  0  0  0  0  0  0  0  0  0  0  0
  145.1451  138.8817  154.0865 H   0  0  0  0  0  0  0  0  0  0  0  0
  145.5160  137.1724  154.1748 H   0  0  0  0  0  0  0  0  0  0  0  0
  143.5725  138.3854  152.3483 H   0  0  0  0  0  0  0  0  0  0  0  0
  149.7256  143.4226  156.2458 H   0  0  0  0  0  0  0  0  0  0  0  0
  1  2  1  0  0  0  0
  1 22  1  0  0  0  0
  1 23  1  0  0  0  0
  1 24  1  0  0  0  0
  2  3  1  0  0  0  0
  2 25  1  0  0  0  0
  2 26  1  0  0  0  0
  3 21  1  0  0  0  0
  3  4  1  0  0  0  0
  3 47  1  0  0  0  0
  4  5  1  0  0  0  0
  4 27  1  0  0  0  0
  4 28  1  0  0  0  0
  5  6  1  0  0  0  0
  5 29  1  0  0  0  0
  5 30  1  0  0  0  0
  6  7  1  0  0  0  0
  6 31  1  0  0  0  0
  6 32  1  0  0  0  0
  7  8  1  0  0  0  0
  7 21  1  0  0  0  0
  7 33  1  0  0  0  0
  8  9  1  0  0  0  0
  8 34  1  0  0  0  0
  9 10  2  0  0  0  0
  9 11  1  0  0  0  0
 11 12  1  0  0  0  0
 11 35  1  0  0  0  0
 12 20  1  0  0  0  0
 12 13  2  0  0  0  0
 13 14  1  0  0  0  0
 13 36  1  0  0  0  0
 14 15  2  0  0  0  0
 14 37  1  0  0  0  0
 15 16  1  0  0  0  0
 15 19  1  0  0  0  0
 16 17  1  0  0  0  0
 16 18  1  0  0  0  0
 17 38  1  0  0  0  0
 17 39  1  0  0  0  0
 17 40  1  0  0  0  0
 18 41  1  0  0  0  0
 18 42  1  0  0  0  0
 18 43  1  0  0  0  0
 19 20  2  0  0  0  0
 19 48  1  0  0  0  0
 20 44  1  0  0  0  0
 21 45  1  0  0  0  0
 21 46  1  0  0  0  0
M  CHG  1   3   1
M  CHG  1  19   1
M  END
> <s_m_source_file>
AV-unprocessed.smi

> <i_m_source_file_index>
1093

> <i_lp_mmshare_version>
43012

> <i_f3d_flags>
0

> <s_epik_input>
W0NIM11bQ0gyXU4xW0NIMl1bQ0gyXVtDSDJdW0NASF0oW0NIMl0xKVtOSF1DKD1PKVtOSF1jMltjSF1bY0hdYyhOKFtDSDNdKVtDSDNdKW5bY0hdMg==

> <s_epik_cmdline>
J2VwaWtfcHl0aG9uJywgJy1waCcsICc3LjAnLCAnLXRuJywgJzgnLCAnLW1hJywgJzIwMCcsICctbWV0YWxfYmluZGluZycsICctaW1hZScsICc8aW5maWxlLm1hZT4nLCAnLW9tYWUnLCAnPG91dGZpbGUubWFlPic=

> <r_lp_tautomer_probability>
0.999994

> <r_epik_Ionization_Penalty>
0.346711

> <r_epik_Ionization_Penalty_Charging>
0.346691

> <r_epik_Ionization_Penalty_Neutral>
1.93006e-05

> <r_epik_State_Penalty>
0.339838

> <r_epik_Charging_Adjusted_Penalty>
0.68653

> <i_epik_Tot_Q>
2

> <i_epik_Tot_abs_Q>
2

> <r_epik_Metal_State_Penalty>
0.600835

> <b_epik_Metal_Only>
0

> <s_lp_Force_Field>
OPLS_2005

> <r_lp_Energy>
27.882

> <b_lp_Chiralities_Consistent>
1

> <s_lp_Variant>
AV-unprocessed.smi:1093-4

> <Gold.Version>
5.8.1

> <Gold.Id.Protein>
6NUR|6NUR_protein|mol2

> <Gold.PLP.Fitness>
45.2622

> <Gold.PLP.PLP>
-33.3025

> <Gold.PLP.part.hbond>
-4.8483

> <Gold.PLP.part.metal>
0.0000

> <Gold.PLP.part.buried>
4.5145

> <Gold.PLP.part.nonpolar>
-33.3563

> <Gold.PLP.part.repulsive>
0.3968

> <Gold.PLP.ligand.clash>
0.0000

> <Gold.PLP.ligand.torsion>
0.4723

> <Gold.PLP.Chemscore.Hbond>
4.2928

> <Gold.PLP.Chemscore.CHOScore>
0.0000

> <Gold.PLP.Chemscore.Metal>
0.0000

> <Gold.Chemscore.Hbonds>
donor molecule, donor type, donor heavy atom, donor atom, acceptor molecule, acceptor atom, score
      L1  H     3    47       P1 10175  1.35
      L1  H     8    34       P1  7948  1.00
      L1  H    19    48       P1  8028  1.92

> <Gold.PLP.Chemscore.Internal.Correction>
0.0258

> <Gold.Rescore>
     Score         DG    S(hbond)    S(metal)    S(lipo)     H(rot)  DE(clash)    DE(int)     intcor
     17.25     -21.53       2.68        0.00      86.80       1.19       2.74       1.54       ----

> <Gold.Chemscore.Fitness>
17.2526

> <Gold.Chemscore.DG>
-21.5318

> <Gold.Chemscore.ZeroCoef>
-5.4800

> <Gold.Chemscore.Hbond>
2.6813

> <Gold.Chemscore.Metal>
0.0000

> <Gold.Chemscore.Lipo>
86.7981

> <Gold.Chemscore.Internal_Hbond>
0.0000

> <Gold.Chemscore.DEClash>
2.7369

> <Gold.Chemscore.DEInternal>
1.5424

> <Gold.Chemscore.Rot>
1.1949

> <Gold.Chemscore.Internal.Correction>
   9.000000E+99

> <Gold.Chemscore.Hbonds>
donor molecule, donor type, donor heavy atom, donor atom, acceptor molecule, acceptor atom, score
      L1  H     3    47       P1 10175  0.63
      L1  H     8    34       P1  7948  0.96
      L1  H    19    48       P1  8028  0.92

> <Gold.Chemscore.Hbond.Weighted>
-8.9554

> <Gold.Chemscore.Metal.Weighted>
-0.0000

> <Gold.Chemscore.Lipo.Weighted>
-10.1554

> <Gold.Chemscore.Internal_Hbond.Weighted>
0.0000

> <Gold.Chemscore.DEClash.Weighted>
2.7369

> <Gold.Chemscore.DEInternal.Weighted>
1.5424

> <Gold.Chemscore.Rot.Weighted>
3.0590

> <Gold.Chemscore.Internal.Correction.Weighted>
   9.000000E+99

> <Gold.Protein.RotatedTorsions>
[ 6907 6896 6895 6894 ] final   60.89 input  -60.11 | X-H torsion
[ 7974 7965 7964 7962 ] final -121.68 input  175.53 | X-H torsion
[ 8008 7997 7996 7995 ] final -120.12 input   59.86 | X-H torsion
[ 10167 10162 10161 10158 ] final   68.59 input  -65.29 | X-H torsion
[ 10718 10713 10712 10709 ] final  -80.55 input   66.30 | X-H torsion
[ 10763 10752 10751 10750 ] final  -57.64 input  -60.55 | X-H torsion
[ 11005 11000 10999 10996 ] final -157.90 input  -57.11 | X-H torsion

> <Gold.Protein.ActiveResidues>
 VAL166  LYS551  ARG553  GLY616  TRP617  ASP618  TYR619  PRO620  LYS621  CYS622 
 ASP623  PHE694  ASN695  SER759  ASP760  ASP761  ALA762  ILE779  LEU786  VAL792 
 PHE793  MET794  SER795  GLU796  ALA797  LYS798  CYS799  TRP800  GLU811  SER814 

> <Gold.Protein.RotatedAtoms>
  152.4042  134.6236  160.0056 H   0  0  0  0  0  0  0  0  0  0  0  0  # atno 6907 bound_to 6896
  151.6432  133.3319  159.3143 H   0  0  0  0  0  0  0  0  0  0  0  0  # atno 6908 bound_to 6896
  150.7938  134.7025  159.6602 H   0  0  0  0  0  0  0  0  0  0  0  0  # atno 6909 bound_to 6896
  145.0377  140.8119  143.4285 H   0  0  0  0  0  0  0  0  0  0  0  0  # atno 7974 bound_to 7965
  155.1267  140.0399  157.2764 H   0  0  0  0  0  0  0  0  0  0  0  0  # atno 8008 bound_to 7997
  154.6573  140.2583  155.7121 H   0  0  0  0  0  0  0  0  0  0  0  0  # atno 8009 bound_to 7997
  156.2604  140.2824  156.1031 H   0  0  0  0  0  0  0  0  0  0  0  0  # atno 8010 bound_to 7997
  140.0770  144.5104  150.7188 H   0  0  0  0  0  0  0  0  0  0  0  0  # atno 10167 bound_to 10162
  156.0068  130.4577  150.3818 H   0  0  0  0  0  0  0  0  0  0  0  0  # atno 10718 bound_to 10713
  154.2256  135.6370  153.5158 H   0  0  0  0  0  0  0  0  0  0  0  0  # atno 10763 bound_to 10752
  152.9959  135.5507  154.6067 H   0  0  0  0  0  0  0  0  0  0  0  0  # atno 10764 bound_to 10752
  154.5538  135.2903  155.0958 H   0  0  0  0  0  0  0  0  0  0  0  0  # atno 10765 bound_to 10752
  140.6595  134.4364  157.5234 H   0  0  0  0  0  0  0  0  0  0  0  0  # atno 11005 bound_to 11000
  145.1689  139.2416  143.5352 LP  0  0  0  0  0  0  0  0  0  0  0  0  # atno 17320 bound_to 7965
  146.3506  140.1434  142.8594 LP  0  0  0  0  0  0  0  0  0  0  0  0  # atno 17321 bound_to 7965
  140.7097  143.2495  151.4619 LP  0  0  0  0  0  0  0  0  0  0  0  0  # atno 17342 bound_to 10162
  139.5802  144.1727  152.1958 LP  0  0  0  0  0  0  0  0  0  0  0  0  # atno 17343 bound_to 10162
  157.1897  131.0412  151.2706 LP  0  0  0  0  0  0  0  0  0  0  0  0  # atno 17370 bound_to 10713
  157.4072  130.7365  149.6811 LP  0  0  0  0  0  0  0  0  0  0  0  0  # atno 17371 bound_to 10713
  139.9018  134.8539  156.1866 LP  0  0  0  0  0  0  0  0  0  0  0  0  # atno 17394 bound_to 11000
  141.0476  133.6905  156.1711 LP  0  0  0  0  0  0  0  0  0  0  0  0  # atno 17395 bound_to 11000

$$$$
