AV-unprocessed.smi:3166|AV-procd|sdf|12095|dock3
  -GOLD-   2272017533D 1   1.00000     0.00000
 Structure written by MMmdl.
 40 41  0  0  0  0  0  0  0  0  1 V2000
  144.0010  135.9950  152.8986 C   0  0  0  0  0  0  0  0  0  0  0  0
  145.3228  135.9472  152.1040 C   0  0  2  0  0  0  0  0  0  0  0  0
  145.9155  134.5245  152.0305 C   0  0  0  0  0  0  0  0  0  0  0  0
  145.1375  133.6284  151.1923 N   0  0  0  0  0  0  0  0  0  0  0  0
  145.5879  132.7587  150.2211 C   0  0  0  0  0  0  0  0  0  0  0  0
  144.4949  132.1237  149.7048 C   0  0  0  0  0  0  0  0  0  0  0  0
  143.4071  132.6730  150.4396 C   0  0  0  0  0  0  0  0  0  0  0  0
  143.7949  133.5715  151.3303 N   0  0  0  0  0  0  0  0  0  0  0  0
  146.3287  136.8558  152.6629 N   0  0  0  0  0  0  0  0  0  0  0  0
  145.9925  138.2821  152.6149 C   0  0  0  0  0  0  0  0  0  0  0  0
  147.0681  139.1667  153.2854 C   0  0  0  0  0  0  0  0  0  0  0  0
  148.3131  138.8031  152.7165 O   0  0  0  0  0  0  0  0  0  0  0  0
  146.8133  140.6816  153.0748 C   0  0  0  0  0  0  0  0  0  0  0  0
  147.7949  141.5715  153.8587 C   0  0  0  0  0  0  0  0  0  0  0  0
  147.7997  141.2239  155.3535 C   0  0  0  0  0  0  0  0  0  0  0  0
  148.1185  139.7381  155.5670 C   0  0  0  0  0  0  0  0  0  0  0  0
  147.1331  138.8408  154.7970 C   0  0  0  0  0  0  0  0  0  0  0  0
  143.2651  135.3004  152.4935 H   0  0  0  0  0  0  0  0  0  0  0  0
  143.5397  136.9812  152.8651 H   0  0  0  0  0  0  0  0  0  0  0  0
  144.1598  135.7332  153.9450 H   0  0  0  0  0  0  0  0  0  0  0  0
  145.1059  136.2602  151.0818 H   0  0  0  0  0  0  0  0  0  0  0  0
  146.9291  134.5591  151.6285 H   0  0  0  0  0  0  0  0  0  0  0  0
  145.9936  134.0967  153.0318 H   0  0  0  0  0  0  0  0  0  0  0  0
  146.6364  132.6685  149.9784 H   0  0  0  0  0  0  0  0  0  0  0  0
  144.4755  131.3790  148.9231 H   0  0  0  0  0  0  0  0  0  0  0  0
  142.3544  132.4465  150.3533 H   0  0  0  0  0  0  0  0  0  0  0  0
  147.2182  136.7034  152.1984 H   0  0  0  0  0  0  0  0  0  0  0  0
  145.8832  138.5879  151.5736 H   0  0  0  0  0  0  0  0  0  0  0  0
  145.0299  138.4667  153.0917 H   0  0  0  0  0  0  0  0  0  0  0  0
  148.5422  139.4496  152.0663 H   0  0  0  0  0  0  0  0  0  0  0  0
  146.8708  140.9395  152.0168 H   0  0  0  0  0  0  0  0  0  0  0  0
  145.7965  140.9201  153.3895 H   0  0  0  0  0  0  0  0  0  0  0  0
  148.8010  141.4556  153.4538 H   0  0  0  0  0  0  0  0  0  0  0  0
  147.5300  142.6205  153.7243 H   0  0  0  0  0  0  0  0  0  0  0  0
  148.5312  141.8402  155.8771 H   0  0  0  0  0  0  0  0  0  0  0  0
  146.8275  141.4577  155.7893 H   0  0  0  0  0  0  0  0  0  0  0  0
  149.1392  139.5318  155.2425 H   0  0  0  0  0  0  0  0  0  0  0  0
  148.0819  139.5009  156.6306 H   0  0  0  0  0  0  0  0  0  0  0  0
  146.1411  138.9643  155.2336 H   0  0  0  0  0  0  0  0  0  0  0  0
  147.3980  137.7933  154.9471 H   0  0  0  0  0  0  0  0  0  0  0  0
  1  2  1  0  0  0  0
  1 18  1  0  0  0  0
  1 19  1  0  0  0  0
  1 20  1  0  0  0  0
  2  3  1  0  0  0  0
  2  9  1  0  0  0  0
  2 21  1  0  0  0  0
  3  4  1  0  0  0  0
  3 22  1  0  0  0  0
  3 23  1  0  0  0  0
  4  8  1  0  0  0  0
  4  5  1  0  0  0  0
  5  6  2  0  0  0  0
  5 24  1  0  0  0  0
  6  7  1  0  0  0  0
  6 25  1  0  0  0  0
  7  8  2  0  0  0  0
  7 26  1  0  0  0  0
  9 10  1  0  0  0  0
  9 27  1  0  0  0  0
 10 11  1  0  0  0  0
 10 28  1  0  0  0  0
 10 29  1  0  0  0  0
 11 17  1  0  0  0  0
 11 12  1  0  0  0  0
 11 13  1  0  0  0  0
 12 30  1  0  0  0  0
 13 14  1  0  0  0  0
 13 31  1  0  0  0  0
 13 32  1  0  0  0  0
 14 15  1  0  0  0  0
 14 33  1  0  0  0  0
 14 34  1  0  0  0  0
 15 16  1  0  0  0  0
 15 35  1  0  0  0  0
 15 36  1  0  0  0  0
 16 17  1  0  0  0  0
 16 37  1  0  0  0  0
 16 38  1  0  0  0  0
 17 39  1  0  0  0  0
 17 40  1  0  0  0  0
M  END
> <s_m_source_file>
AV-unprocessed.smi

> <i_m_source_file_index>
3166

> <i_lp_mmshare_version>
43012

> <i_f3d_flags>
0

> <s_epik_input>
bjFbY0hdW2NIXVtjSF1uMVtDSDJdW0NAQEhdKFtDSDNdKVtOSF1bQ0gyXUMyKFtPSF0pW0NIMl1bQ0gyXVtDSDJdW0NIMl1bQ0gyXTI=

> <s_epik_cmdline>
J2VwaWtfcHl0aG9uJywgJy1waCcsICc3LjAnLCAnLXRuJywgJzgnLCAnLW1hJywgJzIwMCcsICctbWV0YWxfYmluZGluZycsICctaW1hZScsICc8aW5maWxlLm1hZT4nLCAnLW9tYWUnLCAnPG91dGZpbGUubWFlPic=

> <r_lp_tautomer_probability>
1

> <r_epik_Ionization_Penalty>
2.35964

> <r_epik_Ionization_Penalty_Charging>
0

> <r_epik_Ionization_Penalty_Neutral>
2.35964

> <r_epik_State_Penalty>
2.51455

> <r_epik_Charging_Adjusted_Penalty>
2.51455

> <i_epik_Tot_Q>
0

> <i_epik_Tot_abs_Q>
0

> <r_epik_Metal_State_Penalty>
2.51451

> <b_epik_Metal_Only>
0

> <s_lp_Force_Field>
OPLS_2005

> <r_lp_Energy>
22.8123

> <b_lp_Chiralities_Consistent>
1

> <s_lp_Variant>
AV-unprocessed.smi:3166-3

> <Gold.Version>
5.8.1

> <Gold.Id.Protein>
6NUR|6NUR_protein|mol2

> <Gold.PLP.Fitness>
44.5406

> <Gold.PLP.PLP>
-33.7596

> <Gold.PLP.part.hbond>
-2.7842

> <Gold.PLP.part.metal>
0.0000

> <Gold.PLP.part.buried>
-4.8852

> <Gold.PLP.part.nonpolar>
-26.3338

> <Gold.PLP.part.repulsive>
0.1640

> <Gold.PLP.ligand.clash>
0.0000

> <Gold.PLP.ligand.torsion>
0.2915

> <Gold.PLP.Chemscore.Hbond>
2.0000

> <Gold.PLP.Chemscore.CHOScore>
1.7753

> <Gold.PLP.Chemscore.Metal>
0.0000

> <Gold.Chemscore.Hbonds>
donor molecule, donor type, donor heavy atom, donor atom, acceptor molecule, acceptor atom, score
      L1  H     9    27       P1  7948  1.00
      L1  H    12    30       P1  7957  0.89
      L1  C     7    26       P1 10186  0.66
      L1  C     7    26       P1 10952  0.57

> <Gold.PLP.Chemscore.Internal.Correction>
0.0379

> <Gold.Rescore>
     Score         DG    S(hbond)    S(metal)    S(lipo)     H(rot)  DE(clash)    DE(int)     intcor
     16.51     -16.97       1.99        0.00      87.70       2.12       0.12       0.34       ----

> <Gold.Chemscore.Fitness>
16.5061

> <Gold.Chemscore.DG>
-16.9738

> <Gold.Chemscore.ZeroCoef>
-5.4800

> <Gold.Chemscore.Hbond>
1.9948

> <Gold.Chemscore.Metal>
0.0000

> <Gold.Chemscore.Lipo>
87.7006

> <Gold.Chemscore.Internal_Hbond>
0.0000

> <Gold.Chemscore.DEClash>
0.1243

> <Gold.Chemscore.DEInternal>
0.3434

> <Gold.Chemscore.Rot>
2.1209

> <Gold.Chemscore.Internal.Correction>
   9.000000E+99

> <Gold.Chemscore.Hbonds>
donor molecule, donor type, donor heavy atom, donor atom, acceptor molecule, acceptor atom, score
      L1  H     9    27       P1  7948  1.00
      L1  H    12    30       P1  7957  0.82

> <Gold.Chemscore.Hbond.Weighted>
-6.6625

> <Gold.Chemscore.Metal.Weighted>
-0.0000

> <Gold.Chemscore.Lipo.Weighted>
-10.2610

> <Gold.Chemscore.Internal_Hbond.Weighted>
0.0000

> <Gold.Chemscore.DEClash.Weighted>
0.1243

> <Gold.Chemscore.DEInternal.Weighted>
0.3434

> <Gold.Chemscore.Rot.Weighted>
5.4296

> <Gold.Chemscore.Internal.Correction.Weighted>
   9.000000E+99

> <Gold.Protein.RotatedTorsions>
[ 6907 6896 6895 6894 ] final  -53.84 input  -60.11 | X-H torsion
[ 7974 7965 7964 7962 ] final  -12.42 input  175.53 | X-H torsion
[ 8008 7997 7996 7995 ] final   45.19 input   59.86 | X-H torsion
[ 10167 10162 10161 10158 ] final   59.75 input  -65.29 | X-H torsion
[ 10718 10713 10712 10709 ] final   -3.39 input   66.30 | X-H torsion
[ 10763 10752 10751 10750 ] final  -20.62 input  -60.55 | X-H torsion
[ 11005 11000 10999 10996 ] final  179.87 input  -57.11 | X-H torsion

> <Gold.Protein.ActiveResidues>
 VAL166  LYS551  ARG553  GLY616  TRP617  ASP618  TYR619  PRO620  LYS621  CYS622 
 ASP623  PHE694  ASN695  SER759  ASP760  ASP761  ALA762  ILE779  LEU786  VAL792 
 PHE793  MET794  SER795  GLU796  ALA797  LYS798  CYS799  TRP800  GLU811  SER814 

> <Gold.Protein.RotatedAtoms>
  150.8390  134.7675  159.6916 H   0  0  0  0  0  0  0  0  0  0  0  0  # atno 6907 bound_to 6896
  152.4481  134.5448  159.9859 H   0  0  0  0  0  0  0  0  0  0  0  0  # atno 6908 bound_to 6896
  151.5591  133.3368  159.3003 H   0  0  0  0  0  0  0  0  0  0  0  0  # atno 6909 bound_to 6896
  146.2152  140.3054  142.8378 H   0  0  0  0  0  0  0  0  0  0  0  0  # atno 7974 bound_to 7965
  155.3318  140.3403  155.4239 H   0  0  0  0  0  0  0  0  0  0  0  0  # atno 8008 bound_to 7997
  156.1857  140.1680  156.8225 H   0  0  0  0  0  0  0  0  0  0  0  0  # atno 8009 bound_to 7997
  154.5384  140.0730  156.8451 H   0  0  0  0  0  0  0  0  0  0  0  0  # atno 8010 bound_to 7997
  140.1730  144.4257  150.6652 H   0  0  0  0  0  0  0  0  0  0  0  0  # atno 10167 bound_to 10162
  156.7768  130.5317  149.5758 H   0  0  0  0  0  0  0  0  0  0  0  0  # atno 10718 bound_to 10713
  153.6233  135.6992  153.5302 H   0  0  0  0  0  0  0  0  0  0  0  0  # atno 10763 bound_to 10752
  153.2919  135.4154  155.1174 H   0  0  0  0  0  0  0  0  0  0  0  0  # atno 10764 bound_to 10752
  154.8538  135.3627  154.5775 H   0  0  0  0  0  0  0  0  0  0  0  0  # atno 10765 bound_to 10752
  140.4109  134.6692  157.4613 H   0  0  0  0  0  0  0  0  0  0  0  0  # atno 11005 bound_to 11000
  144.9026  140.7661  143.5857 LP  0  0  0  0  0  0  0  0  0  0  0  0  # atno 17320 bound_to 7965
  145.2981  139.1860  143.4704 LP  0  0  0  0  0  0  0  0  0  0  0  0  # atno 17321 bound_to 7965
  140.6569  143.2240  151.5947 LP  0  0  0  0  0  0  0  0  0  0  0  0  # atno 17342 bound_to 10162
  139.5329  144.2863  152.1188 LP  0  0  0  0  0  0  0  0  0  0  0  0  # atno 17343 bound_to 10162
  156.1243  130.6132  151.0240 LP  0  0  0  0  0  0  0  0  0  0  0  0  # atno 17370 bound_to 10713
  157.6665  131.0870  150.7715 LP  0  0  0  0  0  0  0  0  0  0  0  0  # atno 17371 bound_to 10713
  140.0268  134.6465  155.9161 LP  0  0  0  0  0  0  0  0  0  0  0  0  # atno 17394 bound_to 11000
  141.1821  133.6548  156.5064 LP  0  0  0  0  0  0  0  0  0  0  0  0  # atno 17395 bound_to 11000

$$$$
