#       Name:                AV-unprocessed.smi:51
#       Creating user name   scv26
#       Creation time:       Thu Mar 26 16:37:31 2020


#       File generated by GOLD software.
#

@<TRIPOS>MOLECULE
AV-unprocessed.smi:51
    33    34     1
SMALL
NO_CHARGES


@<TRIPOS>ATOM
      1 ****        -2.3138   2.5727   0.4073 O.co2          1 S1                 0.0000
      2 ****        -1.9433   1.6092  -0.2978 C.2            1 S1                 0.0000
      3 ****        -2.7003   0.8490  -0.9427 O.co2          1 S1                -1.0000
      4 ****        -0.4312   1.3510  -0.3783 C.3            1 S1                 0.0000
      5 ****         0.1378   1.6973  -1.7649 C.3            1 S1                 0.0000
      6 ****         1.2958   0.7132  -1.9220 C.3            1 S1                 0.0000
      7 ****         1.6287   0.4764  -3.2735 O.3            1 S1                 0.0000
      8 ****         0.7948  -0.5470  -1.2140 C.3            1 S1                 0.0000
      9 ****        -0.0940  -0.0580  -0.1695 N.pl3          1 S1                 0.0000
     10 ****        -0.1339  -0.6771   1.0964 C.ar           1 S1                 0.0000
     11 ****         0.1252  -2.0611   1.2407 C.ar           1 S1                 0.0000
     12 ****         0.0586  -2.5885   2.5458 C.ar           1 S1                 0.0000
     13 ****        -0.2353  -1.8167   3.6130 N.ar           1 S1                 0.0000
     14 ****        -0.4648  -0.5248   3.3689 C.ar           1 S1                 0.0000
     15 ****        -0.4280   0.0808   2.1805 N.ar           1 S1                 0.0000
     16 ****         0.0837   1.9476   0.3763 H              1 S1                 0.0000
     17 ****        -0.6034   1.5234  -2.5478 H              1 S1                 0.0000
     18 ****         0.4599   2.7365  -1.8372 H              1 S1                 0.0000
     19 ****         2.1709   1.1006  -1.3982 H              1 S1                 0.0000
     20 ****         0.8552   0.1659  -3.7191 H              1 S1                 0.0000
     21 ****         0.2143  -1.1792  -1.8873 H              1 S1                 0.0000
     22 ****         1.6312  -1.1320  -0.8297 H              1 S1                 0.0000
     23 ****         0.3512  -2.6976   0.3983 H              1 S1                 0.0000
     24 ****         0.2408  -3.6363   2.7331 H              1 S1                 0.0000
     25 ****        -0.7004   0.0948   4.2214 H              1 S1                 0.0000
     26 ****        -3.2871   2.7873   0.4892 LP             1 S1                 0.0000
     27 ****        -1.6369   3.1288   0.8895 LP             1 S1                 0.0000
     28 ****        -3.6899   0.9904  -0.9182 LP             1 S1                 0.0000
     29 ****        -2.3154   0.1003  -1.4824 LP             1 S1                 0.0000
     30 ****         2.3505  -0.2135  -3.3282 LP             1 S1                 0.0000
     31 ****         1.9457   1.3248  -3.6974 LP             1 S1                 0.0000
     32 ****        -0.2789  -2.1931   4.5385 LP             1 S1                 0.0000
     33 ****        -0.6111   1.0600   2.0929 LP             1 S1                 0.0000
@<TRIPOS>BOND
    1    1    2 ar    
    2    2    3 ar    
    3    2    4 1     
    4    4    9 1     
    5    4    5 1     
    6    4   16 1     
    7    5    6 1     
    8    5   17 1     
    9    5   18 1     
   10    6    7 1     
   11    6    8 1     
   12    6   19 1     
   13    7   20 1     
   14    8    9 1     
   15    8   21 1     
   16    8   22 1     
   17    9   10 1     
   18   10   15 ar    
   19   10   11 ar    
   20   11   12 ar    
   21   11   23 1     
   22   12   13 ar    
   23   12   24 1     
   24   13   14 ar    
   25   14   15 ar    
   26   14   25 1     
   27    1   26 1     
   28    1   27 1     
   29    3   28 1     
   30    3   29 1     
   31    7   30 1     
   32    7   31 1     
   33   13   32 1     
   34   15   33 1     
@<TRIPOS>SUBSTRUCTURE
      1 S1             1
@<TRIPOS>SET
LONE_PAIRS      STATIC     ATOMS    <user>   **** ""
8 26 27 28 29 30 31 32 33
DONOR_HYDROGENS      STATIC     ATOMS    <user>   **** ""
1 20
ATOM$BLUE        STATIC     ATOMS    COLORGROUP SYSTEM
8 26 27 28 29 30 31 32 33
ATOM$RED        STATIC     ATOMS    COLORGROUP SYSTEM
1 20
