AV-unprocessed.smi:767|AV-procd|sdf|3671|dock8
  -GOLD-   22720 1 83D 1   1.00000     0.00000
 Structure written by MMmdl.
 48 50  0  0  0  0  0  0  0  0  2 V2000
  151.2145  143.9247  157.1305 C   0  0  0  0  0  0  0  0  0  0  0  0
  150.8246  142.6632  156.3895 C   0  0  0  0  0  0  0  0  0  0  0  0
  151.4341  141.4188  156.6570 C   0  0  0  0  0  0  0  0  0  0  0  0
  151.0281  140.2814  155.9285 C   0  0  0  0  0  0  0  0  0  0  0  0
  150.0236  140.4119  154.9445 C   0  0  0  0  0  0  0  0  0  0  0  0
  149.5721  139.2102  154.1314 C   0  0  0  0  0  0  0  0  0  0  0  0
  148.0923  138.8260  154.3470 C   0  0  0  0  0  0  0  0  0  0  0  0
  147.7153  137.5612  153.7205 N   0  0  0  0  0  0  0  0  0  0  0  0
  146.6131  136.8533  154.0027 C   0  0  0  0  0  0  0  0  0  0  0  0
  145.7673  137.1924  154.8300 O   0  0  0  0  0  0  0  0  0  0  0  0
  146.5297  135.7452  153.2557 N   0  0  0  0  0  0  0  0  0  0  0  0
  145.4065  134.8033  153.2963 C   0  0  2  0  0  0  0  0  0  0  0  0
  145.6340  133.5698  152.4188 C   0  0  2  0  0  0  0  0  0  0  0  0
  146.8076  132.9130  151.7869 C   0  0  0  0  0  0  0  0  0  0  0  0
  146.1374  132.5915  150.4233 C   0  0  0  0  0  0  0  0  0  0  0  0
  144.8738  133.3054  150.4201 O   0  0  0  0  0  0  0  0  0  0  0  0
  145.1039  134.4081  151.2740 C   0  0  1  0  0  0  0  0  0  0  0  0
  144.2144  135.1298  152.3111 C   0  0  0  0  0  0  0  0  0  0  0  0
  142.8470  134.4980  152.6277 C   0  0  0  0  0  0  0  0  0  0  0  0
  143.9344  136.6081  152.0183 C   0  0  0  0  0  0  0  0  0  0  0  0
  149.4482  141.6816  154.7221 C   0  0  0  0  0  0  0  0  0  0  0  0
  149.8647  142.7466  155.4412 N   0  3  0  0  0  0  0  0  0  0  0  0
  151.5180  143.6924  158.1518 H   0  0  0  0  0  0  0  0  0  0  0  0
  150.3806  144.6260  157.1767 H   0  0  0  0  0  0  0  0  0  0  0  0
  152.0489  144.4143  156.6278 H   0  0  0  0  0  0  0  0  0  0  0  0
  152.2039  141.3354  157.4105 H   0  0  0  0  0  0  0  0  0  0  0  0
  151.4866  139.3223  156.1201 H   0  0  0  0  0  0  0  0  0  0  0  0
  149.7475  139.4146  153.0745 H   0  0  0  0  0  0  0  0  0  0  0  0
  150.2087  138.3594  154.3774 H   0  0  0  0  0  0  0  0  0  0  0  0
  147.9031  138.7173  155.4152 H   0  0  0  0  0  0  0  0  0  0  0  0
  147.4369  139.6262  154.0000 H   0  0  0  0  0  0  0  0  0  0  0  0
  148.3467  137.1954  153.0227 H   0  0  0  0  0  0  0  0  0  0  0  0
  147.2749  135.5442  152.6050 H   0  0  0  0  0  0  0  0  0  0  0  0
  145.0777  134.5476  154.3052 H   0  0  0  0  0  0  0  0  0  0  0  0
  144.9325  132.7936  152.7345 H   0  0  0  0  0  0  0  0  0  0  0  0
  147.6537  133.5929  151.6775 H   0  0  0  0  0  0  0  0  0  0  0  0
  147.1320  132.0177  152.3177 H   0  0  0  0  0  0  0  0  0  0  0  0
  146.7649  132.9233  149.5949 H   0  0  0  0  0  0  0  0  0  0  0  0
  145.9531  131.5238  150.3017 H   0  0  0  0  0  0  0  0  0  0  0  0
  145.8464  135.0807  150.8322 H   0  0  0  0  0  0  0  0  0  0  0  0
  142.1819  134.5429  151.7648 H   0  0  0  0  0  0  0  0  0  0  0  0
  142.3519  135.0198  153.4472 H   0  0  0  0  0  0  0  0  0  0  0  0
  142.9082  133.4514  152.9206 H   0  0  0  0  0  0  0  0  0  0  0  0
  143.1578  136.7292  151.2622 H   0  0  0  0  0  0  0  0  0  0  0  0
  144.8184  137.1232  151.6424 H   0  0  0  0  0  0  0  0  0  0  0  0
  143.6078  137.1358  152.9149 H   0  0  0  0  0  0  0  0  0  0  0  0
  148.6788  141.8786  153.9898 H   0  0  0  0  0  0  0  0  0  0  0  0
  149.4356  143.6544  155.2597 H   0  0  0  0  0  0  0  0  0  0  0  0
  1  2  1  0  0  0  0
  1 23  1  0  0  0  0
  1 24  1  0  0  0  0
  1 25  1  0  0  0  0
  2 22  1  0  0  0  0
  2  3  2  0  0  0  0
  3  4  1  0  0  0  0
  3 26  1  0  0  0  0
  4  5  2  0  0  0  0
  4 27  1  0  0  0  0
  5  6  1  0  0  0  0
  5 21  1  0  0  0  0
  6  7  1  0  0  0  0
  6 28  1  0  0  0  0
  6 29  1  0  0  0  0
  7  8  1  0  0  0  0
  7 30  1  0  0  0  0
  7 31  1  0  0  0  0
  8  9  1  0  0  0  0
  8 32  1  0  0  0  0
  9 10  2  0  0  0  0
  9 11  1  0  0  0  0
 11 12  1  0  0  0  0
 11 33  1  0  0  0  0
 12 18  1  0  0  0  0
 12 13  1  0  0  0  0
 12 34  1  0  0  0  0
 13 17  1  0  0  0  0
 13 14  1  0  0  0  0
 13 35  1  0  0  0  0
 14 15  1  0  0  0  0
 14 36  1  0  0  0  0
 14 37  1  0  0  0  0
 15 16  1  0  0  0  0
 15 38  1  0  0  0  0
 15 39  1  0  0  0  0
 16 17  1  0  0  0  0
 17 18  1  0  0  0  0
 17 40  1  0  0  0  0
 18 19  1  0  0  0  0
 18 20  1  0  0  0  0
 19 41  1  0  0  0  0
 19 42  1  0  0  0  0
 19 43  1  0  0  0  0
 20 44  1  0  0  0  0
 20 45  1  0  0  0  0
 20 46  1  0  0  0  0
 21 22  2  0  0  0  0
 21 47  1  0  0  0  0
 22 48  1  0  0  0  0
M  CHG  1  22   1
M  END
> <s_m_source_file>
AV-unprocessed.smi

> <i_m_source_file_index>
767

> <i_lp_mmshare_version>
43012

> <i_f3d_flags>
0

> <s_epik_input>
W0NIM11jMVtjSF1bY0hdYyhbY0hdbjEpW0NIMl1bQ0gyXVtOSF1DKD1PKVtOSF1bQ0BIXTJDKFtDSDNdKShbQ0gzXSlbQ0BIXShbQ0BASF0yMylPW0NIMl1bQ0gyXTM=

> <s_epik_cmdline>
J2VwaWtfcHl0aG9uJywgJy1waCcsICc3LjAnLCAnLXRuJywgJzgnLCAnLW1hJywgJzIwMCcsICctbWV0YWxfYmluZGluZycsICctaW1hZScsICc8aW5maWxlLm1hZT4nLCAnLW9tYWUnLCAnPG91dGZpbGUubWFlPic=

> <r_epik_Ionization_Penalty>
1.41853

> <r_epik_Ionization_Penalty_Charging>
1.41848

> <r_epik_Ionization_Penalty_Neutral>
5.17407e-05

> <r_epik_State_Penalty>
1.50205

> <r_epik_Charging_Adjusted_Penalty>
2.92053

> <i_epik_Tot_Q>
1

> <i_epik_Tot_abs_Q>
1

> <r_epik_Metal_State_Penalty>
1.5544

> <b_epik_Metal_Only>
0

> <s_lp_Force_Field>
OPLS_2005

> <r_lp_Energy>
65.9861

> <b_lp_Chiralities_Consistent>
1

> <s_lp_Variant>
AV-unprocessed.smi:767-15

> <Gold.Version>
5.8.1

> <Gold.Id.Protein>
6NUR|6NUR_protein|mol2

> <Gold.PLP.Fitness>
47.9782

> <Gold.PLP.PLP>
-36.6506

> <Gold.PLP.part.hbond>
-3.0000

> <Gold.PLP.part.metal>
0.0000

> <Gold.PLP.part.buried>
-4.5996

> <Gold.PLP.part.nonpolar>
-30.2238

> <Gold.PLP.part.repulsive>
0.3212

> <Gold.PLP.ligand.clash>
0.0000

> <Gold.PLP.ligand.torsion>
0.3344

> <Gold.PLP.Chemscore.Hbond>
3.9120

> <Gold.PLP.Chemscore.CHOScore>
0.0000

> <Gold.PLP.Chemscore.Metal>
0.0000

> <Gold.Chemscore.Hbonds>
donor molecule, donor type, donor heavy atom, donor atom, acceptor molecule, acceptor atom, score
      L1  H     8    32       P1  7948  1.00
      L1  H    11    33       P1  7948  0.90
      L1  H    22    48       P1  8028  0.62

> <Gold.PLP.Chemscore.Internal.Correction>
0.2603

> <Gold.Rescore>
     Score         DG    S(hbond)    S(metal)    S(lipo)     H(rot)  DE(clash)    DE(int)     intcor
     21.83     -22.37       2.83        0.00      96.83       1.52       0.16       0.38       ----

> <Gold.Chemscore.Fitness>
21.8304

> <Gold.Chemscore.DG>
-22.3667

> <Gold.Chemscore.ZeroCoef>
-5.4800

> <Gold.Chemscore.Hbond>
2.8316

> <Gold.Chemscore.Metal>
0.0000

> <Gold.Chemscore.Lipo>
96.8275

> <Gold.Chemscore.Internal_Hbond>
0.0000

> <Gold.Chemscore.DEClash>
0.1590

> <Gold.Chemscore.DEInternal>
0.3773

> <Gold.Chemscore.Rot>
1.5233

> <Gold.Chemscore.Internal.Correction>
   9.000000E+99

> <Gold.Chemscore.Hbonds>
donor molecule, donor type, donor heavy atom, donor atom, acceptor molecule, acceptor atom, score
      L1  H     8    32       P1  7948  0.99
      L1  H    11    33       P1  7948  0.87
      L1  H    22    48       P1  8028  0.30

> <Gold.Chemscore.Hbond.Weighted>
-9.4574

> <Gold.Chemscore.Metal.Weighted>
-0.0000

> <Gold.Chemscore.Lipo.Weighted>
-11.3288

> <Gold.Chemscore.Internal_Hbond.Weighted>
0.0000

> <Gold.Chemscore.DEClash.Weighted>
0.1590

> <Gold.Chemscore.DEInternal.Weighted>
0.3773

> <Gold.Chemscore.Rot.Weighted>
3.8995

> <Gold.Chemscore.Internal.Correction.Weighted>
   9.000000E+99

> <Gold.Protein.RotatedTorsions>
[ 6907 6896 6895 6894 ] final  -53.24 input  -60.11 | X-H torsion
[ 7974 7965 7964 7962 ] final   -2.06 input  175.53 | X-H torsion
[ 8008 7997 7996 7995 ] final -129.73 input   59.86 | X-H torsion
[ 10167 10162 10161 10158 ] final -161.67 input  -65.29 | X-H torsion
[ 10718 10713 10712 10709 ] final  158.00 input   66.30 | X-H torsion
[ 10763 10752 10751 10750 ] final  146.95 input  -60.55 | X-H torsion
[ 11005 11000 10999 10996 ] final  169.48 input  -57.11 | X-H torsion

> <Gold.Protein.ActiveResidues>
 VAL166  LYS551  ARG553  GLY616  TRP617  ASP618  TYR619  PRO620  LYS621  CYS622 
 ASP623  PHE694  ASN695  SER759  ASP760  ASP761  ALA762  ILE779  LEU786  VAL792 
 PHE793  MET794  SER795  GLU796  ALA797  LYS798  CYS799  TRP800  GLU811  SER814 

> <Gold.Protein.RotatedAtoms>
  150.8444  134.7748  159.6958 H   0  0  0  0  0  0  0  0  0  0  0  0  # atno 6907 bound_to 6896
  152.4524  134.5361  159.9835 H   0  0  0  0  0  0  0  0  0  0  0  0  # atno 6908 bound_to 6896
  151.5494  133.3382  159.2986 H   0  0  0  0  0  0  0  0  0  0  0  0  # atno 6909 bound_to 6896
  146.2409  140.1514  142.8334 H   0  0  0  0  0  0  0  0  0  0  0  0  # atno 7974 bound_to 7965
  155.2841  140.0445  157.3018 H   0  0  0  0  0  0  0  0  0  0  0  0  # atno 8008 bound_to 7997
  154.5579  140.2337  155.8349 H   0  0  0  0  0  0  0  0  0  0  0  0  # atno 8009 bound_to 7997
  156.2023  140.3022  155.9560 H   0  0  0  0  0  0  0  0  0  0  0  0  # atno 8010 bound_to 7997
  139.6448  144.0192  152.2119 H   0  0  0  0  0  0  0  0  0  0  0  0  # atno 10167 bound_to 10162
  157.1839  131.0639  151.2117 H   0  0  0  0  0  0  0  0  0  0  0  0  # atno 10718 bound_to 10713
  154.0303  135.2898  155.3369 H   0  0  0  0  0  0  0  0  0  0  0  0  # atno 10763 bound_to 10752
  154.6992  135.5195  153.8505 H   0  0  0  0  0  0  0  0  0  0  0  0  # atno 10764 bound_to 10752
  153.0643  135.6625  154.0516 H   0  0  0  0  0  0  0  0  0  0  0  0  # atno 10765 bound_to 10752
  140.2982  134.7617  157.3895 H   0  0  0  0  0  0  0  0  0  0  0  0  # atno 11005 bound_to 11000
  145.0165  140.8758  143.5193 LP  0  0  0  0  0  0  0  0  0  0  0  0  # atno 17320 bound_to 7965
  145.1555  139.2489  143.5418 LP  0  0  0  0  0  0  0  0  0  0  0  0  # atno 17321 bound_to 7965
  139.9891  144.6374  150.7831 LP  0  0  0  0  0  0  0  0  0  0  0  0  # atno 17342 bound_to 10162
  140.7509  143.2964  151.3195 LP  0  0  0  0  0  0  0  0  0  0  0  0  # atno 17343 bound_to 10162
  157.3926  130.7290  149.6709 LP  0  0  0  0  0  0  0  0  0  0  0  0  # atno 17370 bound_to 10713
  155.9720  130.4142  150.4121 LP  0  0  0  0  0  0  0  0  0  0  0  0  # atno 17371 bound_to 10713
  140.1133  134.5316  155.8247 LP  0  0  0  0  0  0  0  0  0  0  0  0  # atno 17394 bound_to 11000
  141.2133  133.6731  156.6730 LP  0  0  0  0  0  0  0  0  0  0  0  0  # atno 17395 bound_to 11000

$$$$
