AV-unprocessed.smi:2695|AV-procd|sdf|10407|dock5
  -GOLD-   2272014443D 1   1.00000     0.00000
 Structure written by MMmdl.
 41 42  0  0  0  0  0  0  0  0  2 V2000
  143.1551  135.8321  162.3695 C   0  0  0  0  0  0  0  0  0  0  0  0
  144.6436  135.5292  162.2440 C   0  0  0  0  0  0  0  0  0  0  0  0
  145.5426  136.5344  162.1591 C   0  0  0  0  0  0  0  0  0  0  0  0
  146.9070  136.2895  162.0748 C   0  0  0  0  0  0  0  0  0  0  0  0
  147.7433  137.2161  161.9930 O   0  5  0  0  0  0  0  0  0  0  0  0
  147.2853  134.9532  162.0925 C   0  0  0  0  0  0  0  0  0  0  0  0
  146.3641  133.8274  162.1892 C   0  0  0  0  0  0  0  0  0  0  0  0
  146.7571  132.6596  162.2153 O   0  0  0  0  0  0  0  0  0  0  0  0
  145.0453  134.1669  162.2428 N   0  0  0  0  0  0  0  0  0  0  0  0
  144.0362  133.0836  162.2891 C   0  0  0  0  0  0  0  0  0  0  0  0
  144.1658  132.0708  161.1415 C   0  0  0  0  0  0  0  0  0  0  0  0
  144.2198  132.4429  159.9685 O   0  0  0  0  0  0  0  0  0  0  0  0
  144.2196  130.7818  161.5104 N   0  0  0  0  0  0  0  0  0  0  0  0
  144.3196  129.6298  160.6124 C   0  0  2  0  0  0  0  0  0  0  0  0
  142.9079  129.0260  160.3956 C   0  0  0  0  0  0  0  0  0  0  0  0
  142.6895  128.3525  159.0353 C   0  0  0  0  0  0  0  0  0  0  0  0
  141.1694  128.2832  158.8549 C   0  0  0  0  0  0  0  0  0  0  0  0
  140.5783  129.3764  159.7559 C   0  0  0  0  0  0  0  0  0  0  0  0
  141.7679  130.0536  160.4433 C   0  0  0  0  0  0  0  0  0  0  0  0
  145.3471  128.6322  161.1945 C   0  0  0  0  0  0  0  0  0  0  0  0
  144.9651  128.2517  162.4143 F   0  0  0  0  0  0  0  0  0  0  0  0
  145.4441  127.5501  160.4209 F   0  0  0  0  0  0  0  0  0  0  0  0
  146.5501  129.1941  161.3039 F   0  0  0  0  0  0  0  0  0  0  0  0
  142.9924  136.8889  162.5843 H   0  0  0  0  0  0  0  0  0  0  0  0
  142.6955  135.2710  163.1832 H   0  0  0  0  0  0  0  0  0  0  0  0
  142.6364  135.6036  161.4383 H   0  0  0  0  0  0  0  0  0  0  0  0
  145.1892  137.5558  162.1612 H   0  0  0  0  0  0  0  0  0  0  0  0
  148.3380  134.7174  162.0321 H   0  0  0  0  0  0  0  0  0  0  0  0
  144.0464  132.5460  163.2355 H   0  0  0  0  0  0  0  0  0  0  0  0
  143.0313  133.5095  162.2564 H   0  0  0  0  0  0  0  0  0  0  0  0
  144.1786  130.5774  162.4982 H   0  0  0  0  0  0  0  0  0  0  0  0
  144.6968  129.9544  159.6410 H   0  0  0  0  0  0  0  0  0  0  0  0
  142.7172  128.2844  161.1733 H   0  0  0  0  0  0  0  0  0  0  0  0
  143.1206  128.9668  158.2436 H   0  0  0  0  0  0  0  0  0  0  0  0
  143.1470  127.3647  158.9748 H   0  0  0  0  0  0  0  0  0  0  0  0
  140.8860  128.4162  157.8104 H   0  0  0  0  0  0  0  0  0  0  0  0
  140.7990  127.3070  159.1702 H   0  0  0  0  0  0  0  0  0  0  0  0
  139.9847  130.0955  159.1906 H   0  0  0  0  0  0  0  0  0  0  0  0
  139.9212  128.9248  160.5004 H   0  0  0  0  0  0  0  0  0  0  0  0
  141.5281  130.3699  161.4592 H   0  0  0  0  0  0  0  0  0  0  0  0
  142.0507  130.9455  159.8816 H   0  0  0  0  0  0  0  0  0  0  0  0
  1  2  1  0  0  0  0
  1 24  1  0  0  0  0
  1 25  1  0  0  0  0
  1 26  1  0  0  0  0
  2  9  1  0  0  0  0
  2  3  2  0  0  0  0
  3  4  1  0  0  0  0
  3 27  1  0  0  0  0
  4  5  1  0  0  0  0
  4  6  2  0  0  0  0
  6  7  1  0  0  0  0
  6 28  1  0  0  0  0
  7  8  2  0  0  0  0
  7  9  1  0  0  0  0
  9 10  1  0  0  0  0
 10 11  1  0  0  0  0
 10 29  1  0  0  0  0
 10 30  1  0  0  0  0
 11 12  2  0  0  0  0
 11 13  1  0  0  0  0
 13 14  1  0  0  0  0
 13 31  1  0  0  0  0
 14 15  1  0  0  0  0
 14 20  1  0  0  0  0
 14 32  1  0  0  0  0
 15 19  1  0  0  0  0
 15 16  1  0  0  0  0
 15 33  1  0  0  0  0
 16 17  1  0  0  0  0
 16 34  1  0  0  0  0
 16 35  1  0  0  0  0
 17 18  1  0  0  0  0
 17 36  1  0  0  0  0
 17 37  1  0  0  0  0
 18 19  1  0  0  0  0
 18 38  1  0  0  0  0
 18 39  1  0  0  0  0
 19 40  1  0  0  0  0
 19 41  1  0  0  0  0
 20 21  1  0  0  0  0
 20 22  1  0  0  0  0
 20 23  1  0  0  0  0
M  CHG  1   5  -1
M  END
> <s_m_source_file>
AV-unprocessed.smi

> <i_m_source_file_index>
2695

> <i_lp_mmshare_version>
43012

> <i_f3d_flags>
0

> <s_epik_input>
W0NIM11jMVtjSF1jKFtPSF0pW2NIXWMoPU8pbjFbQ0gyXUMoPU8pW05IXVtDQEBIXShDKEYpKEYpRilbQ0hdMltDSDJdW0NIMl1bQ0gyXVtDSDJdMg==

> <s_epik_cmdline>
J2VwaWtfcHl0aG9uJywgJy1waCcsICc3LjAnLCAnLXRuJywgJzgnLCAnLW1hJywgJzIwMCcsICctbWV0YWxfYmluZGluZycsICctaW1hZScsICc8aW5maWxlLm1hZT4nLCAnLW9tYWUnLCAnPG91dGZpbGUubWFlPic=

> <r_lp_tautomer_probability>
1

> <r_epik_Ionization_Penalty>
0.176977

> <r_epik_Ionization_Penalty_Charging>
0.176977

> <r_epik_Ionization_Penalty_Neutral>
1.44272e-07

> <r_epik_State_Penalty>
0.160849

> <r_epik_Charging_Adjusted_Penalty>
0.337826

> <i_epik_Tot_Q>
-1

> <i_epik_Tot_abs_Q>
1

> <r_epik_Metal_State_Penalty>
0.16085

> <b_epik_Metal_Only>
0

> <s_lp_Force_Field>
OPLS_2005

> <r_lp_Energy>
43.1089

> <b_lp_Chiralities_Consistent>
1

> <s_lp_Variant>
AV-unprocessed.smi:2695-1

> <Gold.Version>
5.8.1

> <Gold.Id.Protein>
6NUR|6NUR_protein|mol2

> <Gold.PLP.Fitness>
46.7440

> <Gold.PLP.PLP>
-39.2560

> <Gold.PLP.part.hbond>
-2.7030

> <Gold.PLP.part.metal>
0.0000

> <Gold.PLP.part.buried>
-2.7992

> <Gold.PLP.part.nonpolar>
-33.9045

> <Gold.PLP.part.repulsive>
0.0253

> <Gold.PLP.ligand.clash>
0.0000

> <Gold.PLP.ligand.torsion>
1.0590

> <Gold.PLP.Chemscore.Hbond>
3.0931

> <Gold.PLP.Chemscore.CHOScore>
0.0000

> <Gold.PLP.Chemscore.Metal>
0.0000

> <Gold.Chemscore.Hbonds>
donor molecule, donor type, donor heavy atom, donor atom, acceptor molecule, acceptor atom, score
      P1  H  6931  6943       L1     5  2.00
      P1  H  6934  6947       L1     5  0.83

> <Gold.PLP.Chemscore.Internal.Correction>
0.3268

> <Gold.Rescore>
     Score         DG    S(hbond)    S(metal)    S(lipo)     H(rot)  DE(clash)    DE(int)     intcor
     13.37     -15.62       1.75        0.00      75.18       1.75       0.13       2.13       ----

> <Gold.Chemscore.Fitness>
13.3674

> <Gold.Chemscore.DG>
-15.6200

> <Gold.Chemscore.ZeroCoef>
-5.4800

> <Gold.Chemscore.Hbond>
1.7466

> <Gold.Chemscore.Metal>
0.0000

> <Gold.Chemscore.Lipo>
75.1826

> <Gold.Chemscore.Internal_Hbond>
0.0000

> <Gold.Chemscore.DEClash>
0.1263

> <Gold.Chemscore.DEInternal>
2.1263

> <Gold.Chemscore.Rot>
1.7539

> <Gold.Chemscore.Internal.Correction>
   9.000000E+99

> <Gold.Chemscore.Hbonds>
donor molecule, donor type, donor heavy atom, donor atom, acceptor molecule, acceptor atom, score
      P1  H  6931  6943       L1     5  0.94
      P1  H  6934  6947       L1     5  0.40

> <Gold.Chemscore.Hbond.Weighted>
-5.8335

> <Gold.Chemscore.Metal.Weighted>
-0.0000

> <Gold.Chemscore.Lipo.Weighted>
-8.7964

> <Gold.Chemscore.Internal_Hbond.Weighted>
0.0000

> <Gold.Chemscore.DEClash.Weighted>
0.1263

> <Gold.Chemscore.DEInternal.Weighted>
2.1263

> <Gold.Chemscore.Rot.Weighted>
4.4899

> <Gold.Chemscore.Internal.Correction.Weighted>
   9.000000E+99

> <Gold.Protein.RotatedTorsions>
[ 6907 6896 6895 6894 ] final  -58.86 input  -60.11 | X-H torsion
[ 7974 7965 7964 7962 ] final  -98.58 input  175.53 | X-H torsion
[ 8008 7997 7996 7995 ] final  117.91 input   59.86 | X-H torsion
[ 10167 10162 10161 10158 ] final  -79.93 input  -65.29 | X-H torsion
[ 10718 10713 10712 10709 ] final    8.74 input   66.30 | X-H torsion
[ 10763 10752 10751 10750 ] final  -18.02 input  -60.55 | X-H torsion
[ 11005 11000 10999 10996 ] final  146.49 input  -57.11 | X-H torsion

> <Gold.Protein.ActiveResidues>
 VAL166  LYS551  ARG553  GLY616  TRP617  ASP618  TYR619  PRO620  LYS621  CYS622 
 ASP623  PHE694  ASN695  SER759  ASP760  ASP761  ALA762  ILE779  LEU786  VAL792 
 PHE793  MET794  SER795  GLU796  ALA797  LYS798  CYS799  TRP800  GLU811  SER814 

> <Gold.Protein.RotatedAtoms>
  150.7974  134.7043  159.6567 H   0  0  0  0  0  0  0  0  0  0  0  0  # atno 6907 bound_to 6896
  152.4088  134.6158  160.0047 H   0  0  0  0  0  0  0  0  0  0  0  0  # atno 6908 bound_to 6896
  151.6407  133.3289  159.3165 H   0  0  0  0  0  0  0  0  0  0  0  0  # atno 6909 bound_to 6896
  145.3188  140.9417  143.2727 H   0  0  0  0  0  0  0  0  0  0  0  0  # atno 7974 bound_to 7965
  156.2519  140.2886  156.0751 H   0  0  0  0  0  0  0  0  0  0  0  0  # atno 8008 bound_to 7997
  155.1628  140.0400  157.2863 H   0  0  0  0  0  0  0  0  0  0  0  0  # atno 8009 bound_to 7997
  154.6381  140.2515  155.7361 H   0  0  0  0  0  0  0  0  0  0  0  0  # atno 8010 bound_to 7997
  140.4549  143.2471  151.8434 H   0  0  0  0  0  0  0  0  0  0  0  0  # atno 10167 bound_to 10162
  156.9560  130.5915  149.5659 H   0  0  0  0  0  0  0  0  0  0  0  0  # atno 10718 bound_to 10713
  153.5828  135.7004  153.5456 H   0  0  0  0  0  0  0  0  0  0  0  0  # atno 10763 bound_to 10752
  153.3246  135.4064  155.1445 H   0  0  0  0  0  0  0  0  0  0  0  0  # atno 10764 bound_to 10752
  154.8614  135.3704  154.5357 H   0  0  0  0  0  0  0  0  0  0  0  0  # atno 10765 bound_to 10752
  140.0798  134.9104  157.1482 H   0  0  0  0  0  0  0  0  0  0  0  0  # atno 11005 bound_to 11000
  144.8956  139.4717  143.6657 LP  0  0  0  0  0  0  0  0  0  0  0  0  # atno 17320 bound_to 7965
  146.3090  139.7680  142.9034 LP  0  0  0  0  0  0  0  0  0  0  0  0  # atno 17321 bound_to 7965
  139.4800  144.5076  151.8976 LP  0  0  0  0  0  0  0  0  0  0  0  0  # atno 17342 bound_to 10162
  140.4163  144.2302  150.5887 LP  0  0  0  0  0  0  0  0  0  0  0  0  # atno 17343 bound_to 10162
  156.0342  130.5431  150.8612 LP  0  0  0  0  0  0  0  0  0  0  0  0  # atno 17370 bound_to 10713
  157.5690  131.0946  150.9447 LP  0  0  0  0  0  0  0  0  0  0  0  0  # atno 17371 bound_to 10713
  140.3505  134.2604  155.7199 LP  0  0  0  0  0  0  0  0  0  0  0  0  # atno 17394 bound_to 11000
  141.2042  133.7891  157.0297 LP  0  0  0  0  0  0  0  0  0  0  0  0  # atno 17395 bound_to 11000

$$$$
