AV-unprocessed.smi:1492|AV-procd|sdf|6039|dock10
  -GOLD-   22720 6143D 1   1.00000     0.00000
 Structure written by MMmdl.
 53 54  0  0  0  0  0  0  0  0  2 V2000
  145.9433  132.8022  155.4963 C   0  0  0  0  0  0  0  0  0  0  0  0
  146.9634  132.3502  154.4357 C   0  0  0  0  0  0  0  0  0  0  0  0
  147.8756  133.4749  153.8553 C   0  0  2  0  0  0  0  0  0  0  0  0
  149.1520  132.7916  153.2978 C   0  0  0  0  0  0  0  0  0  0  0  0
  148.2712  134.4569  155.0017 C   0  0  0  0  0  0  0  0  0  0  0  0
  149.0907  135.5797  154.5497 N   0  0  0  0  0  0  0  0  0  0  0  0
  149.5185  136.6003  155.3086 C   0  0  0  0  0  0  0  0  0  0  0  0
  149.2555  136.7153  156.5052 O   0  0  0  0  0  0  0  0  0  0  0  0
  150.3599  137.6625  154.6004 C   0  0  0  0  0  0  0  0  0  0  0  0
  151.0324  138.6840  155.5158 C   0  0  0  0  0  0  0  0  0  0  0  0
  152.3830  138.8811  155.5433 C   0  0  0  0  0  0  0  0  0  0  0  0
  153.3467  138.1001  154.6671 C   0  0  0  0  0  0  0  0  0  0  0  0
  152.9703  139.8272  156.3949 N   0  0  0  0  0  0  0  0  0  0  0  0
  152.2069  140.5242  157.1705 C   0  0  0  0  0  0  0  0  0  0  0  0
  152.7157  141.5770  158.1324 C   0  0  0  0  0  0  0  0  0  0  0  0
  150.8213  140.3722  157.1914 N   0  0  0  0  0  0  0  0  0  0  0  0
  150.1695  139.4917  156.3998 C   0  0  0  0  0  0  0  0  0  0  0  0
  148.9424  139.4112  156.4369 O   0  0  0  0  0  0  0  0  0  0  0  0
  147.1591  134.2086  152.7487 N   0  3  0  0  0  0  0  0  0  0  0  0
  146.4867  133.3541  151.7290 C   0  0  0  0  0  0  0  0  0  0  0  0
  145.9892  134.2107  150.5541 C   0  0  0  0  0  0  0  0  0  0  0  0
  145.0932  135.2017  151.0365 O   0  0  0  0  0  0  0  0  0  0  0  0
  145.7285  136.0833  151.9517 C   0  0  0  0  0  0  0  0  0  0  0  0
  146.2322  135.2960  153.1738 C   0  0  0  0  0  0  0  0  0  0  0  0
  150.2754  140.9476  157.8160 H   0  0  0  0  0  0  0  0  0  0  0  0
  145.3535  131.9527  155.8413 H   0  0  0  0  0  0  0  0  0  0  0  0
  145.2451  133.5386  155.0995 H   0  0  0  0  0  0  0  0  0  0  0  0
  146.4287  133.2348  156.3710 H   0  0  0  0  0  0  0  0  0  0  0  0
  147.5682  131.5431  154.8482 H   0  0  0  0  0  0  0  0  0  0  0  0
  146.4041  131.8790  153.6264 H   0  0  0  0  0  0  0  0  0  0  0  0
  149.5604  132.0640  153.9999 H   0  0  0  0  0  0  0  0  0  0  0  0
  149.9496  133.5092  153.1044 H   0  0  0  0  0  0  0  0  0  0  0  0
  148.9548  132.2606  152.3662 H   0  0  0  0  0  0  0  0  0  0  0  0
  147.3877  134.8297  155.5207 H   0  0  0  0  0  0  0  0  0  0  0  0
  148.8639  133.9430  155.7575 H   0  0  0  0  0  0  0  0  0  0  0  0
  149.3562  135.5816  153.5748 H   0  0  0  0  0  0  0  0  0  0  0  0
  151.1038  137.1601  153.9803 H   0  0  0  0  0  0  0  0  0  0  0  0
  149.7235  138.1886  153.8884 H   0  0  0  0  0  0  0  0  0  0  0  0
  153.3308  137.0422  154.9298 H   0  0  0  0  0  0  0  0  0  0  0  0
  154.3699  138.4581  154.7869 H   0  0  0  0  0  0  0  0  0  0  0  0
  153.0805  138.2010  153.6149 H   0  0  0  0  0  0  0  0  0  0  0  0
  153.2444  142.3589  157.5869 H   0  0  0  0  0  0  0  0  0  0  0  0
  153.4075  141.1304  158.8471 H   0  0  0  0  0  0  0  0  0  0  0  0
  151.9012  142.0413  158.6902 H   0  0  0  0  0  0  0  0  0  0  0  0
  147.1604  132.5984  151.3306 H   0  0  0  0  0  0  0  0  0  0  0  0
  145.6391  132.8301  152.1713 H   0  0  0  0  0  0  0  0  0  0  0  0
  146.8248  134.6770  150.0292 H   0  0  0  0  0  0  0  0  0  0  0  0
  145.4669  133.5860  149.8293 H   0  0  0  0  0  0  0  0  0  0  0  0
  146.5505  136.6065  151.4603 H   0  0  0  0  0  0  0  0  0  0  0  0
  145.0111  136.8421  152.2641 H   0  0  0  0  0  0  0  0  0  0  0  0
  145.3815  134.8788  153.7133 H   0  0  0  0  0  0  0  0  0  0  0  0
  146.7199  136.0043  153.8408 H   0  0  0  0  0  0  0  0  0  0  0  0
  147.8982  134.6814  152.2486 H   0  0  0  0  0  0  0  0  0  0  0  0
  1  2  1  0  0  0  0
  1 26  1  0  0  0  0
  1 27  1  0  0  0  0
  1 28  1  0  0  0  0
  2  3  1  0  0  0  0
  2 29  1  0  0  0  0
  2 30  1  0  0  0  0
  3  4  1  0  0  0  0
  3  5  1  0  0  0  0
  3 19  1  0  0  0  0
  4 31  1  0  0  0  0
  4 32  1  0  0  0  0
  4 33  1  0  0  0  0
  5  6  1  0  0  0  0
  5 34  1  0  0  0  0
  5 35  1  0  0  0  0
  6  7  1  0  0  0  0
  6 36  1  0  0  0  0
  7  8  2  0  0  0  0
  7  9  1  0  0  0  0
  9 10  1  0  0  0  0
  9 37  1  0  0  0  0
  9 38  1  0  0  0  0
 10 17  1  0  0  0  0
 10 11  2  0  0  0  0
 11 12  1  0  0  0  0
 11 13  1  0  0  0  0
 12 39  1  0  0  0  0
 12 40  1  0  0  0  0
 12 41  1  0  0  0  0
 13 14  2  0  0  0  0
 14 15  1  0  0  0  0
 14 16  1  0  0  0  0
 15 42  1  0  0  0  0
 15 43  1  0  0  0  0
 15 44  1  0  0  0  0
 16 25  1  0  0  0  0
 16 17  1  0  0  0  0
 17 18  2  0  0  0  0
 19 24  1  0  0  0  0
 19 20  1  0  0  0  0
 19 53  1  0  0  0  0
 20 21  1  0  0  0  0
 20 45  1  0  0  0  0
 20 46  1  0  0  0  0
 21 22  1  0  0  0  0
 21 47  1  0  0  0  0
 21 48  1  0  0  0  0
 22 23  1  0  0  0  0
 23 24  1  0  0  0  0
 23 49  1  0  0  0  0
 23 50  1  0  0  0  0
 24 51  1  0  0  0  0
 24 52  1  0  0  0  0
M  CHG  1  19   1
M  END
> <s_m_source_file>
AV-unprocessed.smi

> <i_m_source_file_index>
1492

> <i_lp_mmshare_version>
43012

> <i_f3d_flags>
0

> <s_epik_input>
W0NIMl0xW0NIMl1PW0NIMl1bQ0gyXU4xW0NAQF0oW0NIM10pKFtDSDJdW0NIM10pW0NIMl1bTkhdQyg9TylbQ0gyXWMyYyhbQ0gzXSluYyhbQ0gzXSlbbkhdYzI9Tw==

> <s_epik_cmdline>
J2VwaWtfcHl0aG9uJywgJy1waCcsICc3LjAnLCAnLXRuJywgJzgnLCAnLW1hJywgJzIwMCcsICctbWV0YWxfYmluZGluZycsICctaW1hZScsICc8aW5maWxlLm1hZT4nLCAnLW9tYWUnLCAnPG91dGZpbGUubWFlPic=

> <r_lp_tautomer_probability>
0.839158

> <r_epik_Ionization_Penalty>
0.506959

> <r_epik_Ionization_Penalty_Charging>
0.506936

> <r_epik_Ionization_Penalty_Neutral>
2.27768e-05

> <r_epik_State_Penalty>
0.6046

> <r_epik_Charging_Adjusted_Penalty>
1.11154

> <i_epik_Tot_Q>
1

> <i_epik_Tot_abs_Q>
1

> <r_epik_Metal_State_Penalty>
0.783136

> <b_epik_Metal_Only>
0

> <s_lp_Force_Field>
OPLS_2005

> <r_lp_Energy>
29.7621

> <b_lp_Chiralities_Consistent>
1

> <s_lp_Variant>
AV-unprocessed.smi:1492-4

> <Gold.Version>
5.8.1

> <Gold.Id.Protein>
6NUR|6NUR_protein|mol2

> <Gold.PLP.Fitness>
39.7308

> <Gold.PLP.PLP>
-29.4283

> <Gold.PLP.part.hbond>
-3.0000

> <Gold.PLP.part.metal>
0.0000

> <Gold.PLP.part.buried>
-3.2567

> <Gold.PLP.part.nonpolar>
-22.9635

> <Gold.PLP.part.repulsive>
0.2535

> <Gold.PLP.ligand.clash>
0.0000

> <Gold.PLP.ligand.torsion>
0.9125

> <Gold.PLP.Chemscore.Hbond>
4.0000

> <Gold.PLP.Chemscore.CHOScore>
0.0000

> <Gold.PLP.Chemscore.Metal>
0.0000

> <Gold.Chemscore.Hbonds>
donor molecule, donor type, donor heavy atom, donor atom, acceptor molecule, acceptor atom, score
      L1  H     6    36       P1  7948  0.94
      L1  H    19    53       P1  7948  2.00
      P1  H  7997  8010       L1    13  0.67

> <Gold.PLP.Chemscore.Internal.Correction>
0.1274

> <Gold.Rescore>
     Score         DG    S(hbond)    S(metal)    S(lipo)     H(rot)  DE(clash)    DE(int)     intcor
     16.45     -17.90       2.91        0.00      71.03       2.19       0.39       1.06       ----

> <Gold.Chemscore.Fitness>
16.4497

> <Gold.Chemscore.DG>
-17.8962

> <Gold.Chemscore.ZeroCoef>
-5.4800

> <Gold.Chemscore.Hbond>
2.9097

> <Gold.Chemscore.Metal>
0.0000

> <Gold.Chemscore.Lipo>
71.0320

> <Gold.Chemscore.Internal_Hbond>
0.0000

> <Gold.Chemscore.DEClash>
0.3886

> <Gold.Chemscore.DEInternal>
1.0579

> <Gold.Chemscore.Rot>
2.1926

> <Gold.Chemscore.Internal.Correction>
   9.000000E+99

> <Gold.Chemscore.Hbonds>
donor molecule, donor type, donor heavy atom, donor atom, acceptor molecule, acceptor atom, score
      L1  H     6    36       P1  7948  0.32
      L1  H    19    53       P1  7948  0.54
      P1  H  7997  8010       L1    13  0.62

> <Gold.Chemscore.Hbond.Weighted>
-9.7184

> <Gold.Chemscore.Metal.Weighted>
-0.0000

> <Gold.Chemscore.Lipo.Weighted>
-8.3107

> <Gold.Chemscore.Internal_Hbond.Weighted>
0.0000

> <Gold.Chemscore.DEClash.Weighted>
0.3886

> <Gold.Chemscore.DEInternal.Weighted>
1.0579

> <Gold.Chemscore.Rot.Weighted>
5.6129

> <Gold.Chemscore.Internal.Correction.Weighted>
   9.000000E+99

> <Gold.Protein.RotatedTorsions>
[ 6907 6896 6895 6894 ] final  132.49 input  -60.11 | X-H torsion
[ 7974 7965 7964 7962 ] final  179.35 input  175.53 | X-H torsion
[ 8008 7997 7996 7995 ] final   69.88 input   59.86 | X-H torsion
[ 10167 10162 10161 10158 ] final -136.13 input  -65.29 | X-H torsion
[ 10718 10713 10712 10709 ] final   46.20 input   66.30 | X-H torsion
[ 10763 10752 10751 10750 ] final  156.53 input  -60.55 | X-H torsion
[ 11005 11000 10999 10996 ] final -177.38 input  -57.11 | X-H torsion

> <Gold.Protein.ActiveResidues>
 VAL166  LYS551  ARG553  GLY616  TRP617  ASP618  TYR619  PRO620  LYS621  CYS622 
 ASP623  PHE694  ASN695  SER759  ASP760  ASP761  ALA762  ILE779  LEU786  VAL792 
 PHE793  MET794  SER795  GLU796  ALA797  LYS798  CYS799  TRP800  GLU811  SER814 

> <Gold.Protein.RotatedAtoms>
  152.3318  133.5967  159.5814 H   0  0  0  0  0  0  0  0  0  0  0  0  # atno 6907 bound_to 6896
  150.7427  133.9856  159.3599 H   0  0  0  0  0  0  0  0  0  0  0  0  # atno 6908 bound_to 6896
  151.7730  135.0782  160.0413 H   0  0  0  0  0  0  0  0  0  0  0  0  # atno 6909 bound_to 6896
  144.7146  140.0534  143.6434 H   0  0  0  0  0  0  0  0  0  0  0  0  # atno 7974 bound_to 7965
  155.7304  140.3492  155.5057 H   0  0  0  0  0  0  0  0  0  0  0  0  # atno 8008 bound_to 7997
  155.9188  140.1063  157.1245 H   0  0  0  0  0  0  0  0  0  0  0  0  # atno 8009 bound_to 7997
  154.4066  140.1253  156.4639 H   0  0  0  0  0  0  0  0  0  0  0  0  # atno 8010 bound_to 7997
  139.8709  143.6958  152.2640 H   0  0  0  0  0  0  0  0  0  0  0  0  # atno 10167 bound_to 10162
  157.4456  130.8107  149.7737 H   0  0  0  0  0  0  0  0  0  0  0  0  # atno 10718 bound_to 10713
  154.1858  135.2797  155.3038 H   0  0  0  0  0  0  0  0  0  0  0  0  # atno 10763 bound_to 10752
  154.5967  135.5542  153.7336 H   0  0  0  0  0  0  0  0  0  0  0  0  # atno 10764 bound_to 10752
  153.0125  135.6382  154.1997 H   0  0  0  0  0  0  0  0  0  0  0  0  # atno 10765 bound_to 10752
  140.4415  134.6427  157.4760 H   0  0  0  0  0  0  0  0  0  0  0  0  # atno 11005 bound_to 11000
  145.9924  139.3026  143.0976 LP  0  0  0  0  0  0  0  0  0  0  0  0  # atno 17320 bound_to 7965
  145.8887  140.9317  143.0563 LP  0  0  0  0  0  0  0  0  0  0  0  0  # atno 17321 bound_to 7965
  139.7285  144.7587  151.0840 LP  0  0  0  0  0  0  0  0  0  0  0  0  # atno 17342 bound_to 10162
  140.7761  143.5118  150.9643 LP  0  0  0  0  0  0  0  0  0  0  0  0  # atno 17343 bound_to 10162
  155.9966  130.3905  150.2773 LP  0  0  0  0  0  0  0  0  0  0  0  0  # atno 17370 bound_to 10713
  157.0941  131.0178  151.3110 LP  0  0  0  0  0  0  0  0  0  0  0  0  # atno 17371 bound_to 10713
  140.0066  134.6754  155.9445 LP  0  0  0  0  0  0  0  0  0  0  0  0  # atno 17394 bound_to 11000
  141.1703  133.6537  156.4628 LP  0  0  0  0  0  0  0  0  0  0  0  0  # atno 17395 bound_to 11000

$$$$
