AV-unprocessed.smi:881|AV-procd|sdf|4035|dock1
  -GOLD-   22720 1523D 1   1.00000     0.00000
 Structure written by MMmdl.
 32 33  0  0  0  0  0  0  0  0  1 V2000
  149.9722  141.4366  157.8331 O   0  0  0  0  0  0  0  0  0  0  0  0
  150.1715  142.2677  156.9465 C   0  0  0  0  0  0  0  0  0  0  0  0
  149.5585  142.2901  155.7499 N   0  0  0  0  0  0  0  0  0  0  0  0
  148.5871  141.3878  155.2408 C   0  0  0  0  0  0  0  0  0  0  0  0
  148.5150  140.0941  155.5922 N   0  0  0  0  0  0  0  0  0  0  0  0
  147.4762  139.4371  154.9452 N   0  0  0  0  0  0  0  0  0  0  0  0
  146.8067  140.2596  154.1326 C   0  0  0  0  0  0  0  0  0  0  0  0
  147.3800  141.9178  154.0777 S   0  0  0  0  0  0  0  0  0  0  0  0
  151.0420  143.2816  157.0636 N   0  0  0  0  0  0  0  0  0  0  0  0
  151.8808  143.5518  158.2297 C   0  0  0  0  0  0  0  0  0  0  0  0
  152.4842  142.2265  158.7397 C   0  0  0  0  0  0  0  0  0  0  0  0
  153.3616  142.3453  159.9979 C   0  0  0  0  0  0  0  0  0  0  0  0
  152.5401  142.5666  161.2782 C   0  0  0  0  0  0  0  0  0  0  0  0
  152.1951  144.0319  161.5962 C   0  0  0  0  0  0  0  0  0  0  0  0
  151.8882  144.9428  160.3945 C   0  0  0  0  0  0  0  0  0  0  0  0
  151.0400  144.3084  159.2793 C   0  0  0  0  0  0  0  0  0  0  0  0
  149.8208  143.0395  155.1269 H   0  0  0  0  0  0  0  0  0  0  0  0
  145.9697  139.8870  153.5610 H   0  0  0  0  0  0  0  0  0  0  0  0
  151.1367  143.9164  156.2845 H   0  0  0  0  0  0  0  0  0  0  0  0
  152.6961  144.2080  157.9189 H   0  0  0  0  0  0  0  0  0  0  0  0
  151.6895  141.5007  158.9185 H   0  0  0  0  0  0  0  0  0  0  0  0
  153.0963  141.7983  157.9445 H   0  0  0  0  0  0  0  0  0  0  0  0
  153.9051  141.4063  160.1082 H   0  0  0  0  0  0  0  0  0  0  0  0
  154.1234  143.1166  159.8782 H   0  0  0  0  0  0  0  0  0  0  0  0
  151.6226  141.9792  161.2248 H   0  0  0  0  0  0  0  0  0  0  0  0
  153.0898  142.1598  162.1278 H   0  0  0  0  0  0  0  0  0  0  0  0
  151.3443  144.0401  162.2786 H   0  0  0  0  0  0  0  0  0  0  0  0
  153.0192  144.4780  162.1541 H   0  0  0  0  0  0  0  0  0  0  0  0
  151.3708  145.8256  160.7715 H   0  0  0  0  0  0  0  0  0  0  0  0
  152.8206  145.3195  159.9724 H   0  0  0  0  0  0  0  0  0  0  0  0
  150.5148  145.1185  158.7707 H   0  0  0  0  0  0  0  0  0  0  0  0
  150.2628  143.6683  159.6990 H   0  0  0  0  0  0  0  0  0  0  0  0
  1  2  2  0  0  0  0
  2  3  1  0  0  0  0
  2  9  1  0  0  0  0
  3  4  1  0  0  0  0
  3 17  1  0  0  0  0
  4  8  1  0  0  0  0
  4  5  2  0  0  0  0
  5  6  1  0  0  0  0
  6  7  2  0  0  0  0
  7  8  1  0  0  0  0
  7 18  1  0  0  0  0
  9 10  1  0  0  0  0
  9 19  1  0  0  0  0
 10 16  1  0  0  0  0
 10 11  1  0  0  0  0
 10 20  1  0  0  0  0
 11 12  1  0  0  0  0
 11 21  1  0  0  0  0
 11 22  1  0  0  0  0
 12 13  1  0  0  0  0
 12 23  1  0  0  0  0
 12 24  1  0  0  0  0
 13 14  1  0  0  0  0
 13 25  1  0  0  0  0
 13 26  1  0  0  0  0
 14 15  1  0  0  0  0
 14 27  1  0  0  0  0
 14 28  1  0  0  0  0
 15 16  1  0  0  0  0
 15 29  1  0  0  0  0
 15 30  1  0  0  0  0
 16 31  1  0  0  0  0
 16 32  1  0  0  0  0
M  END
> <s_m_source_file>
AV-unprocessed.smi

> <i_m_source_file_index>
881

> <i_lp_mmshare_version>
43012

> <i_f3d_flags>
0

> <s_epik_input>
czFbY0hdbm5jMVtOSF1DKD1PKVtOSF1bQ0hdMltDSDJdW0NIMl1bQ0gyXVtDSDJdW0NIMl1bQ0gyXTI=

> <s_epik_cmdline>
J2VwaWtfcHl0aG9uJywgJy1waCcsICc3LjAnLCAnLXRuJywgJzgnLCAnLW1hJywgJzIwMCcsICctbWV0YWxfYmluZGluZycsICctaW1hZScsICc8aW5maWxlLm1hZT4nLCAnLW9tYWUnLCAnPG91dGZpbGUubWFlPic=

> <r_lp_tautomer_probability>
1

> <r_epik_Ionization_Penalty>
0.000320184

> <r_epik_Ionization_Penalty_Charging>
0

> <r_epik_Ionization_Penalty_Neutral>
0.000320184

> <r_epik_State_Penalty>
-0

> <r_epik_Charging_Adjusted_Penalty>
0

> <i_epik_Tot_Q>
0

> <i_epik_Tot_abs_Q>
0

> <r_epik_Metal_State_Penalty>
0.170162

> <b_epik_Metal_Only>
0

> <s_lp_Force_Field>
OPLS_2005

> <r_lp_Energy>
13.8906

> <b_lp_Chiralities_Consistent>
1

> <s_lp_Variant>
AV-unprocessed.smi:881-1

> <Gold.Version>
5.8.1

> <Gold.Id.Protein>
6NUR|6NUR_protein|mol2

> <Gold.PLP.Fitness>
39.0127

> <Gold.PLP.PLP>
-36.3334

> <Gold.PLP.part.hbond>
-1.8504

> <Gold.PLP.part.metal>
0.0000

> <Gold.PLP.part.buried>
-4.6745

> <Gold.PLP.part.nonpolar>
-30.8716

> <Gold.PLP.part.repulsive>
0.3063

> <Gold.PLP.ligand.clash>
0.0000

> <Gold.PLP.ligand.torsion>
0.4427

> <Gold.PLP.Chemscore.Hbond>
0.2271

> <Gold.PLP.Chemscore.CHOScore>
0.9565

> <Gold.PLP.Chemscore.Metal>
0.0000

> <Gold.Chemscore.Hbonds>
donor molecule, donor type, donor heavy atom, donor atom, acceptor molecule, acceptor atom, score
      L1  H     3    17       P1  8028  0.21
      L1  C     7    18       P1 10175  0.83

> <Gold.PLP.Chemscore.Internal.Correction>
0.0137

> <Gold.Rescore>
     Score         DG    S(hbond)    S(metal)    S(lipo)     H(rot)  DE(clash)    DE(int)     intcor
     16.64     -19.89       1.93        0.00      89.83       1.00       0.01       3.24       ----

> <Gold.Chemscore.Fitness>
16.6417

> <Gold.Chemscore.DG>
-19.8883

> <Gold.Chemscore.ZeroCoef>
-5.4800

> <Gold.Chemscore.Hbond>
1.9336

> <Gold.Chemscore.Metal>
0.0000

> <Gold.Chemscore.Lipo>
89.8294

> <Gold.Chemscore.Internal_Hbond>
0.0000

> <Gold.Chemscore.DEClash>
0.0075

> <Gold.Chemscore.DEInternal>
3.2391

> <Gold.Chemscore.Rot>
1.0000

> <Gold.Chemscore.Internal.Correction>
   9.000000E+99

> <Gold.Chemscore.Hbonds>
donor molecule, donor type, donor heavy atom, donor atom, acceptor molecule, acceptor atom, score
      L1  H     3    17       P1  8028  0.22
      L1  H     9    19       P1  8028  0.01

> <Gold.Chemscore.Hbond.Weighted>
-6.4583

> <Gold.Chemscore.Metal.Weighted>
-0.0000

> <Gold.Chemscore.Lipo.Weighted>
-10.5100

> <Gold.Chemscore.Internal_Hbond.Weighted>
0.0000

> <Gold.Chemscore.DEClash.Weighted>
0.0075

> <Gold.Chemscore.DEInternal.Weighted>
3.2391

> <Gold.Chemscore.Rot.Weighted>
2.5600

> <Gold.Chemscore.Internal.Correction.Weighted>
   9.000000E+99

> <Gold.Protein.RotatedTorsions>
[ 6907 6896 6895 6894 ] final  -58.11 input  -60.11 | X-H torsion
[ 7974 7965 7964 7962 ] final   10.85 input  175.53 | X-H torsion
[ 8008 7997 7996 7995 ] final   40.76 input   59.86 | X-H torsion
[ 10167 10162 10161 10158 ] final   52.50 input  -65.29 | X-H torsion
[ 10718 10713 10712 10709 ] final  178.46 input   66.30 | X-H torsion
[ 10763 10752 10751 10750 ] final   -5.68 input  -60.55 | X-H torsion
[ 11005 11000 10999 10996 ] final   -9.50 input  -57.11 | X-H torsion

> <Gold.Protein.ActiveResidues>
 VAL166  LYS551  ARG553  GLY616  TRP617  ASP618  TYR619  PRO620  LYS621  CYS622 
 ASP623  PHE694  ASN695  SER759  ASP760  ASP761  ALA762  ILE779  LEU786  VAL792 
 PHE793  MET794  SER795  GLU796  ALA797  LYS798  CYS799  TRP800  GLU811  SER814 

> <Gold.Protein.RotatedAtoms>
  150.8032  134.7140  159.6619 H   0  0  0  0  0  0  0  0  0  0  0  0  # atno 6907 bound_to 6896
  152.4151  134.6053  160.0021 H   0  0  0  0  0  0  0  0  0  0  0  0  # atno 6908 bound_to 6896
  151.6285  133.3296  159.3139 H   0  0  0  0  0  0  0  0  0  0  0  0  # atno 6909 bound_to 6896
  146.2381  139.9573  142.8463 H   0  0  0  0  0  0  0  0  0  0  0  0  # atno 7974 bound_to 7965
  155.2585  140.3357  155.4275 H   0  0  0  0  0  0  0  0  0  0  0  0  # atno 8008 bound_to 7997
  156.2185  140.1799  156.7576 H   0  0  0  0  0  0  0  0  0  0  0  0  # atno 8009 bound_to 7997
  154.5789  140.0657  156.9060 H   0  0  0  0  0  0  0  0  0  0  0  0  # atno 8010 bound_to 7997
  140.2507  144.3482  150.6349 H   0  0  0  0  0  0  0  0  0  0  0  0  # atno 10167 bound_to 10162
  156.8902  130.9845  151.3050 H   0  0  0  0  0  0  0  0  0  0  0  0  # atno 10718 bound_to 10713
  153.4019  135.7005  153.6420 H   0  0  0  0  0  0  0  0  0  0  0  0  # atno 10763 bound_to 10752
  153.4950  135.3664  155.2511 H   0  0  0  0  0  0  0  0  0  0  0  0  # atno 10764 bound_to 10752
  154.8711  135.4098  154.3355 H   0  0  0  0  0  0  0  0  0  0  0  0  # atno 10765 bound_to 10752
  140.7348  133.8719  155.8921 H   0  0  0  0  0  0  0  0  0  0  0  0  # atno 11005 bound_to 11000
  145.1805  140.9764  143.4269 LP  0  0  0  0  0  0  0  0  0  0  0  0  # atno 17320 bound_to 7965
  144.9947  139.3656  143.6197 LP  0  0  0  0  0  0  0  0  0  0  0  0  # atno 17321 bound_to 7965
  140.6043  143.2167  151.7012 LP  0  0  0  0  0  0  0  0  0  0  0  0  # atno 17342 bound_to 10162
  139.5047  144.3744  152.0438 LP  0  0  0  0  0  0  0  0  0  0  0  0  # atno 17343 bound_to 10162
  157.6088  130.8567  149.8918 LP  0  0  0  0  0  0  0  0  0  0  0  0  # atno 17370 bound_to 10713
  156.0633  130.3696  150.0934 LP  0  0  0  0  0  0  0  0  0  0  0  0  # atno 17371 bound_to 10713
  140.9889  134.1305  157.4426 LP  0  0  0  0  0  0  0  0  0  0  0  0  # atno 17394 bound_to 11000
  139.8818  135.0034  156.6186 LP  0  0  0  0  0  0  0  0  0  0  0  0  # atno 17395 bound_to 11000

$$$$
