AV-unprocessed.smi:1046|AV-procd|sdf|4552|dock1
  -GOLD-   22720 2583D 1   1.00000     0.00000
 Structure written by MMmdl.
 54 56  0  0  0  0  0  0  0  0  3 V2000
  152.4891  143.1023  160.7282 C   0  0  0  0  0  0  0  0  0  0  0  0
  152.0960  142.3576  159.4636 C   0  0  0  0  0  0  0  0  0  0  0  0
  151.1911  142.9750  158.5711 C   0  0  0  0  0  0  0  0  0  0  0  0
  150.8531  142.2701  157.4221 C   0  0  0  0  0  0  0  0  0  0  0  0
  150.0017  142.6004  156.3659 N   0  3  0  0  0  0  0  0  0  0  0  0
  149.9905  141.5867  155.4571 C   0  0  0  0  0  0  0  0  0  0  0  0
  150.8209  140.6116  155.9176 N   0  0  0  0  0  0  0  0  0  0  0  0
  151.1666  139.3154  155.3154 C   0  0  0  0  0  0  0  0  0  0  0  0
  149.9427  138.3986  155.1210 C   0  0  2  0  0  0  0  0  0  0  0  0
  150.3434  137.1970  154.4906 O   0  0  0  0  0  0  0  0  0  0  0  0
  148.8562  139.0740  154.2598 C   0  0  0  0  0  0  0  0  0  0  0  0
  147.8224  138.1198  153.7828 N   0  3  0  0  0  0  0  0  0  0  0  0
  146.7038  138.8026  153.0820 C   0  0  0  0  0  0  0  0  0  0  0  0
  145.6906  137.7697  152.5469 C   0  0  0  0  0  0  0  0  0  0  0  0
  145.1527  136.8948  153.5883 N   0  0  0  0  0  0  0  0  0  0  0  0
  144.2234  137.5876  154.4869 C   0  0  0  0  0  0  0  0  0  0  0  0
  142.8196  137.8268  153.9081 C   0  0  0  0  0  0  0  0  0  0  0  0
  142.4520  139.1728  154.1164 O   0  0  0  0  0  0  0  0  0  0  0  0
  146.2726  136.2339  154.2626 C   0  0  0  0  0  0  0  0  0  0  0  0
  147.3026  137.2209  154.8485 C   0  0  0  0  0  0  0  0  0  0  0  0
  151.3816  140.9944  157.1430 C   0  0  0  0  0  0  0  0  0  0  0  0
  152.2723  140.3710  158.0145 C   0  0  0  0  0  0  0  0  0  0  0  0
  152.6275  141.0709  159.1898 C   0  0  0  0  0  0  0  0  0  0  0  0
  153.5969  140.4141  160.1582 C   0  0  0  0  0  0  0  0  0  0  0  0
  152.0461  144.0982  160.7586 H   0  0  0  0  0  0  0  0  0  0  0  0
  153.5717  143.2187  160.7853 H   0  0  0  0  0  0  0  0  0  0  0  0
  152.1512  142.5593  161.6114 H   0  0  0  0  0  0  0  0  0  0  0  0
  150.7802  143.9534  158.7742 H   0  0  0  0  0  0  0  0  0  0  0  0
  149.4251  141.5626  154.5367 H   0  0  0  0  0  0  0  0  0  0  0  0
  151.6242  139.5282  154.3484 H   0  0  0  0  0  0  0  0  0  0  0  0
  151.9376  138.8303  155.9145 H   0  0  0  0  0  0  0  0  0  0  0  0
  149.5465  138.1470  156.1043 H   0  0  0  0  0  0  0  0  0  0  0  0
  150.9023  137.4088  153.7581 H   0  0  0  0  0  0  0  0  0  0  0  0
  148.3696  139.8764  154.8169 H   0  0  0  0  0  0  0  0  0  0  0  0
  149.3391  139.5502  153.4048 H   0  0  0  0  0  0  0  0  0  0  0  0
  146.2199  139.5116  153.7554 H   0  0  0  0  0  0  0  0  0  0  0  0
  147.0971  139.3824  152.2461 H   0  0  0  0  0  0  0  0  0  0  0  0
  144.8748  138.2815  152.0347 H   0  0  0  0  0  0  0  0  0  0  0  0
  146.1786  137.1577  151.7870 H   0  0  0  0  0  0  0  0  0  0  0  0
  144.1358  137.0555  155.4338 H   0  0  0  0  0  0  0  0  0  0  0  0
  144.6456  138.5626  154.7350 H   0  0  0  0  0  0  0  0  0  0  0  0
  142.8023  137.6148  152.8386 H   0  0  0  0  0  0  0  0  0  0  0  0
  142.0736  137.1909  154.3840 H   0  0  0  0  0  0  0  0  0  0  0  0
  142.5805  139.6487  153.3097 H   0  0  0  0  0  0  0  0  0  0  0  0
  145.9094  135.5671  155.0436 H   0  0  0  0  0  0  0  0  0  0  0  0
  146.7805  135.5866  153.5462 H   0  0  0  0  0  0  0  0  0  0  0  0
  148.1185  136.6515  155.2917 H   0  0  0  0  0  0  0  0  0  0  0  0
  146.8616  137.8095  155.6537 H   0  0  0  0  0  0  0  0  0  0  0  0
  152.6792  139.3923  157.8109 H   0  0  0  0  0  0  0  0  0  0  0  0
  153.8545  139.4030  159.8411 H   0  0  0  0  0  0  0  0  0  0  0  0
  153.1604  140.3470  161.1550 H   0  0  0  0  0  0  0  0  0  0  0  0
  154.5207  140.9898  160.2219 H   0  0  0  0  0  0  0  0  0  0  0  0
  148.2687  137.5323  153.0925 H   0  0  0  0  0  0  0  0  0  0  0  0
  149.4680  143.4549  156.2694 H   0  0  0  0  0  0  0  0  0  0  0  0
  1  2  1  0  0  0  0
  1 25  1  0  0  0  0
  1 26  1  0  0  0  0
  1 27  1  0  0  0  0
  2 23  1  0  0  0  0
  2  3  2  0  0  0  0
  3  4  1  0  0  0  0
  3 28  1  0  0  0  0
  4 21  2  0  0  0  0
  4  5  1  0  0  0  0
  5  6  2  0  0  0  0
  5 54  1  0  0  0  0
  6  7  1  0  0  0  0
  6 29  1  0  0  0  0
  7  8  1  0  0  0  0
  7 21  1  0  0  0  0
  8  9  1  0  0  0  0
  8 30  1  0  0  0  0
  8 31  1  0  0  0  0
  9 10  1  0  0  0  0
  9 11  1  0  0  0  0
  9 32  1  0  0  0  0
 10 33  1  0  0  0  0
 11 12  1  0  0  0  0
 11 34  1  0  0  0  0
 11 35  1  0  0  0  0
 12 20  1  0  0  0  0
 12 13  1  0  0  0  0
 12 53  1  0  0  0  0
 13 14  1  0  0  0  0
 13 36  1  0  0  0  0
 13 37  1  0  0  0  0
 14 15  1  0  0  0  0
 14 38  1  0  0  0  0
 14 39  1  0  0  0  0
 15 16  1  0  0  0  0
 15 19  1  0  0  0  0
 16 17  1  0  0  0  0
 16 40  1  0  0  0  0
 16 41  1  0  0  0  0
 17 18  1  0  0  0  0
 17 42  1  0  0  0  0
 17 43  1  0  0  0  0
 18 44  1  0  0  0  0
 19 20  1  0  0  0  0
 19 45  1  0  0  0  0
 19 46  1  0  0  0  0
 20 47  1  0  0  0  0
 20 48  1  0  0  0  0
 21 22  1  0  0  0  0
 22 23  2  0  0  0  0
 22 49  1  0  0  0  0
 23 24  1  0  0  0  0
 24 50  1  0  0  0  0
 24 51  1  0  0  0  0
 24 52  1  0  0  0  0
M  CHG  1   5   1
M  CHG  1  12   1
M  END
> <s_m_source_file>
AV-unprocessed.smi

> <i_m_source_file_index>
1046

> <i_lp_mmshare_version>
43012

> <i_f3d_flags>
0

> <s_epik_input>
W0NIM11jKFtjSF0xKWMoW0NIM10pW2NIXWMoYzEyKW4oW2NIXW4yKVtDSDJdW0NASF0oW09IXSlbQ0gyXU4zW0NIMl1bQ0gyXU4oW0NIMl1bQ0gyXTMpW0NIMl1bQ0gyXVtPSF0=

> <s_epik_cmdline>
J2VwaWtfcHl0aG9uJywgJy1waCcsICc3LjAnLCAnLXRuJywgJzgnLCAnLW1hJywgJzIwMCcsICctbWV0YWxfYmluZGluZycsICctaW1hZScsICc8aW5maWxlLm1hZT4nLCAnLW9tYWUnLCAnPG91dGZpbGUubWFlPic=

> <r_epik_Ionization_Penalty>
1.22056

> <r_epik_Ionization_Penalty_Charging>
1.17959

> <r_epik_Ionization_Penalty_Neutral>
0.0409743

> <r_epik_State_Penalty>
1.27074

> <r_epik_Charging_Adjusted_Penalty>
2.45032

> <i_epik_Tot_Q>
2

> <i_epik_Tot_abs_Q>
2

> <r_epik_Metal_State_Penalty>
5.26922

> <b_epik_Metal_Only>
0

> <s_lp_Force_Field>
OPLS_2005

> <r_lp_Energy>
41.2385

> <b_lp_Chiralities_Consistent>
1

> <s_lp_Variant>
AV-unprocessed.smi:1046-5

> <Gold.Version>
5.8.1

> <Gold.Id.Protein>
6NUR|6NUR_protein|mol2

> <Gold.PLP.Fitness>
56.3975

> <Gold.PLP.PLP>
-42.6535

> <Gold.PLP.part.hbond>
-3.9064

> <Gold.PLP.part.metal>
0.0000

> <Gold.PLP.part.buried>
-3.6790

> <Gold.PLP.part.nonpolar>
-35.2110

> <Gold.PLP.part.repulsive>
0.2224

> <Gold.PLP.ligand.clash>
0.0000

> <Gold.PLP.ligand.torsion>
0.6761

> <Gold.PLP.Chemscore.Hbond>
4.9920

> <Gold.PLP.Chemscore.CHOScore>
0.0000

> <Gold.PLP.Chemscore.Metal>
0.0000

> <Gold.Chemscore.Hbonds>
donor molecule, donor type, donor heavy atom, donor atom, acceptor molecule, acceptor atom, score
      L1  H     5    54       P1  8028  1.95
      L1  H    12    53       P1  7948  2.00
      L1  H    18    44       P1 10175  0.90

> <Gold.PLP.Chemscore.Internal.Correction>
0.1203

> <Gold.Rescore>
     Score         DG    S(hbond)    S(metal)    S(lipo)     H(rot)  DE(clash)    DE(int)     intcor
     17.98     -19.37       2.97        0.00     105.88       3.29       0.02       1.36       ----

> <Gold.Chemscore.Fitness>
17.9827

> <Gold.Chemscore.DG>
-19.3704

> <Gold.Chemscore.ZeroCoef>
-5.4800

> <Gold.Chemscore.Hbond>
2.9714

> <Gold.Chemscore.Metal>
0.0000

> <Gold.Chemscore.Lipo>
105.8753

> <Gold.Chemscore.Internal_Hbond>
0.0000

> <Gold.Chemscore.DEClash>
0.0247

> <Gold.Chemscore.DEInternal>
1.3630

> <Gold.Chemscore.Rot>
3.2896

> <Gold.Chemscore.Internal.Correction>
   9.000000E+99

> <Gold.Chemscore.Hbonds>
donor molecule, donor type, donor heavy atom, donor atom, acceptor molecule, acceptor atom, score
      L1  H     5    54       P1  8028  0.91
      L1  H    12    53       P1  7948  1.00
      L1  H    18    44       P1 10175  0.82

> <Gold.Chemscore.Hbond.Weighted>
-9.9245

> <Gold.Chemscore.Metal.Weighted>
-0.0000

> <Gold.Chemscore.Lipo.Weighted>
-12.3874

> <Gold.Chemscore.Internal_Hbond.Weighted>
0.0000

> <Gold.Chemscore.DEClash.Weighted>
0.0247

> <Gold.Chemscore.DEInternal.Weighted>
1.3630

> <Gold.Chemscore.Rot.Weighted>
8.4215

> <Gold.Chemscore.Internal.Correction.Weighted>
   9.000000E+99

> <Gold.Protein.RotatedTorsions>
[ 6907 6896 6895 6894 ] final   37.14 input  -60.11 | X-H torsion
[ 7974 7965 7964 7962 ] final  142.56 input  175.53 | X-H torsion
[ 8008 7997 7996 7995 ] final  -99.84 input   59.86 | X-H torsion
[ 10167 10162 10161 10158 ] final   35.53 input  -65.29 | X-H torsion
[ 10718 10713 10712 10709 ] final  -99.63 input   66.30 | X-H torsion
[ 10763 10752 10751 10750 ] final  -31.40 input  -60.55 | X-H torsion
[ 11005 11000 10999 10996 ] final  -53.46 input  -57.11 | X-H torsion

> <Gold.Protein.ActiveResidues>
 VAL166  LYS551  ARG553  GLY616  TRP617  ASP618  TYR619  PRO620  LYS621  CYS622 
 ASP623  PHE694  ASN695  SER759  ASP760  ASP761  ALA762  ILE779  LEU786  VAL792 
 PHE793  MET794  SER795  GLU796  ALA797  LYS798  CYS799  TRP800  GLU811  SER814 

> <Gold.Protein.RotatedAtoms>
  152.1391  134.9076  160.0554 H   0  0  0  0  0  0  0  0  0  0  0  0  # atno 6907 bound_to 6896
  152.0151  133.3871  159.4243 H   0  0  0  0  0  0  0  0  0  0  0  0  # atno 6908 bound_to 6896
  150.6863  134.3609  159.4994 H   0  0  0  0  0  0  0  0  0  0  0  0  # atno 6909 bound_to 6896
  144.8997  139.5440  143.5759 H   0  0  0  0  0  0  0  0  0  0  0  0  # atno 7974 bound_to 7965
  154.8203  140.0445  157.1406 H   0  0  0  0  0  0  0  0  0  0  0  0  # atno 8008 bound_to 7997
  154.9267  140.3034  155.5168 H   0  0  0  0  0  0  0  0  0  0  0  0  # atno 8009 bound_to 7997
  156.2979  140.2330  156.4323 H   0  0  0  0  0  0  0  0  0  0  0  0  # atno 8010 bound_to 7997
  140.4213  144.1455  150.6148 H   0  0  0  0  0  0  0  0  0  0  0  0  # atno 10167 bound_to 10162
  156.0139  130.5291  150.6698 H   0  0  0  0  0  0  0  0  0  0  0  0  # atno 10718 bound_to 10713
  153.7967  135.6893  153.4862 H   0  0  0  0  0  0  0  0  0  0  0  0  # atno 10763 bound_to 10752
  153.1714  135.4541  154.9906 H   0  0  0  0  0  0  0  0  0  0  0  0  # atno 10764 bound_to 10752
  154.8023  135.3342  154.7459 H   0  0  0  0  0  0  0  0  0  0  0  0  # atno 10765 bound_to 10752
  141.0977  133.6622  156.4176 H   0  0  0  0  0  0  0  0  0  0  0  0  # atno 11005 bound_to 11000
  146.3101  139.7717  142.9026 LP  0  0  0  0  0  0  0  0  0  0  0  0  # atno 17320 bound_to 7965
  145.3638  141.0330  143.3270 LP  0  0  0  0  0  0  0  0  0  0  0  0  # atno 17321 bound_to 7965
  140.4530  143.2479  151.9322 LP  0  0  0  0  0  0  0  0  0  0  0  0  # atno 17342 bound_to 10162
  139.4782  144.5543  151.8337 LP  0  0  0  0  0  0  0  0  0  0  0  0  # atno 17343 bound_to 10162
  157.4423  131.0862  151.0931 LP  0  0  0  0  0  0  0  0  0  0  0  0  # atno 17370 bound_to 10713
  157.1471  130.6168  149.5572 LP  0  0  0  0  0  0  0  0  0  0  0  0  # atno 17371 bound_to 10713
  140.5099  134.6405  157.5280 LP  0  0  0  0  0  0  0  0  0  0  0  0  # atno 17394 bound_to 11000
  139.9819  134.7124  155.9845 LP  0  0  0  0  0  0  0  0  0  0  0  0  # atno 17395 bound_to 11000

$$$$
