AV-unprocessed.smi:923|AV-procd|sdf|4178|dock2
  -GOLD-   22720 2 83D 1   1.00000     0.00000
 Structure written by MMmdl.
 34 35  0  0  0  0  0  0  0  0  2 V2000
  154.9645  133.8175  158.0576 C   0  0  0  0  0  0  0  0  0  0  0  0
  154.9614  135.3070  158.0047 C   0  0  0  0  0  0  0  0  0  0  0  0
  154.8557  135.9886  156.8616 N   0  0  0  0  0  0  0  0  0  0  0  0
  154.8725  137.3606  157.0677 N   0  0  0  0  0  0  0  0  0  0  0  0
  154.9789  137.6968  158.3613 C   0  0  0  0  0  0  0  0  0  0  0  0
  155.0113  138.9746  158.7745 N   0  5  0  0  0  0  0  0  0  0  0  0
  153.8824  139.5660  159.2284 C   0  0  0  0  0  0  0  0  0  0  0  0
  152.8320  138.9957  159.5318 O   0  0  0  0  0  0  0  0  0  0  0  0
  153.9785  140.8996  159.3381 N   0  0  0  0  0  0  0  0  0  0  0  0
  152.9345  141.8099  159.8069 C   0  0  0  0  0  0  0  0  0  0  0  0
  152.5674  142.7865  158.6707 C   0  0  0  0  0  0  0  0  0  0  0  0
  151.5062  143.8419  159.0276 C   0  0  0  0  0  0  0  0  0  0  0  0
  152.0542  144.9537  159.9366 C   0  0  0  0  0  0  0  0  0  0  0  0
  152.0047  144.6561  161.4453 C   0  0  0  0  0  0  0  0  0  0  0  0
  152.2954  143.2060  161.8707 C   0  0  0  0  0  0  0  0  0  0  0  0
  153.4220  142.4982  161.0987 C   0  0  0  0  0  0  0  0  0  0  0  0
  155.0923  136.3075  159.4412 S   0  0  0  0  0  0  0  0  0  0  0  0
  153.9532  133.4382  157.9107 H   0  0  0  0  0  0  0  0  0  0  0  0
  155.3309  133.4737  159.0251 H   0  0  0  0  0  0  0  0  0  0  0  0
  155.6092  133.4131  157.2770 H   0  0  0  0  0  0  0  0  0  0  0  0
  154.8578  141.3188  159.0736 H   0  0  0  0  0  0  0  0  0  0  0  0
  152.0505  141.2212  160.0586 H   0  0  0  0  0  0  0  0  0  0  0  0
  153.4666  143.2847  158.3053 H   0  0  0  0  0  0  0  0  0  0  0  0
  152.1933  142.2057  157.8265 H   0  0  0  0  0  0  0  0  0  0  0  0
  151.1774  144.3035  158.0959 H   0  0  0  0  0  0  0  0  0  0  0  0
  150.6181  143.3796  159.4597 H   0  0  0  0  0  0  0  0  0  0  0  0
  153.0787  145.1875  159.6444 H   0  0  0  0  0  0  0  0  0  0  0  0
  151.4906  145.8699  159.7571 H   0  0  0  0  0  0  0  0  0  0  0  0
  152.7072  145.3234  161.9456 H   0  0  0  0  0  0  0  0  0  0  0  0
  151.0209  144.9282  161.8294 H   0  0  0  0  0  0  0  0  0  0  0  0
  152.5481  143.2155  162.9314 H   0  0  0  0  0  0  0  0  0  0  0  0
  151.3819  142.6141  161.8025 H   0  0  0  0  0  0  0  0  0  0  0  0
  153.8326  141.7301  161.7558 H   0  0  0  0  0  0  0  0  0  0  0  0
  154.2451  143.1845  160.8943 H   0  0  0  0  0  0  0  0  0  0  0  0
  1  2  1  0  0  0  0
  1 18  1  0  0  0  0
  1 19  1  0  0  0  0
  1 20  1  0  0  0  0
  2 17  1  0  0  0  0
  2  3  2  0  0  0  0
  3  4  1  0  0  0  0
  4  5  2  0  0  0  0
  5  6  1  0  0  0  0
  5 17  1  0  0  0  0
  6  7  1  0  0  0  0
  7  8  2  0  0  0  0
  7  9  1  0  0  0  0
  9 10  1  0  0  0  0
  9 21  1  0  0  0  0
 10 16  1  0  0  0  0
 10 11  1  0  0  0  0
 10 22  1  0  0  0  0
 11 12  1  0  0  0  0
 11 23  1  0  0  0  0
 11 24  1  0  0  0  0
 12 13  1  0  0  0  0
 12 25  1  0  0  0  0
 12 26  1  0  0  0  0
 13 14  1  0  0  0  0
 13 27  1  0  0  0  0
 13 28  1  0  0  0  0
 14 15  1  0  0  0  0
 14 29  1  0  0  0  0
 14 30  1  0  0  0  0
 15 16  1  0  0  0  0
 15 31  1  0  0  0  0
 15 32  1  0  0  0  0
 16 33  1  0  0  0  0
 16 34  1  0  0  0  0
M  CHG  1   6  -1
M  END
> <s_m_source_file>
AV-unprocessed.smi

> <i_m_source_file_index>
923

> <i_lp_mmshare_version>
43012

> <i_f3d_flags>
0

> <s_epik_input>
W0NIM11jMW5uYyhzMSlbTkhdQyg9TylbTkhdW0NIXTJbQ0gyXVtDSDJdW0NIMl1bQ0gyXVtDSDJdW0NIMl0y

> <s_epik_cmdline>
J2VwaWtfcHl0aG9uJywgJy1waCcsICc3LjAnLCAnLXRuJywgJzgnLCAnLW1hJywgJzIwMCcsICctbWV0YWxfYmluZGluZycsICctaW1hZScsICc8aW5maWxlLm1hZT4nLCAnLW9tYWUnLCAnPG91dGZpbGUubWFlPic=

> <r_lp_tautomer_probability>
1

> <r_epik_Ionization_Penalty>
4.57867

> <r_epik_Ionization_Penalty_Charging>
4.42407

> <r_epik_Ionization_Penalty_Neutral>
0.154599

> <r_epik_State_Penalty>
4.42373

> <r_epik_Charging_Adjusted_Penalty>
8.84779

> <i_epik_Tot_Q>
-1

> <i_epik_Tot_abs_Q>
1

> <r_epik_Metal_State_Penalty>
0.782603

> <b_epik_Metal_Only>
1

> <s_lp_Force_Field>
OPLS_2005

> <r_lp_Energy>
12.5708

> <b_lp_Chiralities_Consistent>
1

> <s_lp_Variant>
AV-unprocessed.smi:923-2

> <Gold.Version>
5.8.1

> <Gold.Id.Protein>
6NUR|6NUR_protein|mol2

> <Gold.PLP.Fitness>
37.4847

> <Gold.PLP.PLP>
-30.0387

> <Gold.PLP.part.hbond>
-2.1096

> <Gold.PLP.part.metal>
0.0000

> <Gold.PLP.part.buried>
-1.4948

> <Gold.PLP.part.nonpolar>
-26.0924

> <Gold.PLP.part.repulsive>
0.0968

> <Gold.PLP.ligand.clash>
0.0000

> <Gold.PLP.ligand.torsion>
0.7850

> <Gold.PLP.Chemscore.Hbond>
3.0000

> <Gold.PLP.Chemscore.CHOScore>
0.0000

> <Gold.PLP.Chemscore.Metal>
0.0000

> <Gold.Chemscore.Hbonds>
donor molecule, donor type, donor heavy atom, donor atom, acceptor molecule, acceptor atom, score
      P1  H  7997  8010       L1     6  1.70
      P1  H 10752 10765       L1     3  1.00

> <Gold.PLP.Chemscore.Internal.Correction>
0.0159

> <Gold.Rescore>
     Score         DG    S(hbond)    S(metal)    S(lipo)     H(rot)  DE(clash)    DE(int)     intcor
     17.21     -18.12       1.42        0.00      89.31       1.00       0.12       0.79       ----

> <Gold.Chemscore.Fitness>
17.2071

> <Gold.Chemscore.DG>
-18.1225

> <Gold.Chemscore.ZeroCoef>
-5.4800

> <Gold.Chemscore.Hbond>
1.4233

> <Gold.Chemscore.Metal>
0.0000

> <Gold.Chemscore.Lipo>
89.3051

> <Gold.Chemscore.Internal_Hbond>
0.0000

> <Gold.Chemscore.DEClash>
0.1213

> <Gold.Chemscore.DEInternal>
0.7941

> <Gold.Chemscore.Rot>
1.0000

> <Gold.Chemscore.Internal.Correction>
   9.000000E+99

> <Gold.Chemscore.Hbonds>
donor molecule, donor type, donor heavy atom, donor atom, acceptor molecule, acceptor atom, score
      P1  H  7997  8010       L1     6  0.10
      P1  H 10752 10765       L1     3  0.97

> <Gold.Chemscore.Hbond.Weighted>
-4.7538

> <Gold.Chemscore.Metal.Weighted>
-0.0000

> <Gold.Chemscore.Lipo.Weighted>
-10.4487

> <Gold.Chemscore.Internal_Hbond.Weighted>
0.0000

> <Gold.Chemscore.DEClash.Weighted>
0.1213

> <Gold.Chemscore.DEInternal.Weighted>
0.7941

> <Gold.Chemscore.Rot.Weighted>
2.5600

> <Gold.Chemscore.Internal.Correction.Weighted>
   9.000000E+99

> <Gold.Protein.RotatedTorsions>
[ 6907 6896 6895 6894 ] final    8.16 input  -60.11 | X-H torsion
[ 7974 7965 7964 7962 ] final  -87.36 input  175.53 | X-H torsion
[ 8008 7997 7996 7995 ] final   -7.62 input   59.86 | X-H torsion
[ 10167 10162 10161 10158 ] final -152.51 input  -65.29 | X-H torsion
[ 10718 10713 10712 10709 ] final  -53.93 input   66.30 | X-H torsion
[ 10763 10752 10751 10750 ] final  -88.29 input  -60.55 | X-H torsion
[ 11005 11000 10999 10996 ] final  121.50 input  -57.11 | X-H torsion

> <Gold.Protein.ActiveResidues>
 VAL166  LYS551  ARG553  GLY616  TRP617  ASP618  TYR619  PRO620  LYS621  CYS622 
 ASP623  PHE694  ASN695  SER759  ASP760  ASP761  ALA762  ILE779  LEU786  VAL792 
 PHE793  MET794  SER795  GLU796  ALA797  LYS798  CYS799  TRP800  GLU811  SER814 

> <Gold.Protein.RotatedAtoms>
  151.7016  135.0929  160.0251 H   0  0  0  0  0  0  0  0  0  0  0  0  # atno 6907 bound_to 6896
  152.3717  133.6423  159.6101 H   0  0  0  0  0  0  0  0  0  0  0  0  # atno 6908 bound_to 6896
  150.7678  133.9175  159.3429 H   0  0  0  0  0  0  0  0  0  0  0  0  # atno 6909 bound_to 6896
  145.4675  140.9560  143.1935 H   0  0  0  0  0  0  0  0  0  0  0  0  # atno 7974 bound_to 7965
  154.5820  140.2402  155.8040 H   0  0  0  0  0  0  0  0  0  0  0  0  # atno 8008 bound_to 7997
  156.2186  140.3004  155.9854 H   0  0  0  0  0  0  0  0  0  0  0  0  # atno 8009 bound_to 7997
  155.2524  140.0411  157.2978 H   0  0  0  0  0  0  0  0  0  0  0  0  # atno 8010 bound_to 7997
  139.7175  143.9010  152.2491 H   0  0  0  0  0  0  0  0  0  0  0  0  # atno 10167 bound_to 10162
  156.1493  130.4152  149.9971 H   0  0  0  0  0  0  0  0  0  0  0  0  # atno 10718 bound_to 10713
  154.6429  135.5382  153.7811 H   0  0  0  0  0  0  0  0  0  0  0  0  # atno 10763 bound_to 10752
  153.0343  135.6463  154.1132 H   0  0  0  0  0  0  0  0  0  0  0  0  # atno 10764 bound_to 10752
  154.1055  135.2930  155.3222 H   0  0  0  0  0  0  0  0  0  0  0  0  # atno 10765 bound_to 10752
  139.9229  134.9639  156.7968 H   0  0  0  0  0  0  0  0  0  0  0  0  # atno 11005 bound_to 11000
  144.7965  139.6224  143.7090 LP  0  0  0  0  0  0  0  0  0  0  0  0  # atno 17320 bound_to 7965
  146.2416  139.6012  142.9488 LP  0  0  0  0  0  0  0  0  0  0  0  0  # atno 17321 bound_to 7965
  139.8896  144.6973  150.8785 LP  0  0  0  0  0  0  0  0  0  0  0  0  # atno 17342 bound_to 10162
  140.7747  143.3597  151.1853 LP  0  0  0  0  0  0  0  0  0  0  0  0  # atno 17343 bound_to 10162
  156.7833  130.9229  151.3646 LP  0  0  0  0  0  0  0  0  0  0  0  0  # atno 17370 bound_to 10713
  157.6644  130.8994  149.9899 LP  0  0  0  0  0  0  0  0  0  0  0  0  # atno 17371 bound_to 10713
  140.6422  133.9808  155.7713 LP  0  0  0  0  0  0  0  0  0  0  0  0  # atno 17394 bound_to 11000
  141.0764  134.0129  157.3452 LP  0  0  0  0  0  0  0  0  0  0  0  0  # atno 17395 bound_to 11000

$$$$
