#       Name:                AV-unprocessed.smi:3026
#       Creating user name   scv26
#       Creation time:       Fri Mar 27 16:45:08 2020


#       File generated by GOLD software.
#

@<TRIPOS>MOLECULE
AV-unprocessed.smi:3026
    40    41     1
SMALL
NO_CHARGES


@<TRIPOS>ATOM
      1 ****         0.1405  -3.6642  -1.4812 C.3            1 S1                 0.0000
      2 ****         0.1414  -2.8958  -0.1772 C.ar           1 S1                 0.0000
      3 ****         0.4735  -3.5159   1.0448 C.ar           1 S1                 0.0000
      4 ****         0.4341  -2.6941   2.1889 C.ar           1 S1                 0.0000
      5 ****         0.0987  -1.3877   2.1160 N.ar           1 S1                 0.0000
      6 ****        -0.1889  -0.8985   0.9049 C.ar           1 S1                 0.0000
      7 ****        -0.5557   0.4410   0.8592 N.3            1 S1                 0.0000
      8 ****        -1.9577   0.6478   1.2113 C.3            1 S1                 0.0000
      9 ****        -2.2504   2.1310   1.4642 C.3            1 S1                 0.0000
     10 ****        -1.8982   2.8667   0.3033 O.3            1 S1                 0.0000
     11 ****        -0.5076   2.7668   0.0267 C.3            1 S1                 0.0000
     12 ****        -0.0937   1.2987  -0.2448 C.3            1 S1                 0.0000
     13 ****         1.4421   1.2003  -0.4631 C.3            1 S1                 0.0000
     14 ****         1.9766   1.9530  -1.6944 C.3            1 S1                 0.0000
     15 ****         1.4404   1.4080  -2.8814 O.3            1 S1                 0.0000
     16 ****        -0.1956  -1.5896  -0.2427 N.ar           1 S1                 0.0000
     17 ****         0.6766  -4.6082  -1.3799 H              1 S1                 0.0000
     18 ****         0.6215  -3.0839  -2.2692 H              1 S1                 0.0000
     19 ****        -0.8826  -3.8816  -1.7885 H              1 S1                 0.0000
     20 ****         0.7417  -4.5604   1.1051 H              1 S1                 0.0000
     21 ****         0.6709  -3.0871   3.1666 H              1 S1                 0.0000
     22 ****        -2.5870   0.2764   0.4014 H              1 S1                 0.0000
     23 ****        -2.2126   0.0710   2.1014 H              1 S1                 0.0000
     24 ****        -3.3111   2.2757   1.6688 H              1 S1                 0.0000
     25 ****        -1.7025   2.4989   2.3333 H              1 S1                 0.0000
     26 ****        -0.3059   3.3917  -0.8422 H              1 S1                 0.0000
     27 ****         0.0632   3.1864   0.8570 H              1 S1                 0.0000
     28 ****        -0.6021   0.9611  -1.1490 H              1 S1                 0.0000
     29 ****         1.9513   1.5730   0.4266 H              1 S1                 0.0000
     30 ****         1.7567   0.1621  -0.5633 H              1 S1                 0.0000
     31 ****         1.7577   3.0189  -1.6473 H              1 S1                 0.0000
     32 ****         3.0620   1.8610  -1.7376 H              1 S1                 0.0000
     33 ****         1.8027   1.8763  -3.6182 H              1 S1                 0.0000
     34 ****         0.0668  -0.8111   2.9324 LP             1 S1                 0.0000
     35 ****         0.0273   0.8067   1.5847 LP             1 S1                 0.0000
     36 ****        -2.1335   3.8284   0.4440 LP             1 S1                 0.0000
     37 ****        -2.4114   2.5087  -0.4767 LP             1 S1                 0.0000
     38 ****         0.4451   1.5047  -2.8770 LP             1 S1                 0.0000
     39 ****         1.6810   0.4396  -2.9463 LP             1 S1                 0.0000
     40 ****        -0.4396  -1.1569  -1.1106 LP             1 S1                 0.0000
@<TRIPOS>BOND
    1    1    2 1     
    2    1   17 1     
    3    1   18 1     
    4    1   19 1     
    5    2   16 ar    
    6    2    3 ar    
    7    3    4 ar    
    8    3   20 1     
    9    4    5 ar    
   10    4   21 1     
   11    5    6 ar    
   12    6    7 1     
   13    6   16 ar    
   14    7   12 1     
   15    7    8 1     
   16    8    9 1     
   17    8   22 1     
   18    8   23 1     
   19    9   10 1     
   20    9   24 1     
   21    9   25 1     
   22   10   11 1     
   23   11   12 1     
   24   11   26 1     
   25   11   27 1     
   26   12   13 1     
   27   12   28 1     
   28   13   14 1     
   29   13   29 1     
   30   13   30 1     
   31   14   15 1     
   32   14   31 1     
   33   14   32 1     
   34   15   33 1     
   35    5   34 1     
   36    7   35 1     
   37   10   36 1     
   38   10   37 1     
   39   15   38 1     
   40   15   39 1     
   41   16   40 1     
@<TRIPOS>SUBSTRUCTURE
      1 S1             1
@<TRIPOS>SET
LONE_PAIRS      STATIC     ATOMS    <user>   **** ""
7 34 35 36 37 38 39 40
DONOR_HYDROGENS      STATIC     ATOMS    <user>   **** ""
1 33
ATOM$BLUE        STATIC     ATOMS    COLORGROUP SYSTEM
7 34 35 36 37 38 39 40
ATOM$RED        STATIC     ATOMS    COLORGROUP SYSTEM
1 33
