AV-unprocessed.smi:830|AV-procd|sdf|3871|dock7
  -GOLD-   22720 1323D 1   1.00000     0.00000
 Structure written by MMmdl.
 52 54  0  0  0  0  0  0  0  0  1 V2000
  150.4519  143.0717  158.0252 C   0  0  0  0  0  0  0  0  0  0  0  0
  149.1065  142.3646  158.2606 C   0  0  1  0  0  0  0  0  0  0  0  0
  148.0780  143.3888  158.4330 N   0  0  0  0  0  0  0  0  0  0  0  0
  146.9423  143.2301  159.1288 C   0  0  0  0  0  0  0  0  0  0  0  0
  146.6658  142.2024  159.7473 O   0  0  0  0  0  0  0  0  0  0  0  0
  146.1765  144.3324  159.0623 N   0  0  0  0  0  0  0  0  0  0  0  0
  144.9122  144.5867  159.6697 C   0  0  0  0  0  0  0  0  0  0  0  0
  144.4160  143.8057  160.7434 C   0  0  0  0  0  0  0  0  0  0  0  0
  143.1720  144.1258  161.3135 C   0  0  0  0  0  0  0  0  0  0  0  0
  142.4611  145.2171  160.7884 C   0  0  0  0  0  0  0  0  0  0  0  0
  142.9073  145.9572  159.7545 N   0  0  0  0  0  0  0  0  0  0  0  0
  144.0985  145.6506  159.1840 C   0  0  0  0  0  0  0  0  0  0  0  0
  144.5013  146.4374  158.0810 N   0  0  0  0  0  0  0  0  0  0  0  0
  143.7530  146.2823  156.8369 C   0  0  0  0  0  0  0  0  0  0  0  0
  143.6517  147.6788  156.2141 C   0  0  0  0  0  0  0  0  0  0  0  0
  144.8025  148.4443  156.8592 C   0  0  0  0  0  0  0  0  0  0  0  0
  144.8444  147.8442  158.2617 C   0  0  0  0  0  0  0  0  0  0  0  0
  148.7918  141.5062  157.0257 C   0  0  0  0  0  0  0  0  0  0  0  0
  148.6158  140.2916  157.1359 O   0  0  0  0  0  0  0  0  0  0  0  0
  148.7119  142.1579  155.8559 N   0  0  0  0  0  0  0  0  0  0  0  0
  148.4308  141.5359  154.5651 C   0  0  0  0  0  0  0  0  0  0  0  0
  146.9308  141.2110  154.4284 C   0  0  0  0  0  0  0  0  0  0  0  0
  146.8542  139.7658  153.9333 C   0  0  0  0  0  0  0  0  0  0  0  0
  148.1067  139.1062  154.5021 C   0  0  0  0  0  0  0  0  0  0  0  0
  149.1761  140.1950  154.4100 C   0  0  0  0  0  0  0  0  0  0  0  0
  151.2569  142.3508  157.8768 H   0  0  0  0  0  0  0  0  0  0  0  0
  150.7228  143.6864  158.8842 H   0  0  0  0  0  0  0  0  0  0  0  0
  150.4236  143.7237  157.1506 H   0  0  0  0  0  0  0  0  0  0  0  0
  149.1727  141.7410  159.1546 H   0  0  0  0  0  0  0  0  0  0  0  0
  148.2269  144.2661  157.9564 H   0  0  0  0  0  0  0  0  0  0  0  0
  146.5824  145.1201  158.5787 H   0  0  0  0  0  0  0  0  0  0  0  0
  144.9590  142.9613  161.1377 H   0  0  0  0  0  0  0  0  0  0  0  0
  142.7745  143.5492  162.1353 H   0  0  0  0  0  0  0  0  0  0  0  0
  141.5043  145.4985  161.2028 H   0  0  0  0  0  0  0  0  0  0  0  0
  144.3093  145.6195  156.1736 H   0  0  0  0  0  0  0  0  0  0  0  0
  142.7659  145.8469  157.0005 H   0  0  0  0  0  0  0  0  0  0  0  0
  143.7060  147.6627  155.1254 H   0  0  0  0  0  0  0  0  0  0  0  0
  142.7035  148.1384  156.4966 H   0  0  0  0  0  0  0  0  0  0  0  0
  145.7339  148.2317  156.3325 H   0  0  0  0  0  0  0  0  0  0  0  0
  144.6509  149.5241  156.8618 H   0  0  0  0  0  0  0  0  0  0  0  0
  144.1105  148.3488  158.8912 H   0  0  0  0  0  0  0  0  0  0  0  0
  145.8263  147.9568  158.7222 H   0  0  0  0  0  0  0  0  0  0  0  0
  148.8699  143.1552  155.8576 H   0  0  0  0  0  0  0  0  0  0  0  0
  148.7273  142.2115  153.7603 H   0  0  0  0  0  0  0  0  0  0  0  0
  146.4310  141.2809  155.3962 H   0  0  0  0  0  0  0  0  0  0  0  0
  146.4207  141.8999  153.7539 H   0  0  0  0  0  0  0  0  0  0  0  0
  145.9363  139.2640  154.2414 H   0  0  0  0  0  0  0  0  0  0  0  0
  146.8942  139.7483  152.8433 H   0  0  0  0  0  0  0  0  0  0  0  0
  147.9403  138.8412  155.5471 H   0  0  0  0  0  0  0  0  0  0  0  0
  148.3846  138.1977  153.9668 H   0  0  0  0  0  0  0  0  0  0  0  0
  149.6427  140.1576  153.4248 H   0  0  0  0  0  0  0  0  0  0  0  0
  149.9707  140.0500  155.1436 H   0  0  0  0  0  0  0  0  0  0  0  0
  1  2  1  0  0  0  0
  1 26  1  0  0  0  0
  1 27  1  0  0  0  0
  1 28  1  0  0  0  0
  2  3  1  0  0  0  0
  2 18  1  0  0  0  0
  2 29  1  0  0  0  0
  3  4  1  0  0  0  0
  3 30  1  0  0  0  0
  4  5  2  0  0  0  0
  4  6  1  0  0  0  0
  6  7  1  0  0  0  0
  6 31  1  0  0  0  0
  7 12  1  0  0  0  0
  7  8  2  0  0  0  0
  8  9  1  0  0  0  0
  8 32  1  0  0  0  0
  9 10  2  0  0  0  0
  9 33  1  0  0  0  0
 10 11  1  0  0  0  0
 10 34  1  0  0  0  0
 11 12  2  0  0  0  0
 12 13  1  0  0  0  0
 13 17  1  0  0  0  0
 13 14  1  0  0  0  0
 14 15  1  0  0  0  0
 14 35  1  0  0  0  0
 14 36  1  0  0  0  0
 15 16  1  0  0  0  0
 15 37  1  0  0  0  0
 15 38  1  0  0  0  0
 16 17  1  0  0  0  0
 16 39  1  0  0  0  0
 16 40  1  0  0  0  0
 17 41  1  0  0  0  0
 17 42  1  0  0  0  0
 18 19  2  0  0  0  0
 18 20  1  0  0  0  0
 20 21  1  0  0  0  0
 20 43  1  0  0  0  0
 21 25  1  0  0  0  0
 21 22  1  0  0  0  0
 21 44  1  0  0  0  0
 22 23  1  0  0  0  0
 22 45  1  0  0  0  0
 22 46  1  0  0  0  0
 23 24  1  0  0  0  0
 23 47  1  0  0  0  0
 23 48  1  0  0  0  0
 24 25  1  0  0  0  0
 24 49  1  0  0  0  0
 24 50  1  0  0  0  0
 25 51  1  0  0  0  0
 25 52  1  0  0  0  0
M  END
> <s_m_source_file>
AV-unprocessed.smi

> <i_m_source_file_index>
830

> <i_lp_mmshare_version>
43012

> <i_f3d_flags>
0

> <s_epik_input>
W0NIMl0xW0NIMl1bQ0gyXVtDSDJdW0NIXTFbTkhdQyg9TylbQ0BIXShbQ0gzXSlbTkhdQyg9TylbTkhdYzJbY0hdW2NIXVtjSF1uYzJOM1tDSDJdW0NIMl1bQ0gyXVtDSDJdMw==

> <s_epik_cmdline>
J2VwaWtfcHl0aG9uJywgJy1waCcsICc3LjAnLCAnLXRuJywgJzgnLCAnLW1hJywgJzIwMCcsICctbWV0YWxfYmluZGluZycsICctaW1hZScsICc8aW5maWxlLm1hZT4nLCAnLW9tYWUnLCAnPG91dGZpbGUubWFlPic=

> <r_lp_tautomer_probability>
1

> <r_epik_Ionization_Penalty>
0.0827694

> <r_epik_Ionization_Penalty_Charging>
0

> <r_epik_Ionization_Penalty_Neutral>
0.0827694

> <r_epik_State_Penalty>
0.0729202

> <r_epik_Charging_Adjusted_Penalty>
0.0729202

> <i_epik_Tot_Q>
0

> <i_epik_Tot_abs_Q>
0

> <r_epik_Metal_State_Penalty>
0.0639723

> <b_epik_Metal_Only>
0

> <s_lp_Force_Field>
OPLS_2005

> <r_lp_Energy>
46.8553

> <b_lp_Chiralities_Consistent>
1

> <s_lp_Variant>
AV-unprocessed.smi:830-2

> <Gold.Version>
5.8.1

> <Gold.Id.Protein>
6NUR|6NUR_protein|mol2

> <Gold.PLP.Fitness>
47.8509

> <Gold.PLP.PLP>
-37.4268

> <Gold.PLP.part.hbond>
-5.0848

> <Gold.PLP.part.metal>
0.0000

> <Gold.PLP.part.buried>
-2.6712

> <Gold.PLP.part.nonpolar>
-31.1740

> <Gold.PLP.part.repulsive>
0.5072

> <Gold.PLP.ligand.clash>
0.0000

> <Gold.PLP.ligand.torsion>
0.8249

> <Gold.PLP.Chemscore.Hbond>
3.9120

> <Gold.PLP.Chemscore.CHOScore>
0.0000

> <Gold.PLP.Chemscore.Metal>
0.0000

> <Gold.Chemscore.Hbonds>
donor molecule, donor type, donor heavy atom, donor atom, acceptor molecule, acceptor atom, score
      L1  H     3    30       P1  8029  0.80
      L1  H     6    31       P1  8029  1.00
      L1  H    20    43       P1  8028  1.00
      P1  H  6934  6946       L1     5  1.00

> <Gold.PLP.Chemscore.Internal.Correction>
0.3379

> <Gold.Rescore>
     Score         DG    S(hbond)    S(metal)    S(lipo)     H(rot)  DE(clash)    DE(int)     intcor
     20.18     -23.39       3.55        0.00      87.68       1.64       0.13       3.08       ----

> <Gold.Chemscore.Fitness>
20.1784

> <Gold.Chemscore.DG>
-23.3866

> <Gold.Chemscore.ZeroCoef>
-5.4800

> <Gold.Chemscore.Hbond>
3.5453

> <Gold.Chemscore.Metal>
0.0000

> <Gold.Chemscore.Lipo>
87.6822

> <Gold.Chemscore.Internal_Hbond>
0.0000

> <Gold.Chemscore.DEClash>
0.1276

> <Gold.Chemscore.DEInternal>
3.0806

> <Gold.Chemscore.Rot>
1.6382

> <Gold.Chemscore.Internal.Correction>
   9.000000E+99

> <Gold.Chemscore.Hbonds>
donor molecule, donor type, donor heavy atom, donor atom, acceptor molecule, acceptor atom, score
      L1  H     3    30       P1  8029  0.12
      L1  H     6    31       P1  8029  0.94
      L1  H    20    43       P1  8028  0.97
      P1  H  6934  6946       L1     5  0.96

> <Gold.Chemscore.Hbond.Weighted>
-11.8414

> <Gold.Chemscore.Metal.Weighted>
-0.0000

> <Gold.Chemscore.Lipo.Weighted>
-10.2588

> <Gold.Chemscore.Internal_Hbond.Weighted>
0.0000

> <Gold.Chemscore.DEClash.Weighted>
0.1276

> <Gold.Chemscore.DEInternal.Weighted>
3.0806

> <Gold.Chemscore.Rot.Weighted>
4.1937

> <Gold.Chemscore.Internal.Correction.Weighted>
   9.000000E+99

> <Gold.Protein.RotatedTorsions>
[ 6907 6896 6895 6894 ] final -168.87 input  -60.11 | X-H torsion
[ 7974 7965 7964 7962 ] final -104.48 input  175.53 | X-H torsion
[ 8008 7997 7996 7995 ] final  179.76 input   59.86 | X-H torsion
[ 10167 10162 10161 10158 ] final -134.58 input  -65.29 | X-H torsion
[ 10718 10713 10712 10709 ] final  161.99 input   66.30 | X-H torsion
[ 10763 10752 10751 10750 ] final -146.42 input  -60.55 | X-H torsion
[ 11005 11000 10999 10996 ] final   -0.85 input  -57.11 | X-H torsion

> <Gold.Protein.ActiveResidues>
 VAL166  LYS551  ARG553  GLY616  TRP617  ASP618  TYR619  PRO620  LYS621  CYS622 
 ASP623  PHE694  ASN695  SER759  ASP760  ASP761  ALA762  ILE779  LEU786  VAL792 
 PHE793  MET794  SER795  GLU796  ALA797  LYS798  CYS799  TRP800  GLU811  SER814 

> <Gold.Protein.RotatedAtoms>
  151.4826  133.3543  159.2840 H   0  0  0  0  0  0  0  0  0  0  0  0  # atno 6907 bound_to 6896
  150.8887  134.8290  159.7289 H   0  0  0  0  0  0  0  0  0  0  0  0  # atno 6908 bound_to 6896
  152.4809  134.4733  159.9694 H   0  0  0  0  0  0  0  0  0  0  0  0  # atno 6909 bound_to 6896
  145.2427  140.9210  143.3141 H   0  0  0  0  0  0  0  0  0  0  0  0  # atno 7974 bound_to 7965
  156.0398  140.1301  157.0168 H   0  0  0  0  0  0  0  0  0  0  0  0  # atno 8008 bound_to 7997
  154.4386  140.1032  156.6290 H   0  0  0  0  0  0  0  0  0  0  0  0  # atno 8009 bound_to 7997
  155.5684  140.3466  155.4511 H   0  0  0  0  0  0  0  0  0  0  0  0  # atno 8010 bound_to 7997
  139.8866  143.6773  152.2619 H   0  0  0  0  0  0  0  0  0  0  0  0  # atno 10167 bound_to 10162
  157.1287  131.0511  151.2381 H   0  0  0  0  0  0  0  0  0  0  0  0  # atno 10718 bound_to 10713
  154.8336  135.3387  154.6659 H   0  0  0  0  0  0  0  0  0  0  0  0  # atno 10763 bound_to 10752
  153.7276  135.6954  153.5002 H   0  0  0  0  0  0  0  0  0  0  0  0  # atno 10764 bound_to 10752
  153.2335  135.4408  155.0574 H   0  0  0  0  0  0  0  0  0  0  0  0  # atno 10765 bound_to 10752
  140.6408  133.9491  155.8325 H   0  0  0  0  0  0  0  0  0  0  0  0  # atno 11005 bound_to 11000
  144.9575  139.4016  143.6372 LP  0  0  0  0  0  0  0  0  0  0  0  0  # atno 17320 bound_to 7965
  146.3324  139.8612  142.8856 LP  0  0  0  0  0  0  0  0  0  0  0  0  # atno 17321 bound_to 7965
  139.7147  144.7614  151.1053 LP  0  0  0  0  0  0  0  0  0  0  0  0  # atno 17342 bound_to 10162
  140.7734  143.5284  150.9452 LP  0  0  0  0  0  0  0  0  0  0  0  0  # atno 17343 bound_to 10162
  157.4411  130.7545  149.7070 LP  0  0  0  0  0  0  0  0  0  0  0  0  # atno 17370 bound_to 10713
  155.9812  130.4021  150.3482 LP  0  0  0  0  0  0  0  0  0  0  0  0  # atno 17371 bound_to 10713
  141.0608  134.0349  157.3661 LP  0  0  0  0  0  0  0  0  0  0  0  0  # atno 17394 bound_to 11000
  139.9081  135.0184  156.7573 LP  0  0  0  0  0  0  0  0  0  0  0  0  # atno 17395 bound_to 11000

$$$$
