AV-unprocessed.smi:2104|AV-procd|sdf|8589|dock2
  -GOLD-   2272011323D 1   1.00000     0.00000
 Structure written by MMmdl.
 42 43  0  0  0  0  0  0  0  0  2 V2000
  146.7725  134.2364  162.4590 C   0  0  0  0  0  0  0  0  0  0  0  0
  147.5239  135.1836  161.5883 C   0  0  0  0  0  0  0  0  0  0  0  0
  148.0369  135.0790  160.3265 C   0  0  0  0  0  0  0  0  0  0  0  0
  148.6351  136.3506  160.1133 C   0  0  0  0  0  0  0  0  0  0  0  0
  149.2751  136.7478  159.0031 N   0  5  0  0  0  0  0  0  0  0  0  0
  150.3816  137.5201  159.1004 C   0  0  0  0  0  0  0  0  0  0  0  0
  151.4102  137.2454  159.7229 O   0  0  0  0  0  0  0  0  0  0  0  0
  150.2811  138.6909  158.4544 N   0  0  0  0  0  0  0  0  0  0  0  0
  151.2582  139.7749  158.4905 C   0  0  0  0  0  0  0  0  0  0  0  0
  150.5636  141.1445  158.4500 C   0  0  0  0  0  0  0  0  0  0  0  0
  151.0077  141.9228  159.5506 O   0  0  0  0  0  0  0  0  0  0  0  0
  152.3139  142.4682  159.4176 C   0  0  2  0  0  0  0  0  0  0  0  0
  153.1309  142.0019  160.6368 C   0  0  0  0  0  0  0  0  0  0  0  0
  152.5914  142.5961  161.9495 C   0  0  0  0  0  0  0  0  0  0  0  0
  152.5270  144.1291  161.8839 C   0  0  0  0  0  0  0  0  0  0  0  0
  151.7053  144.6019  160.6745 C   0  0  0  0  0  0  0  0  0  0  0  0
  152.2482  144.0147  159.3564 C   0  0  2  0  0  0  0  0  0  0  0  0
  151.4656  144.5368  158.1420 C   0  0  0  0  0  0  0  0  0  0  0  0
  148.4833  137.1612  161.1477 N   0  0  0  0  0  0  0  0  0  0  0  0
  147.7765  136.4181  162.1005 O   0  0  0  0  0  0  0  0  0  0  0  0
  145.6991  134.4075  162.3773 H   0  0  0  0  0  0  0  0  0  0  0  0
  147.0572  134.3589  163.5043 H   0  0  0  0  0  0  0  0  0  0  0  0
  146.9741  133.2039  162.1729 H   0  0  0  0  0  0  0  0  0  0  0  0
  147.9976  134.2280  159.6632 H   0  0  0  0  0  0  0  0  0  0  0  0
  149.4236  138.8676  157.9521 H   0  0  0  0  0  0  0  0  0  0  0  0
  151.9077  139.6931  159.3633 H   0  0  0  0  0  0  0  0  0  0  0  0
  151.9000  139.6679  157.6161 H   0  0  0  0  0  0  0  0  0  0  0  0
  150.8104  141.6659  157.5245 H   0  0  0  0  0  0  0  0  0  0  0  0
  149.4812  141.0121  158.4689 H   0  0  0  0  0  0  0  0  0  0  0  0
  152.8018  142.0865  158.5184 H   0  0  0  0  0  0  0  0  0  0  0  0
  153.1272  140.9129  160.6928 H   0  0  0  0  0  0  0  0  0  0  0  0
  154.1724  142.2986  160.5084 H   0  0  0  0  0  0  0  0  0  0  0  0
  151.5957  142.1983  162.1506 H   0  0  0  0  0  0  0  0  0  0  0  0
  153.2209  142.2861  162.7838 H   0  0  0  0  0  0  0  0  0  0  0  0
  152.0927  144.5224  162.8036 H   0  0  0  0  0  0  0  0  0  0  0  0
  153.5373  144.5350  161.8204 H   0  0  0  0  0  0  0  0  0  0  0  0
  150.6615  144.3148  160.8074 H   0  0  0  0  0  0  0  0  0  0  0  0
  151.7168  145.6915  160.6309 H   0  0  0  0  0  0  0  0  0  0  0  0
  153.2724  144.3726  159.2411 H   0  0  0  0  0  0  0  0  0  0  0  0
  150.4098  144.2740  158.2038 H   0  0  0  0  0  0  0  0  0  0  0  0
  151.8607  144.1271  157.2123 H   0  0  0  0  0  0  0  0  0  0  0  0
  151.5272  145.6232  158.0757 H   0  0  0  0  0  0  0  0  0  0  0  0
  1  2  1  0  0  0  0
  1 21  1  0  0  0  0
  1 22  1  0  0  0  0
  1 23  1  0  0  0  0
  2 20  1  0  0  0  0
  2  3  2  0  0  0  0
  3  4  1  0  0  0  0
  3 24  1  0  0  0  0
  4  5  1  0  0  0  0
  4 19  2  0  0  0  0
  5  6  1  0  0  0  0
  6  7  2  0  0  0  0
  6  8  1  0  0  0  0
  8  9  1  0  0  0  0
  8 25  1  0  0  0  0
  9 10  1  0  0  0  0
  9 26  1  0  0  0  0
  9 27  1  0  0  0  0
 10 11  1  0  0  0  0
 10 28  1  0  0  0  0
 10 29  1  0  0  0  0
 11 12  1  0  0  0  0
 12 17  1  0  0  0  0
 12 13  1  0  0  0  0
 12 30  1  0  0  0  0
 13 14  1  0  0  0  0
 13 31  1  0  0  0  0
 13 32  1  0  0  0  0
 14 15  1  0  0  0  0
 14 33  1  0  0  0  0
 14 34  1  0  0  0  0
 15 16  1  0  0  0  0
 15 35  1  0  0  0  0
 15 36  1  0  0  0  0
 16 17  1  0  0  0  0
 16 37  1  0  0  0  0
 16 38  1  0  0  0  0
 17 18  1  0  0  0  0
 17 39  1  0  0  0  0
 18 40  1  0  0  0  0
 18 41  1  0  0  0  0
 18 42  1  0  0  0  0
 19 20  1  0  0  0  0
M  CHG  1   5  -1
M  END
> <s_m_source_file>
AV-unprocessed.smi

> <i_m_source_file_index>
2104

> <i_lp_mmshare_version>
43012

> <i_f3d_flags>
0

> <s_epik_input>
W0NIM11jMVtjSF1jKG5vMSlbTkhdQyg9TylbTkhdW0NIMl1bQ0gyXU9bQ0BASF0yW0NIMl1bQ0gyXVtDSDJdW0NIMl1bQ0BIXTJbQ0gzXQ==

> <s_epik_cmdline>
J2VwaWtfcHl0aG9uJywgJy1waCcsICc3LjAnLCAnLXRuJywgJzgnLCAnLW1hJywgJzIwMCcsICctbWV0YWxfYmluZGluZycsICctaW1hZScsICc8aW5maWxlLm1hZT4nLCAnLW9tYWUnLCAnPG91dGZpbGUubWFlPic=

> <r_lp_tautomer_probability>
1

> <r_epik_Ionization_Penalty>
6.47137

> <r_epik_Ionization_Penalty_Charging>
6.47125

> <r_epik_Ionization_Penalty_Neutral>
0.000118933

> <r_epik_State_Penalty>
6.47124

> <r_epik_Charging_Adjusted_Penalty>
12.9425

> <i_epik_Tot_Q>
-1

> <i_epik_Tot_abs_Q>
1

> <r_epik_Metal_State_Penalty>
2.3995

> <b_epik_Metal_Only>
1

> <s_lp_Force_Field>
OPLS_2005

> <r_lp_Energy>
3.94735

> <b_lp_Chiralities_Consistent>
1

> <s_lp_Variant>
AV-unprocessed.smi:2104-7

> <Gold.Version>
5.8.1

> <Gold.Id.Protein>
6NUR|6NUR_protein|mol2

> <Gold.PLP.Fitness>
50.7111

> <Gold.PLP.PLP>
-48.3174

> <Gold.PLP.part.hbond>
-3.8635

> <Gold.PLP.part.metal>
0.0000

> <Gold.PLP.part.buried>
-6.3537

> <Gold.PLP.part.nonpolar>
-38.5239

> <Gold.PLP.part.repulsive>
0.1243

> <Gold.PLP.ligand.clash>
0.0000

> <Gold.PLP.ligand.torsion>
2.1634

> <Gold.PLP.Chemscore.Hbond>
2.1000

> <Gold.PLP.Chemscore.CHOScore>
0.0000

> <Gold.PLP.Chemscore.Metal>
0.0000

> <Gold.Chemscore.Hbonds>
donor molecule, donor type, donor heavy atom, donor atom, acceptor molecule, acceptor atom, score
      P1  H  6896  6909       L1     7  0.86
      P1  H  6931  6943       L1    19  0.75
      P1  H  6934  6947       L1    19  0.21

> <Gold.PLP.Chemscore.Internal.Correction>
0.4205

> <Gold.Rescore>
     Score         DG    S(hbond)    S(metal)    S(lipo)     H(rot)  DE(clash)    DE(int)     intcor
     18.38     -20.46       1.94        0.00     110.01       1.71       0.01       2.07       ----

> <Gold.Chemscore.Fitness>
18.3834

> <Gold.Chemscore.DG>
-20.4637

> <Gold.Chemscore.ZeroCoef>
-5.4800

> <Gold.Chemscore.Hbond>
1.9433

> <Gold.Chemscore.Metal>
0.0000

> <Gold.Chemscore.Lipo>
110.0115

> <Gold.Chemscore.Internal_Hbond>
0.0000

> <Gold.Chemscore.DEClash>
0.0078

> <Gold.Chemscore.DEInternal>
2.0725

> <Gold.Chemscore.Rot>
1.7103

> <Gold.Chemscore.Internal.Correction>
   9.000000E+99

> <Gold.Chemscore.Hbonds>
donor molecule, donor type, donor heavy atom, donor atom, acceptor molecule, acceptor atom, score
      P1  H  6896  6909       L1     7  0.59
      P1  H  6931  6943       L1    19  0.33
      P1  H  6934  6947       L1    19  0.08

> <Gold.Chemscore.Hbond.Weighted>
-6.4907

> <Gold.Chemscore.Metal.Weighted>
-0.0000

> <Gold.Chemscore.Lipo.Weighted>
-12.8713

> <Gold.Chemscore.Internal_Hbond.Weighted>
0.0000

> <Gold.Chemscore.DEClash.Weighted>
0.0078

> <Gold.Chemscore.DEInternal.Weighted>
2.0725

> <Gold.Chemscore.Rot.Weighted>
4.3784

> <Gold.Chemscore.Internal.Correction.Weighted>
   9.000000E+99

> <Gold.Protein.RotatedTorsions>
[ 6907 6896 6895 6894 ] final  116.60 input  -60.11 | X-H torsion
[ 7974 7965 7964 7962 ] final   -7.69 input  175.53 | X-H torsion
[ 8008 7997 7996 7995 ] final   33.56 input   59.86 | X-H torsion
[ 10167 10162 10161 10158 ] final    2.45 input  -65.29 | X-H torsion
[ 10718 10713 10712 10709 ] final   -0.91 input   66.30 | X-H torsion
[ 10763 10752 10751 10750 ] final  108.57 input  -60.55 | X-H torsion
[ 11005 11000 10999 10996 ] final -173.40 input  -57.11 | X-H torsion

> <Gold.Protein.ActiveResidues>
 VAL166  LYS551  ARG553  GLY616  TRP617  ASP618  TYR619  PRO620  LYS621  CYS622 
 ASP623  PHE694  ASN695  SER759  ASP760  ASP761  ALA762  ILE779  LEU786  VAL792 
 PHE793  MET794  SER795  GLU796  ALA797  LYS798  CYS799  TRP800  GLU811  SER814 

> <Gold.Protein.RotatedAtoms>
  152.4667  133.7939  159.6916 H   0  0  0  0  0  0  0  0  0  0  0  0  # atno 6907 bound_to 6896
  150.8636  133.7598  159.2990 H   0  0  0  0  0  0  0  0  0  0  0  0  # atno 6908 bound_to 6896
  151.5156  135.1069  159.9917 H   0  0  0  0  0  0  0  0  0  0  0  0  # atno 6909 bound_to 6896
  146.2300  140.2357  142.8341 H   0  0  0  0  0  0  0  0  0  0  0  0  # atno 7974 bound_to 7965
  155.1406  140.3266  155.4453 H   0  0  0  0  0  0  0  0  0  0  0  0  # atno 8008 bound_to 7997
  156.2606  140.1994  156.6471 H   0  0  0  0  0  0  0  0  0  0  0  0  # atno 8009 bound_to 7997
  154.6545  140.0554  156.9980 H   0  0  0  0  0  0  0  0  0  0  0  0  # atno 8010 bound_to 7997
  140.6634  143.7243  150.7781 H   0  0  0  0  0  0  0  0  0  0  0  0  # atno 10167 bound_to 10162
  156.8134  130.5432  149.5706 H   0  0  0  0  0  0  0  0  0  0  0  0  # atno 10718 bound_to 10713
  153.4225  135.3808  155.2120 H   0  0  0  0  0  0  0  0  0  0  0  0  # atno 10763 bound_to 10752
  154.8745  135.3820  154.4367 H   0  0  0  0  0  0  0  0  0  0  0  0  # atno 10764 bound_to 10752
  153.4889  135.7088  153.5958 H   0  0  0  0  0  0  0  0  0  0  0  0  # atno 10765 bound_to 10752
  140.4861  134.6029  157.4937 H   0  0  0  0  0  0  0  0  0  0  0  0  # atno 11005 bound_to 11000
  144.9523  140.8191  143.5564 LP  0  0  0  0  0  0  0  0  0  0  0  0  # atno 17320 bound_to 7965
  145.2319  139.2111  143.5038 LP  0  0  0  0  0  0  0  0  0  0  0  0  # atno 17321 bound_to 7965
  140.0916  143.4872  152.2475 LP  0  0  0  0  0  0  0  0  0  0  0  0  # atno 17342 bound_to 10162
  139.5875  144.7537  151.3484 LP  0  0  0  0  0  0  0  0  0  0  0  0  # atno 17343 bound_to 10162
  156.1031  130.5984  150.9927 LP  0  0  0  0  0  0  0  0  0  0  0  0  # atno 17370 bound_to 10713
  157.6494  131.0899  150.8083 LP  0  0  0  0  0  0  0  0  0  0  0  0  # atno 17371 bound_to 10713
  139.9797  134.7157  155.9883 LP  0  0  0  0  0  0  0  0  0  0  0  0  # atno 17394 bound_to 11000
  141.1507  133.6549  156.4005 LP  0  0  0  0  0  0  0  0  0  0  0  0  # atno 17395 bound_to 11000

$$$$
