AV-unprocessed.smi:667|AV-procd|sdf|3258|dock1
  -GOLD-   22720 0213D 1   1.00000     0.00000
 Structure written by MMmdl.
 48 49  0  0  0  0  0  0  0  0  1 V2000
  151.5978  132.8393  156.0008 C   0  0  0  0  0  0  0  0  0  0  0  0
  150.6488  131.9064  155.3036 C   0  0  0  0  0  0  0  0  0  0  0  0
  150.7130  130.6084  155.5497 N   0  0  0  0  0  0  0  0  0  0  0  0
  149.7441  130.0648  154.7857 N   0  0  0  0  0  0  0  0  0  0  0  0
  149.5349  128.6304  154.8161 C   0  0  0  0  0  0  0  0  0  0  0  0
  149.0647  131.0217  154.0572 C   0  0  0  0  0  0  0  0  0  0  0  0
  147.9392  130.6743  153.1371 C   0  0  0  0  0  0  0  0  0  0  0  0
  149.6249  132.2323  154.3661 C   0  0  0  0  0  0  0  0  0  0  0  0
  149.2573  133.6032  153.8504 C   0  0  0  0  0  0  0  0  0  0  0  0
  148.9786  134.5796  154.9985 C   0  0  0  0  0  0  0  0  0  0  0  0
  148.8684  134.1533  156.1475 O   0  0  0  0  0  0  0  0  0  0  0  0
  148.8300  135.8756  154.6796 N   0  0  0  0  0  0  0  0  0  0  0  0
  148.4668  136.9377  155.6096 C   0  0  0  0  0  0  0  0  0  0  0  0
  149.5148  138.0699  155.6240 C   0  0  1  0  0  0  0  0  0  0  0  0
  150.9317  137.5647  155.3605 C   0  0  0  0  0  0  0  0  0  0  0  0
  151.3055  138.1763  154.0150 C   0  0  0  0  0  0  0  0  0  0  0  0
  150.5947  139.4006  154.0091 O   0  0  0  0  0  0  0  0  0  0  0  0
  149.2968  139.1310  154.5213 C   0  0  2  0  0  0  0  0  0  0  0  0
  148.5961  140.4383  154.9600 C   0  0  0  0  0  0  0  0  0  0  0  0
  148.0713  141.2139  153.7419 C   0  0  0  0  0  0  0  0  0  0  0  0
  149.4827  141.3427  155.8359 C   0  0  0  0  0  0  0  0  0  0  0  0
  151.0603  133.6668  156.4637 H   0  0  0  0  0  0  0  0  0  0  0  0
  152.3144  133.2624  155.2970 H   0  0  0  0  0  0  0  0  0  0  0  0
  152.1612  132.3336  156.7856 H   0  0  0  0  0  0  0  0  0  0  0  0
  149.5562  128.2336  153.8011 H   0  0  0  0  0  0  0  0  0  0  0  0
  148.5654  128.4118  155.2643 H   0  0  0  0  0  0  0  0  0  0  0  0
  150.3142  128.1399  155.4011 H   0  0  0  0  0  0  0  0  0  0  0  0
  147.4782  131.5703  152.7215 H   0  0  0  0  0  0  0  0  0  0  0  0
  147.1649  130.1161  153.6638 H   0  0  0  0  0  0  0  0  0  0  0  0
  148.2932  130.0635  152.3064 H   0  0  0  0  0  0  0  0  0  0  0  0
  150.0557  134.0225  153.2375 H   0  0  0  0  0  0  0  0  0  0  0  0
  148.3797  133.5552  153.2048 H   0  0  0  0  0  0  0  0  0  0  0  0
  148.9460  136.1382  153.7114 H   0  0  0  0  0  0  0  0  0  0  0  0
  147.4820  137.3338  155.3561 H   0  0  0  0  0  0  0  0  0  0  0  0
  148.3737  136.4995  156.6038 H   0  0  0  0  0  0  0  0  0  0  0  0
  149.5073  138.5309  156.6111 H   0  0  0  0  0  0  0  0  0  0  0  0
  151.6028  137.9430  156.1328 H   0  0  0  0  0  0  0  0  0  0  0  0
  151.0160  136.4773  155.3558 H   0  0  0  0  0  0  0  0  0  0  0  0
  152.3790  138.3313  153.9052 H   0  0  0  0  0  0  0  0  0  0  0  0
  150.9608  137.5487  153.1915 H   0  0  0  0  0  0  0  0  0  0  0  0
  148.7252  138.6762  153.7097 H   0  0  0  0  0  0  0  0  0  0  0  0
  147.7243  140.1653  155.5544 H   0  0  0  0  0  0  0  0  0  0  0  0
  148.8880  141.5332  153.0938 H   0  0  0  0  0  0  0  0  0  0  0  0
  147.5221  142.1043  154.0489 H   0  0  0  0  0  0  0  0  0  0  0  0
  147.3937  140.6021  153.1456 H   0  0  0  0  0  0  0  0  0  0  0  0
  150.3822  141.6548  155.3044 H   0  0  0  0  0  0  0  0  0  0  0  0
  149.7947  140.8468  156.7540 H   0  0  0  0  0  0  0  0  0  0  0  0
  148.9458  142.2454  156.1285 H   0  0  0  0  0  0  0  0  0  0  0  0
  1  2  1  0  0  0  0
  1 22  1  0  0  0  0
  1 23  1  0  0  0  0
  1 24  1  0  0  0  0
  2  8  1  0  0  0  0
  2  3  2  0  0  0  0
  3  4  1  0  0  0  0
  4  5  1  0  0  0  0
  4  6  1  0  0  0  0
  5 25  1  0  0  0  0
  5 26  1  0  0  0  0
  5 27  1  0  0  0  0
  6  7  1  0  0  0  0
  6  8  2  0  0  0  0
  7 28  1  0  0  0  0
  7 29  1  0  0  0  0
  7 30  1  0  0  0  0
  8  9  1  0  0  0  0
  9 10  1  0  0  0  0
  9 31  1  0  0  0  0
  9 32  1  0  0  0  0
 10 11  2  0  0  0  0
 10 12  1  0  0  0  0
 12 13  1  0  0  0  0
 12 33  1  0  0  0  0
 13 14  1  0  0  0  0
 13 34  1  0  0  0  0
 13 35  1  0  0  0  0
 14 18  1  0  0  0  0
 14 15  1  0  0  0  0
 14 36  1  0  0  0  0
 15 16  1  0  0  0  0
 15 37  1  0  0  0  0
 15 38  1  0  0  0  0
 16 17  1  0  0  0  0
 16 39  1  0  0  0  0
 16 40  1  0  0  0  0
 17 18  1  0  0  0  0
 18 19  1  0  0  0  0
 18 41  1  0  0  0  0
 19 20  1  0  0  0  0
 19 21  1  0  0  0  0
 19 42  1  0  0  0  0
 20 43  1  0  0  0  0
 20 44  1  0  0  0  0
 20 45  1  0  0  0  0
 21 46  1  0  0  0  0
 21 47  1  0  0  0  0
 21 48  1  0  0  0  0
M  END
> <s_m_source_file>
AV-unprocessed.smi

> <i_m_source_file_index>
667

> <i_lp_mmshare_version>
43012

> <i_f3d_flags>
0

> <s_epik_input>
W0NIM11jMW5uKFtDSDNdKWMoW0NIM10pYzFbQ0gyXUMoPU8pW05IXVtDSDJdW0NAQEhdMltDSDJdW0NIMl1PW0NASF0yW0NIXShbQ0gzXSlbQ0gzXQ==

> <s_epik_cmdline>
J2VwaWtfcHl0aG9uJywgJy1waCcsICc3LjAnLCAnLXRuJywgJzgnLCAnLW1hJywgJzIwMCcsICctbWV0YWxfYmluZGluZycsICctaW1hZScsICc8aW5maWxlLm1hZT4nLCAnLW9tYWUnLCAnPG91dGZpbGUubWFlPic=

> <r_lp_tautomer_probability>
1

> <r_epik_Ionization_Penalty>
0.00315488

> <r_epik_Ionization_Penalty_Charging>
0

> <r_epik_Ionization_Penalty_Neutral>
0.00315488

> <r_epik_State_Penalty>
0.00222269

> <r_epik_Charging_Adjusted_Penalty>
0.00222269

> <i_epik_Tot_Q>
0

> <i_epik_Tot_abs_Q>
0

> <r_epik_Metal_State_Penalty>
-0

> <b_epik_Metal_Only>
0

> <s_lp_Force_Field>
OPLS_2005

> <r_lp_Energy>
15.0171

> <b_lp_Chiralities_Consistent>
1

> <s_lp_Variant>
AV-unprocessed.smi:667-4

> <Gold.Version>
5.8.1

> <Gold.Id.Protein>
6NUR|6NUR_protein|mol2

> <Gold.PLP.Fitness>
35.8217

> <Gold.PLP.PLP>
-31.0839

> <Gold.PLP.part.hbond>
-2.0000

> <Gold.PLP.part.metal>
0.0000

> <Gold.PLP.part.buried>
-1.1959

> <Gold.PLP.part.nonpolar>
-26.1241

> <Gold.PLP.part.repulsive>
0.1998

> <Gold.PLP.ligand.clash>
0.0000

> <Gold.PLP.ligand.torsion>
0.6548

> <Gold.PLP.Chemscore.Hbond>
2.0000

> <Gold.PLP.Chemscore.CHOScore>
0.0000

> <Gold.PLP.Chemscore.Metal>
0.0000

> <Gold.Chemscore.Hbonds>
donor molecule, donor type, donor heavy atom, donor atom, acceptor molecule, acceptor atom, score
      L1  H    12    33       P1  7948  1.00
      P1  H  7989  7998       L1    17  1.00

> <Gold.PLP.Chemscore.Internal.Correction>
0.0473

> <Gold.Rescore>
     Score         DG    S(hbond)    S(metal)    S(lipo)     H(rot)  DE(clash)    DE(int)     intcor
     16.57     -17.21       1.97        0.00      77.31       1.52       0.02       0.63       ----

> <Gold.Chemscore.Fitness>
16.5675

> <Gold.Chemscore.DG>
-17.2120

> <Gold.Chemscore.ZeroCoef>
-5.4800

> <Gold.Chemscore.Hbond>
1.9704

> <Gold.Chemscore.Metal>
0.0000

> <Gold.Chemscore.Lipo>
77.3116

> <Gold.Chemscore.Internal_Hbond>
0.0000

> <Gold.Chemscore.DEClash>
0.0187

> <Gold.Chemscore.DEInternal>
0.6258

> <Gold.Chemscore.Rot>
1.5213

> <Gold.Chemscore.Internal.Correction>
   9.000000E+99

> <Gold.Chemscore.Hbonds>
donor molecule, donor type, donor heavy atom, donor atom, acceptor molecule, acceptor atom, score
      L1  H    12    33       P1  7948  0.99
      P1  H  7989  7998       L1    17  0.84

> <Gold.Chemscore.Hbond.Weighted>
-6.5810

> <Gold.Chemscore.Metal.Weighted>
-0.0000

> <Gold.Chemscore.Lipo.Weighted>
-9.0455

> <Gold.Chemscore.Internal_Hbond.Weighted>
0.0000

> <Gold.Chemscore.DEClash.Weighted>
0.0187

> <Gold.Chemscore.DEInternal.Weighted>
0.6258

> <Gold.Chemscore.Rot.Weighted>
3.8945

> <Gold.Chemscore.Internal.Correction.Weighted>
   9.000000E+99

> <Gold.Protein.RotatedTorsions>
[ 6907 6896 6895 6894 ] final  120.70 input  -60.11 | X-H torsion
[ 7974 7965 7964 7962 ] final  100.52 input  175.53 | X-H torsion
[ 8008 7997 7996 7995 ] final  107.45 input   59.86 | X-H torsion
[ 10167 10162 10161 10158 ] final   57.79 input  -65.29 | X-H torsion
[ 10718 10713 10712 10709 ] final   49.54 input   66.30 | X-H torsion
[ 10763 10752 10751 10750 ] final -139.19 input  -60.55 | X-H torsion
[ 11005 11000 10999 10996 ] final   46.76 input  -57.11 | X-H torsion

> <Gold.Protein.ActiveResidues>
 VAL166  LYS551  ARG553  GLY616  TRP617  ASP618  TYR619  PRO620  LYS621  CYS622 
 ASP623  PHE694  ASN695  SER759  ASP760  ASP761  ALA762  ILE779  LEU786  VAL792 
 PHE793  MET794  SER795  GLU796  ALA797  LYS798  CYS799  TRP800  GLU811  SER814 

> <Gold.Protein.RotatedAtoms>
  152.4378  133.7393  159.6631 H   0  0  0  0  0  0  0  0  0  0  0  0  # atno 6907 bound_to 6896
  150.8264  133.8154  159.3123 H   0  0  0  0  0  0  0  0  0  0  0  0  # atno 6908 bound_to 6896
  151.5821  135.1060  160.0071 H   0  0  0  0  0  0  0  0  0  0  0  0  # atno 6909 bound_to 6896
  145.3845  139.2374  143.3385 H   0  0  0  0  0  0  0  0  0  0  0  0  # atno 7974 bound_to 7965
  156.1825  140.3094  155.9176 H   0  0  0  0  0  0  0  0  0  0  0  0  # atno 8008 bound_to 7997
  155.3352  140.0463  157.3060 H   0  0  0  0  0  0  0  0  0  0  0  0  # atno 8009 bound_to 7997
  154.5359  140.2246  155.8734 H   0  0  0  0  0  0  0  0  0  0  0  0  # atno 8010 bound_to 7997
  140.1942  144.4054  150.6557 H   0  0  0  0  0  0  0  0  0  0  0  0  # atno 10167 bound_to 10162
  157.4796  130.8307  149.8079 H   0  0  0  0  0  0  0  0  0  0  0  0  # atno 10718 bound_to 10713
  154.8616  135.3590  154.5506 H   0  0  0  0  0  0  0  0  0  0  0  0  # atno 10763 bound_to 10752
  153.6124  135.7009  153.5346 H   0  0  0  0  0  0  0  0  0  0  0  0  # atno 10764 bound_to 10752
  153.3198  135.4154  155.1367 H   0  0  0  0  0  0  0  0  0  0  0  0  # atno 10765 bound_to 10752
  140.1340  134.4669  155.8500 H   0  0  0  0  0  0  0  0  0  0  0  0  # atno 11005 bound_to 11000
  146.2827  140.4518  142.8770 LP  0  0  0  0  0  0  0  0  0  0  0  0  # atno 17320 bound_to 7965
  144.8484  140.6964  143.6184 LP  0  0  0  0  0  0  0  0  0  0  0  0  # atno 17321 bound_to 7965
  140.6435  143.2208  151.6238 LP  0  0  0  0  0  0  0  0  0  0  0  0  # atno 17342 bound_to 10162
  139.5243  144.3107  152.0995 LP  0  0  0  0  0  0  0  0  0  0  0  0  # atno 17343 bound_to 10162
  156.0115  130.3831  150.2250 LP  0  0  0  0  0  0  0  0  0  0  0  0  # atno 17370 bound_to 10713
  157.0435  131.0042  151.3276 LP  0  0  0  0  0  0  0  0  0  0  0  0  # atno 17371 bound_to 10713
  141.2175  133.6807  156.7122 LP  0  0  0  0  0  0  0  0  0  0  0  0  # atno 17394 bound_to 11000
  140.2806  134.8319  157.3930 LP  0  0  0  0  0  0  0  0  0  0  0  0  # atno 17395 bound_to 11000

$$$$
